
  SciTegic01091216402D

 22 24  0  0  0  0            999 V2000
   16.7242   -4.5718    0.0000 N   0  0
   16.7230   -5.3985    0.0000 C   0  0
   17.4373   -5.8111    0.0000 N   0  0
   17.4355   -4.1592    0.0000 C   0  0
   18.1504   -4.5681    0.0000 C   0  0
   18.1552   -5.3940    0.0000 C   0  0
   18.9422   -5.6446    0.0000 C   0  0
   19.4238   -4.9736    0.0000 C   0  0
   18.9344   -4.3083    0.0000 S   0  0
   20.2461   -4.9682    0.0000 C   0  0
   20.6619   -5.6814    0.0000 C   0  0
   21.4856   -5.6769    0.0000 C   0  0
   21.8945   -4.9600    0.0000 C   0  0
   21.4736   -4.2461    0.0000 C   0  0
   20.6513   -4.2541    0.0000 C   0  0
   22.7188   -4.9540    0.0000 S   0  0
   17.4331   -3.3348    0.0000 S   0  0
   16.7179   -2.9247    0.0000 C   0  0
   16.7154   -2.1003    0.0000 C   0  0
   17.4279   -1.6842    0.0000 O   0  0
   16.0000   -1.6885    0.0000 O   0  0
   23.1362   -5.6650    0.0000 C   0  0
 10 11  2  0
 11 12  1  0
  2  3  1  0
 12 13  2  0
  3  6  2  0
 13 14  1  0
  1  2  2  0
 14 15  2  0
 15 10  1  0
  8 10  1  0
  5  4  2  0
 13 16  1  0
  6  7  1  0
  4 17  1  0
  7  8  2  0
 17 18  1  0
  8  9  1  0
 18 19  1  0
  9  5  1  0
  4  1  1  0
 19 20  1  0
 19 21  2  0
  5  6  1  0
 16 22  1  0
M  END