
  SciTegic02181312462D

 28 31  0  0  0  0            999 V2000
   39.7491   -6.3627    0.0000 C   0  0
   40.4587   -5.9533    0.0000 C   0  0
   40.4559   -5.1306    0.0000 C   0  0
   39.7473   -4.7254    0.0000 C   0  0
   39.0410   -5.9538    0.0000 N   0  0
   39.0422   -5.1327    0.0000 C   0  0
   38.2617   -4.8778    0.0000 N   0  0
   37.7781   -5.5414    0.0000 C   0  0
   38.2598   -6.2063    0.0000 C   0  0
   36.9609   -5.5402    0.0000 N   0  0
   36.5513   -6.2473    0.0000 C   0  0
   35.7341   -6.2461    0.0000 C   0  0
   36.9588   -6.9556    0.0000 O   0  0
   35.3296   -5.5366    0.0000 C   0  0
   34.5132   -5.5351    0.0000 C   0  0
   34.1027   -6.2427    0.0000 C   0  0
   34.5147   -6.9534    0.0000 C   0  0
   35.3298   -6.9514    0.0000 C   0  0
   33.2855   -6.2426    0.0000 C   0  0
   32.8770   -5.5349    0.0000 C   0  0
   32.8768   -6.9503    0.0000 C   0  0
   32.7578   -6.2362    0.0000 C   0  0
   41.1636   -6.3600    0.0000 C   0  0
   41.1635   -7.1783    0.0000 C   0  0
   41.8710   -7.5857    0.0000 C   0  0
   42.5791   -7.1760    0.0000 C   0  0
   42.5752   -6.3546    0.0000 C   0  0
   41.8671   -5.9508    0.0000 C   0  0
  5  1  1  0
  1  2  2  0
  2  3  1  0
  3  4  2  0
  4  6  1  0
  5  6  1  0
  6  7  2  0
  7  8  1  0
  8  9  2  0
  9  5  1  0
  8 10  1  0
 10 11  1  0
 11 12  1  0
 11 13  2  0
 12 14  2  0
 14 15  1  0
 15 16  2  0
 16 17  1  0
 17 18  2  0
 18 12  1  0
 16 19  1  0
 19 20  1  0
 19 21  1  0
 19 22  1  0
 23 24  2  0
 24 25  1  0
 25 26  2  0
 26 27  1  0
 27 28  2  0
 28 23  1  0
  2 23  1  0
M  END