
  Mrv0541 04051115152D          

 27 31  0  0  0  0            999 V2000
   -2.5334   -3.4043    0.0000 C   0  0  0  0  0  0  0  0  0  0  0  0
   -2.5334   -2.5793    0.0000 C   0  0  0  0  0  0  0  0  0  0  0  0
   -3.2478   -2.1668    0.0000 C   0  0  0  0  0  0  0  0  0  0  0  0
   -3.2478   -1.3418    0.0000 C   0  0  0  0  0  0  0  0  0  0  0  0
   -2.5334   -0.9293    0.0000 C   0  0  0  0  0  0  0  0  0  0  0  0
   -1.8189   -1.3418    0.0000 C   0  0  0  0  0  0  0  0  0  0  0  0
   -1.8189   -2.1668    0.0000 N   0  0  0  0  0  0  0  0  0  0  0  0
   -1.1044   -0.9293    0.0000 C   0  0  0  0  0  0  0  0  0  0  0  0
   -1.1044   -0.1043    0.0000 N   0  0  0  0  0  0  0  0  0  0  0  0
   -0.3900    0.3082    0.0000 C   0  0  0  0  0  0  0  0  0  0  0  0
   -0.3900    1.1332    0.0000 N   0  0  0  0  0  0  0  0  0  0  0  0
    0.3245    1.5457    0.0000 C   0  0  0  0  0  0  0  0  0  0  0  0
    0.3245    2.3707    0.0000 C   0  0  0  0  0  0  0  0  0  0  0  0
    1.0390    2.7832    0.0000 C   0  0  0  0  0  0  0  0  0  0  0  0
    1.7535    2.3707    0.0000 C   0  0  0  0  0  0  0  0  0  0  0  0
    2.5381    2.6257    0.0000 N   0  0  0  0  0  0  0  0  0  0  0  0
    3.0230    1.9582    0.0000 N   0  0  0  0  0  0  0  0  0  0  0  0
    2.5381    1.2908    0.0000 C   0  0  0  0  0  0  0  0  0  0  0  0
    1.7535    1.5457    0.0000 C   0  0  0  0  0  0  0  0  0  0  0  0
    1.0390    1.1332    0.0000 C   0  0  0  0  0  0  0  0  0  0  0  0
    0.3245   -0.1043    0.0000 C   0  0  0  0  0  0  0  0  0  0  0  0
    1.0390    0.3082    0.0000 C   0  0  0  0  0  0  0  0  0  0  0  0
    1.7535   -0.1043    0.0000 C   0  0  0  0  0  0  0  0  0  0  0  0
    1.7535   -0.9293    0.0000 C   0  0  0  0  0  0  0  0  0  0  0  0
    1.0390   -1.3418    0.0000 C   0  0  0  0  0  0  0  0  0  0  0  0
    0.3245   -0.9293    0.0000 C   0  0  0  0  0  0  0  0  0  0  0  0
   -0.3900   -1.3418    0.0000 N   0  0  0  0  0  0  0  0  0  0  0  0
  1  2  1  0  0  0  0
  2  3  2  0  0  0  0
  2  7  1  0  0  0  0
  3  4  1  0  0  0  0
  4  5  2  0  0  0  0
  5  6  1  0  0  0  0
  6  7  2  0  0  0  0
  6  8  1  0  0  0  0
  8  9  2  0  0  0  0
  8 27  1  0  0  0  0
 10  9  1  0  0  0  0
 10 11  1  0  0  0  0
 10 21  2  0  0  0  0
 12 11  1  0  0  0  0
 12 13  2  0  0  0  0
 12 20  1  0  0  0  0
 13 14  1  0  0  0  0
 14 15  2  0  0  0  0
 15 16  1  0  0  0  0
 15 19  1  0  0  0  0
 16 17  1  0  0  0  0
 18 17  2  0  0  0  0
 18 19  1  0  0  0  0
 19 20  2  0  0  0  0
 21 22  1  0  0  0  0
 21 26  1  0  0  0  0
 22 23  2  0  0  0  0
 23 24  1  0  0  0  0
 24 25  2  0  0  0  0
 25 26  1  0  0  0  0
 26 27  2  0  0  0  0
M  END