
  SciTegic          2D

 31 34  0  0  0  0            999 V2000
    7.1447   -3.3000    0.0000 F   0  0
    7.1447   -4.1250    0.0000 C   0  0
    7.8592   -4.5375    0.0000 C   0  0
    7.8592   -5.3625    0.0000 C   0  0
    7.1447   -5.7750    0.0000 C   0  0
    6.4302   -5.3625    0.0000 C   0  0
    5.7158   -5.7750    0.0000 C   0  0
    5.7158   -6.6000    0.0000 O   0  0
    5.0013   -7.0125    0.0000 C   0  0
    5.0013   -7.8375    0.0000 C   0  0
    4.2868   -8.2500    0.0000 C   0  0
    3.5724   -7.8375    0.0000 C   0  0
    2.8579   -8.2500    0.0000 N   0  0
    2.8579   -9.0750    0.0000 C   0  0
    3.5724   -9.4875    0.0000 N   0  0
    3.5724  -10.3125    0.0000 C   0  0
    2.8579  -10.7250    0.0000 N   0  0
    2.1434  -10.3125    0.0000 C   0  0
    2.1434   -9.4875    0.0000 C   0  0
    1.4289   -9.0750    0.0000 C   0  0
    0.7145   -8.6625    0.0000 C   0  0
    0.0000   -8.2500    0.0000 C   0  0
   -0.7145   -8.6625    0.0000 C   0  0
   -1.4289   -8.2500    0.0000 C   0  0
   -1.4289   -7.4250    0.0000 C   0  0
   -0.7145   -7.0125    0.0000 C   0  0
    0.0000   -7.4250    0.0000 C   0  0
    3.5724   -7.0125    0.0000 C   0  0
    4.2868   -6.6000    0.0000 C   0  0
    4.2868   -5.7750    0.0000 Cl  0  0
    6.4302   -4.5375    0.0000 C   0  0
  1  2  1  0
  2  3  2  0
  3  4  1  0
  4  5  2  0
  5  6  1  0
  6  7  1  0
  7  8  1  0
  8  9  1  0
  9 10  2  0
 10 11  1  0
 11 12  2  0
 12 13  1  0
 13 14  1  0
 14 15  2  0
 15 16  1  0
 16 17  2  0
 17 18  1  0
 18 19  2  0
 14 19  1  0
 19 20  1  0
 20 21  3  0
 21 22  1  0
 22 23  2  0
 23 24  1  0
 24 25  2  0
 25 26  1  0
 26 27  2  0
 22 27  1  0
 12 28  1  0
 28 29  2  0
  9 29  1  0
 29 30  1  0
  6 31  2  0
  2 31  1  0
M  END