
          11280714552D 1   1.00000     0.00000     0

 31 34  0     0  0            999 V2000
    2.1292   -4.5625    0.0000 N   0  0  3  0  0  0           0  0  0
    4.2792   -4.1500    0.0000 N   0  0  3  0  0  0           0  0  0
    5.7042   -3.3292    0.0000 N   0  0  3  0  0  0           0  0  0
    2.1292   -5.3875    0.0000 C   0  0  0  0  0  0           0  0  0
    7.1375   -3.3375    0.0000 C   0  0  0  0  0  0           0  0  0
    2.8500   -4.1500    0.0000 C   0  0  0  0  0  0           0  0  0
    1.4167   -4.1500    0.0000 C   0  0  0  0  0  0           0  0  0
    7.8542   -2.9250    0.0000 C   0  0  0  0  0  0           0  0  0
    3.5625   -4.5625    0.0000 C   0  0  0  0  0  0           0  0  0
    4.9917   -4.5625    0.0000 C   0  0  0  0  0  0           0  0  0
    4.2750   -3.3250    0.0000 C   0  0  0  0  0  0           0  0  0
    4.9917   -2.9167    0.0000 C   0  0  0  0  0  0           0  0  0
    5.7042   -4.1542    0.0000 C   0  0  0  0  0  0           0  0  0
    6.4250   -2.9167    0.0000 C   0  0  0  0  0  0           0  0  0
    1.4250   -5.7917    0.0000 C   0  0  0  0  0  0           0  0  0
    8.5667   -3.3417    0.0000 C   0  0  0  0  0  0           0  0  0
    1.4250   -3.3250    0.0000 C   0  0  0  0  0  0           0  0  0
    0.7125   -4.5667    0.0000 C   0  0  0  0  0  0           0  0  0
    1.4250   -6.6125    0.0000 C   0  0  0  0  0  0           0  0  0
    0.7125   -5.3792    0.0000 C   0  0  0  0  0  0           0  0  0
    8.5542   -4.1667    0.0000 C   0  0  0  0  0  0           0  0  0
    9.2750   -2.9292    0.0000 C   0  0  0  0  0  0           0  0  0
   -0.0083   -4.1500    0.0000 C   0  0  0  0  0  0           0  0  0
    0.7167   -2.9125    0.0000 C   0  0  0  0  0  0           0  0  0
    0.0042   -5.7875    0.0000 C   0  0  0  0  0  0           0  0  0
    9.2667   -4.5792    0.0000 C   0  0  0  0  0  0           0  0  0
    9.9875   -3.3417    0.0000 C   0  0  0  0  0  0           0  0  0
    0.7167   -7.0167    0.0000 C   0  0  0  0  0  0           0  0  0
    9.9875   -4.1667    0.0000 C   0  0  0  0  0  0           0  0  0
    0.0000   -6.6042    0.0000 C   0  0  0  0  0  0           0  0  0
    0.0000   -3.3250    0.0000 C   0  0  0  0  0  0           0  0  0
  2  9  1  0     0  0
  3 12  1  0     0  0
  4  1  1  0     0  0
  5 14  1  0     0  0
  6  1  1  0     0  0
  7  1  1  0     0  0
  8  5  2  0     0  0
  9  6  1  0     0  0
 10  2  1  0     0  0
 11  2  1  0     0  0
 12 11  1  0     0  0
 13 10  1  0     0  0
 14  3  1  0     0  0
 15  4  1  0     0  0
 16  8  1  0     0  0
 17  7  1  0     0  0
 18  7  2  0     0  0
 19 15  1  0     0  0
 20 15  2  0     0  0
 21 16  2  0     0  0
 22 16  1  0     0  0
 23 18  1  0     0  0
 24 17  2  0     0  0
 25 20  1  0     0  0
 26 21  1  0     0  0
 27 22  2  0     0  0
 28 19  2  0     0  0
 29 27  1  0     0  0
 30 25  2  0     0  0
 31 23  2  0     0  0
 24 31  1  0     0  0
 13  3  1  0     0  0
 30 28  1  0     0  0
 26 29  2  0     0  0
M  END