
  SciTegic06051315212D

 26 29  0  0  0  0            999 V2000
   20.2028  -14.3586    0.0000 O   0  0
   20.9168  -13.9459    0.0000 S   0  0
   20.2074  -13.5375    0.0000 O   0  0
   22.5578  -15.3628    0.0000 C   0  0
   23.3800  -15.3655    0.0000 C   0  0
   23.7882  -14.6518    0.0000 C   0  0
   23.3806  -13.9463    0.0000 C   0  0
   22.1469  -14.6538    0.0000 C   0  0
   22.5575  -13.9485    0.0000 C   0  0
   21.3262  -14.6522    0.0000 N   0  0
   21.3293  -13.2378    0.0000 C   0  0
   22.1470  -13.2364    0.0000 C   0  0
   22.4008  -12.4606    0.0000 N   0  0
   21.7341  -11.9850    0.0000 N   0  0
   21.0761  -12.4620    0.0000 C   0  0
   20.9054  -15.3683    0.0000 C   0  0
   23.1771  -12.2054    0.0000 C   0  0
   24.6054  -14.6500    0.0000 N   0  0
   25.0155  -15.3569    0.0000 C   0  0
   25.8327  -15.3551    0.0000 C   0  0
   26.2397  -16.0628    0.0000 C   0  0
   27.0562  -16.0614    0.0000 C   0  0
   27.4641  -15.3523    0.0000 C   0  0
   27.0495  -14.6431    0.0000 C   0  0
   26.2345  -14.6480    0.0000 C   0  0
   28.2812  -15.3494    0.0000 F   0  0
  2  1  2  0
  3  2  2  0
  8  4  2  0
  4  5  1  0
  5  6  2  0
  6  7  1  0
  7  9  2  0
  8  9  1  0
  8 10  1  0
  9 12  1  0
 11  2  1  0
  2 10  1  0
 11 12  2  0
 12 13  1  0
 13 14  1  0
 14 15  2  0
 15 11  1  0
 10 16  1  0
 13 17  1  0
  6 18  1  0
 18 19  1  0
 19 20  1  0
 20 21  2  0
 21 22  1  0
 22 23  2  0
 23 24  1  0
 24 25  2  0
 25 20  1  0
 23 26  1  0
M  END