
          11280714542D 1   1.00000     0.00000     0

 34 37  0     0  0            999 V2000
    4.7292   -5.2250    0.0000 N   0  0  3  0  0  0           0  0  0
    6.1542   -6.0417    0.0000 N   0  0  3  0  0  0           0  0  0
    1.8750   -5.2250    0.0000 C   0  0  3  0  0  0           0  0  0
    1.8750   -6.0500    0.0000 C   0  0  0  0  0  0           0  0  0
    1.1542   -4.8125    0.0000 C   0  0  0  0  0  0           0  0  0
    1.1625   -6.4542    0.0000 C   0  0  0  0  0  0           0  0  0
    2.5917   -6.4542    0.0000 C   0  0  0  0  0  0           0  0  0
    1.1625   -3.9875    0.0000 C   0  0  0  0  0  0           0  0  0
    0.4500   -5.2292    0.0000 C   0  0  0  0  0  0           0  0  0
    5.4375   -4.8042    0.0000 C   0  0  0  0  0  0           0  0  0
    5.4292   -6.4542    0.0000 C   0  0  0  0  0  0           0  0  0
    4.7250   -6.0417    0.0000 C   0  0  0  0  0  0           0  0  0
    6.1542   -5.2167    0.0000 C   0  0  0  0  0  0           0  0  0
   -0.2625   -3.9875    0.0000 C   0  0  0  0  0  0           0  0  0
    1.8667   -7.6917    0.0000 C   0  0  0  0  0  0           0  0  0
   10.4417   -5.2417    0.0000 C   0  0  0  0  0  0           0  0  0
    2.5875   -4.8125    0.0000 O   0  0  0  0  0  0           0  0  0
    0.4542   -3.5750    0.0000 C   0  0  0  0  0  0           0  0  0
    1.1542   -7.2792    0.0000 C   0  0  0  0  0  0           0  0  0
   -0.2708   -4.8125    0.0000 C   0  0  0  0  0  0           0  0  0
    2.5875   -7.2792    0.0000 C   0  0  0  0  0  0           0  0  0
    9.0042   -6.0542    0.0000 C   0  0  0  0  0  0           0  0  0
   11.1542   -4.8375    0.0000 Cl  0  0  0  0  0  0           0  0  0
   -0.9833   -3.5667    0.0000 F   0  0  0  0  0  0           0  0  0
    1.8667   -8.5167    0.0000 F   0  0  0  0  0  0           0  0  0
   10.4292   -6.0667    0.0000 C   0  0  0  0  0  0           0  0  0
    9.7292   -4.8292    0.0000 C   0  0  0  0  0  0           0  0  0
    9.7167   -6.4792    0.0000 C   0  0  0  0  0  0           0  0  0
    9.0042   -5.2375    0.0000 C   0  0  0  0  0  0           0  0  0
    4.0167   -4.8125    0.0000 C   0  0  0  0  0  0           0  0  0
    6.8667   -6.4625    0.0000 C   0  0  0  0  0  0           0  0  0
    3.3000   -5.2250    0.0000 C   0  0  0  0  0  0           0  0  0
    7.5792   -6.0542    0.0000 C   0  0  0  0  0  0           0  0  0
    8.2917   -6.4667    0.0000 C   0  0  0  0  0  0           0  0  0
  2 11  1  0     0  0
  3 17  1  0     0  0
  4  3  1  0     0  0
  5  3  1  0     0  0
  6  4  2  0     0  0
  7  4  1  0     0  0
  8  5  1  0     0  0
  9  5  2  0     0  0
 10  1  1  0     0  0
 11 12  1  0     0  0
 12  1  1  0     0  0
 13 10  1  0     0  0
 14 20  2  0     0  0
 15 21  1  0     0  0
 16 27  1  0     0  0
 17 32  1  0     0  0
 18  8  2  0     0  0
 19  6  1  0     0  0
 20  9  1  0     0  0
 21  7  2  0     0  0
 22 34  1  0     0  0
 23 16  1  0     0  0
 24 14  1  0     0  0
 25 15  1  0     0  0
 26 28  1  0     0  0
 27 29  2  0     0  0
 28 22  2  0     0  0
 29 22  1  0     0  0
 30  1  1  0     0  0
 31  2  1  0     0  0
 32 30  1  0     0  0
 33 31  1  0     0  0
 34 33  1  0     0  0
 13  2  1  0     0  0
 18 14  1  0     0  0
 19 15  2  0     0  0
 26 16  2  0     0  0
M  END