
  SciTegic02181312462D

 36 40  0  0  0  0            999 V2000
   25.9080   -8.2916    0.0000 C   0  0
   26.3247   -9.0083    0.0000 C   0  0
   26.7370   -8.2891    0.0000 C   0  0
   18.4787   -9.4359    0.0000 N   0  0
   19.1951   -9.0226    0.0000 C   0  0
   19.1922   -8.1920    0.0000 N   0  0
   18.4769   -7.7830    0.0000 C   0  0
   17.7638   -9.0231    0.0000 C   0  0
   17.7651   -8.1942    0.0000 C   0  0
   16.9772   -7.9368    0.0000 N   0  0
   16.4889   -8.6067    0.0000 C   0  0
   16.9752   -9.2779    0.0000 S   0  0
   19.9102   -9.4340    0.0000 N   0  0
   20.6241   -9.0204    0.0000 C   0  0
   21.3358   -9.4322    0.0000 C   0  0
   22.0491   -9.0193    0.0000 C   0  0
   22.0482   -8.1934    0.0000 C   0  0
   21.3281   -7.7822    0.0000 C   0  0
   20.6177   -8.1974    0.0000 C   0  0
   19.9006   -7.7896    0.0000 C   0  0
   22.7640   -9.4310    0.0000 N   0  0
   23.4780   -9.0176    0.0000 C   0  0
   24.1929   -9.4293    0.0000 C   0  0
   23.4771   -8.1926    0.0000 O   0  0
   24.1895  -10.2551    0.0000 C   0  0
   24.9035  -10.6667    0.0000 C   0  0
   25.6186  -10.2534    0.0000 C   0  0
   25.6151   -9.4242    0.0000 C   0  0
   24.9004   -9.0162    0.0000 C   0  0
   15.6639   -8.6056    0.0000 N   0  0
   15.2504   -9.3194    0.0000 C   0  0
   14.4254   -9.3182    0.0000 C   0  0
   15.6618  -10.0345    0.0000 O   0  0
   24.8963   -8.1913    0.0000 Cl  0  0
   27.0440   -9.4176    0.0000 C   0  0
   27.7584   -9.8244    0.0000 N   0  0
  2  1  1  0
  3  2  1  0
  1  3  1  0
  8  4  1  0
  4  5  2  0
  5  6  1  0
  6  7  2  0
  7  9  1  0
  8  9  2  0
  9 10  1  0
 10 11  2  0
 11 12  1  0
 12  8  1  0
  5 13  1  0
 13 14  1  0
 14 15  2  0
 15 16  1  0
 16 17  2  0
 17 18  1  0
 18 19  2  0
 19 14  1  0
 19 20  1  0
 16 21  1  0
 21 22  1  0
 22 23  1  0
 22 24  2  0
 23 25  2  0
 25 26  1  0
 26 27  2  0
 27 28  1  0
 28 29  2  0
 29 23  1  0
 11 30  1  0
 30 31  1  0
 31 32  1  0
 31 33  2  0
 29 34  1  0
 28  2  1  0
  2 35  1  0
 35 36  3  0
M  END