
  SciTegic10311316292D

 39 43  0  0  0  0            999 V2000
   20.3596   -0.3508    0.0000 F   0  0
   19.6539   -0.7635    0.0000 C   0  0
   20.3642   -1.1684    0.0000 F   0  0
   13.6143   -0.3797    0.0000 C   0  0
   13.6132   -1.1992    0.0000 C   0  0
   14.3212   -1.6082    0.0000 C   0  0
   15.0309   -1.1987    0.0000 C   0  0
   15.0280   -0.3761    0.0000 C   0  0
   14.3194    0.0368    0.0000 C   0  0
   15.7392   -1.6062    0.0000 N   0  0
   16.4463   -1.1965    0.0000 C   0  0
   15.7342    0.0391    0.0000 O   0  0
   15.7311    0.8563    0.0000 C   0  0
   12.9065    0.0290    0.0000 C   0  0
   12.9063    0.8462    0.0000 O   0  0
   12.1989   -0.3800    0.0000 N   0  0
   11.4911    0.0294    0.0000 C   0  0
   17.1513   -1.6044    0.0000 N   0  0
   17.1437    0.0361    0.0000 C   0  0
   16.4401   -0.3814    0.0000 N   0  0
   17.8629   -1.1943    0.0000 C   0  0
   17.8570   -0.3773    0.0000 C   0  0
   18.4947    0.1466    0.0000 N   0  0
   18.5110   -1.7010    0.0000 N   0  0
   19.2962   -0.0285    0.0000 C   0  0
   19.3105   -1.5094    0.0000 C   0  0
   18.3366   -2.4978    0.0000 C   0  0
   17.5885   -2.8266    0.0000 C   0  0
   17.6701   -3.6397    0.0000 C   0  0
   18.4686   -3.8135    0.0000 C   0  0
   18.8805   -3.1077    0.0000 C   0  0
   18.3029    0.9370    0.0000 C   0  0
   19.7988    0.6223    0.0000 O   0  0
   11.4893    0.8581    0.0000 C   0  0
   10.7856    1.2670    0.0000 C   0  0
   10.0818    0.8550    0.0000 N   0  0
   10.0753    0.0388    0.0000 C   0  0
   10.7820   -0.3774    0.0000 C   0  0
    9.3760    1.2687    0.0000 C   0  0
  2  1  1  0
  3  2  1  0
  4  5  2  0
  5  6  1  0
  6  7  2  0
  7  8  1  0
  8  9  2  0
  9  4  1  0
  7 10  1  0
 10 11  1  0
  8 12  1  0
 12 13  1  0
  4 14  1  0
 14 15  2  0
 14 16  1  0
 16 17  1  0
 11 18  2  0
 18 21  1  0
 22 19  1  0
 19 20  2  0
 20 11  1  0
 21 22  2  0
 22 23  1  0
 21 24  1  0
 23 25  1  0
 24 26  1  0
 25  2  1  0
 26  2  1  0
 27 28  1  0
 28 29  1  0
 29 30  1  0
 30 31  1  0
 31 27  1  0
 24 27  1  0
 23 32  1  0
 25 33  2  0
 17 34  1  0
 17 38  1  0
 34 35  1  0
 35 36  1  0
 36 37  1  0
 37 38  1  0
 36 39  1  0
M  END