
  SciTegic01161211222D

 25 27  0  0  0  0            999 V2000
    5.1081   -3.2110    0.0000 F   0  0
    5.1063   -1.5580    0.0000 N   0  0
    5.8216   -1.9672    0.0000 C   0  0
    5.8224   -2.7940    0.0000 C   0  0
    6.5377   -3.2050    0.0000 C   0  0
    7.2527   -2.7902    0.0000 C   0  0
    7.2480   -1.9602    0.0000 C   0  0
    6.5321   -1.5530    0.0000 C   0  0
    4.3932   -2.7982    0.0000 C   0  0
    4.3956   -1.9726    0.0000 C   0  0
    3.6829   -1.5596    0.0000 C   0  0
    2.9674   -1.9711    0.0000 C   0  0
    2.9691   -2.7998    0.0000 C   0  0
    3.6824   -3.2090    0.0000 C   0  0
    2.2556   -3.2140    0.0000 I   0  0
    6.5394   -4.0300    0.0000 F   0  0
    6.5277   -0.7280    0.0000 C   0  0
    5.8083   -0.3125    0.0000 O   0  0
    7.2375   -0.3083    0.0000 N   0  0
    7.9562   -0.7134    0.0000 O   0  0
    8.6664   -0.2935    0.0000 C   0  0
    9.3851   -0.6986    0.0000 C   0  0
    9.8066   -1.4055    0.0000 C   0  0
   10.2116   -0.6868    0.0000 C   0  0
    3.6842   -0.7346    0.0000 Cl  0  0
  5  6  2  0
 12 13  2  0
  1  4  1  0
 13 14  1  0
 14  9  2  0
  6  7  1  0
 13 15  1  0
  5 16  1  0
  7  8  2  0
  8 17  1  0
  8  3  1  0
 17 18  2  0
  3  4  2  0
 17 19  1  0
  3  2  1  0
 19 20  1  0
  9 10  1  0
 20 21  1  0
  4  5  1  0
 21 22  1  0
 23 22  1  0
 24 23  1  0
 22 24  1  0
 10 11  2  0
  2 10  1  0
 11 12  1  0
 11 25  1  0
M  END