
  SciTegic10191216062D

 26 29  0  0  0  0            999 V2000
   -3.0356  -17.5774    0.0000 C   0  0
   -3.0369  -18.4038    0.0000 C   0  0
   -2.3250  -18.8161    0.0000 C   0  0
   -2.3270  -17.1653    0.0000 C   0  0
   -3.7508  -18.8147    0.0000 C   0  0
   -4.4636  -18.4017    0.0000 O   0  0
   -3.7520  -19.6384    0.0000 N   0  0
   -4.4661  -20.0492    0.0000 C   0  0
   -1.6100  -17.5735    0.0000 C   0  0
   -1.6095  -18.4038    0.0000 C   0  0
   -0.8204  -17.3165    0.0000 C   0  0
   -0.8243  -18.6592    0.0000 N   0  0
   -0.3329  -17.9875    0.0000 C   0  0
    0.5042  -17.9499    0.0000 C   0  0
   -0.6020  -19.4671    0.0000 C   0  0
    1.0558  -18.5763    0.0000 N   0  0
    0.1682  -19.7960    0.0000 C   0  0
    0.9040  -19.3972    0.0000 C   0  0
   -5.1778  -19.6332    0.0000 C   0  0
   -5.8912  -20.0435    0.0000 C   0  0
   -5.8929  -20.8681    0.0000 C   0  0
   -5.1751  -21.2807    0.0000 N   0  0
   -4.4645  -20.8683    0.0000 C   0  0
    0.8265  -17.1918    0.0000 O   0  0
    0.2064  -20.6189    0.0000 C   0  0
   -0.4871  -21.0635    0.0000 N   0  0
  2  3  1  0
 12 13  1  0
  5  6  2  0
 13 14  1  0
  3 10  2  0
 12 15  1  0
  5  7  1  0
 14 16  1  0
  1  2  2  0
 15 17  1  0
  7  8  1  0
 16 18  1  0
 17 18  1  0
  9 10  1  0
  8 19  2  0
  9  4  2  0
 19 20  1  0
  4  1  1  0
 20 21  2  0
 21 22  1  0
 10 12  1  0
 22 23  2  0
 23  8  1  0
 13 11  2  0
 14 24  2  0
 11  9  1  0
 17 25  1  0
  2  5  1  0
 25 26  1  0
M  END