
          11280714542D 1   1.00000     0.00000     0

 34 37  0     0  0            999 V2000
    2.1292   -4.5625    0.0000 N   0  0  3  0  0  0           0  0  0
    4.9917   -4.5625    0.0000 N   0  0  3  0  0  0           0  0  0
    6.4125   -5.3917    0.0000 N   0  0  3  0  0  0           0  0  0
    1.4167   -4.1500    0.0000 C   0  0  0  0  0  0           0  0  0
    2.1292   -5.3875    0.0000 C   0  0  0  0  0  0           0  0  0
    1.4250   -3.3250    0.0000 C   0  0  0  0  0  0           0  0  0
    0.7125   -4.5667    0.0000 C   0  0  0  0  0  0           0  0  0
    5.6917   -5.8000    0.0000 C   0  0  0  0  0  0           0  0  0
    4.9875   -5.3875    0.0000 C   0  0  0  0  0  0           0  0  0
    6.4167   -4.5625    0.0000 C   0  0  0  0  0  0           0  0  0
    5.7000   -4.1417    0.0000 C   0  0  0  0  0  0           0  0  0
    1.4250   -5.7917    0.0000 C   0  0  0  0  0  0           0  0  0
    3.5625   -4.5625    0.0000 C   0  0  0  0  0  0           0  0  0
    0.0000   -3.3250    0.0000 C   0  0  0  0  0  0           0  0  0
    0.0000   -6.6042    0.0000 C   0  0  0  0  0  0           0  0  0
   -0.0083   -4.1500    0.0000 C   0  0  0  0  0  0           0  0  0
    0.7167   -2.9125    0.0000 C   0  0  0  0  0  0           0  0  0
    4.2792   -4.1500    0.0000 C   0  0  0  0  0  0           0  0  0
   -0.7208   -7.0167    0.0000 F   0  0  0  0  0  0           0  0  0
   -0.7208   -2.9042    0.0000 F   0  0  0  0  0  0           0  0  0
    2.8500   -4.1500    0.0000 C   0  0  0  0  0  0           0  0  0
    1.4250   -6.6125    0.0000 C   0  0  0  0  0  0           0  0  0
    0.7125   -5.3792    0.0000 C   0  0  0  0  0  0           0  0  0
    0.0042   -5.7875    0.0000 C   0  0  0  0  0  0           0  0  0
    0.7167   -7.0167    0.0000 C   0  0  0  0  0  0           0  0  0
    7.1292   -5.8042    0.0000 C   0  0  0  0  0  0           0  0  0
    9.2667   -5.4000    0.0000 C   0  0  0  0  0  0           0  0  0
    7.8417   -5.3917    0.0000 C   0  0  0  0  0  0           0  0  0
    8.5542   -5.8042    0.0000 C   0  0  0  0  0  0           0  0  0
    9.9792   -5.8167    0.0000 C   0  0  0  0  0  0           0  0  0
    9.2667   -4.5792    0.0000 C   0  0  0  0  0  0           0  0  0
    9.9792   -4.1667    0.0000 C   0  0  0  0  0  0           0  0  0
   10.7000   -5.4042    0.0000 C   0  0  0  0  0  0           0  0  0
   10.7000   -4.5792    0.0000 C   0  0  0  0  0  0           0  0  0
  2 18  1  0     0  0
  3 10  1  0     0  0
  4  1  1  0     0  0
  5  1  1  0     0  0
  6  4  1  0     0  0
  7  4  2  0     0  0
  8  9  1  0     0  0
  9  2  1  0     0  0
 10 11  1  0     0  0
 11  2  1  0     0  0
 12  5  1  0     0  0
 13 21  1  0     0  0
 14 16  2  0     0  0
 15 24  2  0     0  0
 16  7  1  0     0  0
 17  6  2  0     0  0
 18 13  1  0     0  0
 19 15  1  0     0  0
 20 14  1  0     0  0
 21  1  1  0     0  0
 22 12  1  0     0  0
 23 12  2  0     0  0
 24 23  1  0     0  0
 25 22  2  0     0  0
 26  3  1  0     0  0
 27 29  1  0     0  0
 28 26  1  0     0  0
 29 28  1  0     0  0
 30 27  2  0     0  0
 31 27  1  0     0  0
 32 31  2  0     0  0
 33 30  1  0     0  0
 34 32  1  0     0  0
 17 14  1  0     0  0
 25 15  1  0     0  0
  8  3  1  0     0  0
 33 34  2  0     0  0
M  END