
          11280714552D 1   1.00000     0.00000     0

 34 37  0     0  0            999 V2000
    4.7417   -3.7917    0.0000 N   0  0  3  0  0  0           0  0  0
    3.3167   -2.9750    0.0000 N   0  0  3  0  0  0           0  0  0
    0.4667   -2.9750    0.0000 C   0  0  3  0  0  0           0  0  0
    0.4667   -3.8000    0.0000 C   0  0  0  0  0  0           0  0  0
   -0.2500   -2.5625    0.0000 C   0  0  0  0  0  0           0  0  0
    6.1667   -3.8042    0.0000 C   0  0  0  0  0  0           0  0  0
    6.8875   -4.2167    0.0000 C   0  0  0  0  0  0           0  0  0
   -0.2458   -4.2042    0.0000 C   0  0  0  0  0  0           0  0  0
    1.1792   -4.2042    0.0000 C   0  0  0  0  0  0           0  0  0
   -0.2458   -1.7375    0.0000 C   0  0  0  0  0  0           0  0  0
   -0.9583   -2.9792    0.0000 C   0  0  0  0  0  0           0  0  0
    3.3167   -3.7917    0.0000 C   0  0  0  0  0  0           0  0  0
    4.7417   -2.9667    0.0000 C   0  0  0  0  0  0           0  0  0
    4.0292   -2.5542    0.0000 C   0  0  0  0  0  0           0  0  0
    4.0250   -4.2042    0.0000 C   0  0  0  0  0  0           0  0  0
    7.6000   -3.8042    0.0000 C   0  0  0  0  0  0           0  0  0
   -1.6708   -1.7375    0.0000 C   0  0  0  0  0  0           0  0  0
    0.4625   -5.4417    0.0000 C   0  0  0  0  0  0           0  0  0
    9.0292   -2.9917    0.0000 C   0  0  0  0  0  0           0  0  0
    5.4542   -4.2125    0.0000 C   0  0  0  0  0  0           0  0  0
    1.1792   -2.5625    0.0000 O   0  0  0  0  0  0           0  0  0
   -0.9583   -1.3250    0.0000 C   0  0  0  0  0  0           0  0  0
   -0.2500   -5.0292    0.0000 C   0  0  0  0  0  0           0  0  0
   -1.6750   -2.5625    0.0000 C   0  0  0  0  0  0           0  0  0
    1.1792   -5.0292    0.0000 C   0  0  0  0  0  0           0  0  0
    9.7500   -2.5875    0.0000 F   0  0  0  0  0  0           0  0  0
   -2.3875   -1.3167    0.0000 F   0  0  0  0  0  0           0  0  0
    0.4542   -6.2667    0.0000 F   0  0  0  0  0  0           0  0  0
    8.3042   -4.2292    0.0000 C   0  0  0  0  0  0           0  0  0
    7.6000   -2.9875    0.0000 C   0  0  0  0  0  0           0  0  0
    8.3167   -2.5792    0.0000 C   0  0  0  0  0  0           0  0  0
    9.0250   -3.8167    0.0000 C   0  0  0  0  0  0           0  0  0
    2.6042   -2.5625    0.0000 C   0  0  0  0  0  0           0  0  0
    1.8917   -2.9750    0.0000 C   0  0  0  0  0  0           0  0  0
  2 12  1  0     0  0
  3 21  1  0     0  0
  4  3  1  0     0  0
  5  3  1  0     0  0
  6 20  1  0     0  0
  7  6  2  0     0  0
  8  4  2  0     0  0
  9  4  1  0     0  0
 10  5  1  0     0  0
 11  5  2  0     0  0
 12 15  1  0     0  0
 13  1  1  0     0  0
 14 13  1  0     0  0
 15  1  1  0     0  0
 16  7  1  0     0  0
 17 24  2  0     0  0
 18 25  1  0     0  0
 19 31  1  0     0  0
 20  1  1  0     0  0
 21 34  1  0     0  0
 22 10  2  0     0  0
 23  8  1  0     0  0
 24 11  1  0     0  0
 25  9  2  0     0  0
 26 19  1  0     0  0
 27 17  1  0     0  0
 28 18  1  0     0  0
 29 16  2  0     0  0
 30 16  1  0     0  0
 31 30  2  0     0  0
 32 29  1  0     0  0
 33  2  1  0     0  0
 34 33  1  0     0  0
 14  2  1  0     0  0
 32 19  2  0     0  0
 22 17  1  0     0  0
 23 18  2  0     0  0
M  END