
  SciTegic01161211242D

 42 47  0  0  0  0            999 V2000
    4.1199   -1.4672    0.0000 C   0  0
    4.7878   -2.2114    0.0000 S   0  0
    4.0437   -2.8794    0.0000 O   0  0
    5.5320   -1.5434    0.0000 O   0  0
    5.4558   -2.9556    0.0000 C   0  0
    5.1453   -3.9062    0.0000 C   0  0
    5.8190   -4.6522    0.0000 C   0  0
    5.5085   -5.6029    0.0000 C   0  0
    4.5313   -5.8150    0.0000 C   0  0
    4.2250   -6.7669    0.0000 N   0  0
    4.8962   -7.5082    0.0000 C   0  0
    5.8780   -7.2936    0.0000 N   0  0
    6.5461   -8.0443    0.0000 C   0  0
    6.2355   -9.0002    0.0000 C   0  0
    5.2568   -9.2054    0.0000 C   0  0
    4.5856   -8.4640    0.0000 N   0  0
    4.9477  -10.1564    0.0000 C   0  0
    5.5397  -10.9710    0.0000 C   0  0
    4.9477  -11.7858    0.0000 N   0  0
    3.9899  -11.4745    0.0000 N   0  0
    3.1219  -11.9711    0.0000 N   0  0
    2.2539  -11.4732    0.0000 C   0  0
    2.2539  -10.4674    0.0000 C   0  0
    3.1219   -9.9595    0.0000 C   0  0
    3.9899  -10.4674    0.0000 C   0  0
    6.5397  -10.9709    0.0000 C   0  0
    7.0397  -10.0989    0.0000 C   0  0
    8.0397  -10.0988    0.0000 C   0  0
    8.5448  -10.9619    0.0000 C   0  0
    8.0449  -11.8339    0.0000 C   0  0
    8.5500  -12.6970    0.0000 N   0  0
    8.0552  -13.5659    0.0000 C   0  0
    7.0552  -13.5719    0.0000 O   0  0
    8.5603  -14.4290    0.0000 C   0  0
    8.0604  -15.3010    0.0000 C   0  0
    8.5655  -16.1641    0.0000 C   0  0
    9.5655  -16.1640    0.0000 C   0  0
   10.0655  -15.2919    0.0000 C   0  0
    9.5654  -14.4200    0.0000 C   0  0
    7.0398  -11.8429    0.0000 C   0  0
    3.8576   -5.0689    0.0000 C   0  0
    4.1612   -4.1107    0.0000 C   0  0
  1  2  1  0
  2  3  2  0
  2  4  2  0
  2  5  1  0
  5  6  1  0
  6 42  2  0
  6  7  1  0
  7  8  2  0
  8  9  1  0
  9 10  1  0
 10 11  1  0
 11 16  2  0
 11 12  1  0
 12 13  2  0
 13 14  1  0
 14 15  2  0
 15 16  1  0
 15 17  1  0
 17 25  2  0
 17 18  1  0
 18 19  2  0
 19 20  1  0
 20 25  1  0
 20 21  1  0
 21 22  2  0
 22 23  1  0
 23 24  2  0
 24 25  1  0
 18 26  1  0
 26 40  2  0
 26 27  1  0
 27 28  2  0
 28 29  1  0
 29 30  2  0
 30 31  1  0
 31 32  1  0
 32 33  2  0
 32 34  1  0
 34 39  1  0
 34 35  1  0
 35 36  1  0
 36 37  1  0
 37 38  1  0
 38 39  1  0
 30 40  1  0
  9 41  2  0
 41 42  1  0
M  END