
          11280714452D 1   1.00000     0.00000     0

 28 31  0     0  0            999 V2000
    0.4750   -2.0125    0.0000 S   0  0  3  0  0  0           0  0  0
    2.5542   -2.0042    0.0000 C   0  0  0  0  0  0           0  0  0
    2.5542   -1.4042    0.0000 N   0  0  3  0  0  0           0  0  0
    2.0292   -2.3042    0.0000 C   0  0  0  0  0  0           0  0  0
    3.0750   -2.3042    0.0000 C   0  0  0  0  0  0           0  0  0
   -0.0458   -2.3125    0.0000 N   0  0  3  0  0  0           0  0  0
    0.9917   -2.3125    0.0000 C   0  0  0  0  0  0           0  0  0
    2.0292   -2.9125    0.0000 C   0  0  0  0  0  0           0  0  0
    3.0792   -1.1042    0.0000 C   0  0  0  0  0  0           0  0  0
    1.5125   -2.0042    0.0000 C   0  0  0  0  0  0           0  0  0
    2.5542   -3.2125    0.0000 O   0  0  0  0  0  0           0  0  0
    3.0750   -2.9125    0.0000 C   0  0  3  0  0  0           0  0  0
    0.8417   -1.1875    0.0000 O   0  0  0  0  0  0           0  0  0
   -0.0333   -1.2167    0.0000 O   0  0  0  0  0  0           0  0  0
    2.0417   -1.1042    0.0000 C   0  0  0  0  0  0           0  0  0
    3.0792   -0.5125    0.0000 C   0  0  0  0  0  0           0  0  0
    0.9917   -2.9125    0.0000 C   0  0  0  0  0  0           0  0  0
    3.5917   -1.4167    0.0000 O   0  0  0  0  0  0           0  0  0
    1.5125   -3.2125    0.0000 C   0  0  0  0  0  0           0  0  0
    2.0417   -0.5042    0.0000 C   0  0  0  0  0  0           0  0  0
    2.5667   -0.2042    0.0000 C   0  0  0  0  0  0           0  0  0
   -1.0833   -2.9125    0.0000 O   0  0  0  0  0  0           0  0  0
   -0.5625   -2.0125    0.0000 C   0  0  0  0  0  0           0  0  0
   -0.0458   -2.9125    0.0000 C   0  0  0  0  0  0           0  0  0
    3.3667   -3.4292    0.0000 C   0  0  0  0  0  0           0  0  0
    3.6750   -2.9125    0.0000 C   0  0  0  0  0  0           0  0  0
   -0.5625   -3.2125    0.0000 C   0  0  0  0  0  0           0  0  0
   -1.0833   -2.3125    0.0000 C   0  0  0  0  0  0           0  0  0
  2  4  1  0     0  0
  3  2  1  0     0  0
  4 10  2  0     0  0
  5  2  2  0     0  0
  6  1  1  0     0  0
  7  1  1  0     0  0
  8 19  2  0     0  0
  9  3  1  0     0  0
 10  7  1  0     0  0
 11  8  1  0     0  0
 12 11  1  0     0  0
 13  1  2  0     0  0
 14  1  2  0     0  0
 15  3  1  0     0  0
 16  9  1  0     0  0
 17  7  2  0     0  0
 18  9  2  0     0  0
 19 17  1  0     0  0
 20 15  2  0     0  0
 21 20  1  0     0  0
 22 27  1  0     0  0
 23  6  1  0     0  0
 24  6  1  0     0  0
 25 12  1  0     0  0
 26 12  1  0     0  0
 27 24  1  0     0  0
 28 23  1  0     0  0
 28 22  1  0     0  0
  4  8  1  0     0  0
 12  5  1  0     0  0
 16 21  2  0     0  0
M  END