
  SciTegic          2D

 29 32  0  0  0  0            999 V2000
    4.7812    3.5854    0.0000 C   0  0
    4.0668    3.1729    0.0000 C   0  0
    4.0668    2.3479    0.0000 O   0  0
    3.3523    1.9354    0.0000 C   0  0
    3.3523    1.1104    0.0000 C   0  0
    2.6378    0.6979    0.0000 C   0  0
    1.9233    1.1104    0.0000 C   0  0
    1.1387    0.8555    0.0000 C   0  0
    0.6538    1.5229    0.0000 C   0  0
    1.1387    2.1904    0.0000 N   0  0
    1.9233    1.9354    0.0000 N   0  0
    2.6378    2.3479    0.0000 N   0  0
    0.8838    0.0709    0.0000 C   0  0
    1.4358   -0.5422    0.0000 C   0  0
    1.1809   -1.3268    0.0000 C   0  0
    0.3739   -1.4984    0.0000 N   0  0
   -0.1781   -0.8853    0.0000 C   0  0
   -0.9851   -1.0568    0.0000 N   0  0
   -1.2400   -1.8414    0.0000 C   0  0
   -0.6880   -2.4545    0.0000 C   0  0
   -0.9429   -3.2391    0.0000 C   0  0
   -1.7499   -3.4107    0.0000 C   0  0
   -2.3020   -2.7976    0.0000 C   0  0
   -2.0470   -2.0129    0.0000 C   0  0
   -3.1089   -2.9691    0.0000 C   0  0
   -3.9159   -3.1406    0.0000 F   0  0
   -3.2804   -2.1621    0.0000 F   0  0
   -2.9374   -3.7761    0.0000 F   0  0
    0.0768   -0.1006    0.0000 N   0  0
  1  2  1  0
  2  3  1  0
  3  4  1  0
  4  5  1  0
  5  6  2  0
  6  7  1  0
  7  8  2  0
  8  9  1  0
  9 10  2  0
 10 11  1  0
  7 11  1  0
 11 12  1  0
  4 12  2  0
  8 13  1  0
 13 14  2  0
 14 15  1  0
 15 16  2  0
 16 17  1  0
 17 18  1  0
 18 19  1  0
 19 20  2  0
 20 21  1  0
 21 22  2  0
 22 23  1  0
 23 24  2  0
 19 24  1  0
 23 25  1  0
 25 26  1  0
 25 27  1  0
 25 28  1  0
 17 29  2  0
 13 29  1  0
M  END