
  SciTegic01061111512D

 28 31  0  0  0  0            999 V2000
    7.8747  -25.3110    0.0000 N   0  0
    8.5912  -24.8977    0.0000 C   0  0
    8.5883  -24.0672    0.0000 N   0  0
    7.8729  -23.6580    0.0000 C   0  0
    7.1599  -24.8982    0.0000 C   0  0
    7.1612  -24.0692    0.0000 C   0  0
    6.3732  -23.8119    0.0000 N   0  0
    5.8849  -24.4818    0.0000 C   0  0
    6.3712  -25.1531    0.0000 C   0  0
    6.1194  -23.0269    0.0000 C   0  0
    7.8711  -22.8330    0.0000 O   0  0
    8.5847  -22.4190    0.0000 C   0  0
    9.2969  -22.8329    0.0000 C   0  0
   10.0100  -22.4195    0.0000 C   0  0
   10.0087  -21.5936    0.0000 C   0  0
    9.2883  -21.1828    0.0000 C   0  0
    8.5781  -21.5986    0.0000 C   0  0
   10.7217  -21.1786    0.0000 N   0  0
   11.4376  -21.5886    0.0000 C   0  0
   12.1506  -21.1735    0.0000 N   0  0
   11.4405  -22.4135    0.0000 O   0  0
   12.8665  -21.5835    0.0000 C   0  0
   12.8668  -22.4094    0.0000 C   0  0
   13.5819  -22.8193    0.0000 C   0  0
   14.2959  -22.4042    0.0000 C   0  0
   14.2903  -21.5750    0.0000 C   0  0
   13.5747  -21.1688    0.0000 C   0  0
   15.0018  -21.1575    0.0000 C   0  0
  2  3  1  0
 13 14  1  0
 14 15  2  0
  3  4  2  0
 15 16  1  0
  6  7  1  0
 16 17  2  0
 17 12  1  0
  7  8  1  0
 15 18  1  0
  8  9  2  0
 18 19  1  0
  9  5  1  0
 19 20  1  0
  4  6  1  0
 19 21  2  0
  7 10  1  0
 20 22  1  0
  5  6  2  0
 22 23  2  0
  4 11  1  0
 23 24  1  0
  1  2  2  0
 24 25  2  0
 11 12  1  0
 25 26  1  0
  5  1  1  0
 26 27  2  0
 27 22  1  0
 12 13  2  0
 26 28  1  0
M  END