
          11280714552D 1   1.00000     0.00000     0

 33 36  0     0  0            999 V2000
    7.6542   -6.4042    0.0000 N   0  0  3  0  0  0           0  0  0
    6.2375   -5.5875    0.0000 N   0  0  3  0  0  0           0  0  0
    3.3792   -5.5875    0.0000 C   0  0  3  0  0  0           0  0  0
    2.6667   -5.1750    0.0000 C   0  0  0  0  0  0           0  0  0
    9.0875   -6.4167    0.0000 C   0  0  0  0  0  0           0  0  0
    9.8042   -6.8292    0.0000 C   0  0  0  0  0  0           0  0  0
    3.3792   -6.4125    0.0000 C   0  0  0  0  0  0           0  0  0
    2.6667   -4.3500    0.0000 C   0  0  0  0  0  0           0  0  0
    1.9542   -5.5917    0.0000 C   0  0  0  0  0  0           0  0  0
    6.9417   -5.1667    0.0000 C   0  0  0  0  0  0           0  0  0
    6.9417   -6.8167    0.0000 C   0  0  0  0  0  0           0  0  0
    6.2292   -6.4042    0.0000 C   0  0  0  0  0  0           0  0  0
    7.6625   -5.5792    0.0000 C   0  0  0  0  0  0           0  0  0
    8.3750   -6.8250    0.0000 C   0  0  0  0  0  0           0  0  0
    1.2417   -4.3500    0.0000 C   0  0  0  0  0  0           0  0  0
    4.0917   -5.1750    0.0000 O   0  0  0  0  0  0           0  0  0
    1.2417   -5.1750    0.0000 C   0  0  0  0  0  0           0  0  0
    1.9625   -3.9375    0.0000 C   0  0  0  0  0  0           0  0  0
   10.5167   -6.4167    0.0000 C   0  0  0  0  0  0           0  0  0
    5.5250   -5.1750    0.0000 C   0  0  0  0  0  0           0  0  0
    4.8042   -5.5875    0.0000 C   0  0  0  0  0  0           0  0  0
    0.5292   -3.9292    0.0000 O   0  0  0  0  0  0           0  0  0
    2.6667   -6.8167    0.0000 C   0  0  0  0  0  0           0  0  0
    4.1000   -6.8167    0.0000 C   0  0  0  0  0  0           0  0  0
   10.5167   -5.6000    0.0000 C   0  0  0  0  0  0           0  0  0
   11.2250   -6.8417    0.0000 C   0  0  0  0  0  0           0  0  0
    0.5292   -3.1042    0.0000 C   0  0  0  0  0  0           0  0  0
    2.6667   -7.6417    0.0000 C   0  0  0  0  0  0           0  0  0
    4.0917   -7.6417    0.0000 C   0  0  0  0  0  0           0  0  0
   11.2292   -5.1917    0.0000 C   0  0  0  0  0  0           0  0  0
   11.9417   -6.4292    0.0000 C   0  0  0  0  0  0           0  0  0
    3.3792   -8.0542    0.0000 C   0  0  0  0  0  0           0  0  0
   11.9500   -5.6042    0.0000 C   0  0  0  0  0  0           0  0  0
  2 10  1  0     0  0
  3 16  1  0     0  0
  4  3  1  0     0  0
  5 14  1  0     0  0
  6  5  2  0     0  0
  7  3  1  0     0  0
  8  4  1  0     0  0
  9  4  2  0     0  0
 10 13  1  0     0  0
 11  1  1  0     0  0
 12 11  1  0     0  0
 13  1  1  0     0  0
 14  1  1  0     0  0
 15 17  2  0     0  0
 16 21  1  0     0  0
 17  9  1  0     0  0
 18  8  2  0     0  0
 19  6  1  0     0  0
 20  2  1  0     0  0
 21 20  1  0     0  0
 22 15  1  0     0  0
 23  7  2  0     0  0
 24  7  1  0     0  0
 25 19  1  0     0  0
 26 19  2  0     0  0
 27 22  1  0     0  0
 28 23  1  0     0  0
 29 24  2  0     0  0
 30 25  2  0     0  0
 31 26  1  0     0  0
 32 29  1  0     0  0
 33 31  2  0     0  0
  2 12  1  0     0  0
 30 33  1  0     0  0
 18 15  1  0     0  0
 28 32  2  0     0  0
M  END