
  SciTegic12231509382D

 16 18  0  0  0  0            999 V2000
   19.1152    1.6292    0.0000 C   0  0
   19.1141    0.8018    0.0000 C   0  0
   19.8289    0.3890    0.0000 C   0  0
   19.8271    2.0420    0.0000 C   0  0
   20.5425    1.6328    0.0000 C   0  0
   20.5432    0.8060    0.0000 C   0  0
   21.2585    0.3950    0.0000 N   0  0
   21.9736    0.8098    0.0000 C   0  0
   21.9688    1.6398    0.0000 C   0  0
   21.2529    2.0470    0.0000 C   0  0
   22.6861    0.4042    0.0000 N   0  0
   22.6879   -0.4219    0.0000 C   0  0
   23.4031   -0.8316    0.0000 C   0  0
   24.1170   -0.4162    0.0000 N   0  0
   24.1111    0.4130    0.0000 C   0  0
   23.3953    0.8189    0.0000 C   0  0
  1  2  2  0
 11 12  1  0
 12 13  1  0
  5  6  1  0
 13 14  1  0
  2  3  1  0
 14 15  1  0
  6  7  1  0
 15 16  1  0
 16 11  1  0
  8 11  1  0
  3  6  2  0
  7  8  2  0
  8  9  1  0
  5  4  2  0
  9 10  2  0
 10  5  1  0
  4  1  1  0
M  END