
  SciTegic10311316292D

 40 44  0  0  0  0            999 V2000
   32.6134   -1.2836    0.0000 C   0  0
   31.9076   -1.6963    0.0000 C   0  0  2  0  0  0
   32.6179   -2.1011    0.0000 F   0  0
   25.8681   -1.3124    0.0000 C   0  0
   25.8669   -2.1320    0.0000 C   0  0
   26.5750   -2.5409    0.0000 C   0  0
   27.2846   -2.1315    0.0000 C   0  0
   27.2818   -1.3088    0.0000 C   0  0
   26.5732   -0.9036    0.0000 C   0  0
   27.9930   -2.5390    0.0000 N   0  0
   28.7000   -2.1293    0.0000 C   0  0
   27.9879   -0.8976    0.0000 O   0  0
   27.9849   -0.0804    0.0000 C   0  0
   25.1602   -0.9040    0.0000 C   0  0
   25.1600   -0.0868    0.0000 O   0  0
   24.4526   -1.3128    0.0000 N   0  0
   23.7448   -0.9043    0.0000 C   0  0
   29.4050   -2.5372    0.0000 N   0  0
   29.3975   -0.9028    0.0000 C   0  0
   28.6938   -1.3141    0.0000 N   0  0
   30.1167   -2.1270    0.0000 C   0  0
   30.1108   -1.3101    0.0000 C   0  0
   30.7485   -0.7904    0.0000 N   0  0
   30.7647   -2.6337    0.0000 N   0  0
   31.5499   -0.9612    0.0000 C   0  0
   31.5642   -2.4422    0.0000 C   0  0
   30.5903   -3.4305    0.0000 C   0  0
   29.8423   -3.7594    0.0000 C   0  0
   29.9238   -4.5725    0.0000 C   0  0
   30.7224   -4.7462    0.0000 C   0  0
   31.1342   -4.0404    0.0000 C   0  0
   30.5567    0.0043    0.0000 C   0  0
   32.0525   -0.3169    0.0000 O   0  0
   23.7430   -0.0822    0.0000 C   0  0
   23.0393    0.3342    0.0000 C   0  0
   22.3356   -0.0791    0.0000 N   0  0
   22.3291   -0.8973    0.0000 C   0  0
   23.0358   -1.3101    0.0000 C   0  0
   21.6297    0.3360    0.0000 C   0  0
   32.6088   -0.4664    0.0000 C   0  0
  2  1  1  1
  3  2  1  0
  4  5  2  0
  5  6  1  0
  6  7  2  0
  7  8  1  0
  8  9  2  0
  9  4  1  0
  7 10  1  0
 10 11  1  0
  8 12  1  0
 12 13  1  0
  4 14  1  0
 14 15  2  0
 14 16  1  0
 16 17  1  0
 11 18  2  0
 18 21  1  0
 22 19  1  0
 19 20  2  0
 20 11  1  0
 21 22  2  0
 22 23  1  0
 21 24  1  0
 23 25  1  0
 24 26  1  0
 25  2  1  0
 26  2  1  0
 27 28  1  0
 28 29  1  0
 29 30  1  0
 30 31  1  0
 31 27  1  0
 24 27  1  0
 23 32  1  0
 25 33  2  0
 17 34  1  0
 17 38  1  0
 34 35  1  0
 35 36  1  0
 36 37  1  0
 37 38  1  0
 36 39  1  0
  1 40  1  0
M  END