
          11280714552D 1   1.00000     0.00000     0

 35 38  0     0  0            999 V2000
    7.5417   -6.4042    0.0000 N   0  0  3  0  0  0           0  0  0
    8.2542   -6.8250    0.0000 C   0  0  0  0  0  0           0  0  0
    8.9667   -6.4167    0.0000 C   0  0  0  0  0  0           0  0  0
    9.6875   -6.8292    0.0000 C   0  0  0  0  0  0           0  0  0
    6.1167   -5.5875    0.0000 N   0  0  3  0  0  0           0  0  0
    3.2667   -5.5875    0.0000 C   0  0  3  0  0  0           0  0  0
    3.2667   -6.4125    0.0000 C   0  0  0  0  0  0           0  0  0
    2.5500   -5.1750    0.0000 C   0  0  0  0  0  0           0  0  0
   10.3917   -6.4167    0.0000 C   0  0  0  0  0  0           0  0  0
    7.5417   -5.5792    0.0000 C   0  0  0  0  0  0           0  0  0
    6.8250   -6.8167    0.0000 C   0  0  0  0  0  0           0  0  0
    8.2542   -7.6500    0.0000 O   0  0  0  0  0  0           0  0  0
   10.3917   -5.6000    0.0000 C   0  0  0  0  0  0           0  0  0
    3.9792   -6.8167    0.0000 C   0  0  0  0  0  0           0  0  0
    2.5542   -4.3500    0.0000 C   0  0  0  0  0  0           0  0  0
    1.8417   -5.5917    0.0000 C   0  0  0  0  0  0           0  0  0
    2.5542   -6.8167    0.0000 C   0  0  0  0  0  0           0  0  0
    6.8292   -5.1667    0.0000 C   0  0  0  0  0  0           0  0  0
    6.1167   -6.4042    0.0000 C   0  0  0  0  0  0           0  0  0
    3.2625   -8.0542    0.0000 C   0  0  0  0  0  0           0  0  0
    1.1292   -4.3500    0.0000 C   0  0  0  0  0  0           0  0  0
    9.6792   -5.1875    0.0000 Cl  0  0  0  0  0  0           0  0  0
    3.9792   -5.1750    0.0000 O   0  0  0  0  0  0           0  0  0
    1.1250   -5.1750    0.0000 C   0  0  0  0  0  0           0  0  0
    3.9792   -7.6417    0.0000 C   0  0  0  0  0  0           0  0  0
    1.8417   -3.9375    0.0000 C   0  0  0  0  0  0           0  0  0
    2.5500   -7.6417    0.0000 C   0  0  0  0  0  0           0  0  0
    0.4125   -3.9292    0.0000 F   0  0  0  0  0  0           0  0  0
    3.2542   -8.8792    0.0000 F   0  0  0  0  0  0           0  0  0
    5.4042   -5.1750    0.0000 C   0  0  0  0  0  0           0  0  0
    4.6917   -5.5875    0.0000 C   0  0  0  0  0  0           0  0  0
   11.1042   -6.8417    0.0000 C   0  0  0  0  0  0           0  0  0
   11.1167   -5.1917    0.0000 C   0  0  0  0  0  0           0  0  0
   11.8292   -5.6042    0.0000 C   0  0  0  0  0  0           0  0  0
   11.8250   -6.4292    0.0000 C   0  0  0  0  0  0           0  0  0
  2  1  1  0     0  0
  3  2  1  0     0  0
  4  3  2  0     0  0
  5 19  1  0     0  0
  6 23  1  0     0  0
  7  6  1  0     0  0
  8  6  1  0     0  0
  9  4  1  0     0  0
 10  1  1  0     0  0
 11  1  1  0     0  0
 12  2  2  0     0  0
 13  9  1  0     0  0
 14  7  1  0     0  0
 15  8  1  0     0  0
 16  8  2  0     0  0
 17  7  2  0     0  0
 18 10  1  0     0  0
 19 11  1  0     0  0
 20 27  2  0     0  0
 21 24  2  0     0  0
 22 13  1  0     0  0
 23 31  1  0     0  0
 24 16  1  0     0  0
 25 14  2  0     0  0
 26 15  2  0     0  0
 27 17  1  0     0  0
 28 21  1  0     0  0
 29 20  1  0     0  0
 30  5  1  0     0  0
 31 30  1  0     0  0
 32  9  2  0     0  0
 33 13  2  0     0  0
 34 35  2  0     0  0
 35 32  1  0     0  0
 18  5  1  0     0  0
 33 34  1  0     0  0
 26 21  1  0     0  0
 25 20  1  0     0  0
M  END