
          11280714452D 1   1.00000     0.00000     0

 31 34  0     0  0            999 V2000
    2.5542   -2.0042    0.0000 C   0  0  0  0  0  0           0  0  0
    0.4750   -2.0125    0.0000 S   0  0  3  0  0  0           0  0  0
    2.5542   -1.4042    0.0000 N   0  0  3  0  0  0           0  0  0
    2.0292   -2.3042    0.0000 C   0  0  0  0  0  0           0  0  0
    3.0750   -2.3042    0.0000 C   0  0  0  0  0  0           0  0  0
    2.0292   -2.9125    0.0000 C   0  0  0  0  0  0           0  0  0
    3.0792   -1.1042    0.0000 C   0  0  0  0  0  0           0  0  0
    0.9917   -2.3125    0.0000 C   0  0  0  0  0  0           0  0  0
    1.5125   -2.0042    0.0000 C   0  0  0  0  0  0           0  0  0
    2.5542   -3.2125    0.0000 O   0  0  0  0  0  0           0  0  0
   -0.0458   -2.3125    0.0000 N   0  0  0  0  0  0           0  0  0
    3.0750   -2.9125    0.0000 C   0  0  3  0  0  0           0  0  0
   -2.6375   -0.8167    0.0000 N   0  0  0  0  0  0           0  0  0
   -0.0333   -1.2167    0.0000 O   0  0  0  0  0  0           0  0  0
    0.8417   -1.1875    0.0000 O   0  0  0  0  0  0           0  0  0
    2.0417   -1.1042    0.0000 C   0  0  0  0  0  0           0  0  0
   -2.1208   -1.1125    0.0000 C   0  0  0  0  0  0           0  0  0
    3.0792   -0.5125    0.0000 C   0  0  0  0  0  0           0  0  0
    3.5917   -1.4167    0.0000 O   0  0  0  0  0  0           0  0  0
    1.5125   -3.2125    0.0000 C   0  0  0  0  0  0           0  0  0
    0.9917   -2.9125    0.0000 C   0  0  0  0  0  0           0  0  0
    2.0417   -0.5042    0.0000 C   0  0  0  0  0  0           0  0  0
    2.5667   -0.2042    0.0000 C   0  0  0  0  0  0           0  0  0
   -0.5625   -2.0125    0.0000 C   0  0  0  0  0  0           0  0  0
   -1.6000   -1.4125    0.0000 C   0  0  0  0  0  0           0  0  0
   -0.5583   -1.4125    0.0000 C   0  0  0  0  0  0           0  0  0
   -1.0750   -2.3125    0.0000 C   0  0  0  0  0  0           0  0  0
   -1.5958   -2.0167    0.0000 C   0  0  0  0  0  0           0  0  0
   -1.0833   -1.1125    0.0000 C   0  0  0  0  0  0           0  0  0
    3.6750   -2.9125    0.0000 C   0  0  0  0  0  0           0  0  0
    3.3667   -3.4292    0.0000 C   0  0  0  0  0  0           0  0  0
  2  8  1  0     0  0
  3  1  1  0     0  0
  4  1  1  0     0  0
  5  1  2  0     0  0
  6  4  1  0     0  0
  7  3  1  0     0  0
  8  9  1  0     0  0
  9  4  2  0     0  0
 10 12  1  0     0  0
 11  2  1  0     0  0
 12  5  1  0     0  0
 13 17  3  0     0  0
 14  2  2  0     0  0
 15  2  2  0     0  0
 16  3  1  0     0  0
 17 25  1  0     0  0
 18  7  1  0     0  0
 19  7  2  0     0  0
 20  6  2  0     0  0
 21  8  2  0     0  0
 22 16  2  0     0  0
 23 22  1  0     0  0
 24 11  1  0     0  0
 25 28  1  0     0  0
 26 24  2  0     0  0
 27 24  1  0     0  0
 28 27  2  0     0  0
 29 26  1  0     0  0
 30 12  1  0     0  0
 31 12  1  0     0  0
  6 10  1  0     0  0
 20 21  1  0     0  0
 18 23  2  0     0  0
 29 25  2  0     0  0
M  END