
  SciTegic12231509382D

 16 17  0  0  0  0            999 V2000
    1.7138    1.2033    0.0000 C   0  0
    0.2917    0.7475    0.0000 C   0  0
    1.7138   -1.2033    0.0000 N   0  0
    2.5889    0.0182    0.0000 C   0  0
    5.5870    4.6698    0.0000 C   0  0
    0.2917   -0.7475    0.0000 C   0  0
    3.6500    2.9355    0.0000 N   0  0
    5.9614    5.8100    0.0000 N   0  0
   -1.0028    1.5132    0.0000 C   0  0
    4.1182    4.3614    0.0000 N   0  0
    2.1812    2.6271    0.0000 C   0  0
   -1.0028   -1.5132    0.0000 C   0  0
    6.3875    3.7758    0.0000 N   0  0
   -2.3155    0.7475    0.0000 C   0  0
   -2.3155   -0.7475    0.0000 C   0  0
   -3.3560    1.3452    0.0000 O   0  0
  1  2  1  0
  1  4  2  0
  3  4  1  0
  2  6  2  0
  3  6  1  0
  5  8  2  0
  2  9  1  0
  5 10  1  0
  7 10  1  0
  1 11  1  0
  7 11  2  0
  6 12  1  0
  5 13  1  0
  9 14  2  0
 12 15  2  0
 14 15  1  0
 14 16  1  0
M  END