
  SciTegic02181312462D

 25 27  0  0  0  0            999 V2000
   28.4900   -6.7342    0.0000 C   0  0
   29.1996   -6.3247    0.0000 C   0  0
   29.1968   -5.5021    0.0000 C   0  0
   28.4882   -5.0968    0.0000 C   0  0
   27.7819   -6.3252    0.0000 N   0  0
   27.7832   -5.5042    0.0000 C   0  0
   27.0027   -5.2492    0.0000 N   0  0
   26.5190   -5.9128    0.0000 C   0  0
   27.0007   -6.5777    0.0000 C   0  0
   25.7018   -5.9116    0.0000 N   0  0
   25.2922   -6.6187    0.0000 C   0  0
   24.4750   -6.6175    0.0000 C   0  0
   25.6997   -7.3270    0.0000 O   0  0
   24.0705   -5.9081    0.0000 C   0  0
   23.2541   -5.9065    0.0000 C   0  0
   22.8436   -6.6142    0.0000 C   0  0
   23.2556   -7.3248    0.0000 C   0  0
   24.0707   -7.3229    0.0000 C   0  0
   22.0264   -6.6141    0.0000 C   0  0
   21.6179   -5.9063    0.0000 C   0  0
   21.6178   -7.3217    0.0000 C   0  0
   21.4987   -6.6077    0.0000 C   0  0
   29.9080   -6.7322    0.0000 C   0  0
   29.9093   -7.5494    0.0000 N   0  0
   30.6176   -7.9569    0.0000 C   0  0
  5  1  1  0
  1  2  2  0
  2  3  1  0
  3  4  2  0
  4  6  1  0
  5  6  1  0
  6  7  2  0
  7  8  1  0
  8  9  2  0
  9  5  1  0
  8 10  1  0
 10 11  1  0
 11 12  1  0
 11 13  2  0
 12 14  2  0
 14 15  1  0
 15 16  2  0
 16 17  1  0
 17 18  2  0
 18 12  1  0
 16 19  1  0
 19 20  1  0
 19 21  1  0
 19 22  1  0
  2 23  1  0
 23 24  1  0
 24 25  1  0
M  END