
          11280714512D 1   1.00000     0.00000     0

 21 23  0     1  0            999 V2000
    5.2125   -5.5375    0.0000 C   0  0  0  0  0  0           0  0  0
    5.9292   -5.1250    0.0000 C   0  0  0  0  0  0           0  0  0
    6.6500   -5.5375    0.0000 N   0  0  0  0  0  0           0  0  0
    5.2250   -6.3500    0.0000 C   0  0  0  0  0  0           0  0  0
    4.5042   -5.1125    0.0000 C   0  0  0  0  0  0           0  0  0
    4.5042   -6.7667    0.0000 C   0  0  0  0  0  0           0  0  0
    7.3625   -5.1292    0.0000 C   0  0  1  0  0  0           0  0  0
    8.8917   -4.3792    0.0000 N   0  0  3  0  0  0           0  0  0
    3.7917   -5.5250    0.0000 C   0  0  0  0  0  0           0  0  0
    3.7917   -6.3542    0.0000 C   0  0  0  0  0  0           0  0  0
    7.9125   -4.5875    0.0000 C   0  0  0  0  0  0           0  0  0
    5.9375   -4.3000    0.0000 O   0  0  0  0  0  0           0  0  0
    8.3250   -4.8667    0.0000 C   0  0  3  0  0  0           0  0  0
    9.0375   -5.5542    0.0000 C   0  0  0  0  0  0           0  0  0
    8.4875   -4.1542    0.0000 C   0  0  0  0  0  0           0  0  0
    9.5917   -5.0542    0.0000 C   0  0  0  0  0  0           0  0  0
    9.0250   -3.8167    0.0000 C   0  0  0  0  0  0           0  0  0
    3.0750   -6.7667    0.0000 N   0  0  0  0  0  0           0  0  0
    3.0792   -5.1167    0.0000 Cl  0  0  0  0  0  0           0  0  0
    5.9375   -6.7542    0.0000 O   0  0  0  0  0  0           0  0  0
    5.9417   -7.5792    0.0000 C   0  0  0  0  0  0           0  0  0
  2  1  1  0     0  0
  3  2  1  0     0  0
  4  1  1  0     0  0
  5  1  2  0     0  0
  6  4  2  0     0  0
  7  3  1  1     0  0
  8 11  1  0     0  0
  9  5  1  0     0  0
 10  9  2  0     0  0
 11  7  1  0     0  0
 12  2  2  0     0  0
 13  7  1  0     0  0
 14 13  1  0     0  0
 15 13  1  0     0  0
 16 14  1  0     0  0
 17 15  1  0     0  0
 18 10  1  0     0  0
 19  9  1  0     0  0
 20  4  1  0     0  0
 21 20  1  0     0  0
 10  6  1  0     0  0
 17  8  1  0     0  0
 16  8  1  0     0  0
M  END