
  SciTegic          2D

 17 19  0  0  0  0            999 V2000
    1.4358   -2.7631    0.0000 C   0  0
    0.8838   -2.1500    0.0000 C   0  0
    1.1387   -1.3654    0.0000 N   0  0
    0.6538   -0.6979    0.0000 C   0  0
    1.1387   -0.0305    0.0000 N   0  0
    1.9233   -0.2854    0.0000 C   0  0
    2.6378    0.1271    0.0000 C   0  0
    3.3523   -0.2854    0.0000 C   0  0
    3.3523   -1.1104    0.0000 C   0  0
    2.6378   -1.5229    0.0000 C   0  0
    1.9233   -1.1104    0.0000 C   0  0
   -0.1712   -0.6979    0.0000 C   0  0
   -0.6561   -1.3654    0.0000 N   0  0
   -1.4407   -1.1104    0.0000 O   0  0
   -1.4407   -0.2854    0.0000 N   0  0
   -0.6561   -0.0305    0.0000 C   0  0
   -0.4012    0.7541    0.0000 N   0  0
  1  2  1  0
  2  3  1  0
  3  4  1  0
  4  5  2  0
  5  6  1  0
  6  7  2  0
  7  8  1  0
  8  9  2  0
  9 10  1  0
 10 11  2  0
  3 11  1  0
  6 11  1  0
  4 12  1  0
 12 13  2  0
 13 14  1  0
 14 15  1  0
 15 16  2  0
 12 16  1  0
 16 17  1  0
M  END