
  CDK    9/16/09,9:59

 33 36  0  0  0  0  0  0  0  0999 V2000
    5.7027  -13.7791    0.0000 C   0  0  0  0  0  0  0  0  0  0  0  0
    5.7016  -14.6065    0.0000 C   0  0  0  0  0  0  0  0  0  0  0  0
    6.4206  -15.0194    0.0000 C   0  0  0  0  0  0  0  0  0  0  0  0
    7.1328  -14.6060    0.0000 C   0  0  0  0  0  0  0  0  0  0  0  0
    6.4188  -13.3664    0.0000 C   0  0  0  0  0  0  0  0  0  0  0  0
    7.1292  -13.7769    0.0000 C   0  0  0  0  0  0  0  0  0  0  0  0
    7.7498  -13.2201    0.0000 N   0  0  0  0  0  0  0  0  0  0  0  0
    7.4099  -12.4737    0.0000 C   0  0  0  0  0  0  0  0  0  0  0  0
    6.5954  -12.5559    0.0000 N   0  0  0  0  0  0  0  0  0  0  0  0
    8.5527  -13.4242    0.0000 C   0  0  0  0  0  0  0  0  0  0  0  0
    8.8284  -14.2030    0.0000 C   0  0  0  0  0  0  0  0  0  0  0  0
    9.6492  -14.1802    0.0000 C   0  0  0  0  0  0  0  0  0  0  0  0
    9.8866  -13.3948    0.0000 C   0  0  0  0  0  0  0  0  0  0  0  0
    9.2119  -12.9226    0.0000 S   0  0  0  0  0  0  0  0  0  0  0  0
   10.6738  -13.1223    0.0000 C   0  0  0  0  0  0  0  0  0  0  0  0
   11.2987  -13.6703    0.0000 N   0  0  0  0  0  0  0  0  0  0  0  0
   10.8317  -12.3142    0.0000 O   0  0  0  0  0  0  0  0  0  0  0  0
   10.1503  -14.8438    0.0000 O   0  0  0  0  0  0  0  0  0  0  0  0
    9.8319  -15.6063    0.0000 C   0  0  0  0  0  0  0  0  0  0  0  0
   10.3371  -16.2662    0.0000 C   0  0  0  0  0  0  0  0  0  0  0  0
   10.0166  -17.0188    0.0000 C   0  0  0  0  0  0  0  0  0  0  0  0
   10.5085  -17.6786    0.0000 C   0  0  0  0  0  0  0  0  0  0  0  0
   11.3290  -17.5718    0.0000 C   0  0  0  0  0  0  0  0  0  0  0  0
   11.6490  -16.8133    0.0000 C   0  0  0  0  0  0  0  0  0  0  0  0
   11.1524  -16.1614    0.0000 C   0  0  0  0  0  0  0  0  0  0  0  0
    6.4204  -15.8444    0.0000 O   0  0  0  0  0  0  0  0  0  0  0  0
    5.7058  -16.2567    0.0000 C   0  0  0  0  0  0  0  0  0  0  0  0
    4.9826  -15.0268    0.0000 O   0  0  0  0  0  0  0  0  0  0  0  0
    4.9851  -15.8554    0.0000 C   0  0  0  0  0  0  0  0  0  0  0  0
   11.8286  -18.2283    0.0000 S   0  0  0  0  0  0  0  0  0  0  0  0
   12.4083  -18.8083    0.0000 C   0  0  0  0  0  0  0  0  0  0  0  0
   11.2072  -18.7709    0.0000 O   0  0  0  0  0  0  0  0  0  0  0  0
   12.4538  -17.6900    0.0000 O   0  0  0  0  0  0  0  0  0  0  0  0
  4  6  1  0  0  0  0 
 15 16  1  0  0  0  0 
  6  7  1  0  0  0  0 
 15 17  2  0  0  0  0 
  7  8  1  0  0  0  0 
 12 18  1  0  0  0  0 
  8  9  2  0  0  0  0 
 18 19  1  0  0  0  0 
  9  5  1  0  0  0  0 
 19 20  1  0  0  0  0 
  5  1  1  0  0  0  0 
 20 21  2  0  0  0  0 
  7 10  1  0  0  0  0 
 21 22  1  0  0  0  0 
 10 11  2  0  0  0  0 
 22 23  2  0  0  0  0 
  5  6  2  0  0  0  0 
 23 24  1  0  0  0  0 
 24 25  2  0  0  0  0 
 25 20  1  0  0  0  0 
  2  3  1  0  0  0  0 
  3 26  1  0  0  0  0 
  1  2  2  0  0  0  0 
 26 27  1  0  0  0  0 
 11 12  1  0  0  0  0 
  2 28  1  0  0  0  0 
 12 13  2  0  0  0  0 
 28 29  1  0  0  0  0 
 13 14  1  0  0  0  0 
 23 30  1  0  0  0  0 
 14 10  1  0  0  0  0 
 30 31  1  0  0  0  0 
  3  4  2  0  0  0  0 
 30 32  2  0  0  0  0 
 13 15  1  0  0  0  0 
 30 33  2  0  0  0  0 
M  END