
          11280715482D 1   1.00000     0.00000     0

 37 41  0     0  0            999 V2000
    2.3042   -1.9125    0.0000 N   0  0  0  0  0  0           0  0  0
    1.4917   -1.7792    0.0000 C   0  0  0  0  0  0           0  0  0
    1.3542   -0.9625    0.0000 C   0  0  0  0  0  0           0  0  0
    2.0917   -0.5917    0.0000 S   0  0  0  0  0  0           0  0  0
    2.6750   -1.1792    0.0000 C   0  0  0  0  0  0           0  0  0
    5.9542   -0.8417    0.0000 S   0  0  3  0  0  0           0  0  0
    0.6417   -0.5542    0.0000 C   0  0  0  0  0  0           0  0  0
    0.9292   -2.3917    0.0000 C   0  0  0  0  0  0           0  0  0
    5.1292   -0.9292    0.0000 C   0  0  0  0  0  0           0  0  0
    3.4792   -1.1000    0.0000 C   0  0  0  0  0  0           0  0  0
   -0.0958    0.6708    0.0000 C   0  0  0  0  0  0           0  0  0
    6.0417   -1.6625    0.0000 O   0  0  0  0  0  0           0  0  0
    5.8667   -0.0167    0.0000 O   0  0  0  0  0  0           0  0  0
   -0.8083    0.2500    0.0000 N   0  0  0  0  0  0           0  0  0
    0.6292    0.2708    0.0000 C   0  0  0  0  0  0           0  0  0
    1.1792   -3.1792    0.0000 C   0  0  0  0  0  0           0  0  0
    4.6500   -0.2625    0.0000 C   0  0  0  0  0  0           0  0  0
    4.7917   -1.6917    0.0000 C   0  0  0  0  0  0           0  0  0
    3.8250   -0.3417    0.0000 C   0  0  0  0  0  0           0  0  0
    3.9667   -1.7750    0.0000 C   0  0  0  0  0  0           0  0  0
   -0.1083    1.4958    0.0000 N   0  0  0  0  0  0           0  0  0
    6.7792   -0.7542    0.0000 C   0  0  0  0  0  0           0  0  0
   -0.7958   -0.5792    0.0000 C   0  0  0  0  0  0           0  0  0
    0.6167   -3.7875    0.0000 C   0  0  0  0  0  0           0  0  0
    0.6042    1.9208    0.0000 C   0  0  0  0  0  0           0  0  0
   -0.0833   -0.9917    0.0000 C   0  0  0  0  0  0           0  0  0
    0.1292   -2.2042    0.0000 C   0  0  0  0  0  0           0  0  0
    2.0500    1.9333    0.0000 C   0  0  0  0  0  0           0  0  0
   -0.4333   -2.8125    0.0000 C   0  0  0  0  0  0           0  0  0
    1.3292    1.5083    0.0000 C   0  0  0  0  0  0           0  0  0
   -0.1833   -3.6042    0.0000 C   0  0  0  0  0  0           0  0  0
    0.8500   -4.5792    0.0000 C   0  0  0  0  0  0           0  0  0
    2.7625    1.5208    0.0000 C   0  0  0  0  0  0           0  0  0
    2.0500    2.7708    0.0000 C   0  0  0  0  0  0           0  0  0
    2.7625    3.1750    0.0000 C   0  0  0  0  0  0           0  0  0
    3.4792    1.9333    0.0000 C   0  0  0  0  0  0           0  0  0
    3.4792    2.7708    0.0000 C   0  0  0  0  0  0           0  0  0
  2  1  1  0     0  0
  3  2  2  0     0  0
  4  5  1  0     0  0
  5  1  2  0     0  0
  6  9  1  0     0  0
  7  3  1  0     0  0
  8  2  1  0     0  0
  9 18  2  0     0  0
 10  5  1  0     0  0
 11 15  1  0     0  0
 12  6  2  0     0  0
 13  6  2  0     0  0
 14 23  1  0     0  0
 15  7  2  0     0  0
 16  8  1  0     0  0
 17 19  2  0     0  0
 18 20  1  0     0  0
 19 10  1  0     0  0
 20 10  2  0     0  0
 21 11  1  0     0  0
 22  6  1  0     0  0
 23 26  2  0     0  0
 24 16  2  0     0  0
 25 21  1  0     0  0
 26  7  1  0     0  0
 27  8  2  0     0  0
 28 30  1  0     0  0
 29 27  1  0     0  0
 30 25  1  0     0  0
 31 29  2  0     0  0
 32 24  1  0     0  0
 33 28  1  0     0  0
 34 28  2  0     0  0
 35 34  1  0     0  0
 36 33  2  0     0  0
 37 35  2  0     0  0
  4  3  1  0     0  0
 17  9  1  0     0  0
 24 31  1  0     0  0
 11 14  2  0     0  0
 36 37  1  0     0  0
M  END