
  SciTegic06011109532D

 29 31  0  0  0  0            999 V2000
   10.0667   -3.3583    0.0000 N   0  0
   10.0667   -4.1833    0.0000 C   0  0
   10.7787   -4.5917    0.0000 N   0  0
   10.7787   -2.9417    0.0000 C   0  0
   10.7787   -2.1167    0.0000 O   0  0
   11.4907   -3.3583    0.0000 C   0  0
   11.4872   -4.1833    0.0000 C   0  0
   12.1960   -4.5965    0.0000 N   0  0
   12.9128   -4.1894    0.0000 C   0  0
   12.9163   -3.3644    0.0000 C   0  0
   12.2030   -2.9466    0.0000 C   0  0
   12.1913   -5.4215    0.0000 C   0  0
   13.6249   -4.6059    0.0000 O   0  0
   12.2053   -2.1216    0.0000 N   0  0
   12.9210   -1.7111    0.0000 C   0  0
   13.6313   -2.1273    0.0000 C   0  0
   14.3465   -1.7176    0.0000 C   0  0
   14.3493   -0.8917    0.0000 C   0  0
   13.6310   -0.4773    0.0000 C   0  0
   12.9187   -0.8895    0.0000 C   0  0
   12.2035   -0.4783    0.0000 F   0  0
   15.0644   -0.4803    0.0000 I   0  0
    9.3510   -2.9479    0.0000 O   0  0
   13.6329   -2.9557    0.0000 F   0  0
    8.6377   -3.3625    0.0000 C   0  0
    7.9221   -2.9521    0.0000 C   0  0  1  0  0  0
    7.2088   -3.3667    0.0000 C   0  0
    7.9196   -2.1271    0.0000 O   0  0
    6.4931   -2.9563    0.0000 O   0  0
 11 14  1  0
  1  4  1  0
 14 15  1  0
  2  3  2  0
 15 16  2  0
  3  7  1  0
 16 17  1  0
  6  4  1  0
 17 18  2  0
 18 19  1  0
  6 11  1  0
 19 20  2  0
 20 15  1  0
  7  8  1  0
 20 21  1  0
  8  9  1  0
 18 22  1  0
  9 10  1  0
  1 23  1  0
 10 11  2  0
 10 24  1  0
  4  5  2  0
 23 25  1  0
  8 12  1  0
 25 26  1  0
  6  7  2  0
 26 27  1  0
  9 13  2  0
 26 28  1  1
  1  2  1  0
 27 29  1  0
M  END