
          11280714552D 1   1.00000     0.00000     0

 34 37  0     0  0            999 V2000
    2.9125   -6.4125    0.0000 C   0  0  0  0  0  0           0  0  0
    2.1917   -5.1750    0.0000 C   0  0  0  0  0  0           0  0  0
    7.1875   -6.4042    0.0000 N   0  0  3  0  0  0           0  0  0
    5.7667   -5.5875    0.0000 N   0  0  3  0  0  0           0  0  0
    2.9125   -5.5875    0.0000 C   0  0  3  0  0  0           0  0  0
    8.6167   -6.4167    0.0000 C   0  0  0  0  0  0           0  0  0
    1.4875   -5.5917    0.0000 C   0  0  0  0  0  0           0  0  0
    3.6292   -6.8167    0.0000 C   0  0  0  0  0  0           0  0  0
    9.3292   -6.8292    0.0000 C   0  0  0  0  0  0           0  0  0
    6.4750   -5.1667    0.0000 C   0  0  0  0  0  0           0  0  0
    6.4667   -6.8167    0.0000 C   0  0  0  0  0  0           0  0  0
    5.7625   -6.4042    0.0000 C   0  0  0  0  0  0           0  0  0
    7.1917   -5.5792    0.0000 C   0  0  0  0  0  0           0  0  0
    0.7667   -5.1750    0.0000 C   0  0  0  0  0  0           0  0  0
    3.6250   -7.6417    0.0000 C   0  0  0  0  0  0           0  0  0
    7.9042   -6.8250    0.0000 C   0  0  0  0  0  0           0  0  0
    3.6250   -5.1750    0.0000 O   0  0  0  0  0  0           0  0  0
   10.0417   -6.4167    0.0000 C   0  0  0  0  0  0           0  0  0
    0.0542   -5.5792    0.0000 Br  0  0  0  0  0  0           0  0  0
    5.0542   -5.1750    0.0000 C   0  0  0  0  0  0           0  0  0
    4.3375   -5.5875    0.0000 C   0  0  0  0  0  0           0  0  0
    2.1917   -4.3500    0.0000 C   0  0  0  0  0  0           0  0  0
    2.1917   -6.8167    0.0000 C   0  0  0  0  0  0           0  0  0
    4.3375   -8.0625    0.0000 O   0  0  0  0  0  0           0  0  0
    2.1917   -7.6417    0.0000 C   0  0  0  0  0  0           0  0  0
    1.4917   -3.9375    0.0000 C   0  0  0  0  0  0           0  0  0
    0.7750   -4.3500    0.0000 C   0  0  0  0  0  0           0  0  0
    2.9042   -8.0542    0.0000 C   0  0  0  0  0  0           0  0  0
   10.0417   -5.6000    0.0000 C   0  0  0  0  0  0           0  0  0
   10.7542   -6.8417    0.0000 C   0  0  0  0  0  0           0  0  0
    4.3292   -8.8875    0.0000 C   0  0  0  0  0  0           0  0  0
   10.7625   -5.1917    0.0000 C   0  0  0  0  0  0           0  0  0
   11.4667   -6.4292    0.0000 C   0  0  0  0  0  0           0  0  0
   11.4792   -5.6042    0.0000 C   0  0  0  0  0  0           0  0  0
  2  5  1  0     0  0
  3 11  1  0     0  0
  4 20  1  0     0  0
  5  1  1  0     0  0
  6 16  1  0     0  0
  7  2  2  0     0  0
  8  1  1  0     0  0
  9  6  2  0     0  0
 10  4  1  0     0  0
 11 12  1  0     0  0
 12  4  1  0     0  0
 13 10  1  0     0  0
 14  7  1  0     0  0
 15  8  2  0     0  0
 16  3  1  0     0  0
 17  5  1  0     0  0
 18  9  1  0     0  0
 19 14  1  0     0  0
 20 21  1  0     0  0
 21 17  1  0     0  0
 22  2  1  0     0  0
 23  1  2  0     0  0
 24 15  1  0     0  0
 25 23  1  0     0  0
 26 22  2  0     0  0
 27 26  1  0     0  0
 28 25  2  0     0  0
 29 18  1  0     0  0
 30 18  2  0     0  0
 31 24  1  0     0  0
 32 29  2  0     0  0
 33 30  1  0     0  0
 34 33  2  0     0  0
 15 28  1  0     0  0
 14 27  2  0     0  0
 13  3  1  0     0  0
 32 34  1  0     0  0
M  END