
          11280714452D 1   1.00000     0.00000     0

 21 23  0     0  0            999 V2000
    2.5542   -2.0042    0.0000 C   0  0  0  0  0  0           0  0  0
    2.5542   -1.4042    0.0000 N   0  0  3  0  0  0           0  0  0
    2.0292   -2.3042    0.0000 C   0  0  0  0  0  0           0  0  0
    3.0750   -2.3042    0.0000 C   0  0  0  0  0  0           0  0  0
    2.0292   -2.9125    0.0000 C   0  0  0  0  0  0           0  0  0
    3.0750   -1.1042    0.0000 C   0  0  0  0  0  0           0  0  0
    2.5542   -3.2125    0.0000 O   0  0  0  0  0  0           0  0  0
    3.0750   -2.9125    0.0000 C   0  0  3  0  0  0           0  0  0
   -0.0458   -1.7125    0.0000 N   0  0  0  0  0  0           0  0  0
    0.4750   -2.0125    0.0000 C   0  0  0  0  0  0           0  0  0
    2.0292   -1.1042    0.0000 C   0  0  0  0  0  0           0  0  0
    1.5125   -2.0042    0.0000 C   0  0  0  0  0  0           0  0  0
    3.0750   -0.5042    0.0000 C   0  0  0  0  0  0           0  0  0
    3.5917   -1.4042    0.0000 O   0  0  0  0  0  0           0  0  0
    1.5125   -3.2125    0.0000 C   0  0  0  0  0  0           0  0  0
    2.0375   -0.5042    0.0000 C   0  0  0  0  0  0           0  0  0
    2.5542   -0.2042    0.0000 C   0  0  0  0  0  0           0  0  0
    0.9917   -2.3125    0.0000 C   0  0  0  0  0  0           0  0  0
    0.9917   -2.9125    0.0000 C   0  0  0  0  0  0           0  0  0
    3.3667   -3.4292    0.0000 C   0  0  0  0  0  0           0  0  0
    3.6750   -2.9125    0.0000 C   0  0  0  0  0  0           0  0  0
  2  1  1  0     0  0
  3  1  1  0     0  0
  4  1  2  0     0  0
  5  3  1  0     0  0
  6  2  1  0     0  0
  7  8  1  0     0  0
  8  4  1  0     0  0
  9 10  3  0     0  0
 10 18  1  0     0  0
 11  2  1  0     0  0
 12  3  2  0     0  0
 13  6  1  0     0  0
 14  6  2  0     0  0
 15  5  2  0     0  0
 16 11  2  0     0  0
 17 16  1  0     0  0
 18 12  1  0     0  0
 19 18  2  0     0  0
 20  8  1  0     0  0
 21  8  1  0     0  0
  5  7  1  0     0  0
 19 15  1  0     0  0
 13 17  2  0     0  0
M  END