
          11280714552D 1   1.00000     0.00000     0

 23 26  0     0  0            999 V2000
   -0.2208   -3.9625    0.0000 C   0  0  0  0  0  0           0  0  0
   -1.6500   -3.9667    0.0000 C   0  0  0  0  0  0           0  0  0
   -0.2208   -4.7917    0.0000 C   0  0  0  0  0  0           0  0  0
   -0.9333   -5.2042    0.0000 N   0  0  3  0  0  0           0  0  0
    0.4917   -3.5500    0.0000 C   0  0  0  0  0  0           0  0  0
   -1.6500   -4.7917    0.0000 C   0  0  0  0  0  0           0  0  0
    4.3375   -4.1792    0.0000 N   0  0  3  0  0  0           0  0  0
    3.2750   -3.9917    0.0000 C   0  0  3  0  0  0           0  0  0
    3.3042   -4.8042    0.0000 C   0  0  3  0  0  0           0  0  0
    1.9167   -3.5417    0.0000 C   0  0  3  0  0  0           0  0  0
    1.2042   -3.9542    0.0000 O   0  0  0  0  0  0           0  0  0
    2.6292   -3.1292    0.0000 C   0  0  0  0  0  0           0  0  0
    2.6500   -3.8417    0.0000 C   0  0  0  0  0  0           0  0  0
   -2.3583   -5.2042    0.0000 C   0  0  0  0  0  0           0  0  0
   -2.3583   -3.5542    0.0000 C   0  0  0  0  0  0           0  0  0
    0.4875   -2.7250    0.0000 O   0  0  0  0  0  0           0  0  0
    2.7000   -5.3417    0.0000 C   0  0  0  0  0  0           0  0  0
    3.0417   -5.9042    0.0000 C   0  0  0  0  0  0           0  0  0
   -3.0750   -3.9667    0.0000 C   0  0  0  0  0  0           0  0  0
   -3.0708   -4.8000    0.0000 C   0  0  0  0  0  0           0  0  0
   -0.9375   -6.0292    0.0000 C   0  0  0  0  0  0           0  0  0
    5.1792   -4.1792    0.0000 C   0  0  0  0  0  0           0  0  0
   -3.7958   -3.5542    0.0000 F   0  0  0  0  0  0           0  0  0
  2  1  1  0     0  0
  3  1  2  0     0  0
  4  3  1  0     0  0
  5  1  1  0     0  0
  6  2  2  0     0  0
  7  9  1  0     0  0
  8 12  1  0     0  0
  9 13  1  0     0  0
 10 11  1  0     0  0
 11  5  1  0     0  0
 12 10  1  0     0  0
 13 10  1  0     0  0
 14  6  1  0     0  0
 15  2  1  0     0  0
 16  5  2  0     0  0
 17  8  1  0     0  0
 18  9  1  0     0  0
 19 15  2  0     0  0
 20 19  1  0     0  0
 21  4  1  0     0  0
 22  7  1  0     0  0
 23 19  1  0     0  0
  4  6  1  0     0  0
 14 20  2  0     0  0
  7  8  1  0     0  0
 18 17  1  0     0  0
M  END