
          11280714552D 1   1.00000     0.00000     0

 20 23  0     0  0            999 V2000
   -0.2208   -3.9625    0.0000 C   0  0  0  0  0  0           0  0  0
    0.4917   -3.5500    0.0000 C   0  0  0  0  0  0           0  0  0
   -0.2208   -4.7917    0.0000 C   0  0  0  0  0  0           0  0  0
   -1.6500   -3.9667    0.0000 C   0  0  0  0  0  0           0  0  0
   -0.9333   -5.2042    0.0000 N   0  0  0  0  0  0           0  0  0
    4.3375   -4.1792    0.0000 N   0  0  0  0  0  0           0  0  0
    1.2042   -3.9542    0.0000 O   0  0  0  0  0  0           0  0  0
    1.9167   -3.5417    0.0000 C   0  0  3  0  0  0           0  0  0
   -1.6500   -4.7917    0.0000 C   0  0  0  0  0  0           0  0  0
    0.4875   -2.7250    0.0000 O   0  0  0  0  0  0           0  0  0
    3.2750   -3.9917    0.0000 C   0  0  3  0  0  0           0  0  0
    3.3042   -4.8042    0.0000 C   0  0  3  0  0  0           0  0  0
    2.6292   -3.1292    0.0000 C   0  0  0  0  0  0           0  0  0
    2.6500   -3.8417    0.0000 C   0  0  0  0  0  0           0  0  0
    2.7000   -5.3417    0.0000 C   0  0  0  0  0  0           0  0  0
    3.0417   -5.9042    0.0000 C   0  0  0  0  0  0           0  0  0
   -2.3583   -3.5542    0.0000 C   0  0  0  0  0  0           0  0  0
   -2.3583   -5.2042    0.0000 C   0  0  0  0  0  0           0  0  0
   -3.0750   -3.9667    0.0000 C   0  0  0  0  0  0           0  0  0
   -3.0708   -4.8000    0.0000 C   0  0  0  0  0  0           0  0  0
  2  1  1  0     0  0
  3  1  2  0     0  0
  4  1  1  0     0  0
  5  3  1  0     0  0
  6 12  1  0     0  0
  7  2  1  0     0  0
  8  7  1  0     0  0
  9  4  2  0     0  0
 10  2  2  0     0  0
 11 13  1  0     0  0
 12 14  1  0     0  0
 13  8  1  0     0  0
 14  8  1  0     0  0
 15 11  1  0     0  0
 16 12  1  0     0  0
 17  4  1  0     0  0
 18  9  1  0     0  0
 19 17  2  0     0  0
 20 19  1  0     0  0
  5  9  1  0     0  0
 18 20  2  0     0  0
  6 11  1  0     0  0
 16 15  1  0     0  0
M  END