
  SciTegic01161211252D

 54 57  0  0  0  0            999 V2000
    3.2417   -7.5792    0.0000 C   0  0
    8.2417   -3.0292    0.0000 N   0  0
    3.0542   -8.1542    0.0000 C   0  0  1  0  0  0
    7.9417   -3.5542    0.0000 C   0  0
    7.3417   -3.5542    0.0000 C   0  0
    2.7542   -7.2292    0.0000 O   0  0
    7.9417   -2.5167    0.0000 C   0  0
    2.2667   -7.5792    0.0000 C   0  0  1  0  0  0
    2.4542   -8.1542    0.0000 C   0  0  1  0  0  0
    1.2292   -6.4667    0.0000 P   0  0
    7.3417   -2.5042    0.0000 N   0  0
    3.8167   -7.3917    0.0000 N   0  0
    5.9042   -5.0792    0.0000 N   0  0
    7.6792   -6.6792    0.0000 C   0  0
    7.0417   -3.0292    0.0000 C   0  0
    8.2542   -6.4917    0.0000 N   0  0
    5.3292   -5.2542    0.0000 C   0  0
    8.5792   -7.4792    0.0000 C   0  0
    8.6917   -6.8917    0.0000 C   0  0  1  0  0  0
    3.9417   -6.8042    0.0000 C   0  0
    1.9667   -7.0542    0.0000 C   0  0
    7.0417   -4.0667    0.0000 C   0  0
    6.3417   -5.4792    0.0000 C   0  0
    7.2292   -6.2792    0.0000 C   0  0
    1.3542   -7.0542    0.0000 O   0  0
    6.0292   -4.4917    0.0000 C   0  0
   10.2792   -6.9167    0.0000 C   0  0
    1.8292   -6.4667    0.0000 O   0  0
    7.5542   -7.2667    0.0000 O   0  0
    6.4417   -4.0667    0.0000 C   0  0
    4.8792   -4.8542    0.0000 O   0  0
    8.0042   -7.6667    0.0000 O   0  0
    6.4417   -3.0292    0.0000 C   0  0
    3.4917   -6.4042    0.0000 O   0  0
   10.4042   -6.3417    0.0000 O   0  0
    6.9167   -5.2917    0.0000 C   0  0
    6.2167   -6.0667    0.0000 C   0  0
    7.3542   -5.6917    0.0000 C   0  0
    6.6667   -6.4667    0.0000 C   0  0
    8.2417   -1.9917    0.0000 N   0  0
    9.2667   -6.7042    0.0000 C   0  0
    3.4042   -8.6375    0.0000 O   0  0
    0.6292   -6.4625    0.0000 O   0  0
    1.2292   -5.8667    0.0000 O   0  0
    4.6292   -6.0292    0.0000 S   0  0
    8.2417   -4.0667    0.0000 O   0  0
    2.1042   -8.6375    0.0000 O   0  0
    9.7167   -7.1042    0.0000 C   0  0
    9.0167   -7.8792    0.0000 O   0  0
    6.1417   -3.5417    0.0000 C   0  0
   10.7292   -7.3292    0.0000 O   0  0
    5.2042   -5.8417    0.0000 C   0  0
    4.5042   -6.6167    0.0000 C   0  0
    8.8542   -6.3042    0.0000 H   0  0
  2  4  2  0
  3  1  1  0
  4  5  1  0
  5 22  2  0
  6  1  1  0
  7 11  2  0
  8  6  1  0
  9  3  1  0
 10 25  1  0
 11 15  1  0
  1 12  1  0
 13 17  1  0
 14 24  1  0
 15 33  2  0
 16 14  1  0
 17 52  1  0
 18 19  1  0
 19 16  1  0
 20 12  1  0
  8 21  1  1
 22 30  1  0
 23 13  1  0
 24 39  2  0
 25 21  1  0
 26 13  1  0
 27 48  1  0
 28 10  2  0
 29 14  2  0
 30 26  1  0
 31 17  2  0
 32 18  2  0
 33 50  1  0
 34 20  2  0
 35 27  2  0
 36 23  1  0
 37 23  2  0
 38 36  2  0
 39 37  1  0
 40  7  1  0
 41 19  1  0
  3 42  1  6
 43 10  1  0
 44 10  1  0
 45 53  1  0
 46  4  1  0
  9 47  1  6
 48 41  1  0
 49 18  1  0
 50 30  2  0
 51 27  1  0
 52 45  1  0
 53 20  1  0
 19 54  1  1
  9  8  1  0
 24 38  1  0
  5 15  1  0
  2  7  1  0
M  END