
  SciTegic09261415472D

  8  8  0  0  0  0            999 V2000
    8.2322   -4.8807    0.0000 N   0  0
    8.4838   -5.6651    0.0000 N   0  0
    7.8178   -6.1472    0.0000 C   0  0
    7.1520   -5.6651    0.0000 C   0  0
    7.4076   -4.8807    0.0000 C   0  0
    7.8178   -6.9755    0.0000 C   0  0
    7.1005   -7.3896    0.0000 C   0  0
    7.1005   -8.2179    0.0000 O   0  0
  1  2  1  0
  2  3  2  0
  3  4  1  0
  4  5  2  0
  1  5  1  0
  3  6  1  0
  6  7  1  0
  7  8  1  0
M  END