
  SciTegic11081110012D

 23 25  0  0  0  0            999 V2000
   12.3660   -8.0106    0.0000 C   0  0
   11.9534   -7.2963    0.0000 S   0  0
   11.1465   -7.4678    0.0000 C   0  0
   11.0603   -8.2883    0.0000 C   0  0
   11.8139   -8.6238    0.0000 C   0  0
   13.1909   -8.0258    0.0000 C   0  0
   13.6166   -7.3192    0.0000 N   0  0
   10.3459   -8.7007    0.0000 C   0  0
    9.6314   -8.2883    0.0000 N   0  0
   10.3459   -9.5257    0.0000 O   0  0
    9.6314   -7.4633    0.0000 C   0  0
    8.9169   -7.0507    0.0000 C   0  0
    8.2026   -7.4633    0.0000 N   0  0
    8.2026   -8.2883    0.0000 C   0  0
    8.9169   -8.7007    0.0000 C   0  0
    7.4881   -7.0507    0.0000 C   0  0
    7.4881   -6.2259    0.0000 C   0  0
    6.7737   -7.4633    0.0000 C   0  0
   14.4462   -7.3385    0.0000 C   0  0
   14.8718   -6.6360    0.0000 C   0  0
   14.4762   -5.9117    0.0000 C   0  0
   13.6504   -5.8943    0.0000 C   0  0
   13.2202   -6.6013    0.0000 C   0  0
  5  1  2  0
  1  6  1  0
  6  7  1  0
  4  8  1  0
  8  9  1  0
  8 10  2  0
  9 11  1  0
  9 15  1  0
 11 12  1  0
 12 13  1  0
 13 14  1  0
 14 15  1  0
 13 16  1  0
 16 17  1  0
 16 18  1  0
  7 19  1  0
  1  2  1  0
  2  3  1  0
  3  4  2  0
  4  5  1  0
  7 23  1  0
 19 20  1  0
 20 21  1  0
 21 22  1  0
 22 23  1  0
M  END