
          08180812482D 1   1.00000     0.00000     0

 19 20  0     1  0            999 V2000
   -2.9014  -16.2499    0.0000 N   0  0  0  0  0  0           0  0  0
   -2.9026  -17.0773    0.0000 C   0  0  0  0  0  0           0  0  0
   -2.1877  -17.4902    0.0000 C   0  0  0  0  0  0           0  0  0
   -2.1895  -15.8372    0.0000 C   0  0  0  0  0  0           0  0  0
   -1.4742  -16.2463    0.0000 C   0  0  0  0  0  0           0  0  0
   -1.4739  -17.0773    0.0000 C   0  0  0  0  0  0           0  0  0
   -0.7179  -15.9169    0.0000 C   0  0  0  0  0  0           0  0  0
   -0.0544  -16.4072    0.0000 N   0  3  0  0  0  0           0  0  0
   -0.0639  -17.2315    0.0000 C   0  0  0  0  0  0           0  0  0
    0.7186  -17.4928    0.0000 C   0  0  0  0  0  0           0  0  0
    1.2089  -16.8292    0.0000 S   0  0  0  0  0  0           0  0  0
    0.7293  -16.1580    0.0000 C   0  0  0  0  0  0           0  0  0
   -3.6174  -17.4892    0.0000 C   0  0  0  0  0  0           0  0  0
   -2.1920  -15.0122    0.0000 N   0  0  0  0  0  0           0  0  0
   -0.7361  -17.7099    0.0000 C   0  0  0  0  0  0           0  0  0
    0.9672  -18.2795    0.0000 C   0  0  1  0  0  0           0  0  0
    1.7727  -18.4575    0.0000 C   0  0  0  0  0  0           0  0  0
    2.0213  -19.2442    0.0000 O   0  0  0  0  0  0           0  0  0
    0.4102  -18.8881    0.0000 O   0  0  0  0  0  0           0  0  0
 10 11  1  0     0  0
 11 12  1  0     0  0
 12  8  2  0     0  0
  2  3  1  0     0  0
  3  6  2  0     0  0
  5  7  1  0     0  0
  1  2  2  0     0  0
  7  8  1  0     0  0
  2 13  1  0     0  0
  8  9  1  0     0  0
  4 14  1  0     0  0
  9 15  1  0     0  0
  5  4  2  0     0  0
 10 16  1  0     0  0
  4  1  1  0     0  0
 16 17  1  0     0  0
  5  6  1  0     0  0
 17 18  1  0     0  0
  9 10  2  0     0  0
 16 19  1  1     0  0
M  CHG  1   8   1
M  END