
  SciTegic11201309402D

104113  0  0  0  0            999 V2000
   -1.6286   -1.2043    0.0000 C   0  0
   -1.5821   -2.8584    0.0000 O   0  0
    2.1841    0.9128    0.0000 N   0  0
    1.3611    0.8998    0.0000 C   0  0
    0.9607    0.1785    0.0000 N   0  0
    0.9366    1.6072    0.0000 S   0  0
    0.1358    0.1646    0.0000 C   0  0
   -0.2829    0.8726    0.0000 C   0  0
   -1.1070    0.8590    0.0000 C   0  0
   -0.2566   -0.5555    0.0000 C   0  0
   -1.0793   -0.5726    0.0000 C   0  0
   -1.5100    0.1415    0.0000 C   0  0
   -2.3222   -0.0474    0.0000 C   0  0
   -2.3936   -0.8783    0.0000 O   0  0
   -2.9457    0.4929    0.0000 O   0  0
   -0.8991   -1.5931    0.0000 C   0  0
   -0.8799   -2.4225    0.0000 C   0  0
   -0.1532   -2.8187    0.0000 C   0  0
    0.5548   -2.3866    0.0000 C   0  0
    0.5314   -1.5542    0.0000 C   0  0
   -0.1958   -1.1618    0.0000 C   0  0
   -2.3100   -2.4633    0.0000 C   0  0
   -2.3313   -1.6412    0.0000 C   0  0
   -3.0528   -1.2504    0.0000 C   0  0
   -3.7535   -1.6806    0.0000 C   0  0
   -3.7280   -2.5058    0.0000 C   0  0
   -3.0061   -2.8929    0.0000 C   0  0
    1.2798   -2.7803    0.0000 O   0  0
   -4.4293   -2.9403    0.0000 O   0  0
   11.4485   -0.2505    0.0000 C   0  0
   12.2733   -0.2336    0.0000 N   0  0
   11.0507   -0.9732    0.0000 O   0  0
   12.7003   -0.9395    0.0000 C   0  0  2  0  0  0
   13.5251   -0.9226    0.0000 C   0  0
   12.3025   -1.6623    0.0000 C   0  0  1  0  0  0
   11.4777   -1.6791    0.0000 C   0  0
   12.7295   -2.3681    0.0000 O   0  0
   13.9522   -1.6285    0.0000 N   0  0
   13.9229   -0.1999    0.0000 O   0  0
   10.2017    0.4395    0.0000 N   0  0
   11.0219    0.4552    0.0000 C   0  0  1  0  0  0
   11.2603    1.2402    0.0000 C   0  0
   10.5872    1.7096    0.0000 C   0  0
    9.9330    1.2145    0.0000 C   0  0
   14.7770   -1.6116    0.0000 C   0  0  2  0  0  0
   15.2040   -2.3175    0.0000 C   0  0
   15.1748   -0.8889    0.0000 C   0  0
   14.8062   -3.0403    0.0000 O   0  0
   16.0264   -2.3006    0.0000 N   0  0
   16.0392   -3.1243    0.0000 C   0  0
   16.8264   -3.3713    0.0000 C   0  0
   17.3046   -2.6990    0.0000 C   0  0
   16.8132   -2.0349    0.0000 C   0  0  1  0  0  0
   17.1844   -1.2982    0.0000 C   0  0
   18.0073   -1.2514    0.0000 N   0  0
   16.7320   -0.6083    0.0000 O   0  0
   18.3057   -2.0198    0.0000 C   0  0
   19.1295   -1.9756    0.0000 C   0  0
   19.3421   -1.1784    0.0000 C   0  0
   18.6499   -0.7288    0.0000 C   0  0  1  0  0  0
   18.3409    0.0362    0.0000 C   0  0
   18.8473    0.6947    0.0000 N   0  0
   17.5240    0.1511    0.0000 O   0  0
   11.7005   -0.9599    0.0000 H   0  0
    9.8096   -0.2864    0.0000 C   0  0
    8.9850   -0.3098    0.0000 C   0  0
   10.2423   -0.9888    0.0000 O   0  0
    8.5523    0.3926    0.0000 N   0  0
   18.4271    1.4045    0.0000 C   0  0  2  0  0  0
   17.6021    1.3958    0.0000 C   0  0
   18.8311    2.1231    0.0000 C   0  0
   19.6554    2.1573    0.0000 C   0  0
   20.0972    1.4606    0.0000 C   0  0
   19.7163    0.7286    0.0000 O   0  0
   20.9231    1.4939    0.0000 O   0  0
   17.1818    2.1058    0.0000 N   0  0
   17.1971    0.6771    0.0000 O   0  0
   17.4829    2.8749    0.0000 C   0  0
   18.2991    2.9953    0.0000 C   0  0
   18.6029    3.7623    0.0000 N   0  0
   18.8114    2.3487    0.0000 O   0  0
    7.7277    0.3692    0.0000 C   0  0
    7.2952    1.0719    0.0000 C   0  0  2  0  0  0
    7.3356   -0.3567    0.0000 O   0  0
   16.3569    2.0903    0.0000 C   0  0
   14.7394    3.1968    0.0000 C   0  0
    7.5617    1.8482    0.0000 C   0  0
    6.9035    2.3456    0.0000 C   0  0
    6.2270    1.8734    0.0000 C   0  0
    6.4659    1.0842    0.0000 N   0  0
    5.7682    0.6441    0.0000 C   0  0
    5.0381    1.0283    0.0000 C   0  0
    5.8005   -0.1803    0.0000 O   0  0
    4.3403    0.5881    0.0000 C   0  0
    3.6102    0.9723    0.0000 C   0  0
    2.9125    0.5322    0.0000 C   0  0
    8.5458    1.2208    0.0000 C   0  0
    9.2570    1.6389    0.0000 C   0  0
    9.2548    2.4806    0.0000 C   0  0
    9.9743    3.2320    0.0000 C   0  0
   13.2178    3.2320    0.0000 C   0  0
   19.4216   -0.0928    0.0000 H   0  0
   17.8096   -1.9499    0.0000 H   0  0
   12.0142    0.5793    0.0000 H   0  0
 11 10  2  0
 46 49  1  0
 49 50  1  0
 22 23  2  0
 10  7  1  0
 23 24  1  0
 11 12  1  0
 50 51  1  0
 51 52  1  0
 52 53  1  0
 53 49  1  0
 24 25  2  0
 53 54  1  0
  1 16  1  0
 54 55  1  0
 25 26  1  0
 54 56  2  0
 55 57  1  0
  4  5  1  0
 26 27  2  0
 27 22  1  0
 22  2  1  0
 57 58  1  0
 58 59  1  0
 59 60  1  0
 60 55  1  0
 19 28  1  0
 60 61  1  0
  4  6  2  0
 61 62  1  0
 26 29  1  0
 61 63  2  0
 12 13  1  0
 33 64  1  1
 41 30  1  0
 40 65  1  0
 13 14  1  0
 65 66  1  0
 30 31  1  0
 65 67  2  0
 14  1  1  0
 66 68  1  0
 30 32  2  0
 62 69  1  0
  1 11  1  0
 69 70  1  0
 31 33  1  0
 69 71  1  6
  2 17  1  0
 71 72  1  0
 33 34  1  0
 72 73  1  0
 13 15  2  0
 33 35  1  0
 73 74  1  0
 73 75  2  0
  5  7  1  0
 70 76  1  0
 35 36  1  6
 70 77  2  0
 76 78  1  0
 35 37  1  0
 78 79  1  0
 16 17  2  0
 79 80  1  0
 34 38  1  0
 79 81  2  0
  7  8  2  0
 68 82  1  0
 34 39  2  0
 83 82  1  1
 40 41  1  0
 82 84  2  0
 17 18  1  0
 76 85  1  0
  1 23  1  0
 85 86  1  0
 83 87  1  0
 18 19  2  0
  8  9  1  0
 19 20  1  0
 41 42  1  0
 87 88  1  0
 88 89  1  0
 89 90  1  0
 90 83  1  0
 42 43  1  0
 90 91  1  0
 43 44  1  0
 91 92  1  0
 44 40  1  0
 91 93  2  0
  9 12  2  0
 92 94  1  0
 38 45  1  0
 94 95  1  0
 20 21  2  0
 95 96  1  0
 96  3  1  0
 45 46  1  0
 68 97  1  0
 21 16  1  0
 97 98  1  0
 45 47  1  1
 98 99  1  0
  3  4  1  0
 99100  1  0
 46 48  2  0
100101  1  0
101 86  2  0
 60102  1  1
 53103  1  1
 41104  1  6
M  END