
  Mrv0541 09061317062D          

 20 22  0  0  0  0            999 V2000
    7.6508   -5.4548    0.0000 C   0  0  0  0  0  0  0  0  0  0  0  0
    7.4133   -6.2423    0.0000 C   0  0  0  0  0  0  0  0  0  0  0  0
    6.5840   -6.2631    0.0000 C   0  0  0  0  0  0  0  0  0  0  0  0
    6.9715   -4.9838    0.0000 N   0  0  0  0  0  0  0  0  0  0  0  0
    4.0421   -7.0340    0.0000 C   0  0  2  0  0  0  0  0  0  0  0  0
    8.4467   -5.2630    0.0000 C   0  0  0  0  0  0  0  0  0  0  0  0
    5.3756   -7.0257    0.0000 N   0  0  0  0  0  0  0  0  0  0  0  0
    6.3131   -5.4839    0.0000 C   0  0  0  0  0  0  0  0  0  0  0  0
    7.9758   -6.8382    0.0000 N   0  0  0  0  0  0  0  0  0  0  0  0
    9.0092   -5.8589    0.0000 N   0  0  0  0  0  0  0  0  0  0  0  0
    4.2962   -7.8175    0.0000 C   0  0  2  0  0  0  0  0  0  0  0  0
    6.2006   -6.9924    0.0000 C   0  0  0  0  0  0  0  0  0  0  0  0
    8.7759   -6.6507    0.0000 C   0  0  0  0  0  0  0  0  0  0  0  0
    4.7047   -6.5424    0.0000 C   0  0  0  0  0  0  0  0  0  0  0  0
    3.3378   -6.6049    0.0000 C   0  0  0  0  0  0  0  0  0  0  0  0
    5.1213   -7.8133    0.0000 C   0  0  0  0  0  0  0  0  0  0  0  0
    8.6801   -4.4713    0.0000 O   0  0  0  0  0  0  0  0  0  0  0  0
    2.6128   -7.0007    0.0000 H   0  0  0  0  0  0  0  0  0  0  0  0
    3.8171   -8.4842    0.0000 O   0  0  0  0  0  0  0  0  0  0  0  0
    3.3545   -5.7798    0.0000 O   0  0  0  0  0  0  0  0  0  0  0  0
  2  1  2  0  0  0  0
  3  2  1  0  0  0  0
  4  1  1  0  0  0  0
  5 14  1  0  0  0  0
  6  1  1  0  0  0  0
  7 12  1  0  0  0  0
  8  4  1  0  0  0  0
  9  2  1  0  0  0  0
 10  6  1  0  0  0  0
 11 16  1  0  0  0  0
 12  3  1  0  0  0  0
 13  9  2  0  0  0  0
 14  7  1  0  0  0  0
  5 15  1  1  0  0  0
 16  7  1  0  0  0  0
 17  6  2  0  0  0  0
 18 15  1  0  0  0  0
 11 19  1  6  0  0  0
 20 15  1  0  0  0  0
  3  8  2  0  0  0  0
 10 13  1  0  0  0  0
 11  5  1  0  0  0  0
M  ISO  1  18   3
M  END