
  SciTegic01161211242D

 19 20  0  0  0  0            999 V2000
   -2.6111    0.7486    0.0000 C   0  0
   -1.2964    1.4973    0.0000 O   0  0
   -2.5708    2.2291    0.0000 C   0  0
   -2.6111   -0.7486    0.0000 C   0  0
   -3.8773   -0.0189    0.0000 C   0  0
   -1.2964   -1.4973    0.0000 O   0  0
   -1.3343    3.0555    0.0000 N   0  0
    0.0000    0.7486    0.0000 C   0  0
   -3.7605    3.1215    0.0000 N   0  0
    0.0000   -0.7486    0.0000 C   0  0
   -3.8813   -1.2189    0.0000 C   0  0
    5.0929    1.5076    0.0000 Cl  0  0
   -1.7588    4.4941    0.0000 C   0  0
   -3.2583    4.5350    0.0000 C   0  0
   -4.9146    0.5843    0.0000 C   0  0
    1.2964    1.4973    0.0000 C   0  0
    1.2964   -1.4973    0.0000 C   0  0
    2.5929    0.7486    0.0000 C   0  0
    2.5929   -0.7486    0.0000 C   0  0
  1  2  1  0
  1  3  1  0
  1  4  1  0
  1  5  1  0
  4  6  1  0
  3  7  2  0
  2  8  1  0
  3  9  1  0
  6 10  1  0
  8 10  1  0
  5 11  2  0
  7 13  1  0
  9 14  1  0
 13 14  1  0
  5 15  1  0
  8 16  2  0
 10 17  2  0
 16 18  1  0
 17 19  1  0
 18 19  2  0
M  END