
  SciTegic05281317142D

 41 45  0  0  0  0            999 V2000
   -6.5121   -1.4924    0.0000 C   0  0  1  0  0  0
   -7.8109   -0.7403    0.0000 C   0  0
   -9.1404   -1.3494    0.0000 N   0  0
   -7.9504    0.7424    0.0000 N   0  0
   -9.4118    1.0494    0.0000 C   0  0
  -10.1511   -0.2501    0.0000 C   0  0
  -11.6549   -0.2755    0.0000 C   0  0
  -12.4172    1.0392    0.0000 C   0  0
  -11.6779    2.3386    0.0000 C   0  0
  -10.1583    2.3551    0.0000 C   0  0
   -6.4988    6.0116    0.0000 C   0  0
   -5.2025    5.2568    0.0000 C   0  0
   -3.9008    6.0022    0.0000 C   0  0
   -3.8954    7.5022    0.0000 C   0  0
   -5.1917    8.2569    0.0000 C   0  0
   -6.4935    7.5116    0.0000 C   0  0
   -5.1874    9.4569    0.0000 O   0  0
   -5.2049    3.7560    0.0000 C   0  0
   -7.5402    5.4153    0.0000 C   0  0
   -2.8637    5.3985    0.0000 C   0  0
   -3.9067    3.0027    0.0000 C   0  0  2  0  0  0
   -2.8664    3.6008    0.0000 N   0  0
   -3.9091    1.5019    0.0000 C   0  0
   -4.9494    0.9039    0.0000 O   0  0
   -2.6111    0.7486    0.0000 N   0  0
   -1.2964    1.4973    0.0000 C   0  0
   -1.2964   -1.4973    0.0000 C   0  0
   -2.6111   -0.7486    0.0000 C   0  0  1  0  0  0
    0.0000   -0.7486    0.0000 C   0  0
    0.0000    0.7486    0.0000 C   0  0
    1.2964    1.4973    0.0000 C   0  0
    2.5929    0.7486    0.0000 C   0  0
    2.5929   -0.7486    0.0000 C   0  0
    1.2964   -1.4973    0.0000 C   0  0
   -3.9122   -1.4966    0.0000 C   0  0
   -5.2109   -0.7445    0.0000 N   0  0
   -3.9141   -2.6966    0.0000 O   0  0
   -6.5176   -2.9932    0.0000 C   0  0
   -7.8197   -3.7397    0.0000 C   0  0
   -8.8569   -3.1362    0.0000 O   0  0
   -7.8241   -4.9397    0.0000 O   0  0
 13 20  1  0
  9 10  2  0
 21 18  1  6
 10  5  1  0
 21 22  1  0
  2  3  2  0
 21 23  1  0
 23 24  2  0
 11 12  2  0
 23 25  1  0
 25 26  1  0
  5  6  2  0
 12 13  1  0
  1  2  1  0
 25 28  1  0
 26 30  1  0
 29 27  1  0
 27 28  1  0
 13 14  2  0
  6  7  1  0
 29 30  2  0
 14 15  1  0
 30 31  1  0
  3  6  1  0
 31 32  2  0
 15 16  2  0
 32 33  1  0
 16 11  1  0
 33 34  2  0
 34 29  1  0
  7  8  2  0
 15 17  1  0
  5  4  1  0
 35 36  1  0
 35 37  2  0
 28 35  1  1
 36  1  1  0
 12 18  1  0
  1 38  1  1
  8  9  1  0
 38 39  1  0
 11 19  1  0
  4  2  1  0
 39 40  1  0
 39 41  2  0
M  END