
  SciTegic02271217242D

 27 29  0  0  0  0            999 V2000
   -2.2417  -20.3542    0.0000 O   0  0
   -1.8250  -21.0708    0.0000 S   0  0
   -1.4127  -20.3517    0.0000 O   0  0
   -3.9639  -21.4916    0.0000 C   0  0
   -3.9651  -22.3190    0.0000 C   0  0
   -3.2503  -22.7319    0.0000 C   0  0
   -2.5338  -22.3185    0.0000 C   0  0
   -2.5367  -21.4880    0.0000 C   0  0
   -3.2521  -21.0789    0.0000 C   0  0
   -1.1078  -21.4826    0.0000 N   0  0
   -1.1046  -22.3076    0.0000 C   0  0
   -1.8167  -22.7196    0.0000 C   0  0
   -1.8139  -23.5438    0.0000 N   0  0
   -1.0974  -23.9545    0.0000 C   0  0
   -0.3821  -23.5349    0.0000 C   0  0
   -0.3884  -22.7120    0.0000 C   0  0
    0.3354  -23.9421    0.0000 C   0  0
    0.3366  -24.7678    0.0000 C   0  0
    1.0532  -25.1750    0.0000 N   0  0
    1.0398  -23.5245    0.0000 C   0  0
    1.7555  -23.9249    0.0000 N   0  0
    1.7641  -24.7565    0.0000 C   0  0
    2.4824  -25.1623    0.0000 N   0  0
   -4.6785  -21.0793    0.0000 C   0  0
   -4.6787  -20.2543    0.0000 F   0  0
   -5.3929  -21.4920    0.0000 F   0  0
   -5.3958  -20.6667    0.0000 F   0  0
  2  1  2  0
 13 14  2  0
  7  8  1  0
 14 15  1  0
  4  5  2  0
 15 16  2  0
 16 11  1  0
  8  9  2  0
 15 17  1  0
  9  4  1  0
 17 18  2  0
  8  2  1  0
 18 19  1  0
 19 22  2  0
  3  2  2  0
 21 20  2  0
 20 17  1  0
 21 22  1  0
  2 10  1  0
  5  6  1  0
 10 11  1  0
 22 23  1  0
  4 24  1  0
 11 12  2  0
 24 25  1  0
  6  7  2  0
 24 26  1  0
 12 13  1  0
 24 27  1  0
M  END