
  SciTegic01161211252D

 37 38  0  0  0  0            999 V2000
   -0.3958   -7.4792    0.0000 S   0  0
    8.1917   -0.8417    0.0000 C   0  0  2  0  0  0
    8.9042   -1.2542    0.0000 C   0  0
    7.4792   -1.2542    0.0000 C   0  0
    9.7292   -1.3792    0.0000 C   0  0
    2.4792   -5.8042    0.0000 C   0  0
    0.3292   -7.0542    0.0000 C   0  0
    8.1917   -0.0125    0.0000 N   0  0
   -0.8208   -6.7625    0.0000 O   0  0
    0.0292   -8.2042    0.0000 O   0  0
    1.7542   -6.2292    0.0000 C   0  0
    8.5375   -1.9042    0.0000 O   0  0
   -1.1125   -7.9042    0.0000 N   0  0
   10.0167   -2.1667    0.0000 C   0  0
    7.4792   -2.0792    0.0000 O   0  0
    2.4750   -4.9792    0.0000 O   0  0
    0.3292   -6.2292    0.0000 C   0  0
    1.0417   -7.4667    0.0000 C   0  0
    1.0417   -5.8167    0.0000 C   0  0
    1.7542   -7.0542    0.0000 C   0  0
    6.7625   -0.8417    0.0000 N   0  0
    3.2000   -6.2167    0.0000 N   0  0
   10.1292   -0.6667    0.0000 N   0  0
   10.8542   -2.1417    0.0000 C   0  0
    4.6250   -4.5667    0.0000 O   0  0
    5.3375   -2.4917    0.0000 O   0  0
    3.9125   -5.8042    0.0000 C   0  0
    6.0500   -1.2542    0.0000 C   0  0
    6.0500   -2.0792    0.0000 C   0  0
    3.9125   -4.9792    0.0000 C   0  0
    5.3375   -3.3250    0.0000 C   0  0
    4.6250   -3.7375    0.0000 C   0  0
   11.2542   -1.4167    0.0000 C   0  0
   11.2875   -2.8542    0.0000 C   0  0
   12.1250   -2.8417    0.0000 C   0  0
   12.0875   -1.4000    0.0000 C   0  0
   12.5250   -2.1125    0.0000 C   0  0
  2  4  1  0
  2  3  1  6
  4 21  1  0
  5  3  1  0
  6 11  1  0
  7  1  1  0
  8  2  1  0
  9  1  2  0
 10  1  2  0
 11 20  1  0
 12  3  2  0
 13  1  1  0
 14  5  1  0
 15  4  2  0
 16  6  2  0
 17  7  2  0
 18  7  1  0
 19 17  1  0
 20 18  2  0
 21 28  1  0
 22  6  1  0
 23  5  1  0
 24 14  1  0
 25 30  1  0
 26 31  1  0
 27 22  1  0
 28 29  1  0
 29 26  1  0
 30 27  1  0
 31 32  1  0
 32 25  1  0
 33 24  1  0
 34 24  2  0
 35 34  1  0
 36 33  2  0
 37 35  2  0
 19 11  2  0
 37 36  1  0
M  END