
  SciTegic02271515152D

 37 41  0  0  0  0            999 V2000
   19.5837  -10.6565    0.0000 C   0  0
   20.2914  -10.2479    0.0000 N   0  0
   20.9991  -10.6565    0.0000 C   0  0
   21.7068  -10.2479    0.0000 C   0  0
   20.9991  -11.4737    0.0000 O   0  0
   22.4145  -10.6565    0.0000 C   0  0
   21.7068   -9.4307    0.0000 C   0  0
   21.7068   -8.6109    0.0000 N   0  0
   23.1215  -10.2482    0.0000 C   0  0
   18.8100  -10.3798    0.0000 S   0  0
   18.3105  -11.0266    0.0000 C   0  0
   18.7713  -11.7015    0.0000 N   0  0
   19.5555  -11.4718    0.0000 N   0  0
   24.2690   -9.5888    0.0000 N   0  0
   23.4560   -9.5036    0.0000 C   0  0
   24.4386  -10.3883    0.0000 C   0  0
   23.7307  -10.7946    0.0000 C   0  0
   23.7297  -11.6089    0.0000 C   0  0
   24.4357  -12.0179    0.0000 C   0  0
   25.1443  -11.6066    0.0000 C   0  0
   25.1418  -10.7937    0.0000 C   0  0
   24.6765   -8.8805    0.0000 C   0  0
   25.4937   -8.8793    0.0000 C   0  0
   25.8989   -9.5871    0.0000 C   0  0
   26.7154   -9.5862    0.0000 C   0  0
   27.1238   -8.8774    0.0000 C   0  0
   26.7097   -8.1679    0.0000 C   0  0
   25.8947   -8.1723    0.0000 C   0  0
   17.4937  -11.0026    0.0000 S   0  0
   17.1060  -10.2833    0.0000 C   0  0
   16.2891  -10.2593    0.0000 C   0  0
   15.9003   -9.5429    0.0000 C   0  0
   15.0843   -9.5187    0.0000 C   0  0
   14.6543  -10.2146    0.0000 C   0  0
   15.0463  -10.9365    0.0000 C   0  0
   15.8611  -10.9572    0.0000 C   0  0
   27.9409   -8.8751    0.0000 F   0  0
  1  2  1  0
  2  3  1  0
  3  4  1  0
  3  5  2  0
  4  6  2  0
  4  7  1  0
  7  8  3  0
  6  9  1  0
  1 10  1  0
 10 11  1  0
 11 12  2  0
 12 13  1  0
 13  1  2  0
  9 17  1  0
 16 14  1  0
 14 15  1  0
 15  9  2  0
 16 17  2  0
 17 18  1  0
 18 19  2  0
 19 20  1  0
 20 21  2  0
 21 16  1  0
 14 22  1  0
 22 23  1  0
 23 24  2  0
 24 25  1  0
 25 26  2  0
 26 27  1  0
 27 28  2  0
 28 23  1  0
 11 29  1  0
 29 30  1  0
 30 31  1  0
 31 32  2  0
 32 33  1  0
 33 34  2  0
 34 35  1  0
 35 36  2  0
 36 31  1  0
 26 37  1  0
M  END