
  CDK    9/15/10,16:21

 14 14  0  0  0  0  0  0  0  0999 V2000
   17.8772    1.5696    0.0000 N   0  0  0  0  0  0  0  0  0  0  0  0
   17.6196    0.7797    0.0000 C   0  0  0  0  0  0  0  0  0  0  0  0
   16.7899    0.7843    0.0000 C   0  0  0  0  0  0  0  0  0  0  0  0
   16.5371    1.5726    0.0000 N   0  0  0  0  0  0  0  0  0  0  0  0
   17.2092    2.0581    0.0000 C   0  0  0  0  0  0  0  0  0  0  0  0
   17.2116    2.8831    0.0000 N   0  0  0  0  0  0  0  0  0  0  0  0
   14.4029    2.0301    0.0000 C   0  0  0  0  0  0  0  0  0  0  0  0
   13.6799    1.6328    0.0000 C   0  0  0  0  0  0  0  0  0  0  0  0
   12.9742    2.0602    0.0000 N   0  0  0  0  0  0  0  0  0  0  0  0
   13.6625    0.8080    0.0000 C   0  0  0  0  0  0  0  0  0  0  0  0
   12.9406    0.4092    0.0000 O   0  0  0  0  0  0  0  0  0  0  0  0
   14.3692    0.3791    0.0000 O   0  0  0  0  0  0  0  0  0  0  0  0
   15.1085    1.6027    0.0000 C   0  0  0  0  0  0  0  0  0  0  0  0
   15.8315    2.0001    0.0000 C   0  0  0  0  0  0  0  0  0  0  0  0
  1  2  1  0  0  0  0 
  7  8  1  0  0  0  0 
  3  4  1  0  0  0  0 
  8  9  1  0  0  0  0 
  4  5  1  0  0  0  0 
  8 10  1  1  0  0  0 
  5  1  2  0  0  0  0 
  2  3  2  0  0  0  0 
 10 11  1  0  0  0  0 
 10 12  2  0  0  0  0 
  5  6  1  0  0  0  0 
  7 13  1  0  0  0  0 
 13 14  1  0  0  0  0 
 14  4  1  0  0  0  0 
M  END