
  SciTegic11201309402D

 79 82  0  0  1  0            999 V2000
   12.5542   -3.2042    0.0000 N   0  0
   12.5542   -4.0250    0.0000 C   0  0
   11.8917   -2.7292    0.0000 C   0  0  2  0  0  0
   11.8500   -4.4375    0.0000 C   0  0  2  0  0  0
   11.3042   -2.1500    0.0000 C   0  0
   11.8500   -5.2542    0.0000 N   0  0
   11.1417   -5.6625    0.0000 C   0  0
   11.1417   -4.0292    0.0000 C   0  0
   13.2167   -2.7250    0.0000 C   0  0  2  0  0  0
   12.1417   -1.9542    0.0000 C   0  0
   -0.1750   -8.1292    0.0000 C   0  0
   11.1417   -6.4792    0.0000 C   0  0  1  0  0  0
   11.5125   -1.3500    0.0000 N   0  0
    0.5292   -7.7167    0.0000 N   0  0
   12.9625   -1.9500    0.0000 C   0  0  2  0  0  0
    8.5000    1.6458    0.0000 C   0  0
    0.5250   -4.4542    0.0000 C   0  0
    3.3667  -10.1667    0.0000 C   0  0
   10.4375   -6.8917    0.0000 N   0  0
    1.9500   -7.7167    0.0000 C   0  0
   11.8750    0.0208    0.0000 C   0  0
   11.0542   -3.2167    0.0000 C   0  0
   10.3917   -4.3625    0.0000 C   0  0
    9.8500   -3.7542    0.0000 C   0  0
   10.2542   -3.0417    0.0000 C   0  0
   10.4417   -7.7042    0.0000 C   0  0
   13.2667   -4.4292    0.0000 O   0  0
   11.3000   -0.5625    0.0000 C   0  0  2  0  0  0
    1.2417   -8.1292    0.0000 C   0  0  2  0  0  0
    8.2875    2.4333    0.0000 N   0  0
    3.3667   -9.3542    0.0000 N   0  0
    1.2375   -4.0417    0.0000 N   0  0
   10.5125   -2.3667    0.0000 O   0  0
   10.4375   -5.2542    0.0000 O   0  0
   -0.1750   -8.9500    0.0000 O   0  0
    1.9500   -6.9042    0.0000 O   0  0
   12.6625   -0.1875    0.0000 O   0  0
   11.1500   -8.1167    0.0000 O   0  0
   -0.8833   -7.7250    0.0000 C   0  0  2  0  0  0
    9.2875    1.4333    0.0000 N   0  0
    0.5250   -5.2667    0.0000 N   0  0
    2.6625  -10.5792    0.0000 N   0  0
    2.6542   -8.1292    0.0000 N   0  0
   -0.1833   -4.0417    0.0000 N   0  0
    4.0750  -10.5792    0.0000 N   0  0
    7.9250    1.0625    0.0000 N   0  0
   11.6625    0.8083    0.0000 O   0  0
   -1.5875   -8.1292    0.0000 N   0  0
   11.8542   -6.8875    0.0000 C   0  0
   14.0167   -2.8917    0.0000 C   0  0
   12.5625   -6.4792    0.0000 O   0  0
   13.5125   -1.3417    0.0000 C   0  0
    9.7375   -8.1167    0.0000 C   0  0
    9.0292   -3.7542    0.0000 C   0  0
    9.8500   -2.3417    0.0000 C   0  0
   10.5042   -0.3542    0.0000 C   0  0
    1.2417   -8.9417    0.0000 C   0  0
    9.5042    0.6458    0.0000 C   0  0
   -0.1750   -5.6792    0.0000 C   0  0
    1.9500  -10.1667    0.0000 C   0  0
    3.3625   -7.7167    0.0000 C   0  0
   -0.8833   -6.9042    0.0000 C   0  0
   10.3000    0.4333    0.0000 C   0  0
    1.9500   -9.3542    0.0000 C   0  0
    9.0250   -7.7042    0.0000 C   0  0
   -0.1750   -6.5000    0.0000 C   0  0
    4.0667   -8.1250    0.0000 C   0  0
    6.9000   -8.1167    0.0000 C   0  0
    7.6125   -7.7125    0.0000 C   0  0
    8.3167   -8.1167    0.0000 C   0  0
    4.7750   -7.7167    0.0000 C   0  0
    5.4875   -8.1250    0.0000 C   0  0
    6.1917   -7.7125    0.0000 C   0  0
   14.5625   -2.2875    0.0000 C   0  0
   14.3042   -1.5125    0.0000 C   0  0
    9.0292   -2.3417    0.0000 C   0  0
    8.6250   -3.0500    0.0000 C   0  0
   12.5750   -1.2292    0.0000 H   0  0
   13.3292   -3.5375    0.0000 H   0  0
  2  1  1  0
  3  1  1  0
  4  2  1  0
  3  5  1  6
  4  6  1  6
  7  6  1  0
  4  8  1  0
  9  1  1  0
  3 10  1  0
 11 14  1  0
 12  7  1  0
 13  5  1  0
 29 14  1  6
 15  9  1  0
 16 40  2  0
 17 41  2  0
 18 42  2  0
 12 19  1  6
 20 43  1  0
 21 28  1  0
 22  8  1  0
 23  8  1  0
 24 23  1  0
 25 22  1  0
 26 19  1  0
 27  2  2  0
 28 13  1  1
 29 20  1  0
 30 16  1  0
 31 18  1  0
 32 17  1  0
 33  5  2  0
 34  7  2  0
 35 11  2  0
 36 20  2  0
 37 21  2  0
 38 26  2  0
 39 11  1  0
 40 58  1  0
 41 59  1  0
 42 60  1  0
 43 61  1  0
 44 17  1  0
 45 18  1  0
 46 16  1  0
 47 21  1  0
 39 48  1  6
 12 49  1  0
 50  9  1  0
 51 49  1  0
 52 15  1  0
 53 26  1  0
 54 24  1  0
 55 25  1  0
 28 56  1  0
 29 57  1  0
 58 63  1  0
 59 66  1  0
 60 64  1  0
 61 67  1  0
 39 62  1  0
 63 56  1  0
 64 57  1  0
 65 53  1  0
 66 62  1  0
 67 71  1  0
 68 69  1  0
 69 70  1  0
 70 65  1  0
 71 72  1  0
 72 73  1  0
 73 68  1  0
 74 50  1  0
 75 74  1  0
 76 55  2  0
 77 54  2  0
 15 78  1  1
  9 79  1  1
 15 10  1  0
 75 52  1  0
 24 25  2  0
 76 77  1  0
M  END