
          11280715292D 1   1.00000     0.00000     0

 16 17  0     0  0            999 V2000
    3.9375   -1.5250    0.0000 N   0  0  3  0  0  0           0  0  0
    3.1417   -1.7792    0.0000 C   0  0  0  0  0  0           0  0  0
    4.4167   -2.1917    0.0000 C   0  0  0  0  0  0           0  0  0
    3.9292   -2.8667    0.0000 C   0  0  0  0  0  0           0  0  0
    3.1417   -2.6042    0.0000 C   0  0  0  0  0  0           0  0  0
    2.4292   -1.3667    0.0000 C   0  0  0  0  0  0           0  0  0
    4.1917   -0.7375    0.0000 C   0  0  0  0  0  0           0  0  0
    2.4292   -3.0167    0.0000 C   0  0  0  0  0  0           0  0  0
    1.7167   -1.7792    0.0000 C   0  0  0  0  0  0           0  0  0
    1.7167   -2.6042    0.0000 C   0  0  0  0  0  0           0  0  0
    5.0000   -0.5667    0.0000 C   0  0  0  0  0  0           0  0  0
    1.0042   -1.3667    0.0000 O   0  0  0  0  0  0           0  0  0
    5.2125    0.2333    0.0000 C   0  0  3  0  0  0           0  0  0
    1.0042   -0.5417    0.0000 C   0  0  0  0  0  0           0  0  0
    4.6250    0.8125    0.0000 C   0  0  0  0  0  0           0  0  0
    6.0042    0.4500    0.0000 C   0  0  0  0  0  0           0  0  0
  2  1  1  0     0  0
  3  1  1  0     0  0
  4  3  2  0     0  0
  5  2  1  0     0  0
  6  2  2  0     0  0
  7  1  1  0     0  0
  8  5  2  0     0  0
  9  6  1  0     0  0
 10  9  2  0     0  0
 11  7  1  0     0  0
 12  9  1  0     0  0
 13 11  1  0     0  0
 14 12  1  0     0  0
 15 13  1  0     0  0
 16 13  1  0     0  0
  5  4  1  0     0  0
 10  8  1  0     0  0
M  END