
          11280714552D 1   1.00000     0.00000     0

 23 26  0     0  0            999 V2000
    3.1917  -10.1917    0.0000 C   0  0  0  0  0  0           0  0  0
    3.5500  -10.6792    0.0000 N   0  0  0  0  0  0           0  0  0
    3.5375   -9.7042    0.0000 N   0  0  0  0  0  0           0  0  0
   -0.6958  -10.4542    0.0000 C   0  0  0  0  0  0           0  0  0
   -1.2500  -10.0125    0.0000 C   0  0  3  0  0  0           0  0  0
   -1.2208  -11.0417    0.0000 C   0  0  3  0  0  0           0  0  0
    4.1042  -10.4875    0.0000 C   0  0  0  0  0  0           0  0  0
    4.1042   -9.8917    0.0000 C   0  0  0  0  0  0           0  0  0
   -1.7708  -10.3292    0.0000 C   0  0  0  0  0  0           0  0  0
   -1.7625  -10.7667    0.0000 C   0  0  0  0  0  0           0  0  0
   -1.7958   -9.7292    0.0000 C   0  0  0  0  0  0           0  0  0
   -1.7375  -11.3667    0.0000 C   0  0  0  0  0  0           0  0  0
    2.5917  -10.1917    0.0000 N   0  0  0  0  0  0           0  0  0
   -0.0833  -10.4542    0.0000 N   0  0  0  0  0  0           0  0  0
    0.6000  -10.4542    0.0000 O   0  0  0  0  0  0           0  0  0
    1.6417  -10.3167    0.0000 C   0  0  3  0  0  0           0  0  0
    2.1167   -9.9667    0.0000 C   0  0  0  0  0  0           0  0  0
    1.1667   -9.9917    0.0000 C   0  0  0  0  0  0           0  0  0
    1.6417  -10.7417    0.0000 O   0  0  0  0  0  0           0  0  0
    4.6167  -10.7792    0.0000 C   0  0  0  0  0  0           0  0  0
    4.6125   -9.6000    0.0000 C   0  0  0  0  0  0           0  0  0
    5.1250   -9.8917    0.0000 C   0  0  0  0  0  0           0  0  0
    5.1292  -10.4875    0.0000 C   0  0  0  0  0  0           0  0  0
  2  1  2  0     0  0
  3  1  1  0     0  0
  4 14  2  0     0  0
  5  4  1  0     0  0
  6  4  1  0     0  0
  7  2  1  0     0  0
  8  3  1  0     0  0
  9  5  1  0     0  0
 10  6  1  0     0  0
 11  5  1  0     0  0
 12  6  1  0     0  0
 13  1  1  0     0  0
 14 15  1  0     0  0
 15 18  1  0     0  0
 16 17  1  0     0  0
 17 13  1  0     0  0
 18 16  1  0     0  0
 19 16  1  0     0  0
 20  7  1  0     0  0
 21  8  1  0     0  0
 22 21  2  0     0  0
 23 20  2  0     0  0
  7  8  2  0     0  0
 22 23  1  0     0  0
 10 12  1  0     0  0
 11  9  1  0     0  0
M  END