
  SciTegic05231716462D

 20 20  0  0  0  0            999 V2000
   15.7733    4.4099    0.0000 S   0  0
    5.3817    0.7500    0.0000 S   0  0
    9.3921    2.9851    0.0000 S   0  0
   16.9390    3.4660    0.0000 O   0  0
   16.8153    5.4890    0.0000 O   0  0
    5.3817    3.1771    0.0000 N   0  0
   14.5598    3.5283    0.0000 N   0  0
    3.0000    1.9635    0.0000 N   0  0
   14.7892    5.5420    0.0000 N   0  0
   13.0327    5.6301    0.0000 N   0  0
    0.7500    3.2626    0.0000 N   0  0
    3.0000    4.5616    0.0000 N   0  0
    4.5000    1.9635    0.0000 C   0  0
    6.8083    2.7135    0.0000 C   0  0
    6.8083    1.2135    0.0000 C   0  0
   13.1895    4.1384    0.0000 C   0  0
    8.0218    3.5952    0.0000 C   0  0
   11.9760    3.2567    0.0000 C   0  0
    2.2500    3.2626    0.0000 C   0  0
   10.6056    3.8668    0.0000 C   0  0
  1  4  2  0
  1  5  2  0
  1  7  1  0
  1  9  1  0
  2 13  1  0
  2 15  1  0
  3 17  1  0
  3 20  1  0
  6 13  2  0
  6 14  1  0
  7 16  2  0
  8 13  1  0
  8 19  2  0
 10 16  1  0
 11 19  1  0
 12 19  1  0
 14 15  2  0
 14 17  1  0
 16 18  1  0
 18 20  1  0
M  END