
          05080814042D 1   1.00000     0.00000     0

 36 41  0     1  0            999 V2000
   -4.0399  -18.4947    0.0000 C   0  0  0  0  0  0           0  0  0
   -4.7506  -18.9095    0.0000 C   0  0  0  0  0  0           0  0  0
   -4.7436  -19.7359    0.0000 C   0  0  0  0  0  0           0  0  0
   -4.0298  -20.1393    0.0000 C   0  0  0  0  0  0           0  0  0
   -3.3266  -18.9019    0.0000 C   0  0  0  0  0  0           0  0  0
   -3.3205  -19.7295    0.0000 C   0  0  0  0  0  0           0  0  0
   -2.6047  -20.1359    0.0000 C   0  0  0  0  0  0           0  0  0
   -2.6168  -18.4805    0.0000 C   0  0  0  0  0  0           0  0  0
   -1.8963  -18.8914    0.0000 C   0  0  2  0  0  0           0  0  0
   -1.8918  -19.7210    0.0000 C   0  0  2  0  0  0           0  0  0
   -1.1750  -20.1296    0.0000 N   0  0  3  0  0  0           0  0  0
   -0.4582  -19.7132    0.0000 C   0  0  0  0  0  0           0  0  0
   -0.4628  -18.8836    0.0000 C   0  0  1  0  0  0           0  0  0
   -1.1841  -18.4704    0.0000 C   0  0  0  0  0  0           0  0  0
   -1.9042  -18.0625    0.0000 H   0  0  0  0  0  0           0  0  0
   -1.9000  -20.5458    0.0000 H   0  0  0  0  0  0           0  0  0
    0.2499  -18.4679    0.0000 C   0  0  0  0  0  0           0  0  0
    0.9662  -18.8772    0.0000 N   0  0  3  0  0  0           0  0  0
    0.2462  -17.6429    0.0000 O   0  0  0  0  0  0           0  0  0
    0.9639  -19.7053    0.0000 C   0  0  0  0  0  0           0  0  0
    1.6761  -20.1146    0.0000 C   0  0  0  0  0  0           0  0  0
    2.3911  -19.7024    0.0000 N   0  0  3  0  0  0           0  0  0
    2.3894  -18.8764    0.0000 C   0  0  0  0  0  0           0  0  0
    1.6726  -18.4626    0.0000 C   0  0  0  0  0  0           0  0  0
   -4.0438  -17.6697    0.0000 O   0  0  0  0  0  0           0  0  0
   -4.7603  -17.2606    0.0000 C   0  0  0  0  0  0           0  0  0
   -1.1717  -20.9546    0.0000 C   0  0  0  0  0  0           0  0  0
    3.1059  -20.1144    0.0000 C   0  0  0  0  0  0           0  0  0
    3.1020  -20.9386    0.0000 C   0  0  0  0  0  0           0  0  0
    3.8159  -21.3505    0.0000 C   0  0  0  0  0  0           0  0  0
    3.8133  -19.7000    0.0000 N   0  0  0  0  0  0           0  0  0
    5.3108  -19.8522    0.0000 C   0  0  0  0  0  0           0  0  0
    4.5278  -20.1082    0.0000 N   0  0  3  0  0  0           0  0  0
    4.5304  -20.9326    0.0000 C   0  0  0  0  0  0           0  0  0
    5.3159  -21.1835    0.0000 N   0  0  0  0  0  0           0  0  0
    5.7961  -20.5134    0.0000 C   0  0  0  0  0  0           0  0  0
 13 17  1  1     0  0
  7 10  1  0     0  0
 17 18  1  0     0  0
  9  8  1  0     0  0
 17 19  2  0     0  0
 18 20  1  0     0  0
  9 10  1  0     0  0
  3  4  2  0     0  0
  4  6  1  0     0  0
  5  6  2  0     0  0
  1  2  2  0     0  0
 18 24  1  0     0  0
 20 21  1  0     0  0
 21 22  1  0     0  0
 22 23  1  0     0  0
 23 24  1  0     0  0
  5  1  1  0     0  0
  1 25  1  0     0  0
  2  3  1  0     0  0
 25 26  1  0     0  0
  9 14  1  0     0  0
 11 27  1  0     0  0
 10 11  1  0     0  0
 22 28  1  0     0  0
 11 12  1  0     0  0
 28 29  1  0     0  0
 12 13  1  0     0  0
 29 30  2  0     0  0
 30 34  1  0     0  0
 13 14  1  0     0  0
 33 31  1  0     0  0
 31 28  2  0     0  0
 33 34  1  0     0  0
  9 15  1  6     0  0
  5  8  1  0     0  0
 10 16  1  1     0  0
  6  7  1  0     0  0
 32 33  1  0     0  0
 34 35  2  0     0  0
 35 36  1  0     0  0
 36 32  2  0     0  0
M  END