
  SciTegic12231509382D

 29 32  0  0  0  0            999 V2000
    0.2917   -0.7475    0.0000 C   0  0
    0.2917    0.7475    0.0000 C   0  0
   -1.0028   -1.5132    0.0000 C   0  0
    1.7138    1.2033    0.0000 S   0  0
   -4.9153    0.7255    0.0000 N   0  0
   -7.4980   -0.8010    0.0000 N   0  0
   -1.0028    1.5132    0.0000 C   0  0
   -2.3155    0.7475    0.0000 C   0  0
    1.7138   -1.2033    0.0000 C   0  0
    2.5889    0.0182    0.0000 C   0  0
   -2.3155   -0.7475    0.0000 C   0  0
  -12.6978   -0.8448    0.0000 C   0  0
  -13.9914   -1.6058    0.0000 C   0  0
   -0.9991   -2.7132    0.0000 O   0  0
   -3.6217    1.4865    0.0000 C   0  0
  -12.7079    0.3551    0.0000 O   0  0
  -15.2981   -0.8691    0.0000 C   0  0
  -13.9763   -3.1058    0.0000 C   0  0
   -6.2219    1.4621    0.0000 C   0  0
   -4.9001   -0.7745    0.0000 C   0  0
   -6.1914   -1.5377    0.0000 C   0  0
   -7.5133    0.6990    0.0000 C   0  0
  -16.5742   -3.1321    0.0000 C   0  0
  -15.2676   -3.8689    0.0000 C   0  0
  -16.5894   -1.6322    0.0000 C   0  0
  -17.6073   -3.7427    0.0000 F   0  0
   -8.7916   -1.5619    0.0000 C   0  0
  -10.0979   -0.8229    0.0000 C   0  0
  -11.3915   -1.5838    0.0000 C   0  0
  1  2  2  0
  1  3  1  0
  2  4  1  0
  2  7  1  0
  7  8  1  0
  1  9  1  0
  4 10  1  0
  9 10  2  0
  3 11  1  0
  8 11  1  0
 12 13  1  0
  3 14  2  0
  5 15  1  0
  8 15  1  0
 12 16  2  0
 13 17  1  0
 13 18  2  0
  5 19  1  0
  5 20  1  0
  6 21  1  0
 20 21  1  0
  6 22  1  0
 19 22  1  0
 18 24  1  0
 23 24  2  0
 17 25  2  0
 23 25  1  0
 23 26  1  0
  6 27  1  0
 27 28  1  0
 12 29  1  0
 28 29  1  0
M  END