
  Mrv0541 05211314572D          

 20 20  0  0  0  0            999 V2000
    0.9069    1.1021    0.0000 C   0  0  0  0  0  0  0  0  0  0  0  0
    0.1924    0.6896    0.0000 N   0  0  0  0  0  0  0  0  0  0  0  0
   -0.5221    1.1021    0.0000 C   0  0  0  0  0  0  0  0  0  0  0  0
   -0.5221    1.9271    0.0000 C   0  0  0  0  0  0  0  0  0  0  0  0
    0.1924    2.3396    0.0000 N   0  0  0  0  0  0  0  0  0  0  0  0
    0.9069    1.9271    0.0000 C   0  0  0  0  0  0  0  0  0  0  0  0
    0.1924   -0.1354    0.0000 C   0  0  0  0  0  0  0  0  0  0  0  0
   -0.4750   -0.6203    0.0000 S   0  0  0  0  0  0  0  0  0  0  0  0
   -0.2201   -1.4049    0.0000 C   0  0  0  0  0  0  0  0  0  0  0  0
    0.6049   -1.4049    0.0000 C   0  0  0  0  0  0  0  0  0  0  0  0
    0.8598   -0.6203    0.0000 N   0  0  0  0  0  0  0  0  0  0  0  0
   -0.7050   -2.0723    0.0000 C   0  0  0  0  0  0  0  0  0  0  0  0
   -0.3695   -2.8260    0.0000 C   0  0  0  0  0  0  0  0  0  0  0  0
   -0.8544   -3.4934    0.0000 N   0  0  0  0  0  0  0  0  0  0  0  0
    0.1924    3.1646    0.0000 C   0  0  0  0  0  0  0  0  0  0  0  0
    0.9069    3.5771    0.0000 C   0  0  0  0  0  0  0  0  0  0  0  0
    0.9069    4.4021    0.0000 C   0  0  0  0  0  0  0  0  0  0  0  0
   -0.5188   -4.2471    0.0000 C   0  0  0  0  0  0  0  0  0  0  0  0
   -1.6749   -3.4072    0.0000 C   0  0  0  0  0  0  0  0  0  0  0  0
    3.1462    0.0000    0.0000 Br  0  0  0  0  0  0  0  0  0  0  0  0
  3  4  1  0  0  0  0
  8  9  1  0  0  0  0
  9 10  2  0  0  0  0
 10 11  1  0  0  0  0
 11  7  2  0  0  0  0
  4  5  1  0  0  0  0
  9 12  1  0  0  0  0
  5  6  1  0  0  0  0
 12 13  1  0  0  0  0
 13 14  1  0  0  0  0
  2  7  1  0  0  0  0
  5 15  1  0  0  0  0
  7  8  1  0  0  0  0
 15 16  1  0  0  0  0
  1  2  1  0  0  0  0
 16 17  1  0  0  0  0
  1  6  1  0  0  0  0
 14 18  1  0  0  0  0
  2  3  1  0  0  0  0
 14 19  1  0  0  0  0
M  END