
          11280715012D 1   1.00000     0.00000     0

 28 30  0     0  0            999 V2000
    8.4167   -4.3792    0.0000 N   0  0  0  0  0  0           0  0  0
    4.7542   -3.1375    0.0000 C   0  0  0  0  0  0           0  0  0
    9.6417   -3.8292    0.0000 N   0  0  0  0  0  0           0  0  0
    9.2250   -4.5500    0.0000 C   0  0  0  0  0  0           0  0  0
    8.3292   -3.5542    0.0000 C   0  0  0  0  0  0           0  0  0
    4.7542   -2.3167    0.0000 N   0  0  0  0  0  0           0  0  0
    9.0875   -3.2167    0.0000 C   0  0  0  0  0  0           0  0  0
    1.9042   -2.3167    0.0000 C   0  0  0  0  0  0           0  0  0
    1.9042   -3.1375    0.0000 C   0  0  3  0  0  0           0  0  0
    4.0417   -3.5542    0.0000 N   0  0  0  0  0  0           0  0  0
    5.4792   -3.5542    0.0000 N   0  0  0  0  0  0           0  0  0
    1.1917   -3.5542    0.0000 C   0  0  0  0  0  0           0  0  0
    2.6250   -1.9042    0.0000 C   0  0  0  0  0  0           0  0  0
    1.2000   -1.9042    0.0000 C   0  0  0  0  0  0           0  0  0
    1.9125   -0.6667    0.0000 C   0  0  0  0  0  0           0  0  0
    1.1917   -1.0875    0.0000 C   0  0  0  0  0  0           0  0  0
    2.6250   -1.0792    0.0000 C   0  0  0  0  0  0           0  0  0
    1.9167    0.1583    0.0000 F   0  0  0  0  0  0           0  0  0
    3.3292   -3.1375    0.0000 C   0  0  0  0  0  0           0  0  0
    2.6167   -3.5542    0.0000 C   0  0  0  0  0  0           0  0  0
    7.6167   -3.1375    0.0000 C   0  0  0  0  0  0           0  0  0
    6.1917   -3.1375    0.0000 C   0  0  0  0  0  0           0  0  0
    1.1917   -4.3750    0.0000 C   0  0  0  0  0  0           0  0  0
    0.4792   -3.1375    0.0000 C   0  0  0  0  0  0           0  0  0
    6.9042   -3.5542    0.0000 C   0  0  0  0  0  0           0  0  0
   -0.2375   -3.5542    0.0000 C   0  0  0  0  0  0           0  0  0
    0.4792   -4.7875    0.0000 C   0  0  0  0  0  0           0  0  0
   -0.2375   -4.3792    0.0000 C   0  0  0  0  0  0           0  0  0
  2 11  1  0     0  0
  3  4  1  0     0  0
  4  1  2  0     0  0
  5  1  1  0     0  0
  6  2  2  0     0  0
  7  5  2  0     0  0
  8  9  1  0     0  0
  9 20  1  0     0  0
 10  2  1  0     0  0
 11 22  1  0     0  0
 12  9  1  0     0  0
 13  8  2  0     0  0
 14  8  1  0     0  0
 15 16  1  0     0  0
 16 14  2  0     0  0
 17 13  1  0     0  0
 18 15  1  0     0  0
 19 10  1  0     0  0
 20 19  1  0     0  0
 21  5  1  0     0  0
 22 25  1  0     0  0
 23 12  1  0     0  0
 24 12  2  0     0  0
 25 21  1  0     0  0
 26 24  1  0     0  0
 27 23  2  0     0  0
 28 26  2  0     0  0
  3  7  1  0     0  0
 15 17  2  0     0  0
 28 27  1  0     0  0
M  END