
          11280715332D 1   1.00000     0.00000     0

 33 35  0     0  0            999 V2000
    2.4167   -4.1167    0.0000 N   0  0  0  0  0  0           0  0  0
    2.4167   -4.9417    0.0000 C   0  0  0  0  0  0           0  0  0
    0.9917   -4.1250    0.0000 C   0  0  0  0  0  0           0  0  0
    1.7000   -3.7042    0.0000 C   0  0  0  0  0  0           0  0  0
    1.7042   -5.3625    0.0000 N   0  0  0  0  0  0           0  0  0
    0.9917   -4.9500    0.0000 C   0  0  0  0  0  0           0  0  0
    9.5542   -4.9292    0.0000 C   0  0  0  0  0  0           0  0  0
    0.2750   -3.7125    0.0000 C   0  0  0  0  0  0           0  0  0
   10.2667   -5.3417    0.0000 C   0  0  0  0  0  0           0  0  0
    0.2750   -5.3667    0.0000 C   0  0  0  0  0  0           0  0  0
   -0.4375   -4.1250    0.0000 C   0  0  0  0  0  0           0  0  0
   -0.4375   -4.9542    0.0000 C   0  0  0  0  0  0           0  0  0
    3.1375   -5.3542    0.0000 N   0  0  3  0  0  0           0  0  0
   11.0167   -5.0167    0.0000 O   0  0  0  0  0  0           0  0  0
    8.8417   -5.3417    0.0000 N   0  0  3  0  0  0           0  0  0
    9.5625   -4.1042    0.0000 O   0  0  0  0  0  0           0  0  0
   10.3542   -6.1667    0.0000 C   0  0  0  0  0  0           0  0  0
   11.5750   -5.6292    0.0000 C   0  0  0  0  0  0           0  0  0
   11.1625   -6.3417    0.0000 C   0  0  0  0  0  0           0  0  0
    1.6917   -2.8792    0.0000 N   0  0  0  0  0  0           0  0  0
   -1.1583   -3.7167    0.0000 O   0  0  0  0  0  0           0  0  0
   -1.1500   -5.3667    0.0000 O   0  0  0  0  0  0           0  0  0
    3.8500   -4.9417    0.0000 C   0  0  0  0  0  0           0  0  0
    8.1292   -4.9292    0.0000 C   0  0  0  0  0  0           0  0  0
    3.1417   -6.1792    0.0000 C   0  0  0  0  0  0           0  0  0
    8.8417   -6.1667    0.0000 C   0  0  0  0  0  0           0  0  0
   -1.1500   -6.1917    0.0000 C   0  0  0  0  0  0           0  0  0
   -1.8708   -4.1292    0.0000 C   0  0  0  0  0  0           0  0  0
    7.4167   -5.3417    0.0000 C   0  0  0  0  0  0           0  0  0
    4.5667   -5.3500    0.0000 C   0  0  0  0  0  0           0  0  0
    5.9917   -5.3417    0.0000 C   0  0  0  0  0  0           0  0  0
    6.7042   -4.9292    0.0000 C   0  0  0  0  0  0           0  0  0
    5.2792   -4.9292    0.0000 C   0  0  0  0  0  0           0  0  0
  2  1  1  0     0  0
  3  4  1  0     0  0
  4  1  2  0     0  0
  5  2  2  0     0  0
  6  3  1  0     0  0
  7 15  1  0     0  0
  8  3  2  0     0  0
  9  7  1  0     0  0
 10  6  2  0     0  0
 11  8  1  0     0  0
 12 11  2  0     0  0
 13  2  1  0     0  0
 14  9  1  0     0  0
 15 24  1  0     0  0
 16  7  2  0     0  0
 17  9  2  0     0  0
 18 14  1  0     0  0
 19 17  1  0     0  0
 20  4  1  0     0  0
 21 11  1  0     0  0
 22 12  1  0     0  0
 23 13  1  0     0  0
 24 29  1  0     0  0
 25 13  1  0     0  0
 26 15  1  0     0  0
 27 22  1  0     0  0
 28 21  1  0     0  0
 29 32  1  0     0  0
 30 23  1  0     0  0
 31 33  1  0     0  0
 32 31  1  0     0  0
 33 30  1  0     0  0
  6  5  1  0     0  0
 10 12  1  0     0  0
 18 19  2  0     0  0
M  END