
  SciTegic02181312462D

 29 31  0  0  0  0            999 V2000
   10.7295   -5.6037    0.0000 C   0  0
   11.4443   -5.1917    0.0000 C   0  0
   12.1585   -5.6046    0.0000 C   0  0
   12.1579   -6.4296    0.0000 C   0  0
   11.4432   -6.8417    0.0000 C   0  0
   10.7290   -6.4287    0.0000 N   0  0
   10.0153   -5.1907    0.0000 C   0  0
   10.0159   -4.3657    0.0000 O   0  0
    9.3006   -5.6027    0.0000 N   0  0
    8.5864   -5.1898    0.0000 C   0  0
    7.8717   -5.6018    0.0000 C   0  0
    7.1575   -5.1888    0.0000 C   0  0
    7.1580   -4.3638    0.0000 C   0  0
    7.8727   -3.9518    0.0000 C   0  0
    8.5869   -4.3648    0.0000 C   0  0
    6.4438   -3.9509    0.0000 N   0  0
    5.7291   -4.3629    0.0000 C   0  0
    5.7285   -5.1879    0.0000 O   0  0
    5.0149   -3.9499    0.0000 N   0  0
    3.4063   -5.3534    0.0000 O   0  0
    4.2133   -5.1824    0.0000 N   0  0
    4.3001   -4.3620    0.0000 C   0  0
    3.5467   -4.0259    0.0000 C   0  0
    2.9942   -4.6386    0.0000 C   0  0
    2.1738   -4.5519    0.0000 C   0  0
    1.9603   -3.7550    0.0000 C   0  0
    1.3534   -4.4651    0.0000 C   0  0
    1.7613   -5.2663    0.0000 C   0  0
   12.8721   -6.8426    0.0000 C   0  0
  1  2  1  0
  2  3  2  0
  3  4  1  0
  4  5  2  0
  5  6  1  0
  1  6  2  0
  1  7  1  0
  7  8  2  0
  7  9  1  0
 10 11  1  0
 11 12  2  0
 12 13  1  0
 13 14  2  0
 14 15  1  0
 10 15  2  0
 16 17  1  0
 17 18  2  0
 17 19  1  0
 20 21  1  0
 21 22  2  0
 22 23  1  0
 23 24  2  0
 20 24  1  0
 25 26  1  0
 25 28  1  0
 25 27  1  0
 24 25  1  0
 19 22  1  0
 13 16  1  0
  9 10  1  0
  4 29  1  0
M  END