
          03140815512D 1   1.00000     0.00000     0

 17 18  0     0  0            999 V2000
   15.2805   -4.6212    0.0000 N   0  0  3  0  0  0           0  0  0
   15.2805   -5.4463    0.0000 C   0  0  0  0  0  0           0  0  0
   15.9925   -5.8547    0.0000 C   0  0  0  0  0  0           0  0  0
   16.7046   -5.4463    0.0000 O   0  0  0  0  0  0           0  0  0
   16.7046   -4.6212    0.0000 C   0  0  0  0  0  0           0  0  0
   15.9925   -4.2046    0.0000 C   0  0  0  0  0  0           0  0  0
   14.5647   -4.2108    0.0000 C   0  0  0  0  0  0           0  0  0
   14.5623   -3.3857    0.0000 O   0  0  0  0  0  0           0  0  0
   13.8514   -4.6254    0.0000 C   0  0  0  0  0  0           0  0  0
   13.1357   -4.2150    0.0000 S   0  0  0  0  0  0           0  0  0
   12.4223   -4.6296    0.0000 C   0  0  0  0  0  0           0  0  0
   11.7073   -4.2159    0.0000 C   0  0  0  0  0  0           0  0  0
   10.9945   -4.6298    0.0000 C   0  0  0  0  0  0           0  0  0
   10.9964   -5.4558    0.0000 C   0  0  0  0  0  0           0  0  0
   11.7172   -5.8660    0.0000 C   0  0  0  0  0  0           0  0  0
   12.4271   -5.4497    0.0000 C   0  0  0  0  0  0           0  0  0
   10.2837   -5.8713    0.0000 Cl  0  0  0  0  0  0           0  0  0
  1  6  1  0     0  0
  7  9  1  0     0  0
  2  3  1  0     0  0
  9 10  1  0     0  0
  3  4  1  0     0  0
 10 11  1  0     0  0
  4  5  1  0     0  0
 11 12  2  0     0  0
  5  6  1  0     0  0
 12 13  1  0     0  0
 13 14  2  0     0  0
  1  7  1  0     0  0
 14 15  1  0     0  0
  1  2  1  0     0  0
 15 16  2  0     0  0
 16 11  1  0     0  0
  7  8  2  0     0  0
 14 17  1  0     0  0
M  END