
  SciTegic05171617272D

 35 39  0  0  1  0            999 V2000
    2.0907   -2.3426    0.0000 C   0  0
    1.7138   -1.2033    0.0000 N   0  0
    2.5889    0.0182    0.0000 N   0  0
    1.7138    1.2033    0.0000 C   0  0
    2.1749    2.6315    0.0000 C   0  0
    1.2517    3.8078    0.0000 C   0  0
    1.8114    5.1995    0.0000 C   0  0
    3.2965    5.4106    0.0000 C   0  0
    4.2218    4.2301    0.0000 C   0  0
    5.4099    4.3989    0.0000 F   0  0
    3.6621    2.8384    0.0000 C   0  0
    0.2917    0.7475    0.0000 C   0  0
   -1.0028    1.5132    0.0000 C   0  0
   -2.3155    0.7475    0.0000 C   0  0
   -2.3155   -0.7475    0.0000 C   0  0
   -3.6187   -1.4919    0.0000 O   0  0
   -3.6267   -2.9927    0.0000 C   0  0
   -4.9300   -3.7369    0.0000 C   0  0
   -5.9662   -3.1317    0.0000 O   0  0
   -4.9380   -5.2378    0.0000 N   0  0
   -6.2413   -5.9820    0.0000 C   0  0  1  0  0  0
   -7.5919   -5.3540    0.0000 C   0  0
   -8.5816   -6.4453    0.0000 C   0  0
   -7.8548   -7.7498    0.0000 C   0  0
   -8.3508   -9.1697    0.0000 C   0  0
   -7.3416  -10.3060    0.0000 C   0  0
   -5.8759  -10.0118    0.0000 C   0  0
   -5.3835   -8.5740    0.0000 C   0  0
   -6.3890   -7.4556    0.0000 C   0  0
   -1.0028   -1.5132    0.0000 N   0  0
    0.2917   -0.7475    0.0000 C   0  0
   -0.9940    3.0137    0.0000 C   0  0
    0.0483    3.6083    0.0000 F   0  0
   -2.0299    3.6195    0.0000 F   0  0
   -0.9876    4.2137    0.0000 F   0  0
  1  2  1  0
  2  3  1  0
  3  4  2  0
  4  5  1  0
  5  6  2  0
  6  7  1  0
  7  8  2  0
  8  9  1  0
  9 10  1  0
  9 11  2  0
  5 11  1  0
  4 12  1  0
 12 13  2  0
 13 14  1  0
 14 15  2  0
 15 16  1  0
 16 17  1  0
 17 18  1  0
 18 19  2  0
 18 20  1  0
 21 20  1  6
 21 22  1  0
 22 23  1  0
 23 24  1  0
 24 25  2  0
 25 26  1  0
 26 27  2  0
 27 28  1  0
 28 29  2  0
 21 29  1  0
 24 29  1  0
 15 30  1  0
 30 31  2  0
  2 31  1  0
 12 31  1  0
 13 32  1  0
 32 33  1  0
 32 34  1  0
 32 35  1  0
M  END