
          11280715142D 1   1.00000     0.00000     0

 34 37  0     0  0            999 V2000
    3.0167   -2.4875    0.0000 N   0  0  3  0  0  0           0  0  0
    4.6625   -3.0875    0.0000 S   0  0  3  0  0  0           0  0  0
    3.5417   -3.3792    0.0000 C   0  0  0  0  0  0           0  0  0
    3.0167   -3.0875    0.0000 C   0  0  3  0  0  0           0  0  0
    4.0625   -3.0875    0.0000 N   0  0  0  0  0  0           0  0  0
    2.5000   -2.1917    0.0000 C   0  0  0  0  0  0           0  0  0
    3.5417   -2.1875    0.0000 N   0  0  0  0  0  0           0  0  0
    2.5000   -1.5917    0.0000 C   0  0  0  0  0  0           0  0  0
    2.5042   -3.3917    0.0000 C   0  0  0  0  0  0           0  0  0
    3.0167   -1.2917    0.0000 C   0  0  0  0  0  0           0  0  0
    3.5375   -1.5917    0.0000 C   0  0  0  0  0  0           0  0  0
    5.2625   -3.0875    0.0000 C   0  0  0  0  0  0           0  0  0
    1.9792   -3.0917    0.0000 C   0  0  0  0  0  0           0  0  0
    1.4667   -3.3917    0.0000 C   0  0  0  0  0  0           0  0  0
    4.6625   -3.9292    0.0000 O   0  0  0  0  0  0           0  0  0
    4.6625   -2.2417    0.0000 O   0  0  0  0  0  0           0  0  0
    3.5375   -3.9792    0.0000 O   0  0  0  0  0  0           0  0  0
    1.4667   -3.9917    0.0000 C   0  0  0  0  0  0           0  0  0
    0.8917   -3.2042    0.0000 O   0  0  0  0  0  0           0  0  0
    1.9792   -2.4917    0.0000 O   0  0  0  0  0  0           0  0  0
    0.8917   -4.1792    0.0000 O   0  0  0  0  0  0           0  0  0
    2.5042   -3.9917    0.0000 C   0  0  0  0  0  0           0  0  0
    0.5375   -3.6917    0.0000 C   0  0  0  0  0  0           0  0  0
    6.4542   -3.0875    0.0000 C   0  0  0  0  0  0           0  0  0
    5.5542   -2.5667    0.0000 C   0  0  0  0  0  0           0  0  0
    5.5542   -3.6042    0.0000 C   0  0  0  0  0  0           0  0  0
    1.9792   -4.2917    0.0000 C   0  0  0  0  0  0           0  0  0
    6.1542   -3.6042    0.0000 C   0  0  0  0  0  0           0  0  0
    6.1542   -2.5667    0.0000 C   0  0  0  0  0  0           0  0  0
    7.0542   -3.0875    0.0000 C   0  0  3  0  0  0           0  0  0
    1.9792   -1.2917    0.0000 C   0  0  0  0  0  0           0  0  0
    4.0542   -1.2917    0.0000 C   0  0  0  0  0  0           0  0  0
    7.3500   -2.5667    0.0000 C   0  0  0  0  0  0           0  0  0
    7.3542   -3.6042    0.0000 C   0  0  0  0  0  0           0  0  0
  2  5  1  0     0  0
  3  4  1  0     0  0
  4  1  1  0     0  0
  5  3  1  0     0  0
  6  1  1  0     0  0
  7  1  1  0     0  0
  8  6  1  0     0  0
  9  4  1  0     0  0
 10 11  1  0     0  0
 11  7  2  0     0  0
 12  2  1  0     0  0
 13  9  2  0     0  0
 14 13  1  0     0  0
 15  2  2  0     0  0
 16  2  2  0     0  0
 17  3  2  0     0  0
 18 27  1  0     0  0
 19 14  1  0     0  0
 20  6  2  0     0  0
 21 18  1  0     0  0
 22  9  1  0     0  0
 23 19  1  0     0  0
 24 28  2  0     0  0
 25 12  1  0     0  0
 26 12  2  0     0  0
 27 22  2  0     0  0
 28 26  1  0     0  0
 29 25  2  0     0  0
 30 24  1  0     0  0
 31  8  1  0     0  0
 32 11  1  0     0  0
 33 30  1  0     0  0
 34 30  1  0     0  0
  8 10  2  0     0  0
 14 18  2  0     0  0
 23 21  1  0     0  0
 29 24  1  0     0  0
M  END