
  SciTegic12231509382D

 22 24  0  0  1  0            999 V2000
    1.1292   -2.1667    0.0000 C   0  0  2  0  0  0
    1.8500   -0.9292    0.0000 N   0  0
    0.4167   -2.5750    0.0000 N   0  0
    3.2792   -0.9292    0.0000 C   0  0
    2.5625   -1.3417    0.0000 C   0  0
    1.1292   -1.3417    0.0000 C   0  0  1  0  0  0
    3.9875   -1.3500    0.0000 C   0  0
    1.8500   -2.5792    0.0000 C   0  0
   -0.2875   -2.1667    0.0000 C   0  0
    3.2750   -0.1125    0.0000 C   0  0
    4.7042   -0.9417    0.0000 C   0  0
    2.5625   -2.1667    0.0000 C   0  0
    1.8417   -3.4042    0.0000 C   0  0
    0.4167   -0.9250    0.0000 C   0  0
   -0.2875   -1.3417    0.0000 C   0  0
    3.9875    0.3000    0.0000 C   0  0
    2.5542   -3.8167    0.0000 C   0  0
    4.7042   -0.1167    0.0000 C   0  0
    3.2667   -2.5750    0.0000 C   0  0
    3.2750   -3.4042    0.0000 C   0  0
    2.5592    0.2977    0.0000 O   0  0
    2.5592    1.1227    0.0000 C   0  0
  6  2  1  6
  3  1  1  0
  4  5  1  0
  5  2  1  0
  6  1  1  0
  7  4  2  0
  1  8  1  6
  9  3  1  0
 10  4  1  0
 11  7  1  0
 12  8  1  0
 13  8  2  0
 14  6  1  0
 15 14  1  0
 16 10  2  0
 17 13  1  0
 18 16  1  0
 19 12  2  0
 20 17  2  0
 15  9  1  0
 20 19  1  0
 11 18  2  0
 10 21  1  0
 21 22  1  0
M  END