
  SciTegic12171313032D

 48 49  0  0  0  0            999 V2000
   18.6182  -10.7686    0.0000 O   0  0
   11.3844  -11.4384    0.0000 C   0  0  1  0  0  0
    9.9704  -10.6212    0.0000 O   0  0
    9.2613  -11.8470    0.0000 C   0  0
    6.4272  -10.2072    0.0000 C   0  0
    8.5522  -11.4384    0.0000 N   0  0
    6.4300  -11.8460    0.0000 C   0  0
   12.0935  -10.2126    0.0000 O   0  0
   15.8327  -10.7148    0.0000 O   0  0
    5.7215  -11.4377    0.0000 C   0  0
   16.1387  -13.5739    0.0000 S   0  0
   15.6676  -11.5135    0.0000 C   0  0
   13.5075  -11.8470    0.0000 C   0  0
   16.9559  -13.5815    0.0000 C   0  0
   14.9216  -11.8470    0.0000 N   0  0
   20.6431  -12.9084    0.0000 C   0  0
   21.0415  -13.6233    0.0000 O   0  0
   16.1268  -14.9920    0.0000 O   0  0
   17.3585  -14.2963    0.0000 C   0  0  1  0  0  0
   15.8048  -12.8305    0.0000 C   0  0
   18.1917  -12.8858    0.0000 O   0  0
   18.5901  -13.5965    0.0000 C   0  0
   12.8026  -11.4384    0.0000 C   0  0
    7.1381  -10.6169    0.0000 C   0  0
   12.0935  -11.8470    0.0000 C   0  0
    5.0131  -11.8459    0.0000 I   0  0
   19.8498  -10.0730    0.0000 O   0  0
   19.4353  -10.7762    0.0000 C   0  0
   11.3844  -10.6212    0.0000 C   0  0
    5.7215  -10.6163    0.0000 C   0  0
   10.6753  -11.8470    0.0000 N   0  0
   15.0083  -12.6603    0.0000 C   0  0
   19.4073  -13.6041    0.0000 N   0  0
   16.9439  -14.9995    0.0000 C   0  0
    7.1381  -11.4384    0.0000 C   0  0
   14.2166  -11.4384    0.0000 C   0  0
   10.6753  -10.2126    0.0000 O   0  0
   16.2129  -12.1222    0.0000 C   0  0
    9.9704  -11.4384    0.0000 C   0  0
   21.0576  -12.2052    0.0000 O   0  0
   19.8379  -11.4869    0.0000 C   0  0
   19.8259  -12.9009    0.0000 C   0  0  1  0  0  0
    7.8472  -11.8470    0.0000 C   0  0
   14.4012  -13.2033    0.0000 O   0  0
    7.8472  -12.6642    0.0000 O   0  0
   19.4233  -12.1901    0.0000 C   0  0
   18.1756  -14.3039    0.0000 N   0  0
   17.3465  -15.7103    0.0000 O   0  0
 39 31  1  0
 14 19  1  0
 13 36  1  0
 20 11  1  0
 30 10  2  0
 22 21  2  0
 28 27  2  0
 42 16  1  1
 36 15  1  0
 41 28  1  0
 16 17  1  0
 35 24  1  0
 39  3  2  0
 34 18  2  0
  2 25  1  0
  6  4  1  0
  4 39  1  0
 42 46  1  0
 31  2  1  0
 35 43  1  0
 16 40  2  0
 12 15  1  0
  2 29  1  6
 10  7  1  0
 12  9  2  0
  5 30  1  0
 32 20  1  0
 29  8  1  0
 29 37  2  0
 24  5  2  0
 20 38  1  0
 11 14  1  0
 10 26  1  0
 46 41  1  0
 19 47  1  0
 43 45  2  0
 38 12  1  0
 28  1  1  0
 32 44  2  0
 15 32  1  0
  7 35  2  0
 47 22  1  0
 34 48  1  0
 25 23  1  0
 19 34  1  6
 23 13  1  0
 33 42  1  0
 22 33  1  0
 43  6  1  0
M  ISO  1  26 125
M  END