
  SciTegic10311316212D

 22 24  0  0  0  0            999 V2000
   29.5271   -5.8606    0.0000 C   0  0
   30.2493   -6.2595    0.0000 O   0  0
   30.2158   -4.6140    0.0000 N   0  0
   29.5067   -5.0357    0.0000 C   0  0
   30.9380   -5.0129    0.0000 C   0  0
   30.9471   -5.8338    0.0000 C   0  0
   31.6586   -6.2341    0.0000 C   0  0
   32.3655   -5.8180    0.0000 C   0  0
   32.3563   -4.9972    0.0000 C   0  0
   31.6403   -4.5924    0.0000 C   0  0
   28.7845   -4.6368    0.0000 O   0  0
   33.0667   -4.5775    0.0000 C   0  0
   33.7854   -4.9828    0.0000 N   0  0
   33.7878   -5.8053    0.0000 C   0  0
   34.5023   -6.2106    0.0000 C   0  0
   35.2151   -5.7943    0.0000 C   0  0
   35.2087   -4.9683    0.0000 C   0  0
   34.4896   -4.5585    0.0000 C   0  0
   35.9322   -6.2023    0.0000 N   0  0
   35.9374   -7.0274    0.0000 C   0  0
   36.6441   -5.7853    0.0000 C   0  0
   28.8218   -6.2886    0.0000 C   0  0
  1  2  1  0
  1  4  1  0
  2  6  1  0
  5  3  1  0
  3  4  1  0
  5  6  1  0
  5 10  2  0
  6  7  2  0
  7  8  1  0
  8  9  2  0
  9 10  1  0
  4 11  2  0
  9 12  1  0
 12 13  1  0
 13 14  1  0
 13 18  1  0
 14 15  1  0
 15 16  1  0
 16 17  1  0
 17 18  1  0
 16 19  1  0
 19 20  1  0
 19 21  1  0
  1 22  1  0
M  END