
          02060813472D 1   1.00000     0.00000     0

 72 73  0     1  0            999 V2000
    8.3825  -13.4123    0.0000 C   0  0  0  0  0  0           0  0  0
    7.6687  -12.9980    0.0000 S   0  0  0  0  0  0           0  0  0
    6.9491  -13.4038    0.0000 S   0  0  0  0  0  0           0  0  0
    6.2351  -12.9855    0.0000 C   0  0  0  0  0  0           0  0  0
    6.2416  -12.1554    0.0000 C   0  0  0  0  0  0           0  0  0
    5.5326  -11.7370    0.0000 C   0  0  0  0  0  0           0  0  0
    5.5412  -10.9122    0.0000 N   0  0  0  0  0  0           0  0  0
    4.8104  -12.1427    0.0000 O   0  0  0  0  0  0           0  0  0
    4.8275  -10.4926    0.0000 C   0  0  2  0  0  0           0  0  0
    4.8340   -9.6678    0.0000 C   0  0  0  0  0  0           0  0  0
    4.1078  -10.8974    0.0000 C   0  0  0  0  0  0           0  0  0
    3.4002  -10.4737    0.0000 C   0  0  0  0  0  0           0  0  0
    3.4071   -9.6496    0.0000 C   0  0  0  0  0  0           0  0  0
    2.6934   -9.2295    0.0000 C   0  0  0  0  0  0           0  0  0
    1.9720   -9.6356    0.0000 C   0  0  0  0  0  0           0  0  0
    1.9697  -10.4723    0.0000 C   0  0  0  0  0  0           0  0  0
    2.6815  -10.8865    0.0000 C   0  0  0  0  0  0           0  0  0
    5.5542   -9.2622    0.0000 N   0  0  0  0  0  0           0  0  0
    4.1208   -9.2494    0.0000 O   0  0  0  0  0  0           0  0  0
    6.2674   -9.2389    0.0000 C   0  0  2  0  0  0           0  0  0
    6.9815   -9.2394    0.0000 C   0  0  0  0  0  0           0  0  0
    7.6947   -9.6910    0.0000 N   0  0  0  0  0  0           0  0  0
    6.9881   -8.4467    0.0000 O   0  0  0  0  0  0           0  0  0
    8.4191   -9.2896    0.0000 C   0  0  2  0  0  0           0  0  0
    9.1323   -9.7037    0.0000 C   0  0  0  0  0  0           0  0  0
    8.4256   -8.4552    0.0000 C   0  0  0  0  0  0           0  0  0
    9.1452   -8.0495    0.0000 C   0  0  0  0  0  0           0  0  0
    9.1517   -7.2247    0.0000 C   0  0  0  0  0  0           0  0  0
    9.8713   -6.8158    0.0000 N   0  0  0  0  0  0           0  0  0
    8.4385   -6.8106    0.0000 O   0  0  0  0  0  0           0  0  0
    9.8518   -9.2981    0.0000 O   0  0  0  0  0  0           0  0  0
    9.1216  -10.5284    0.0000 N   0  0  0  0  0  0           0  0  0
    9.8346  -10.9522    0.0000 C   0  0  2  0  0  0           0  0  0
    9.8281  -11.7770    0.0000 C   0  0  0  0  0  0           0  0  0
   10.5489  -10.5431    0.0000 C   0  0  0  0  0  0           0  0  0
   11.2668  -10.9670    0.0000 C   0  0  0  0  0  0           0  0  0
   11.9865  -10.5558    0.0000 N   0  0  0  0  0  0           0  0  0
   11.2603  -11.7917    0.0000 O   0  0  0  0  0  0           0  0  0
    9.1086  -12.1827    0.0000 N   0  0  0  0  0  0           0  0  0
   10.5359  -12.1911    0.0000 O   0  0  0  0  0  0           0  0  0
    9.0958  -13.0128    0.0000 C   0  0  2  0  0  0           0  0  0
    9.8088  -13.4271    0.0000 C   0  0  0  0  0  0           0  0  0
   10.5294  -13.0212    0.0000 O   0  0  0  0  0  0           0  0  0
    6.2923  -10.0025    0.0000 C   0  0  2  0  0  0           0  0  0
    6.2671   -8.4763    0.0000 H   0  0  0  0  0  0           0  0  0
    7.0020  -10.4003    0.0000 C   0  0  0  0  0  0           0  0  0
    6.9899  -11.4029    0.0000 C   0  0  0  0  0  0           0  0  0
    5.5518  -10.3980    0.0000 C   0  0  0  0  0  0           0  0  0
    9.8048  -14.2520    0.0000 N   0  0  0  0  0  0           0  0  0
   10.5063  -15.4934    0.0000 C   0  0  3  0  0  0           0  0  0
   10.5188  -14.6688    0.0000 C   0  0  1  0  0  0           0  0  0
   11.2397  -14.2581    0.0000 C   0  0  0  0  0  0           0  0  0
   11.9506  -14.6767    0.0000 N   0  0  0  0  0  0           0  0  0
   11.2435  -13.4331    0.0000 O   0  0  0  0  0  0           0  0  0
   12.6651  -14.2723    0.0000 C   0  0  2  0  0  0           0  0  0
   13.3760  -14.6868    0.0000 C   0  0  0  0  0  0           0  0  0
   12.6731  -13.4474    0.0000 C   0  0  0  0  0  0           0  0  0
   13.3878  -13.0367    0.0000 C   0  0  3  0  0  0           0  0  0
   13.3979  -12.2118    0.0000 C   0  0  0  0  0  0           0  0  0
   14.0987  -13.4553    0.0000 C   0  0  0  0  0  0           0  0  0
   13.3722  -15.5117    0.0000 O   0  0  0  0  0  0           0  0  0
   14.0949  -14.2803    0.0000 N   0  0  0  0  0  0           0  0  0
   14.8056  -14.7010    0.0000 C   0  0  0  0  0  0           0  0  0
   15.5266  -14.2945    0.0000 C   0  0  0  0  0  0           0  0  0
   16.2374  -14.7089    0.0000 N   0  0  0  0  0  0           0  0  0
   15.5304  -13.4696    0.0000 O   0  0  0  0  0  0           0  0  0
    0.5446   -9.6341    0.0000 C   0  0  0  0  0  0           0  0  0
   -0.1694   -9.2183    0.0000 C   0  0  0  0  0  0           0  0  0
   10.5019  -16.3156    0.0000 C   0  0  0  0  0  0           0  0  0
    9.6812  -15.4849    0.0000 C   0  0  0  0  0  0           0  0  0
   11.3312  -15.5043    0.0000 C   0  0  0  0  0  0           0  0  0
    1.2587   -9.2210    0.0000 O   0  0  0  0  0  0           0  0  0
 41  1  1  0     0  0
  1  2  1  0     0  0
  2  3  1  0     0  0
  3  4  1  0     0  0
  4  5  1  0     0  0
  5  6  1  0     0  0
  6  7  1  0     0  0
  6  8  2  0     0  0
  7  9  1  0     0  0
  9 10  1  0     0  0
  9 11  1  1     0  0
 11 12  1  0     0  0
 12 13  2  0     0  0
 13 14  1  0     0  0
 14 15  2  0     0  0
 15 16  1  0     0  0
 16 17  2  0     0  0
 17 12  1  0     0  0
 10 18  1  0     0  0
 10 19  2  0     0  0
 18 20  1  0     0  0
 20 21  1  0     0  0
 21 22  1  0     0  0
 21 23  2  0     0  0
 22 24  1  0     0  0
 24 25  1  0     0  0
 24 26  1  1     0  0
 26 27  1  0     0  0
 27 28  1  0     0  0
 28 29  1  0     0  0
 28 30  2  0     0  0
 25 31  2  0     0  0
 25 32  1  0     0  0
 32 33  1  0     0  0
 33 34  1  0     0  0
 33 35  1  1     0  0
 35 36  1  0     0  0
 36 37  1  0     0  0
 36 38  2  0     0  0
 34 39  1  0     0  0
 34 40  2  0     0  0
 39 41  1  0     0  0
 41 42  1  6     0  0
 42 43  2  0     0  0
 20 44  1  0     0  0
 20 45  1  1     0  0
 44 46  1  0     0  0
 46 47  1  0     0  0
 44 48  1  6     0  0
 42 49  1  0     0  0
 49 51  1  0     0  0
 50 51  1  0     0  0
 51 52  1  6     0  0
 52 53  1  0     0  0
 52 54  2  0     0  0
 53 55  1  0     0  0
 55 56  1  0     0  0
 55 57  1  1     0  0
 57 58  1  0     0  0
 58 59  1  0     0  0
 58 60  1  0     0  0
 56 61  2  0     0  0
 56 62  1  0     0  0
 62 63  1  0     0  0
 63 64  1  0     0  0
 64 65  1  0     0  0
 64 66  2  0     0  0
 67 68  1  0     0  0
 50 69  1  0     0  0
 50 70  1  0     0  0
 50 71  1  0     0  0
 15 72  1  0     0  0
 72 67  1  0     0  0
M  END