
          02060813482D 1   1.00000     0.00000     0

 41 44  0     0  0            999 V2000
   -3.7848  -11.3375    0.0000 C   0  0  0  0  0  0           0  0  0
   -3.7859  -12.1648    0.0000 C   0  0  0  0  0  0           0  0  0
   -3.0711  -12.5777    0.0000 C   0  0  0  0  0  0           0  0  0
   -2.3547  -12.1644    0.0000 C   0  0  0  0  0  0           0  0  0
   -2.3575  -11.3338    0.0000 C   0  0  0  0  0  0           0  0  0
   -3.0729  -10.9247    0.0000 C   0  0  0  0  0  0           0  0  0
   -4.5007  -12.5768    0.0000 Cl  0  0  0  0  0  0           0  0  0
   -3.0754  -10.0997    0.0000 C   0  0  0  0  0  0           0  0  0
   -2.3621   -9.6851    0.0000 N   0  0  0  0  0  0           0  0  0
   -2.3646   -8.8601    0.0000 C   0  0  0  0  0  0           0  0  0
   -1.6514   -8.4454    0.0000 C   0  0  3  0  0  0           0  0  0
   -3.0803   -8.4497    0.0000 O   0  0  0  0  0  0           0  0  0
   -1.6446  -10.9186    0.0000 O   0  0  0  0  0  0           0  0  0
   -1.6395  -12.5757    0.0000 C   0  0  0  0  0  0           0  0  0
   -1.6431  -13.4011    0.0000 C   0  0  0  0  0  0           0  0  0
   -0.9289  -13.8124    0.0000 C   0  0  0  0  0  0           0  0  0
   -0.2141  -13.3987    0.0000 C   0  0  0  0  0  0           0  0  0
   -0.2180  -12.5694    0.0000 C   0  0  0  0  0  0           0  0  0
   -0.9329  -12.1619    0.0000 N   0  0  0  0  0  0           0  0  0
    0.4943  -12.1533    0.0000 O   0  0  0  0  0  0           0  0  0
    0.5016  -13.8091    0.0000 C   0  0  0  0  0  0           0  0  0
    1.2125  -14.2208    0.0000 N   0  0  0  0  0  0           0  0  0
   -0.9280  -14.6374    0.0000 C   0  0  0  0  0  0           0  0  0
   -1.6414  -15.0457    0.0000 C   0  0  0  0  0  0           0  0  0
   -1.6409  -15.8700    0.0000 C   0  0  0  0  0  0           0  0  0
   -0.9254  -16.2825    0.0000 C   0  0  0  0  0  0           0  0  0
   -0.2090  -15.8648    0.0000 C   0  0  0  0  0  0           0  0  0
   -0.2131  -15.0419    0.0000 C   0  0  0  0  0  0           0  0  0
   -2.3553  -14.6321    0.0000 Cl  0  0  0  0  0  0           0  0  0
    0.5073  -16.2740    0.0000 C   0  0  3  0  0  0           0  0  0
    1.2167  -16.6833    0.0000 F   0  0  0  0  0  0           0  0  0
    0.9181  -15.5585    0.0000 F   0  0  0  0  0  0           0  0  0
    0.1018  -16.9925    0.0000 F   0  0  0  0  0  0           0  0  0
   -0.9387   -8.8546    0.0000 C   0  0  0  0  0  0           0  0  0
   -0.2275   -8.4435    0.0000 C   0  0  0  0  0  0           0  0  0
   -0.2257   -7.6182    0.0000 N   0  0  3  0  0  0           0  0  0
   -0.9413   -7.2056    0.0000 C   0  0  0  0  0  0           0  0  0
   -1.6586   -7.6184    0.0000 C   0  0  0  0  0  0           0  0  0
    0.4891   -7.2062    0.0000 C   0  0  0  0  0  0           0  0  0
    1.2032   -7.6193    0.0000 C   0  0  0  0  0  0           0  0  0
    0.4897   -6.3812    0.0000 O   0  0  0  0  0  0           0  0  0
 18 20  2  0     0  0
  9 10  1  0     0  0
 17 21  1  0     0  0
  2  3  1  0     0  0
 21 22  3  0     0  0
 10 11  1  0     0  0
 16 23  1  0     0  0
  5  6  2  0     0  0
 23 24  2  0     0  0
 10 12  2  0     0  0
 24 25  1  0     0  0
  6  1  1  0     0  0
 25 26  2  0     0  0
  5 13  1  0     0  0
 26 27  1  0     0  0
  1  2  2  0     0  0
 27 28  2  0     0  0
 28 23  1  0     0  0
  4 14  1  0     0  0
 24 29  1  0     0  0
  2  7  1  0     0  0
 27 30  1  0     0  0
 14 15  2  0     0  0
 30 31  1  0     0  0
  3  4  2  0     0  0
 30 32  1  0     0  0
 15 16  1  0     0  0
 30 33  1  0     0  0
 11 34  1  0     0  0
  6  8  1  0     0  0
 16 17  2  0     0  0
 17 18  1  0     0  0
  8  9  1  0     0  0
 11 38  1  0     0  0
 34 35  1  0     0  0
 35 36  1  0     0  0
 36 37  1  0     0  0
 37 38  1  0     0  0
 18 19  1  0     0  0
 36 39  1  0     0  0
 19 14  1  0     0  0
 39 40  1  0     0  0
  4  5  1  0     0  0
 39 41  2  0     0  0
M  END