
          11280714442D 1   1.00000     0.00000     0

 14 15  0     0  0            999 V2000
   -0.5750    0.4083    0.0000 C   0  0  0  0  0  0           0  0  0
    0.2417    0.4083    0.0000 C   0  0  0  0  0  0           0  0  0
   -0.9875    1.1208    0.0000 C   0  0  0  0  0  0           0  0  0
    0.6542   -0.3125    0.0000 C   0  0  0  0  0  0           0  0  0
   -0.5750    1.8333    0.0000 Br  0  0  0  0  0  0           0  0  0
    0.2417   -1.0250    0.0000 Br  0  0  0  0  0  0           0  0  0
   -0.9875   -0.3042    0.0000 C   0  0  0  0  0  0           0  0  0
    0.6542    1.1208    0.0000 C   0  0  0  0  0  0           0  0  0
    1.4792   -0.3125    0.0000 C   0  0  0  0  0  0           0  0  0
   -1.8125    1.1125    0.0000 C   0  0  0  0  0  0           0  0  0
    1.4792    1.1208    0.0000 C   0  0  0  0  0  0           0  0  0
   -1.8125   -0.3042    0.0000 C   0  0  0  0  0  0           0  0  0
   -2.2208    0.4000    0.0000 C   0  0  0  0  0  0           0  0  0
    1.8917    0.4083    0.0000 C   0  0  0  0  0  0           0  0  0
  2  1  1  0     0  0
  3  1  2  0     0  0
  4  2  2  0     0  0
  5  3  1  0     0  0
  6  4  1  0     0  0
  7  1  1  0     0  0
  8  2  1  0     0  0
  9  4  1  0     0  0
 10  3  1  0     0  0
 11  8  2  0     0  0
 12  7  2  0     0  0
 13 12  1  0     0  0
 14 11  1  0     0  0
 10 13  2  0     0  0
  9 14  2  0     0  0
M  END