
          11280714482D 1   1.00000     0.00000     0

 29 30  0     0  0            999 V2000
   -4.4125    0.9500    0.0000 N   0  0  3  0  0  0           0  0  0
   -5.1333    1.3583    0.0000 C   0  0  0  0  0  0           0  0  0
   -5.8458    0.9458    0.0000 N   0  0  0  0  0  0           0  0  0
   -4.4083    0.1250    0.0000 C   0  0  0  0  0  0           0  0  0
   -3.7000    1.3708    0.0000 C   0  0  0  0  0  0           0  0  0
   -5.1208   -0.2917    0.0000 C   0  0  0  0  0  0           0  0  0
   -2.2708    1.3708    0.0000 N   0  0  3  0  0  0           0  0  0
   -2.9833    0.9583    0.0000 C   0  0  0  0  0  0           0  0  0
   -6.5417   -1.1167    0.0000 C   0  0  0  0  0  0           0  0  0
   -5.8458    0.1208    0.0000 C   0  0  0  0  0  0           0  0  0
   -5.1208   -1.1167    0.0000 C   0  0  0  0  0  0           0  0  0
    4.1625    0.9833    0.0000 N   0  0  0  0  0  0           0  0  0
   -5.8458   -1.5292    0.0000 C   0  0  0  0  0  0           0  0  0
   -6.5417   -0.2917    0.0000 C   0  0  0  0  0  0           0  0  0
   -7.2625   -1.5292    0.0000 O   0  0  0  0  0  0           0  0  0
   -5.1333    2.1875    0.0000 C   0  0  0  0  0  0           0  0  0
   -6.5542    1.3500    0.0000 C   0  0  0  0  0  0           0  0  0
   -1.5583    0.9625    0.0000 C   0  0  0  0  0  0           0  0  0
   -2.2750    2.1958    0.0000 C   0  0  0  0  0  0           0  0  0
    3.4417    1.3958    0.0000 C   0  0  0  0  0  0           0  0  0
   -7.2625   -2.3542    0.0000 C   0  0  0  0  0  0           0  0  0
   -0.8458    1.3750    0.0000 C   0  0  0  0  0  0           0  0  0
    2.7292    0.9750    0.0000 C   0  0  0  0  0  0           0  0  0
    2.0167    1.3875    0.0000 C   0  0  0  0  0  0           0  0  0
   -0.1250    0.9708    0.0000 C   0  0  0  0  0  0           0  0  0
    0.5875    1.3833    0.0000 C   0  0  0  0  0  0           0  0  0
    1.3042    0.9708    0.0000 C   0  0  0  0  0  0           0  0  0
   -5.8458    2.5958    0.0000 C   0  0  0  0  0  0           0  0  0
   -6.5542    2.1833    0.0000 C   0  0  0  0  0  0           0  0  0
  2  1  1  0     0  0
  3  2  1  0     0  0
  4  1  1  0     0  0
  5  1  1  0     0  0
  6  4  1  0     0  0
  7  8  1  0     0  0
  8  5  1  0     0  0
  9 13  1  0     0  0
 10  6  2  0     0  0
 11  6  1  0     0  0
 12 20  1  0     0  0
 13 11  2  0     0  0
 14 10  1  0     0  0
 15  9  1  0     0  0
 16  2  2  0     0  0
 17  3  2  0     0  0
 18  7  1  0     0  0
 19  7  1  0     0  0
 20 23  1  0     0  0
 21 15  1  0     0  0
 22 18  1  0     0  0
 23 24  1  0     0  0
 24 27  1  0     0  0
 25 22  1  0     0  0
 26 25  1  0     0  0
 27 26  1  0     0  0
 28 16  1  0     0  0
 29 28  2  0     0  0
 14  9  2  0     0  0
 29 17  1  0     0  0
M  END