
  SciTegic11201309402D

 67 68  0  0  1  0            999 V2000
   -2.3708   -3.5500    0.0000 C   0  0
   -2.8583   -4.2250    0.0000 N   0  0
   -2.8583   -2.8792    0.0000 C   0  0
   -1.5458   -3.5500    0.0000 C   0  0
   -3.6458   -3.1375    0.0000 C   0  0
    2.1667   -5.6917    0.0000 C   0  0
    0.9292   -4.9792    0.0000 N   0  0
   -4.0958   -8.4542    0.0000 C   0  0
   -3.6458   -3.9667    0.0000 C   0  0
    0.1042   -4.9792    0.0000 C   0  0
   -1.1333   -4.2667    0.0000 N   0  0
    2.5792   -6.4042    0.0000 N   0  0
    1.3417   -5.6917    0.0000 C   0  0  1  0  0  0
   -3.3833   -8.0500    0.0000 C   0  0
   -0.3083   -4.2667    0.0000 C   0  0  1  0  0  0
   -3.6458    1.8125    0.0000 C   0  0
    1.3917    0.9458    0.0000 C   0  0
    3.4042   -6.4042    0.0000 C   0  0  2  0  0  0
    3.8167   -7.1167    0.0000 C   0  0
   -2.9333    2.2250    0.0000 N   0  0
    1.9417    0.3333    0.0000 N   0  0
   -4.3625   -2.7250    0.0000 C   0  0
   -1.1333   -2.8375    0.0000 O   0  0
    2.5792   -4.9792    0.0000 O   0  0
   -0.3083   -5.6917    0.0000 O   0  0
    0.1042   -3.5500    0.0000 C   0  0
   -3.3833   -7.2167    0.0000 O   0  0
    3.4042   -7.8375    0.0000 O   0  0
   -4.3625   -4.3792    0.0000 C   0  0
    3.8167   -5.6917    0.0000 C   0  0
   -3.6750   -9.1792    0.0000 F   0  0
   -4.5083   -7.7375    0.0000 F   0  0
   -4.8125   -8.8750    0.0000 F   0  0
    0.5792    0.7750    0.0000 N   0  0
   -3.6458    0.9875    0.0000 N   0  0
    1.6417    1.7333    0.0000 N   0  0
   -4.3625    2.2250    0.0000 N   0  0
    0.9292   -6.4042    0.0000 C   0  0  2  0  0  0
   -5.0833   -3.1375    0.0000 C   0  0
    0.9042   -3.3292    0.0000 C   0  0
   -2.6625   -8.4625    0.0000 O   0  0
    4.6417   -7.1167    0.0000 O   0  0
   -2.6000   -2.0917    0.0000 C   0  0
    2.4917   -2.8917    0.0000 C   0  0
   -5.0833   -3.9667    0.0000 C   0  0
    1.1042   -2.5375    0.0000 C   0  0
    1.4875   -3.9125    0.0000 C   0  0
    2.2792   -3.6917    0.0000 C   0  0
    1.9000   -2.3167    0.0000 C   0  0
    3.2875   -2.6750    0.0000 O   0  0
   -5.7875   -2.7292    0.0000 O   0  0
    4.6417   -5.6917    0.0000 C   0  0
    0.3292   -0.0042    0.0000 C   0  0
   -4.3625    0.5750    0.0000 C   0  0
    0.1042   -6.4042    0.0000 C   0  0
    1.3417   -7.1167    0.0000 C   0  0
   -5.7875   -1.9042    0.0000 C   0  0
   -1.7958   -1.9167    0.0000 C   0  0
   -4.3625   -0.2500    0.0000 C   0  0
   -0.4833   -0.1792    0.0000 C   0  0
   -5.0833   -1.4875    0.0000 C   0  0
    5.0542   -4.9792    0.0000 C   0  0
    5.0542   -6.4042    0.0000 C   0  0
   -5.0833   -0.6625    0.0000 C   0  0
   -1.5458   -1.1375    0.0000 C   0  0
   -0.7333   -0.9667    0.0000 C   0  0
   -0.3083   -7.1167    0.0000 C   0  0
  2  1  1  0
  3  1  2  0
  4  1  1  0
  5  3  1  0
  6 13  1  0
  7 10  1  0
  9  2  1  0
 10 15  1  0
 11  4  1  0
 12  6  1  0
 13  7  1  6
 14  8  1  0
 15 11  1  1
 16 35  2  0
 17 34  2  0
 18 12  1  1
 19 18  1  0
 20 16  1  0
 21 17  1  0
 22  5  2  0
 23  4  2  0
 24  6  2  0
 25 10  2  0
 15 26  1  0
 27 14  2  0
 28 19  2  0
 29  9  2  0
 18 30  1  0
 31  8  1  0
 32  8  1  0
 33  8  1  0
 34 53  1  0
 35 54  1  0
 36 17  1  0
 37 16  1  0
 13 38  1  0
 39 22  1  0
 40 26  1  0
 41 14  1  0
 42 19  1  0
 43  3  1  0
 44 49  1  0
 45 29  1  0
 46 40  1  0
 47 40  2  0
 48 47  1  0
 49 46  2  0
 50 44  1  0
 51 39  1  0
 52 30  1  0
 53 60  1  0
 54 59  1  0
 55 38  1  0
 38 56  1  1
 57 51  1  0
 58 43  1  0
 59 64  1  0
 60 66  1  0
 61 57  1  0
 62 52  1  0
 63 52  1  0
 64 61  1  0
 65 58  1  0
 66 65  1  0
 67 55  1  0
  9  5  1  0
 45 39  2  0
 48 44  2  0
M  END