
  SciTegic06011109532D

120125  0  0  0  0            999 V2000
   10.7625  -10.9958    0.0000 C   0  0
   10.7583  -11.8208    0.0000 O   0  0
   11.4790  -10.5869    0.0000 C   0  0  1  0  0  0
   12.1914  -11.0030    0.0000 N   0  0
   11.4832   -9.7620    0.0000 C   0  0
   12.1873  -11.8280    0.0000 C   0  0
   12.9080  -10.5942    0.0000 C   0  0
   13.6203  -11.0103    0.0000 C   0  0  2  0  0  0
   12.9121   -9.7692    0.0000 O   0  0
   12.0625   -9.1708    0.0000 C   0  0
   12.8875   -9.1708    0.0000 C   0  0
   11.7429   -8.4102    0.0000 C   0  0
   13.6162  -11.8353    0.0000 C   0  0
   14.3369  -10.6014    0.0000 N   0  0
   15.0493  -11.0175    0.0000 C   0  0
   14.3411   -9.7764    0.0000 C   0  0
   13.1958  -12.5458    0.0000 C   0  0
   12.3709  -12.5371    0.0000 C   0  0
   13.6007  -13.2646    0.0000 C   0  0
   15.0451  -11.8425    0.0000 O   0  0
   15.7658  -10.6086    0.0000 C   0  0  1  0  0  0
   16.4782  -11.0247    0.0000 C   0  0
   15.7700   -9.7836    0.0000 N   0  0
   16.4865   -9.3747    0.0000 C   0  0
   17.1989   -9.7908    0.0000 O   0  0
   16.4907   -8.5497    0.0000 C   0  0  2  0  0  0
   17.2072   -8.1408    0.0000 C   0  0
   15.7783   -8.1336    0.0000 N   0  0
   15.7825   -7.3086    0.0000 C   0  0
   16.4990   -6.8998    0.0000 O   0  0
   15.0701   -6.8925    0.0000 C   0  0  1  0  0  0
   15.0743   -6.0675    0.0000 N   0  0
   14.3536   -7.3014    0.0000 C   0  0
   15.7908   -5.6587    0.0000 C   0  0
   14.3619   -5.6514    0.0000 C   0  0
   14.3494   -8.1264    0.0000 C   0  0
   13.6328   -8.5353    0.0000 C   0  0
   15.0618   -8.5425    0.0000 C   0  0
   14.3661   -4.8265    0.0000 C   0  0  2  0  0  0
   13.6453   -6.0603    0.0000 O   0  0
   15.0826   -4.4176    0.0000 C   0  0
   15.0868   -3.5926    0.0000 C   0  0
   15.7950   -4.8337    0.0000 C   0  0
   13.6537   -4.4104    0.0000 N   0  0
   12.9371   -4.8192    0.0000 C   0  0
   12.2248   -4.4031    0.0000 C   0  0  2  0  0  0
   12.9330   -5.6442    0.0000 O   0  0
   12.2289   -3.5781    0.0000 C   0  0
   11.5082   -4.8120    0.0000 N   0  0
   10.7958   -4.3959    0.0000 C   0  0
   11.5040   -5.6370    0.0000 C   0  0
   12.9455   -3.1693    0.0000 C   0  0
   12.9496   -2.3443    0.0000 C   0  0
   13.6578   -3.5854    0.0000 C   0  0
   10.8000   -3.5709    0.0000 O   0  0
   10.0793   -4.8048    0.0000 C   0  0
    9.3669   -4.3887    0.0000 N   0  0
    8.6504   -4.7976    0.0000 C   0  0
    9.3711   -3.5637    0.0000 C   0  0
    7.9380   -4.3815    0.0000 O   0  0
    8.6462   -5.6226    0.0000 C   0  0  2  0  0  0
    9.3586   -6.0387    0.0000 C   0  0
   10.0751   -5.6298    0.0000 C   0  0
   10.0501  -10.5797    0.0000 N   0  0
   10.0543   -9.7547    0.0000 C   0  0  1  0  0  0
    9.3336  -10.9886    0.0000 C   0  0
   10.4625   -9.0375    0.0000 C   0  0
   10.0456   -8.3256    0.0000 C   0  0
   11.2875   -9.0324    0.0000 C   0  0
    9.2573   -9.5417    0.0000 C   0  0
    8.6742  -10.1254    0.0000 O   0  0
    9.0433   -8.7449    0.0000 N   0  0
    9.6367   -7.7132    0.0000 C   0  0
    8.3258   -8.3364    0.0000 C   0  0  2  0  0  0
    8.3215   -7.5114    0.0000 C   0  0
    7.6135   -8.7526    0.0000 C   0  0  1  0  0  0
    6.8969   -8.3439    0.0000 C   0  0  2  0  0  0
    7.6178   -9.5776    0.0000 O   0  0
    6.8926   -7.5189    0.0000 C   0  0
    6.1846   -8.7601    0.0000 C   0  0
    5.4680   -8.3513    0.0000 C   0  0
    4.7557   -8.7675    0.0000 C   0  0
    4.0391   -8.3587    0.0000 C   0  0
    4.0349   -7.5330    0.0000 C   0  0
    3.3192   -7.1243    0.0000 C   0  0
    2.6059   -7.5406    0.0000 C   0  0
    2.6128   -8.3698    0.0000 C   0  0
    3.3292   -8.7748    0.0000 C   0  0
    1.8887   -7.1328    0.0000 C   0  0
    1.1770   -7.5499    0.0000 N   0  0
    9.0339   -7.0952    0.0000 O   0  0
    7.6049   -7.1027    0.0000 N   0  0
    9.0375   -7.9167    0.0000 H   0  0
    0.4598   -7.1421    0.0000 C   0  0
   -0.2520   -7.5592    0.0000 C   0  0
    0.4544   -6.3171    0.0000 O   0  0
   -0.9668   -7.1470    0.0000 C   0  0
   -1.6787   -7.5639    0.0000 C   0  0
   -1.6731   -8.3893    0.0000 C   0  0
   -0.9509   -8.7970    0.0000 C   0  0
   -0.2426   -8.3782    0.0000 C   0  0
   -2.0960   -6.8522    0.0000 C   0  0
   -1.6883   -6.1350    0.0000 O   0  0
   -2.3817   -8.8102    0.0000 C   0  0
   -3.8062   -9.6410    0.0000 O   0  0
   -2.9209   -6.8577    0.0000 O   0  0
   -3.8084   -8.8157    0.0000 C   0  0
   -3.1022   -8.3985    0.0000 C   0  0
   -3.1104   -7.5828    0.0000 C   0  0
   -3.8232   -7.1782    0.0000 C   0  0
   -4.5293   -7.5954    0.0000 C   0  0
   -4.5227   -8.4172    0.0000 C   0  0
   -5.2475   -7.1894    0.0000 O   0  0
   -2.3733   -9.6338    0.0000 C   0  0
   -3.0877  -10.0479    0.0000 C   0  0
   -3.0853  -10.8717    0.0000 C   0  0
   -2.3693  -11.2824    0.0000 C   0  0
   -1.6542  -10.8634    0.0000 C   0  0
   -1.6601  -10.0409    0.0000 C   0  0
   -2.3655  -12.1074    0.0000 O   0  0
  7  8  1  0
 58 61  1  0
 29 31  1  0
 61 62  1  6
 14 16  1  0
 62 63  1  0
 31 32  1  0
  1 64  1  0
 64 65  1  0
 31 33  1  6
 64 66  1  0
 13 17  1  0
 65 67  1  6
 32 34  1  0
 67 68  1  0
  7  9  2  0
 67 69  1  0
 32 35  1  0
 65 70  1  0
 17 18  1  0
 70 71  2  0
 33 36  1  0
 70 72  1  0
  3  5  1  6
 73 72  1  0
 36 37  1  0
 72 74  1  0
 17 19  1  0
 74 75  1  0
 36 38  1  0
 74 76  1  0
  5 10  1  0
 76 77  1  0
 35 39  1  0
 76 78  1  6
 15 20  2  0
 77 79  1  1
 35 40  2  0
 77 80  1  0
  1  3  1  0
 80 81  1  0
 39 41  1  1
 81 82  2  0
 15 21  1  0
 82 83  1  0
 41 42  1  0
 83 84  2  0
 10 11  1  0
 84 85  1  0
 41 43  1  0
 85 86  2  0
 21 22  1  6
 86 87  1  0
 39 44  1  0
 87 88  2  0
 88 83  1  0
  4  6  1  0
 86 89  1  0
 44 45  1  0
 89 90  1  0
 21 23  1  0
 75 91  2  0
 45 46  1  0
 75 92  1  0
 92 61  1  0
 10 12  1  0
 74 93  1  6
 45 47  2  0
 90 94  1  0
 23 24  1  0
 94 95  1  0
 46 48  1  1
 94 96  2  0
  1  2  2  0
 95 97  2  0
 46 49  1  0
 97 98  1  0
 24 25  2  0
 98 99  2  0
 49 50  1  0
 99100  1  0
  8 13  1  1
100101  2  0
101 95  1  0
 49 51  1  0
 98102  1  0
 24 26  1  0
102103  2  0
104108  2  0
 48 52  1  0
  4  7  1  0
104114  1  0
107105  1  0
105115  1  0
 99104  1  0
 52 53  1  0
102106  1  0
107108  1  0
 26 27  1  1
 52 54  1  0
  8 14  1  0
 50 55  2  0
 26 28  1  0
 50 56  1  0
107112  2  0
108109  1  0
109110  2  0
110111  1  0
111112  1  0
  3  4  1  0
111113  2  0
 56 57  1  0
 28 29  1  0
114115  2  0
 57 58  1  0
115116  1  0
 14 15  1  0
116117  2  0
 57 59  1  0
117118  1  0
 29 30  2  0
118119  2  0
119114  1  0
 58 60  2  0
117120  1  0
M  END