
          11280715092D 1   1.00000     0.00000     0

 45 49  0     0  0            999 V2000
    5.5792   -6.1500    0.0000 N   0  0  0  0  0  0           0  0  0
    4.1292   -5.8167    0.0000 C   0  0  0  0  0  0           0  0  0
    4.7792   -4.4792    0.0000 N   0  0  3  0  0  0           0  0  0
    4.7792   -6.3292    0.0000 C   0  0  0  0  0  0           0  0  0
    5.5792   -4.6667    0.0000 C   0  0  0  0  0  0           0  0  0
    5.9375   -5.4042    0.0000 C   0  0  3  0  0  0           0  0  0
    4.1375   -4.9917    0.0000 C   0  0  0  0  0  0           0  0  0
    3.4167   -6.2292    0.0000 C   0  0  0  0  0  0           0  0  0
    1.9917   -6.2292    0.0000 N   0  0  3  0  0  0           0  0  0
    8.0000   -6.1167    0.0000 C   0  0  0  0  0  0           0  0  0
    2.7042   -5.8167    0.0000 C   0  0  0  0  0  0           0  0  0
    5.4542   -0.9500    0.0000 C   0  0  0  0  0  0           0  0  0
    3.4167   -4.5792    0.0000 C   0  0  0  0  0  0           0  0  0
    6.7625   -5.4042    0.0000 C   0  0  0  0  0  0           0  0  0
    7.1750   -6.1167    0.0000 N   0  0  0  0  0  0           0  0  0
    8.4167   -6.8292    0.0000 N   0  0  0  0  0  0           0  0  0
    4.6667   -0.7042    0.0000 N   0  0  0  0  0  0           0  0  0
    6.0917   -4.0167    0.0000 O   0  0  0  0  0  0           0  0  0
    4.5917   -7.1375    0.0000 C   0  0  0  0  0  0           0  0  0
    1.9917   -7.0542    0.0000 C   0  0  0  0  0  0           0  0  0
    1.2792   -5.8167    0.0000 C   0  0  0  0  0  0           0  0  0
    2.7042   -4.9917    0.0000 C   0  0  0  0  0  0           0  0  0
    5.6375   -1.7542    0.0000 N   0  0  0  0  0  0           0  0  0
    4.6000   -3.6792    0.0000 C   0  0  0  0  0  0           0  0  0
    8.4125   -5.4000    0.0000 N   0  0  0  0  0  0           0  0  0
    6.0625   -0.3917    0.0000 N   0  0  0  0  0  0           0  0  0
    1.2792   -7.4667    0.0000 C   0  0  0  0  0  0           0  0  0
    1.2792   -4.9917    0.0000 C   0  0  0  0  0  0           0  0  0
    5.2042   -3.1167    0.0000 C   0  0  0  0  0  0           0  0  0
    5.0292   -2.3125    0.0000 C   0  0  0  0  0  0           0  0  0
    3.8042   -7.3750    0.0000 C   0  0  0  0  0  0           0  0  0
    5.2000   -7.6917    0.0000 C   0  0  0  0  0  0           0  0  0
    1.2792   -8.2917    0.0000 C   0  0  0  0  0  0           0  0  0
    1.9917   -4.5875    0.0000 C   0  0  0  0  0  0           0  0  0
    0.5667   -4.5875    0.0000 C   0  0  0  0  0  0           0  0  0
    0.5667   -7.0542    0.0000 C   0  0  0  0  0  0           0  0  0
    5.0167   -8.4917    0.0000 C   0  0  0  0  0  0           0  0  0
    3.6167   -8.1792    0.0000 C   0  0  0  0  0  0           0  0  0
    1.9917   -3.7625    0.0000 C   0  0  0  0  0  0           0  0  0
    0.5667   -3.7667    0.0000 C   0  0  0  0  0  0           0  0  0
   -0.1500   -7.4667    0.0000 C   0  0  0  0  0  0           0  0  0
    0.5667   -8.7042    0.0000 C   0  0  0  0  0  0           0  0  0
    4.2250   -8.7417    0.0000 C   0  0  0  0  0  0           0  0  0
   -0.1500   -8.2917    0.0000 C   0  0  0  0  0  0           0  0  0
    1.2792   -3.3500    0.0000 C   0  0  0  0  0  0           0  0  0
  2  4  1  0     0  0
  3  5  1  0     0  0
  4  1  2  0     0  0
  5  6  1  0     0  0
  6  1  1  0     0  0
  7  2  1  0     0  0
  8  2  2  0     0  0
  9 11  1  0     0  0
 10 15  1  0     0  0
 11  8  1  0     0  0
 12 23  2  0     0  0
 13  7  2  0     0  0
 14  6  1  0     0  0
 15 14  1  0     0  0
 16 10  2  0     0  0
 17 12  1  0     0  0
 18  5  2  0     0  0
 19  4  1  0     0  0
 20  9  1  0     0  0
 21  9  1  0     0  0
 22 11  2  0     0  0
 23 30  1  0     0  0
 24  3  1  0     0  0
 25 10  1  0     0  0
 26 12  1  0     0  0
 27 20  1  0     0  0
 28 21  1  0     0  0
 29 24  1  0     0  0
 30 29  1  0     0  0
 31 19  2  0     0  0
 32 19  1  0     0  0
 33 27  1  0     0  0
 34 28  2  0     0  0
 35 28  1  0     0  0
 36 27  2  0     0  0
 37 32  2  0     0  0
 38 31  1  0     0  0
 39 34  1  0     0  0
 40 35  2  0     0  0
 41 36  1  0     0  0
 42 33  2  0     0  0
 43 37  1  0     0  0
 44 41  2  0     0  0
 45 40  1  0     0  0
  3  7  1  0     0  0
 43 38  2  0     0  0
 22 13  1  0     0  0
 45 39  2  0     0  0
 42 44  1  0     0  0
M  END