
  SciTegic12231509382D

 11 12  0  0  0  0            999 V2000
    8.6875   -6.3208    0.0000 N   0  0
    7.9708   -5.9083    0.0000 C   0  0
    7.9708   -5.0833    0.0000 C   0  0
    9.4000   -5.0833    0.0000 N   0  0
    8.6875   -4.6708    0.0000 C   0  0
    9.4000   -5.9083    0.0000 C   0  0
    7.1875   -4.8250    0.0000 N   0  0
    7.1875   -6.1625    0.0000 N   0  0
    6.7042   -5.4958    0.0000 C   0  0
    8.6875   -3.8458    0.0000 O   0  0
   10.1167   -6.3208    0.0000 N   0  0
  2  1  1  0
  3  2  2  0
  4  6  1  0
  5  4  1  0
  6  1  2  0
  7  3  1  0
  8  2  1  0
  9  8  1  0
 10  5  2  0
 11  6  1  0
  5  3  1  0
  9  7  2  0
M  END