
          11280715472D 1   1.00000     0.00000     0

 23 24  0     0  0            999 V2000
    1.8542    2.3333    0.0000 N   0  0  3  0  0  0           0  0  0
    1.1417    2.7458    0.0000 C   0  0  0  0  0  0           0  0  0
    1.8542    1.5208    0.0000 C   0  0  0  0  0  0           0  0  0
    0.4292    2.3333    0.0000 C   0  0  0  0  0  0           0  0  0
    1.1417    1.0958    0.0000 C   0  0  0  0  0  0           0  0  0
   -0.2833    1.1000    0.0000 O   0  0  0  0  0  0           0  0  0
    2.5667    2.7458    0.0000 C   0  0  3  0  0  0           0  0  0
    0.4292    1.5208    0.0000 C   0  0  3  0  0  0           0  0  0
   -0.9958   -2.6167    0.0000 N   0  0  3  0  0  0           0  0  0
   -0.2833    0.2833    0.0000 C   0  0  0  0  0  0           0  0  0
   -0.2833   -2.2042    0.0000 C   0  0  0  0  0  0           0  0  0
   -0.2833   -1.3792    0.0000 C   0  0  0  0  0  0           0  0  0
   -0.9958   -0.1375    0.0000 C   0  0  0  0  0  0           0  0  0
    0.4292   -0.1375    0.0000 C   0  0  0  0  0  0           0  0  0
    0.4292   -0.9667    0.0000 C   0  0  0  0  0  0           0  0  0
   -0.9958   -0.9667    0.0000 C   0  0  0  0  0  0           0  0  0
   -1.7083   -2.2042    0.0000 C   0  0  0  0  0  0           0  0  0
   -0.9958   -3.4417    0.0000 C   0  0  0  0  0  0           0  0  0
    3.2917    2.3333    0.0000 C   0  0  0  0  0  0           0  0  0
    2.5667    3.5708    0.0000 C   0  0  0  0  0  0           0  0  0
   -2.4208   -2.6167    0.0000 C   0  0  0  0  0  0           0  0  0
   -3.1458   -2.2042    0.0000 C   0  0  0  0  0  0           0  0  0
   -3.8458   -2.6167    0.0000 C   0  0  0  0  0  0           0  0  0
  2  1  1  0     0  0
  3  1  1  0     0  0
  4  2  1  0     0  0
  5  3  1  0     0  0
  6  8  1  0     0  0
  7  1  1  0     0  0
  8  5  1  0     0  0
  9 11  1  0     0  0
 10  6  1  0     0  0
 11 12  1  0     0  0
 12 15  2  0     0  0
 13 10  1  0     0  0
 14 10  2  0     0  0
 15 14  1  0     0  0
 16 13  2  0     0  0
 17  9  1  0     0  0
 18  9  1  0     0  0
 19  7  1  0     0  0
 20  7  1  0     0  0
 21 17  1  0     0  0
 22 21  1  0     0  0
 23 22  1  0     0  0
  8  4  1  0     0  0
 12 16  1  0     0  0
M  END