
  SciTegic06011109532D

162169  0  0  0  0            999 V2000
    1.1105  -20.5335    0.0000 C   0  0
    1.1134  -21.3678    0.0000 O   0  0
    0.3902  -20.1211    0.0000 C   0  0
   -0.3315  -20.5387    0.0000 O   0  0
   -1.0560  -20.1261    0.0000 C   0  0
   -1.7775  -20.5437    0.0000 C   0  0
   -2.5021  -20.1312    0.0000 N   0  0
   -1.7746  -21.3780    0.0000 O   0  0
   -2.5050  -19.2970    0.0000 C   0  0
   -1.7840  -18.8779    0.0000 C   0  0
   -1.7866  -18.0443    0.0000 C   0  0
   -2.5116  -17.6310    0.0000 C   0  0
   -3.2357  -18.0531    0.0000 C   0  0
   -3.2295  -18.8853    0.0000 C   0  0
   -2.5157  -16.7968    0.0000 C   0  0
   -1.7947  -16.3741    0.0000 C   0  0
   -1.7987  -15.5399    0.0000 C   0  0
   -1.0777  -15.1213    0.0000 N   0  0
   -2.5238  -15.1283    0.0000 O   0  0
   -0.2729  -15.3283    0.0000 C   0  0
   -0.0619  -14.5213    0.0000 C   0  0
   -0.8689  -14.3104    0.0000 C   0  0
   -1.2888  -13.5902    0.0000 O   0  0
    1.8292  -20.1135    0.0000 N   0  0
    9.7269  -20.5284    0.0000 C   0  0  2  0  0  0
    9.0024  -19.2790    0.0000 O   0  0
    9.0024  -20.1133    0.0000 C   0  0
    9.7269  -21.3625    0.0000 C   0  0
    9.0024  -21.7776    0.0000 C   0  0
    9.0024  -22.6119    0.0000 C   0  0
    8.2822  -23.0269    0.0000 C   0  0
    7.5755  -20.1180    0.0000 C   0  0  2  0  0  0
    6.8552  -21.3673    0.0000 O   0  0
    6.8552  -20.5331    0.0000 C   0  0
    7.5755  -19.2837    0.0000 C   0  0
    6.8552  -18.8687    0.0000 C   0  0
    8.2958  -18.8687    0.0000 C   0  0
    5.4245  -20.5312    0.0000 C   0  0  2  0  0  0
    4.7043  -19.2819    0.0000 O   0  0
    4.7043  -20.1162    0.0000 C   0  0
    5.4245  -21.3654    0.0000 C   0  0
    4.7043  -21.7804    0.0000 C   0  0
    4.7043  -22.6147    0.0000 S   0  0
    3.9840  -23.0298    0.0000 C   0  0
    3.9840  -20.5312    0.0000 N   0  0
   10.4451  -20.1121    0.0000 N   0  0
    6.2320  -16.7943    0.0000 C   0  0  2  0  0  0
    6.9495  -15.5703    0.0000 O   0  0
    6.9521  -16.3860    0.0000 C   0  0
    6.2425  -17.6052    0.0000 C   0  0
    8.3568  -16.3784    0.0000 C   0  0  2  0  0  0
    9.0639  -17.5924    0.0000 O   0  0
    9.0642  -16.7727    0.0000 C   0  0
    8.3581  -15.5676    0.0000 C   0  0
    9.0525  -15.1551    0.0000 C   0  0
    7.6430  -15.1559    0.0000 C   0  0
   11.8746  -19.3002    0.0000 C   0  0
   11.8746  -20.1139    0.0000 C   0  0  1  0  0  0
   11.2015  -16.3842    0.0000 C   0  0
   10.4799  -16.7871    0.0000 C   0  0  2  0  0  0
   10.4717  -17.6086    0.0000 C   0  0
   11.1820  -18.0363    0.0000 S   0  0
   11.1730  -18.8674    0.0000 S   0  0
   13.9876  -16.4330    0.0000 C   0  0
   12.5878  -15.6028    0.0000 C   0  0
   11.8785  -15.1866    0.0000 C   0  0  2  0  0  0
   11.1643  -20.5264    0.0000 C   0  0
   11.1639  -21.3378    0.0000 O   0  0
   11.9107  -16.7759    0.0000 O   0  0
   13.9965  -15.6225    0.0000 C   0  0  2  0  0  0
   11.8906  -14.3754    0.0000 C   0  0
   12.5821  -16.4172    0.0000 O   0  0
   14.7013  -15.2276    0.0000 C   0  0
   14.7096  -14.4122    0.0000 C   0  0
   13.2792  -16.8383    0.0000 O   0  0
   12.5727  -21.3445    0.0000 C   0  0
   11.8654  -21.7445    0.0000 O   0  0
   13.2767  -21.7469    0.0000 C   0  0  2  0  0  0
   13.2676  -22.5678    0.0000 C   0  0
   14.6824  -21.7555    0.0000 C   0  0
   14.6789  -22.5703    0.0000 O   0  0
   14.6866  -20.1422    0.0000 C   0  0
   14.6854  -19.3268    0.0000 C   0  0  2  0  0  0
   13.9845  -20.5482    0.0000 O   0  0
   13.9809  -18.9192    0.0000 C   0  0
   15.3801  -18.0977    0.0000 C   0  0
   14.6774  -17.7009    0.0000 O   0  0
   16.0888  -17.6877    0.0000 C   0  0  1  0  0  0
   16.7877  -16.4673    0.0000 C   0  0
   16.7800  -15.6462    0.0000 C   0  0  2  0  0  0
   17.4946  -16.8684    0.0000 O   0  0
   17.4909  -15.2360    0.0000 C   0  0
   17.4895  -14.4270    0.0000 C   0  0
   18.1915  -15.6460    0.0000 C   0  0
    5.5413  -16.3916    0.0000 N   0  0
    7.6471  -16.7833    0.0000 N   0  0
   12.5752  -20.5299    0.0000 N   0  0
   11.1702  -15.5957    0.0000 N   0  0
   13.2968  -15.2046    0.0000 N   0  0
   13.9800  -21.3511    0.0000 N   0  0
   15.3921  -18.9133    0.0000 N   0  0
   16.0998  -16.8671    0.0000 N   0  0
   14.6922  -16.8493    0.0000 N   0  0
    9.7750  -16.3818    0.0000 N   0  0
   15.3782  -13.9463    0.0000 C   0  0
   15.1382  -13.1680    0.0000 N   0  0
   14.0619  -13.9279    0.0000 C   0  0
   14.3233  -13.1591    0.0000 C   0  0
   13.7883  -12.5488    0.0000 C   0  0
   12.9920  -12.7102    0.0000 C   0  0
   12.7334  -13.4831    0.0000 C   0  0
   13.2698  -14.0902    0.0000 C   0  0
    5.5351  -18.0293    0.0000 C   0  0
    5.5458  -18.8543    0.0000 O   0  0
    4.8127  -17.6238    0.0000 O   0  0
    5.5458  -15.5665    0.0000 C   0  0
    4.8309  -15.1478    0.0000 C   0  0  2  0  0  0
    6.2609  -15.1556    0.0000 O   0  0
    4.8354  -14.3227    0.0000 C   0  0
    4.1157  -15.5587    0.0000 N   0  0
    5.5546  -13.9119    0.0000 C   0  0
    6.2645  -14.3339    0.0000 C   0  0
    6.9835  -13.9238    0.0000 C   0  0
    6.9841  -13.0978    0.0000 C   0  0
    6.2683  -12.6835    0.0000 C   0  0
    5.5567  -13.0919    0.0000 C   0  0
    3.4008  -15.1401    0.0000 C   0  0
    2.6856  -15.5510    0.0000 C   0  0
    3.4053  -14.3149    0.0000 O   0  0
   13.2678  -19.3339    0.0000 C   0  0
   12.5508  -18.9190    0.0000 C   0  0
   13.2677  -20.1590    0.0000 C   0  0
   15.3964  -20.5403    0.0000 N   0  0
   15.3931  -21.3537    0.0000 C   0  0  1  0  0  0
   16.1650  -21.6078    0.0000 C   0  0
   16.6490  -20.9499    0.0000 C   0  0
   16.1703  -20.2883    0.0000 C   0  0
   15.3886  -22.1764    0.0000 H   0  0
   12.5460  -22.9748    0.0000 C   0  0
   11.7969  -22.6332    0.0000 C   0  0
   11.2379  -23.2414    0.0000 N   0  0
   11.6449  -23.9588    0.0000 C   0  0
   12.4536  -23.7976    0.0000 N   0  0
   16.7999  -18.1014    0.0000 C   0  0  1  0  0  0
   16.7962  -18.9266    0.0000 C   0  0
   17.5146  -17.6941    0.0000 O   0  0
   16.0825  -18.5116    0.0000 H   0  0
   11.1863  -13.9540    0.0000 C   0  0
   11.1986  -13.1366    0.0000 C   0  0
   10.4985  -12.7194    0.0000 C   0  0
   10.5108  -11.9020    0.0000 N   0  0
    3.2655  -20.1156    0.0000 C   0  0  2  0  0  0
    2.5463  -20.5300    0.0000 C   0  0
    3.2662  -19.2855    0.0000 C   0  0
    2.5478  -18.8699    0.0000 C   0  0
    2.5485  -18.0398    0.0000 C   0  0
    1.8299  -17.6242    0.0000 C   0  0
    1.8306  -16.7941    0.0000 N   0  0
    2.5456  -21.3601    0.0000 O   0  0
    8.2876  -23.8643    0.0000 N   0  0
    8.2903  -20.5299    0.0000 N   0  0
    6.1404  -20.1211    0.0000 N   0  0
 13 14  2  0
 14  9  1  0
 12 15  1  0
 15 16  1  0
 16 17  1  0
 17 18  1  0
 17 19  2  0
 18 20  1  0
 20 21  1  0
 40 45  1  0
 25 27  1  0
 27 26  2  0
 25 28  1  1
 28 29  1  0
 29 30  1  0
 30 31  1  0
 32 34  1  0
 34 33  2  0
 32 35  1  6
 35 36  1  0
 35 37  1  0
 38 40  1  0
 40 39  2  0
 38 41  1  1
 41 42  1  0
 42 43  1  0
 43 44  1  0
 21 22  1  0
 25 46  1  0
 22 18  1  0
 22 23  2  0
 24  1  1  0
  1  2  2  0
 47 50  1  6
109110  2  0
 51 53  1  0
110111  1  0
 53 52  2  0
111112  2  0
112107  1  0
 51 54  1  0
 50113  1  0
 54 55  1  0
113114  2  0
 54 56  1  0
113115  1  0
 49 96  1  0
 95116  1  0
 51 96  1  1
116117  1  0
 95 47  1  0
116118  2  0
 57 58  1  0
117119  1  1
 58 97  1  0
117120  1  0
 59 60  1  0
119121  1  0
 60 61  1  0
121122  2  0
 61 62  1  0
122123  1  0
 63 62  1  0
123124  2  0
 64103  1  0
124125  1  0
 99 65  1  0
125126  2  0
126121  1  0
 64 70  1  0
120127  1  0
 66 98  1  0
127128  1  0
 65 66  1  0
127129  2  0
 98 59  1  0
 63 57  1  0
 58 67  1  6
 67 68  2  0
 85130  1  0
 60104  1  6
130131  1  0
104 53  1  0
130132  1  0
133134  1  0
 59 69  2  0
 99 70  1  0
 66 71  1  1
 65 72  2  0
 70 73  1  1
134135  1  0
135136  1  0
136137  1  0
137133  1  0
 73 74  1  0
134138  1  6
 64 75  2  0
 79139  1  0
139140  2  0
 97 76  1  0
 76 77  2  0
 76 78  1  0
 78 79  1  1
140141  1  0
141142  2  0
142143  1  0
143139  1  0
 78100  1  0
 88144  1  0
100 80  1  0
144145  1  0
134 80  1  0
144146  1  6
 80 81  2  0
 88147  1  6
133 82  1  0
 82 83  1  0
 82 84  2  0
 71148  1  0
 83101  1  0
148149  1  0
 83 85  1  6
149150  1  0
101 86  1  0
150151  1  0
 86 87  2  0
 86 88  1  0
 88102  1  0
102 89  1  0
 89 90  1  0
 89 91  2  0
 90 92  1  1
 92 93  1  0
 92 94  1  0
 90103  1  0
 74105  2  0
105106  1  0
107 74  1  0
108106  1  0
 47 49  1  0
107108  2  0
 49 48  2  0
108109  1  0
 67 46  1  0
  1  3  1  0
 45152  1  0
  3  4  1  0
152153  1  0
  4  5  1  0
152154  1  6
  5  6  1  0
154155  1  0
  6  7  1  0
155156  1  0
  6  8  2  0
156157  1  0
  7  9  1  0
157158  1  0
  9 10  2  0
153159  2  0
153 24  1  0
 10 11  1  0
 11 12  2  0
 12 13  1  0
 27161  1  0
161 32  1  0
 31160  1  0
 34162  1  0
162 38  1  0
M  END