
  SciTegic12231509382D

 22 24  0  0  0  0            999 V2000
   10.5504   -9.0378    0.0000 C   0  0
   11.2663   -8.6253    0.0000 C   0  0
   10.5504   -9.8627    0.0000 O   0  0
    9.8388   -8.6253    0.0000 N   0  0
   11.9822   -9.0378    0.0000 N   0  0
   12.6939   -8.6253    0.0000 C   0  0
   11.9822   -9.8627    0.0000 C   0  0
    8.4071   -8.6253    0.0000 C   0  0
    9.1230   -9.0378    0.0000 C   0  0
    9.1230   -9.8627    0.0000 C   0  0
    8.4071  -10.2752    0.0000 C   0  0
    7.6954   -9.8627    0.0000 C   0  0
    6.9796  -10.2752    0.0000 N   0  0
    6.2637   -9.8627    0.0000 C   0  0
    6.2637   -9.0378    0.0000 C   0  0
    5.5520   -8.6253    0.0000 C   0  0
    5.5520   -7.8003    0.0000 C   0  0
    6.2637   -7.3878    0.0000 C   0  0
    6.9796   -7.8003    0.0000 C   0  0
    6.9796   -8.6253    0.0000 C   0  0
    7.6954   -9.0378    0.0000 C   0  0
    5.5520  -10.2752    0.0000 O   0  0
  1  2  1  0
  1  3  2  0
  1  4  1  0
  5  6  1  0
  5  7  1  0
  2  5  1  0
  8  9  1  0
  9 10  2  0
 10 11  1  0
 11 12  2  0
 12 13  1  0
 13 14  1  0
 14 15  1  0
 15 16  1  0
 16 17  2  0
 17 18  1  0
 18 19  2  0
 19 20  1  0
 15 20  2  0
 20 21  1  0
 12 21  1  0
  8 21  2  0
 14 22  2  0
  4  9  1  0
M  END