
  SciTegic09261414532D

 48 55  0  0  0  0            999 V2000
   19.8188  -15.3603    0.0000 N   0  0
   19.0330  -15.5676    0.0000 C   0  0
   18.9884  -16.3837    0.0000 N   0  0
   20.2660  -16.0430    0.0000 C   0  0
   19.7508  -16.6729    0.0000 C   0  0
   20.0389  -17.4319    0.0000 C   0  0
   20.8419  -17.5622    0.0000 C   0  0
   21.3560  -16.9274    0.0000 C   0  0
   21.0651  -16.1709    0.0000 C   0  0
   18.2730  -15.2727    0.0000 C   0  0
   18.1513  -14.4635    0.0000 C   0  0
   17.3911  -14.1658    0.0000 C   0  0
   16.7519  -14.6763    0.0000 C   0  0
   16.8779  -15.4880    0.0000 C   0  0
   17.6381  -15.7820    0.0000 C   0  0
   12.5536  -12.7861    0.0000 C   0  0
   12.5525  -13.6057    0.0000 C   0  0
   13.2605  -14.0146    0.0000 C   0  0
   13.2587  -12.3773    0.0000 C   0  0
   13.9673  -12.7825    0.0000 C   0  0
   13.9676  -13.6057    0.0000 C   0  0
   14.7506  -13.8599    0.0000 N   0  0
   15.2343  -13.1937    0.0000 C   0  0
   14.7502  -12.5280    0.0000 N   0  0
   15.0033  -14.6370    0.0000 C   0  0
   16.0482  -13.1920    0.0000 N   0  0
   16.4565  -13.9012    0.0000 C   0  0
   17.2729  -13.9013    0.0000 C   0  0
   17.6821  -13.1929    0.0000 C   0  0
   17.2688  -12.4830    0.0000 C   0  0
   16.4538  -12.4864    0.0000 C   0  0
   18.4993  -13.1915    0.0000 C   0  0
   18.9090  -13.8985    0.0000 O   0  0
   19.7262  -13.8972    0.0000 C   0  0
   14.4567  -15.2444    0.0000 C   0  0
   13.6591  -15.0734    0.0000 C   0  0
   13.1127  -15.6800    0.0000 C   0  0
   13.3653  -16.4581    0.0000 C   0  0
   14.1694  -16.6261    0.0000 C   0  0
   14.7123  -16.0181    0.0000 C   0  0
   20.1360  -14.6042    0.0000 C   0  0
   18.9067  -12.4831    0.0000 O   0  0
   20.9504  -14.5536    0.0000 C   0  0
   21.4023  -15.2356    0.0000 C   0  0
   22.2144  -15.1855    0.0000 C   0  0
   22.5808  -14.4547    0.0000 C   0  0
   22.1289  -13.7727    0.0000 N   0  0
   21.3105  -13.8215    0.0000 C   0  0
  1  2  1  0
  2  3  2  0
  3  5  1  0
  4  1  1  0
  4  5  2  0
  5  6  1  0
  6  7  2  0
  7  8  1  0
  8  9  2  0
  9  4  1  0
 10 11  2  0
 11 12  1  0
 12 13  2  0
 13 14  1  0
 14 15  2  0
 15 10  1  0
  2 10  1  0
 16 17  2  0
 17 18  1  0
 18 21  2  0
 20 19  2  0
 19 16  1  0
 20 21  1  0
 21 22  1  0
 22 23  1  0
 23 24  2  0
 24 20  1  0
 22 25  1  0
 26 27  1  0
 27 28  1  0
 28 29  1  0
 29 30  1  0
 30 31  1  0
 31 26  1  0
 23 26  1  0
 29 32  1  0
 32 33  1  0
 33 34  1  0
 25 35  1  0
 35 36  2  0
 36 37  1  0
 37 38  2  0
 38 39  1  0
 39 40  2  0
 40 35  1  0
 34 41  1  0
 41  1  1  0
 32 42  2  0
 43 44  1  0
 43 48  1  0
 44 45  1  0
 45 46  1  0
 46 47  1  0
 47 48  1  0
 41 43  1  0
M  END