
  SciTegic12231509382D

 26 29  0  0  0  0            999 V2000
    0.0000    0.7486    0.0000 C   0  0
   -1.2919    2.9980    0.0000 N   0  0
   -1.2964    1.4973    0.0000 C   0  0
   -1.2844    5.9982    0.0000 N   0  0
    0.0000   -0.7486    0.0000 C   0  0
    1.2964    1.4973    0.0000 O   0  0
   -2.5891    3.7515    0.0000 C   0  0
    0.0089    3.7449    0.0000 C   0  0
    1.2964   -1.4973    0.0000 O   0  0
    0.0127    5.2449    0.0000 C   0  0
   -2.5853    5.2515    0.0000 C   0  0
   -2.6111    0.7486    0.0000 C   0  0
   -1.2837    7.4991    0.0000 C   0  0
   -3.8800   12.0044    0.0000 C   0  0
   -2.6111   -0.7486    0.0000 C   0  0
   -1.2964   -1.4973    0.0000 C   0  0
    2.5929    0.7486    0.0000 C   0  0
    2.5929   -0.7486    0.0000 C   0  0
   -3.8808   10.5036    0.0000 C   0  0
   -5.1772   12.7578    0.0000 C   0  0
   -2.5791   12.7513    0.0000 C   0  0
   -2.5826    8.2509    0.0000 C   0  0
   -2.5818    9.7518    0.0000 C   0  0
   -2.5753   14.2513    0.0000 C   0  0
   -5.1734   14.2578    0.0000 C   0  0
   -3.8725   15.0045    0.0000 C   0  0
  1  3  1  0
  2  3  1  0
  1  5  2  0
  1  6  1  0
  2  7  1  0
  2  8  1  0
  5  9  1  0
  4 10  1  0
  8 10  1  0
  4 11  1  0
  7 11  1  0
  3 12  2  0
  4 13  1  0
 12 15  1  0
  5 16  1  0
 15 16  2  0
  6 17  1  0
  9 18  1  0
 17 18  1  0
 14 19  1  0
 14 20  2  0
 14 21  1  0
 13 22  1  0
 19 23  1  0
 22 23  1  0
 21 24  2  0
 20 25  1  0
 24 26  1  0
 25 26  2  0
M  END