
  SciTegic10191216022D

 29 32  0  0  0  0            999 V2000
   15.2148  -17.2100    0.0000 C   0  0
   15.2135  -18.0377    0.0000 C   0  0
   15.9265  -18.4505    0.0000 C   0  0
   15.9245  -16.7972    0.0000 C   0  0
   16.6427  -17.2061    0.0000 C   0  0
   16.6417  -18.0396    0.0000 C   0  0
   17.3592  -18.4550    0.0000 C   0  0
   18.0822  -18.0412    0.0000 N   0  0
   18.0831  -17.2076    0.0000 C   0  0
   17.3611  -16.7878    0.0000 C   0  0
   17.3608  -15.9628    0.0000 C   0  0
   18.0742  -15.5532    0.0000 C   0  0
   18.0743  -14.7290    0.0000 C   0  0
   17.3592  -14.3159    0.0000 C   0  0
   16.6424  -14.7331    0.0000 C   0  0
   16.6459  -15.5559    0.0000 C   0  0
   18.7957  -18.4555    0.0000 C   0  0
   14.4985  -18.4490    0.0000 O   0  0
   13.7846  -18.0356    0.0000 C   0  0
   13.7858  -17.2106    0.0000 C   0  0
   13.0719  -16.7971    0.0000 C   0  0
   13.0731  -15.9721    0.0000 N   0  0
   13.7913  -15.5630    0.0000 C   0  0
   13.7945  -14.7417    0.0000 C   0  0
   13.0825  -14.3244    0.0000 C   0  0
   12.3655  -14.7345    0.0000 C   0  0
   12.3607  -15.5622    0.0000 C   0  0
   13.0868  -13.4994    0.0000 F   0  0
   18.7888  -14.3167    0.0000 Cl  0  0
 13 14  2  0
  1  2  2  0
 14 15  1  0
  5  4  2  0
 15 16  2  0
 16 11  1  0
  4  1  1  0
  8 17  1  0
  5 10  1  0
  2 18  1  0
  6  7  1  0
 18 19  1  0
  7  8  1  0
 19 20  1  0
  8  9  1  0
 20 21  1  0
  9 10  1  0
 21 22  1  0
 22 23  1  0
  5  6  1  0
 10 11  1  0
 11 12  2  0
  2  3  1  0
 22 27  1  0
 23 24  1  0
 24 25  1  0
 25 26  1  0
 26 27  1  0
 12 13  1  0
 25 28  1  0
  3  6  2  0
 13 29  1  0
M  END