
          02060813482D 1   1.00000     0.00000     0

 30 33  0     0  0            999 V2000
   11.7694    2.3125    0.0000 C   0  0  0  0  0  0           0  0  0
   11.7682    1.4852    0.0000 C   0  0  0  0  0  0           0  0  0
   12.4831    1.0723    0.0000 C   0  0  0  0  0  0           0  0  0
   13.1995    1.4856    0.0000 C   0  0  0  0  0  0           0  0  0
   13.1966    2.3162    0.0000 C   0  0  0  0  0  0           0  0  0
   12.4813    2.7253    0.0000 C   0  0  0  0  0  0           0  0  0
   13.9096    2.7314    0.0000 O   0  0  0  0  0  0           0  0  0
   13.9146    1.0743    0.0000 C   0  0  0  0  0  0           0  0  0
   13.9110    0.2489    0.0000 C   0  0  0  0  0  0           0  0  0
   14.6253   -0.1624    0.0000 C   0  0  0  0  0  0           0  0  0
   15.3401    0.2513    0.0000 C   0  0  0  0  0  0           0  0  0
   15.3361    1.0806    0.0000 C   0  0  0  0  0  0           0  0  0
   14.6213    1.4881    0.0000 N   0  0  0  0  0  0           0  0  0
   16.0485    1.4967    0.0000 O   0  0  0  0  0  0           0  0  0
   16.0558   -0.1591    0.0000 C   0  0  0  0  0  0           0  0  0
   16.7667   -0.5708    0.0000 N   0  0  0  0  0  0           0  0  0
   14.6262   -0.9874    0.0000 C   0  0  0  0  0  0           0  0  0
   13.9127   -1.3957    0.0000 C   0  0  0  0  0  0           0  0  0
   13.9133   -2.2200    0.0000 C   0  0  0  0  0  0           0  0  0
   14.6287   -2.6325    0.0000 C   0  0  0  0  0  0           0  0  0
   15.3451   -2.2148    0.0000 C   0  0  0  0  0  0           0  0  0
   15.3411   -1.3919    0.0000 C   0  0  0  0  0  0           0  0  0
   11.0534    1.0732    0.0000 C   0  0  0  0  0  0           0  0  0
   10.3409    1.4877    0.0000 C   0  0  0  0  0  0           0  0  0
    9.6266    1.0765    0.0000 C   0  0  0  0  0  0           0  0  0
    9.6255    0.2506    0.0000 C   0  0  0  0  0  0           0  0  0
   10.3447   -0.1623    0.0000 C   0  0  0  0  0  0           0  0  0
   11.0561    0.2513    0.0000 C   0  0  0  0  0  0           0  0  0
   16.0527   -0.9746    0.0000 Cl  0  0  0  0  0  0           0  0  0
   13.1991   -2.6329    0.0000 Cl  0  0  0  0  0  0           0  0  0
  5  7  1  0     0  0
 11 15  1  0     0  0
  3  4  2  0     0  0
 15 16  3  0     0  0
  4  8  1  0     0  0
 10 17  1  0     0  0
 17 18  2  0     0  0
  8  9  2  0     0  0
 18 19  1  0     0  0
  4  5  1  0     0  0
 19 20  2  0     0  0
  9 10  1  0     0  0
 20 21  1  0     0  0
  2  3  1  0     0  0
 21 22  2  0     0  0
 22 17  1  0     0  0
 10 11  2  0     0  0
  2 23  1  0     0  0
  5  6  2  0     0  0
 23 24  2  0     0  0
 11 12  1  0     0  0
 24 25  1  0     0  0
  6  1  1  0     0  0
 25 26  2  0     0  0
 12 13  1  0     0  0
 26 27  1  0     0  0
 13  8  1  0     0  0
 27 28  2  0     0  0
 28 23  1  0     0  0
  1  2  2  0     0  0
 22 29  1  0     0  0
 12 14  2  0     0  0
 19 30  1  0     0  0
M  END