
          11280715092D 1   1.00000     0.00000     0

 20 21  0     0  0            999 V2000
   -1.8083    3.7958    0.0000 C   0  0  0  0  0  0           0  0  0
   -3.2333    4.6167    0.0000 C   0  0  0  0  0  0           0  0  0
   -3.2333    3.7958    0.0000 C   0  0  0  0  0  0           0  0  0
   -2.5208    5.0292    0.0000 C   0  0  0  0  0  0           0  0  0
   -1.0875    3.3750    0.0000 C   0  0  3  0  0  0           0  0  0
   -2.5208    3.3750    0.0000 C   0  0  0  0  0  0           0  0  0
   -1.8083    4.6167    0.0000 C   0  0  0  0  0  0           0  0  0
    0.3417    3.3833    0.0000 C   0  0  0  0  0  0           0  0  0
   -0.3750    3.7958    0.0000 C   0  0  0  0  0  0           0  0  0
   -1.0875    2.5583    0.0000 C   0  0  0  0  0  0           0  0  0
    0.3417    2.5583    0.0000 O   0  0  0  0  0  0           0  0  0
   -2.5208    5.8542    0.0000 I   0  0  0  0  0  0           0  0  0
   -3.9583    3.3625    0.0000 I   0  0  0  0  0  0           0  0  0
   -3.9583    5.0417    0.0000 O   0  0  0  0  0  0           0  0  0
    1.0542    3.7958    0.0000 O   0  0  0  0  0  0           0  0  0
   -1.8000    2.1458    0.0000 C   0  0  0  0  0  0           0  0  0
   -0.3750    2.1458    0.0000 C   0  0  0  0  0  0           0  0  0
   -0.3708    1.3208    0.0000 C   0  0  0  0  0  0           0  0  0
   -1.8000    1.3208    0.0000 C   0  0  0  0  0  0           0  0  0
   -1.0833    0.9083    0.0000 C   0  0  0  0  0  0           0  0  0
  2  4  1  0     0  0
  3  6  1  0     0  0
  4  7  2  0     0  0
  5  1  1  0     0  0
  6  1  2  0     0  0
  7  1  1  0     0  0
  8  9  1  0     0  0
  9  5  1  0     0  0
 10  5  1  0     0  0
 11  8  2  0     0  0
 12  4  1  0     0  0
 13  3  1  0     0  0
 14  2  1  0     0  0
 15  8  1  0     0  0
 16 10  2  0     0  0
 17 10  1  0     0  0
 18 17  2  0     0  0
 19 16  1  0     0  0
 20 18  1  0     0  0
  3  2  2  0     0  0
 20 19  2  0     0  0
M  END