
  SciTegic12231509382D

 20 21  0  0  0  0            999 V2000
   -0.2501   -3.3206    0.0000 Br  0  0
   -0.2501   -0.0206    0.0000 O   0  0
    1.1789   -0.0206    0.0000 N   0  0
   -0.2501   -0.8456    0.0000 C   0  0
    0.4644   -1.2581    0.0000 C   0  0
    0.4644   -2.0831    0.0000 C   0  0
   -0.2501   -2.4956    0.0000 C   0  0
   -0.9645   -1.2581    0.0000 C   0  0
   -0.9645   -2.0831    0.0000 C   0  0
    1.1789   -0.8456    0.0000 C   0  0
   -0.9645    0.3919    0.0000 C   0  0
   -0.9645    1.2169    0.0000 C   0  0
   -1.6790    1.6294    0.0000 C   0  0
   -0.2501    1.6294    0.0000 C   0  0
    1.8933    0.3919    0.0000 C   0  0
   -1.6790    2.4544    0.0000 C   0  0
   -0.2501    2.4544    0.0000 C   0  0
   -0.9645    2.8669    0.0000 C   0  0
    2.6078   -0.0206    0.0000 C   0  0
    1.8933    1.2169    0.0000 C   0  0
  1  7  1  0
  2  4  1  0
  2 11  1  0
  3 10  1  0
  3 15  1  0
  4  5  1  0
  4  8  2  0
  5  6  2  0
  5 10  1  0
  6  7  1  0
  7  9  2  0
  8  9  1  0
 11 12  1  0
 12 13  2  0
 12 14  1  0
 13 16  1  0
 14 17  2  0
 15 19  1  0
 15 20  1  0
 16 18  2  0
 17 18  1  0
M  END