
  SciTegic12231509382D

 20 21  0  0  0  0            999 V2000
   13.2443  -16.4553    0.0000 C   0  0
   13.9520  -16.0467    0.0000 C   0  0
   12.5366  -16.0467    0.0000 O   0  0
   11.8289  -16.4553    0.0000 C   0  0
   11.1212  -16.0467    0.0000 C   0  0
   11.1263  -15.2284    0.0000 C   0  0
    9.7134  -16.0500    0.0000 C   0  0
   10.4208  -16.4548    0.0000 C   0  0
    9.7107  -15.2285    0.0000 C   0  0
   10.4217  -14.8199    0.0000 C   0  0
   10.2528  -14.0174    0.0000 O   0  0
    9.4373  -13.9301    0.0000 C   0  0
    9.1024  -14.6786    0.0000 O   0  0
   11.8289  -17.2725    0.0000 O   0  0
   14.6597  -16.4553    0.0000 C   0  0
   13.9520  -15.2295    0.0000 O   0  0
   15.3674  -16.0467    0.0000 N   0  0
   16.0751  -16.4553    0.0000 C   0  0
   16.7828  -16.0467    0.0000 C   0  0
   16.0751  -17.2725    0.0000 C   0  0
  1  2  1  0
  1  3  1  0
  3  4  1  0
  4  5  1  0
  5  6  2  0
  6 10  1  0
  9  7  1  0
  7  8  2  0
  8  5  1  0
  9 10  2  0
 10 11  1  0
 11 12  1  0
 12 13  1  0
 13  9  1  0
  4 14  2  0
  2 15  1  0
  2 16  1  0
 15 17  1  0
 17 18  1  0
 18 19  1  0
 18 20  1  0
M  END