
          11280715322D 1   1.00000     0.00000     0

 33 36  0     0  0            999 V2000
    7.8500   -0.6625    0.0000 C   0  0  0  0  0  0           0  0  0
    9.1792   -0.7917    0.0000 N   0  3  0  0  0  0           0  0  0
    8.5625   -0.2417    0.0000 C   0  0  0  0  0  0           0  0  0
    8.0292   -1.4667    0.0000 N   0  0  0  0  0  0           0  0  0
    4.2625   -1.9125    0.0000 C   0  0  0  0  0  0           0  0  0
    4.2625   -2.7375    0.0000 N   0  0  0  0  0  0           0  0  0
    7.1292   -0.2500    0.0000 C   0  0  0  0  0  0           0  0  0
    8.8500   -1.5500    0.0000 O   0  0  0  0  0  0           0  0  0
    2.8292   -2.7375    0.0000 C   0  0  0  0  0  0           0  0  0
    3.5417   -3.1500    0.0000 C   0  0  0  0  0  0           0  0  0
    3.5417   -1.5000    0.0000 N   0  0  0  0  0  0           0  0  0
    2.8292   -1.9125    0.0000 C   0  0  0  0  0  0           0  0  0
    4.9792   -1.5000    0.0000 N   0  0  3  0  0  0           0  0  0
    6.4042   -0.6667    0.0000 N   0  0  3  0  0  0           0  0  0
    8.6375    0.5833    0.0000 C   0  0  0  0  0  0           0  0  0
    2.1167   -3.1500    0.0000 C   0  0  0  0  0  0           0  0  0
    2.1167   -1.5000    0.0000 C   0  0  0  0  0  0           0  0  0
    1.4042   -2.7375    0.0000 C   0  0  0  0  0  0           0  0  0
    9.9917   -0.6167    0.0000 O   0  5  0  0  0  0           0  0  0
    1.4042   -1.9125    0.0000 C   0  0  0  0  0  0           0  0  0
    7.1250    0.5750    0.0000 O   0  0  0  0  0  0           0  0  0
    4.9792   -0.6667    0.0000 C   0  0  0  0  0  0           0  0  0
    5.6917   -1.9125    0.0000 C   0  0  0  0  0  0           0  0  0
    6.4042   -1.5000    0.0000 C   0  0  0  0  0  0           0  0  0
    5.6917   -0.2542    0.0000 C   0  0  0  0  0  0           0  0  0
    7.9625    1.0583    0.0000 O   0  0  0  0  0  0           0  0  0
    3.5417   -3.9750    0.0000 N   0  0  0  0  0  0           0  0  0
    9.3875    0.9333    0.0000 O   0  0  0  0  0  0           0  0  0
    0.6792   -3.1542    0.0000 O   0  0  0  0  0  0           0  0  0
    0.6792   -1.5000    0.0000 O   0  0  0  0  0  0           0  0  0
    9.4625    1.7583    0.0000 C   0  0  0  0  0  0           0  0  0
   -0.0375   -2.7417    0.0000 C   0  0  0  0  0  0           0  0  0
   -0.0333   -1.9167    0.0000 C   0  0  0  0  0  0           0  0  0
  2  3  2  0     0  0
  3  1  1  0     0  0
  4  1  2  0     0  0
  5 13  1  0     0  0
  6  5  1  0     0  0
  7  1  1  0     0  0
  8  4  1  0     0  0
  9 12  2  0     0  0
 10  6  2  0     0  0
 11  5  2  0     0  0
 12 11  1  0     0  0
 13 22  1  0     0  0
 14  7  1  0     0  0
 15  3  1  0     0  0
 16  9  1  0     0  0
 17 12  1  0     0  0
 18 20  1  0     0  0
 19  2  1  0     0  0
 20 17  2  0     0  0
 21  7  2  0     0  0
 22 25  1  0     0  0
 23 24  1  0     0  0
 24 14  1  0     0  0
 25 14  1  0     0  0
 26 15  2  0     0  0
 27 10  1  0     0  0
 28 15  1  0     0  0
 29 18  1  0     0  0
 30 20  1  0     0  0
 31 28  1  0     0  0
 32 29  1  0     0  0
 33 30  1  0     0  0
  2  8  1  0     0  0
 23 13  1  0     0  0
 10  9  1  0     0  0
 18 16  2  0     0  0
M  CHG  2   2   1  19  -1
M  END