
  SciTegic06011109532D

152159  0  0  0  0            999 V2000
    6.5316  -22.0860    0.0000 C   0  0  2  0  0  0
    5.8201  -20.8481    0.0000 O   0  0
    5.8201  -21.6718    0.0000 C   0  0
    6.5316  -22.9054    0.0000 C   0  0
    5.8201  -23.3191    0.0000 C   0  0
    5.8201  -24.1428    0.0000 C   0  0
    4.3906  -21.6718    0.0000 C   0  0  1  0  0  0
    3.6792  -22.9054    0.0000 O   0  0
    3.6792  -22.0860    0.0000 C   0  0
    2.2497  -22.0860    0.0000 C   0  0  2  0  0  0
    1.5342  -20.8481    0.0000 O   0  0
    1.5342  -21.6718    0.0000 C   0  0
    2.2497  -22.9054    0.0000 C   0  0
    1.5342  -23.3191    0.0000 C   0  0
    7.2463  -21.6758    0.0000 N   0  0
    2.9770  -18.3225    0.0000 C   0  0  2  0  0  0
    3.6984  -17.0893    0.0000 O   0  0
    3.7010  -17.9083    0.0000 C   0  0
    2.9875  -19.1410    0.0000 C   0  0
    5.1179  -17.9008    0.0000 C   0  0  2  0  0  0
    5.8332  -19.1283    0.0000 O   0  0
    5.8335  -18.3011    0.0000 C   0  0
    5.1192  -17.0824    0.0000 C   0  0
    5.8219  -16.6683    0.0000 C   0  0
    4.4002  -16.6691    0.0000 C   0  0
    8.6685  -20.8506    0.0000 C   0  0
    8.6685  -21.6719    0.0000 C   0  0  1  0  0  0
    7.9912  -17.9065    0.0000 C   0  0
    7.2615  -18.3154    0.0000 C   0  0  2  0  0  0
    7.2533  -19.1444    0.0000 C   0  0
    7.9718  -19.5736    0.0000 S   0  0
    7.9629  -20.4121    0.0000 S   0  0
   10.8019  -17.9592    0.0000 C   0  0
    9.3898  -17.1216    0.0000 C   0  0
    8.6723  -16.6997    0.0000 C   0  0  2  0  0  0
    7.9542  -22.0860    0.0000 C   0  0
    7.9538  -22.9049    0.0000 O   0  0
    8.7044  -18.3043    0.0000 O   0  0
   10.8107  -17.1412    0.0000 C   0  0  2  0  0  0
    8.6844  -15.8809    0.0000 C   0  0
    9.3842  -17.9435    0.0000 O   0  0
   11.5196  -16.7404    0.0000 C   0  0
   11.5279  -15.9175    0.0000 C   0  0
   10.0853  -18.3663    0.0000 O   0  0
    9.3748  -22.9116    0.0000 C   0  0
    8.6593  -23.3175    0.0000 O   0  0
   10.0828  -23.3199    0.0000 C   0  0  2  0  0  0
   10.0738  -24.1483    0.0000 C   0  0
   11.5008  -23.3285    0.0000 C   0  0
   11.4974  -24.1508    0.0000 O   0  0
   11.5050  -21.7000    0.0000 C   0  0
   11.5038  -20.8771    0.0000 C   0  0  2  0  0  0
   10.7988  -22.1076    0.0000 O   0  0
   10.7952  -20.4678    0.0000 C   0  0
   12.2068  -19.6388    0.0000 C   0  0
   11.4959  -19.2361    0.0000 O   0  0
   12.9194  -19.2230    0.0000 C   0  0  1  0  0  0
   13.6266  -17.9933    0.0000 C   0  0
   13.6189  -17.1647    0.0000 C   0  0  2  0  0  0
   14.3417  -18.3962    0.0000 O   0  0
   14.3338  -16.7488    0.0000 C   0  0
   14.3324  -15.9322    0.0000 C   0  0
   15.0426  -17.1645    0.0000 C   0  0
    2.2780  -17.9139    0.0000 N   0  0
    4.4043  -18.3116    0.0000 N   0  0
    9.3773  -22.0894    0.0000 N   0  0
    7.9601  -17.1146    0.0000 N   0  0
   10.1028  -16.7175    0.0000 N   0  0
   10.7943  -22.9181    0.0000 N   0  0
   12.2187  -20.4619    0.0000 N   0  0
   12.9304  -18.3949    0.0000 N   0  0
   11.5106  -18.3772    0.0000 N   0  0
    6.5525  -17.9042    0.0000 N   0  0
   12.2049  -15.4502    0.0000 C   0  0
   11.9622  -14.6642    0.0000 N   0  0
    5.1085  -22.0860    0.0000 N   0  0
    2.9676  -21.6718    0.0000 N   0  0
    0.8226  -22.0860    0.0000 N   0  0
   10.8757  -15.4319    0.0000 C   0  0
   11.1397  -14.6553    0.0000 C   0  0
   10.5997  -14.0405    0.0000 C   0  0
    9.7958  -14.2009    0.0000 C   0  0
    9.5345  -14.9816    0.0000 C   0  0
   10.0760  -15.5932    0.0000 C   0  0
    2.2719  -19.5666    0.0000 C   0  0
    2.2825  -20.3991    0.0000 O   0  0
    1.5455  -19.1595    0.0000 O   0  0
    2.2825  -17.0813    0.0000 C   0  0
    1.5636  -16.6611    0.0000 C   0  0  2  0  0  0
    3.0057  -16.6688    0.0000 O   0  0
    1.5680  -15.8285    0.0000 C   0  0
    0.8402  -17.0736    0.0000 N   0  0
    2.2913  -15.4160    0.0000 C   0  0
    3.0093  -15.8397    0.0000 C   0  0
    3.7322  -15.4279    0.0000 C   0  0
    3.7370  -14.5944    0.0000 C   0  0
    3.0131  -14.1743    0.0000 C   0  0
    2.2933  -14.5885    0.0000 C   0  0
    4.3890  -20.8391    0.0000 C   0  0
    3.6672  -20.4242    0.0000 C   0  0
   10.0740  -20.8841    0.0000 C   0  0
    9.3530  -20.4676    0.0000 C   0  0
   10.0739  -21.7167    0.0000 C   0  0
   12.2230  -22.0998    0.0000 N   0  0
   12.2197  -22.9207    0.0000 C   0  0  1  0  0  0
   12.9994  -23.1775    0.0000 C   0  0
   13.4845  -22.5153    0.0000 C   0  0
   13.0047  -21.8493    0.0000 C   0  0
   12.2152  -23.7509    0.0000 H   0  0
    9.3483  -24.5569    0.0000 C   0  0
    8.5912  -24.2133    0.0000 C   0  0
    8.0274  -24.8261    0.0000 N   0  0
    8.4360  -25.5516    0.0000 C   0  0
    9.2522  -25.3872    0.0000 N   0  0
   13.6387  -19.6425    0.0000 C   0  0  1  0  0  0
   13.6350  -20.4751    0.0000 C   0  0
   14.3615  -19.2293    0.0000 O   0  0
   12.9132  -20.0544    0.0000 H   0  0
    5.0989  -24.5591    0.0000 C   0  0
    5.0989  -25.3918    0.0000 N   0  0
    5.1027  -20.4253    0.0000 C   0  0
    0.1280  -16.6573    0.0000 C   0  0
   -0.5887  -17.0660    0.0000 C   0  0
    0.1324  -15.8323    0.0000 O   0  0
    4.3845  -25.8043    0.0000 C   0  0
    4.3845  -26.6293    0.0000 O   0  0
    3.6700  -25.3918    0.0000 C   0  0
    7.9761  -15.4579    0.0000 C   0  0
    7.9883  -14.6330    0.0000 O   0  0
    7.2556  -15.8598    0.0000 N   0  0
    2.9555  -25.8043    0.0000 O   0  0
    2.2410  -25.3918    0.0000 C   0  0
    1.5266  -25.8043    0.0000 C   0  0
    0.8121  -25.3918    0.0000 N   0  0
    1.5266  -26.6293    0.0000 O   0  0
    0.0976  -25.8043    0.0000 C   0  0
   -0.6153  -25.3874    0.0000 C   0  0
   -1.3293  -25.7992    0.0000 C   0  0
   -1.3298  -26.6251    0.0000 C   0  0
   -0.6103  -27.0374    0.0000 C   0  0
    0.1008  -26.6233    0.0000 C   0  0
   -2.0437  -27.0386    0.0000 C   0  0
   -2.7587  -26.6270    0.0000 C   0  0
   -3.4726  -27.0405    0.0000 C   0  0
   -4.1876  -26.6289    0.0000 N   0  0
   -3.4715  -27.8655    0.0000 O   0  0
   -4.4012  -25.8365    0.0000 C   0  0
   -5.1978  -26.0511    0.0000 C   0  0
   -4.9832  -26.8477    0.0000 C   0  0
   -3.9897  -25.1215    0.0000 O   0  0
    0.8195  -22.9071    0.0000 S   0  0
    0.1053  -23.3200    0.0000 C   0  0
 13 14  1  0
  1 15  1  0
  3 76  1  0
  9 77  1  0
 12 78  1  0
 16 18  1  0
 79 80  2  0
 18 17  2  0
 80 81  1  0
 16 19  1  6
 81 82  2  0
 20 22  1  0
 82 83  1  0
 22 21  2  0
 83 84  2  0
 84 79  1  0
 20 23  1  0
 19 85  1  0
 23 24  1  0
 85 86  2  0
 23 25  1  0
 85 87  1  0
 18 65  1  0
 64 88  1  0
 20 65  1  1
 88 89  1  0
 64 16  1  0
 88 90  2  0
 26 27  1  0
 89 91  1  1
 27 66  1  0
 89 92  1  0
 28 29  1  0
 91 93  1  0
 29 30  1  0
 93 94  2  0
 30 31  1  0
 94 95  1  0
 32 31  1  0
 95 96  2  0
 33 72  1  0
 96 97  1  0
 68 34  1  0
 97 98  2  0
 98 93  1  0
 33 39  1  0
 35 67  1  0
 34 35  1  0
 67 28  1  0
  7 99  1  6
 32 26  1  0
 27 36  1  6
 99100  1  0
 36 37  2  0
 54101  1  0
 29 73  1  6
101102  1  0
 73 22  1  0
101103  1  0
104105  1  0
 28 38  2  0
 68 39  1  0
 35 40  1  1
 34 41  2  0
 39 42  1  1
105106  1  0
106107  1  0
107108  1  0
108104  1  0
 42 43  1  0
105109  1  6
 33 44  2  0
 48110  1  0
110111  2  0
 66 45  1  0
 45 46  2  0
 45 47  1  0
 47 48  1  1
111112  1  0
112113  2  0
113114  1  0
114110  1  0
 47 69  1  0
 57115  1  0
 69 49  1  0
115116  1  0
105 49  1  0
115117  1  6
 49 50  2  0
 57118  1  6
104 51  1  0
  6119  1  0
 51 52  1  0
119120  1  0
 99121  1  0
 51 53  2  0
 92122  1  0
 52 70  1  0
122123  1  0
 52 54  1  6
122124  2  0
 70 55  1  0
120125  1  0
 55 56  2  0
125126  2  0
 55 57  1  0
125127  1  0
 57 71  1  0
 40128  1  0
 71 58  1  0
128129  2  0
 58 59  1  0
128130  1  0
 58 60  2  0
127131  1  0
 59 61  1  1
131132  1  0
 61 62  1  0
132133  1  0
 61 63  1  0
133134  1  0
 59 72  1  0
133135  2  0
  1  3  1  0
134136  1  0
  3  2  2  0
136137  2  0
  1  4  1  1
137138  1  0
  4  5  1  0
138139  2  0
  5  6  1  0
139140  1  0
 43 74  2  0
140141  2  0
141136  1  0
 76  7  1  0
139142  1  0
  7  9  1  0
142143  1  0
 74 75  1  0
143144  1  0
 79 43  1  0
144145  1  0
  9  8  2  0
144146  2  0
145147  1  0
 80 75  1  0
 77 10  1  0
 10 12  1  0
147148  1  0
148149  1  0
149145  1  0
 12 11  2  0
147150  2  0
 36 15  1  0
 14151  1  0
 10 13  1  1
151152  1  0
M  END