
  SciTegic04091511462D

 60 64  0  0  1  0            999 V2000
    7.2257   -7.0040    0.0000 N   0  0
    7.5984   -6.2451    0.0000 C   0  0
    5.8499   -6.1090    0.0000 C   0  0
    6.3843   -6.7831    0.0000 C   0  0  2  0  0  0
    8.7032   -5.5417    0.0000 N   0  0
    7.9359   -3.2500    0.0000 N   0  0
    7.8023   -0.8268    0.0000 N   0  0
    5.6368   -5.2780    0.0000 N   0  0
    8.1485   -2.4537    0.0000 C   0  0
    8.6446   -4.7215    0.0000 C   0  0
    7.8741   -7.5522    0.0000 C   0  0
    8.4303   -6.3289    0.0000 C   0  0  2  0  0  0
    8.9528   -0.7002    0.0000 C   0  0
    7.2039   -0.2414    0.0000 C   0  0
    7.8909   -1.6564    0.0000 C   0  0  2  0  0  0
    8.5948   -7.1483    0.0000 C   0  0
    5.7666   -1.0234    0.0000 N   0  0
    8.3919   -3.9351    0.0000 C   0  0  2  0  0  0
    5.3567   -3.8145    0.0000 C   0  0
    8.9528    0.6346    0.0000 N   0  0
    5.4305   -2.9851    0.0000 N   0  0
    8.4678   -0.0328    0.0000 C   0  0
    6.3811   -0.4410    0.0000 C   0  0  1  0  0  0
    5.8863   -4.4613    0.0000 C   0  0  2  0  0  0
    5.0897   -1.5283    0.0000 C   0  0
    8.6978   -1.4849    0.0000 C   0  0
    9.7374   -0.4453    0.0000 C   0  0
    9.7374    0.3797    0.0000 C   0  0
    4.7678    1.0292    0.0000 C   0  0
    7.1978   -5.5238    0.0000 O   0  0
    5.1110   -6.4758    0.0000 O   0  0
    5.9331   -7.4738    0.0000 C   0  0
    9.4546   -4.5648    0.0000 O   0  0
    8.9732   -2.4323    0.0000 O   0  0
    7.4225    0.5541    0.0000 O   0  0
    9.1350   -3.5770    0.0000 C   0  0
    4.5682   -4.0572    0.0000 O   0  0
    4.8947   -2.3461    0.0000 C   0  0
    4.4006   -1.0747    0.0000 O   0  0
    3.9431    1.0500    0.0000 O   0  0
    5.9868    0.2836    0.0000 C   0  0
    5.1621    0.3045    0.0000 C   0  0
    5.1982    1.7330    0.0000 N   0  0
    5.0769   -4.6210    0.0000 C   0  0
    9.8168   -4.0415    0.0000 C   0  0
    4.0011   -5.5615    0.0000 S   0  0
   10.4519   -0.8578    0.0000 C   0  0
    5.1093   -7.4284    0.0000 C   0  0
    4.8105   -5.4018    0.0000 C   0  0
   10.4519    0.7922    0.0000 C   0  0
    3.7348   -6.3423    0.0000 C   0  0
    9.7554   -4.8642    0.0000 C   0  0
   10.5600   -3.6833    0.0000 C   0  0
    4.6582   -8.1191    0.0000 C   0  0
    4.7368   -6.6923    0.0000 C   0  0
   11.1663   -0.4453    0.0000 C   0  0
   11.1663    0.3797    0.0000 C   0  0
   11.2418   -4.1479    0.0000 C   0  0
   10.4372   -5.3287    0.0000 C   0  0
   11.1804   -4.9706    0.0000 C   0  0
  2  1  1  0
  3  4  1  0
  4  1  1  0
 12  5  1  6
  6 18  1  0
  7 15  1  0
  8  3  1  0
  9  6  1  0
 10  5  1  0
 11  1  1  0
 12  2  1  0
 13 26  1  0
 14  7  1  0
 15  9  1  0
 16 11  2  0
 17 25  1  0
 18 10  1  0
 19 24  1  0
 20 22  1  0
 21 19  1  0
 22 13  2  0
 23 17  1  0
 24  8  1  0
 25 38  1  0
 15 26  1  6
 27 13  1  0
 28 27  2  0
 29 42  1  0
 30  2  2  0
 31  3  2  0
  4 32  1  1
 33 10  2  0
 34  9  2  0
 35 14  2  0
 18 36  1  1
 37 19  2  0
 38 21  1  0
 39 25  2  0
 40 29  2  0
 23 41  1  1
 42 41  1  0
 43 29  1  0
 24 44  1  6
 45 36  1  0
 46 49  1  0
 47 27  1  0
 48 32  1  0
 49 44  1  0
 50 28  1  0
 51 46  1  0
 52 45  2  0
 53 45  1  0
 54 48  1  0
 55 48  1  0
 56 47  2  0
 57 56  1  0
 58 53  2  0
 59 52  1  0
 60 58  1  0
 16 12  1  0
 14 23  1  0
 60 59  2  0
 20 28  1  0
 57 50  2  0
M  END