
  SciTegic06051313522D

 35 38  0  0  0  0            999 V2000
   -1.2846  -13.3449    0.0000 S   0  0
   -0.5729  -13.7593    0.0000 N   0  0
   -0.5712  -14.5834    0.0000 C   0  0
    0.1463  -13.3496    0.0000 C   0  0
    0.8597  -13.7641    0.0000 C   0  0
    1.5748  -13.3544    0.0000 C   0  0
    1.5786  -12.5266    0.0000 C   0  0
    0.8651  -12.1122    0.0000 C   0  0
    0.1480  -12.5255    0.0000 N   0  0
    0.8580  -14.5882    0.0000 C   0  0
    0.1495  -15.0097    0.0000 N   0  0
    0.8481  -17.0847    0.0000 C   0  0
    0.8587  -16.2571    0.0000 C   0  0
    0.1486  -15.8368    0.0000 C   0  0
   -0.5782  -16.2442    0.0000 C   0  0
   -0.5864  -17.0684    0.0000 C   0  0
    0.1296  -17.4886    0.0000 N   0  0
    1.6289  -17.3467    0.0000 N   0  0
    1.6437  -16.0084    0.0000 C   0  0
    2.1217  -16.6842    0.0000 C   0  0
   -2.0023  -13.7555    0.0000 C   0  0
   -1.8709  -12.7547    0.0000 O   0  0
   -0.8750  -12.6255    0.0000 O   0  0
   -1.2878  -15.8263    0.0000 C   0  0
   -2.0023  -15.4070    0.0000 N   0  0
    2.9440  -16.6936    0.0000 C   0  0
    3.3472  -17.4146    0.0000 C   0  0
    4.1715  -17.4249    0.0000 C   0  0
    4.5934  -16.7148    0.0000 C   0  0
    4.1850  -15.9929    0.0000 C   0  0
    3.3622  -15.9863    0.0000 C   0  0
    5.4183  -16.7236    0.0000 C   0  0
    5.8232  -17.4424    0.0000 C   0  0
    6.6482  -17.4512    0.0000 C   0  0
    7.0531  -18.1700    0.0000 C   0  0
  1  2  1  0
  2  3  1  0
  4  5  1  0
  5  6  2  0
  6  7  1  0
  7  8  2  0
  8  9  1  0
  4  9  2  0
 12 13  1  0
 13 14  2  0
 14 15  1  0
 15 16  2  0
 16 17  1  0
 12 17  2  0
 19 20  2  0
 18 20  1  0
 12 18  1  0
 13 19  1  0
 11 14  1  0
 10 11  1  0
  5 10  1  0
  2  4  1  0
  1 21  1  0
  1 22  2  0
  1 23  2  0
 24 25  3  0
 15 24  1  0
 26 27  2  0
 27 28  1  0
 28 29  2  0
 29 30  1  0
 30 31  2  0
 31 26  1  0
 20 26  1  0
 29 32  1  0
 32 33  1  0
 33 34  1  0
 34 35  1  0
M  END