
  CDK    9/16/09,9:50

 42 45  0  0  0  0  0  0  0  0999 V2000
    3.0797  -19.1024    0.0000 C   0  0  0  0  0  0  0  0  0  0  0  0
    3.7964  -19.5110    0.0000 C   0  0  0  0  0  0  0  0  0  0  0  0
   -1.9434  -17.0701    0.0000 C   0  0  0  0  0  0  0  0  0  0  0  0
   -1.2286  -16.6534    0.0000 C   0  0  0  0  0  0  0  0  0  0  0  0
   -1.2331  -15.8279    0.0000 C   0  0  0  0  0  0  0  0  0  0  0  0
   -1.9516  -15.4181    0.0000 C   0  0  0  0  0  0  0  0  0  0  0  0
   -2.6671  -15.8399    0.0000 C   0  0  0  0  0  0  0  0  0  0  0  0
   -2.6591  -16.6640    0.0000 C   0  0  0  0  0  0  0  0  0  0  0  0
   -3.3854  -15.4341    0.0000 O   0  0  0  0  0  0  0  0  0  0  0  0
   -0.5085  -17.0681    0.0000 C   0  0  0  0  0  0  0  0  0  0  0  0
   -1.9386  -17.8951    0.0000 C   0  0  0  0  0  0  0  0  0  0  0  0
   -0.5208  -15.4116    0.0000 C   0  0  0  0  0  0  0  0  0  0  0  0
   -0.5014  -17.8930    0.0000 C   0  0  0  0  0  0  0  0  0  0  0  0
   -1.2123  -18.3117    0.0000 N   0  0  0  0  0  0  0  0  0  0  0  0
    0.2166  -18.2994    0.0000 C   0  0  0  0  0  0  0  0  0  0  0  0
    0.9308  -17.8809    0.0000 O   0  0  0  0  0  0  0  0  0  0  0  0
    0.2228  -19.1243    0.0000 N   0  0  0  0  0  0  0  0  0  0  0  0
   -0.4949  -19.5406    0.0000 C   0  0  0  0  0  0  0  0  0  0  0  0
    0.9382  -20.3563    0.0000 C   0  0  0  0  0  0  0  0  0  0  0  0
    0.9357  -19.5287    0.0000 C   0  0  0  0  0  0  0  0  0  0  0  0
    0.2251  -20.7730    0.0000 C   0  0  0  0  0  0  0  0  0  0  0  0
   -0.4859  -20.3600    0.0000 C   0  0  0  0  0  0  0  0  0  0  0  0
   -1.1969  -20.7692    0.0000 C   0  0  0  0  0  0  0  0  0  0  0  0
   -1.1981  -21.5912    0.0000 C   0  0  0  0  0  0  0  0  0  0  0  0
   -0.4824  -22.0022    0.0000 C   0  0  0  0  0  0  0  0  0  0  0  0
    0.2256  -21.5907    0.0000 C   0  0  0  0  0  0  0  0  0  0  0  0
    1.6508  -19.1100    0.0000 C   0  0  0  0  0  0  0  0  0  0  0  0
    2.3675  -19.5187    0.0000 N   0  0  0  0  0  0  0  0  0  0  0  0
    1.6464  -18.2851    0.0000 O   0  0  0  0  0  0  0  0  0  0  0  0
    3.0753  -18.2774    0.0000 C   0  0  0  0  0  0  0  0  0  0  0  0
    3.7875  -17.8610    0.0000 C   0  0  0  0  0  0  0  0  0  0  0  0
    4.5063  -18.2671    0.0000 O   0  0  0  0  0  0  0  0  0  0  0  0
    3.7852  -17.0335    0.0000 O   0  0  0  0  0  0  0  0  0  0  0  0
    3.8045  -20.3363    0.0000 N   0  0  0  0  0  0  0  0  0  0  0  0
    4.5123  -19.0950    0.0000 O   0  0  0  0  0  0  0  0  0  0  0  0
    3.0941  -20.7558    0.0000 C   0  0  0  0  0  0  0  0  0  0  0  0
    3.1022  -21.5808    0.0000 C   0  0  0  0  0  0  0  0  0  0  0  0
    2.3897  -21.9957    0.0000 C   0  0  0  0  0  0  0  0  0  0  0  0
    2.3974  -22.8199    0.0000 C   0  0  0  0  0  0  0  0  0  0  0  0
    3.1165  -23.2262    0.0000 C   0  0  0  0  0  0  0  0  0  0  0  0
    3.8292  -22.8023    0.0000 C   0  0  0  0  0  0  0  0  0  0  0  0
    3.8180  -21.9795    0.0000 C   0  0  0  0  0  0  0  0  0  0  0  0
  5  6  2  0  0  0  0 
  3 11  1  0  0  0  0 
 21 22  2  0  0  0  0 
  3  4  2  0  0  0  0 
 22 23  1  0  0  0  0 
  5 12  1  0  0  0  0 
 23 24  2  0  0  0  0 
  6  7  1  0  0  0  0 
 24 25  1  0  0  0  0 
 13 10  1  1  0  0  0 
 25 26  2  0  0  0  0 
 26 21  1  0  0  0  0 
 13 14  1  0  0  0  0 
  7  8  2  0  0  0  0 
 27 28  1  0  0  0  0 
 27 29  2  0  0  0  0 
 20 27  1  6  0  0  0 
 28  1  1  0  0  0  0 
 13 15  1  0  0  0  0 
  1 30  1  1  0  0  0 
  8  3  1  0  0  0  0 
 30 31  1  0  0  0  0 
 15 16  2  0  0  0  0 
  4  5  1  0  0  0  0 
 31 32  1  0  0  0  0 
 31 33  2  0  0  0  0 
 15 17  1  0  0  0  0 
 17 18  1  0  0  0  0 
  2 34  1  0  0  0  0 
  2 35  2  0  0  0  0 
  7  9  1  0  0  0  0 
 34 36  1  0  0  0  0 
  1  2  1  0  0  0  0 
 36 37  1  0  0  0  0 
  4 10  1  0  0  0  0 
 37 38  2  0  0  0  0 
 17 20  1  0  0  0  0 
 38 39  1  0  0  0  0 
 18 22  1  0  0  0  0 
 39 40  2  0  0  0  0 
 21 19  1  0  0  0  0 
 40 41  1  0  0  0  0 
 19 20  1  0  0  0  0 
 41 42  2  0  0  0  0 
 42 37  1  0  0  0  0 
M  END