
  SciTegic06051313552D

 37 40  0  0  0  0            999 V2000
    2.3263  -24.9614    0.0000 C   0  0
    2.3252  -25.7810    0.0000 C   0  0
    3.0332  -26.1899    0.0000 C   0  0
    3.0315  -24.5526    0.0000 C   0  0
    4.5238  -24.7018    0.0000 C   0  0
    3.7401  -24.9578    0.0000 C   0  0
    3.7426  -25.7831    0.0000 C   0  0
    4.5289  -26.0344    0.0000 N   0  0
    5.0097  -25.3635    0.0000 N   0  0
    4.7859  -26.8101    0.0000 C   0  0
    4.3675  -27.5112    0.0000 C   0  0
    3.5527  -27.4966    0.0000 C   0  0
    3.1338  -28.1974    0.0000 C   0  0
    3.5320  -28.9121    0.0000 C   0  0
    4.3533  -28.9216    0.0000 C   0  0
    4.7686  -28.2202    0.0000 C   0  0
    4.7539  -29.6338    0.0000 C   0  0
    4.3374  -30.3369    0.0000 N   0  0
    4.7380  -31.0492    0.0000 C   0  0
    4.9455  -24.0018    0.0000 N   0  0
    5.7625  -24.0169    0.0000 S   0  0
    6.2492  -24.6734    0.0000 C   0  0
    5.7351  -23.1932    0.0000 O   0  0
    6.5440  -23.7738    0.0000 O   0  0
    6.0041  -25.4550    0.0000 C   0  0
    6.6704  -25.9297    0.0000 C   0  0
    7.3271  -25.4414    0.0000 C   0  0
    7.0644  -24.6666    0.0000 S   0  0
    8.1073  -25.6847    0.0000 Cl  0  0
    3.0248  -23.7395    0.0000 O   0  0
    2.3138  -23.3367    0.0000 C   0  0
    5.5551  -31.0584    0.0000 O   0  0
    4.3215  -31.7522    0.0000 C   0  0
    1.6185  -24.5530    0.0000 F   0  0
    3.5043  -31.7430    0.0000 O   0  0
    4.1066  -32.5391    0.0000 C   0  0
    5.0270  -32.1594    0.0000 C   0  0
  1  2  2  0
  2  3  1  0
  3  7  2  0
  6  4  2  0
  4  1  1  0
  6  7  1  0
  5  6  1  0
  7  8  1  0
  8  9  1  0
  9  5  2  0
  8 10  1  0
 10 11  1  0
 11 12  2  0
 12 13  1  0
 13 14  2  0
 14 15  1  0
 15 16  2  0
 16 11  1  0
 15 17  1  0
 17 18  1  0
 18 19  1  0
  5 20  1  0
 20 21  1  0
 21 22  1  0
 21 23  2  0
 21 24  2  0
 25 26  1  0
 22 25  2  0
 26 27  2  0
 27 28  1  0
 28 22  1  0
 27 29  1  0
  4 30  1  0
 30 31  1  0
 19 32  2  0
 33 19  1  0
  1 34  1  0
 33 35  1  0
 33 36  1  0
 33 37  1  0
M  END