
          11280714432D 1   1.00000     0.00000     0

 30 32  0     0  0            999 V2000
    3.1792    0.0708    0.0000 N   0  0  0  0  0  0           0  0  0
    1.1000    0.0625    0.0000 O   0  0  0  0  0  0           0  0  0
    2.1417    0.0708    0.0000 C   0  0  3  0  0  0           0  0  0
    0.5792    0.3625    0.0000 C   0  0  0  0  0  0           0  0  0
    2.6542    0.3708    0.0000 C   0  0  0  0  0  0           0  0  0
    1.6167    0.3708    0.0000 C   0  0  0  0  0  0           0  0  0
   -0.4583    0.9625    0.0000 C   0  0  0  0  0  0           0  0  0
    4.7375    0.3750    0.0000 C   0  0  0  0  0  0           0  0  0
    0.0542    0.0625    0.0000 C   0  0  0  0  0  0           0  0  0
    0.5792    0.9708    0.0000 C   0  0  0  0  0  0           0  0  0
   -0.4583    0.3625    0.0000 C   0  0  0  0  0  0           0  0  0
    0.0542    1.2708    0.0000 C   0  0  0  0  0  0           0  0  0
    2.1417   -0.5292    0.0000 O   0  0  0  0  0  0           0  0  0
    5.2542    0.0750    0.0000 C   0  0  0  0  0  0           0  0  0
    4.2167    0.0708    0.0000 C   0  0  0  0  0  0           0  0  0
    3.7000    0.3708    0.0000 C   0  0  3  0  0  0           0  0  0
   -2.0208    1.2625    0.0000 O   0  0  0  0  0  0           0  0  0
   -3.7958    1.6875    0.0000 C   0  0  0  0  0  0           0  0  0
   -3.0583    1.2625    0.0000 C   0  0  3  0  0  0           0  0  0
   -2.5375    0.9625    0.0000 C   0  0  0  0  0  0           0  0  0
   -0.9833    1.2625    0.0000 C   0  0  0  0  0  0           0  0  0
   -3.2208    1.8458    0.0000 C   0  0  0  0  0  0           0  0  0
   -3.6375    1.1083    0.0000 C   0  0  0  0  0  0           0  0  0
   -1.4958    0.9625    0.0000 C   0  0  0  0  0  0           0  0  0
    5.7750    0.3750    0.0000 C   0  0  0  0  0  0           0  0  0
    5.2542   -0.5292    0.0000 C   0  0  0  0  0  0           0  0  0
    3.6917    0.9708    0.0000 C   0  0  0  0  0  0           0  0  0
    6.2917    0.0833    0.0000 C   0  0  0  0  0  0           0  0  0
    5.7750   -0.8292    0.0000 C   0  0  0  0  0  0           0  0  0
    6.2917   -0.5292    0.0000 C   0  0  0  0  0  0           0  0  0
  2  6  1  0     0  0
  3  5  1  0     0  0
  4  2  1  0     0  0
  5  1  1  0     0  0
  6  3  1  0     0  0
  7 12  1  0     0  0
  8 15  1  0     0  0
  9  4  2  0     0  0
 10  4  1  0     0  0
 11  9  1  0     0  0
 12 10  2  0     0  0
 13  3  1  0     0  0
 14  8  1  0     0  0
 15 16  1  0     0  0
 16  1  1  0     0  0
 17 24  1  0     0  0
 18 23  1  0     0  0
 19 20  1  0     0  0
 20 17  1  0     0  0
 21  7  1  0     0  0
 22 19  1  0     0  0
 23 19  1  0     0  0
 24 21  1  0     0  0
 25 14  1  0     0  0
 26 14  2  0     0  0
 27 16  1  0     0  0
 28 25  2  0     0  0
 29 26  1  0     0  0
 30 29  2  0     0  0
 28 30  1  0     0  0
 11  7  2  0     0  0
 18 22  1  0     0  0
M  END