
  SciTegic11201309402D

 24 27  0  0  1  0            999 V2000
   16.5425  -23.3070    0.0000 C   0  0
   16.5486  -21.9709    0.0000 C   0  0  2  0  0  0
   16.0633  -22.6370    0.0000 C   0  0
   17.3343  -22.2309    0.0000 C   0  0  1  0  0  0
   17.3283  -23.0560    0.0000 N   0  0
   18.1112  -23.3167    0.0000 C   0  0
   18.6011  -22.6527    0.0000 C   0  0
   18.1209  -21.9817    0.0000 C   0  0
   16.2964  -21.1854    0.0000 C   0  0
   15.4900  -21.0112    0.0000 N   0  0
   15.2377  -20.2257    0.0000 C   0  0
   15.7919  -19.6145    0.0000 O   0  0
   14.4314  -20.0514    0.0000 C   0  0
   13.1029  -20.1893    0.0000 C   0  0
   13.8160  -20.6041    0.0000 N   0  0
   13.2772  -19.3829    0.0000 N   0  0
   14.0967  -19.3001    0.0000 C   0  0
   14.4332  -18.5503    0.0000 C   0  0
   13.9511  -17.8826    0.0000 C   0  0
   13.1288  -17.9697    0.0000 C   0  0
   12.7962  -18.7197    0.0000 C   0  0
   12.3481  -20.5224    0.0000 C   0  0
   11.6823  -20.0352    0.0000 C   0  0
   17.3407  -21.2309    0.0000 H   0  0
  4  2  1  0
 10 11  1  0
  2  3  1  0
 11 12  2  0
  3  1  1  0
 11 13  1  0
 13 17  2  0
  5  6  1  0
  6  7  1  0
 16 14  1  0
 14 15  2  0
 15 13  1  0
  7  8  1  0
  4  8  1  0
 16 17  1  0
  4  5  1  0
 17 18  1  0
 18 19  2  0
  1  5  1  0
 19 20  1  0
  2  9  1  1
 20 21  2  0
 21 16  1  0
 14 22  1  0
  9 10  1  0
 22 23  1  0
  4 24  1  1
M  END