
  SciTegic06051313552D

 63 69  0  0  0  0            999 V2000
    8.6836  -27.4412    0.0000 C   0  0
    8.1857  -26.7862    0.0000 C   0  0
    7.3709  -26.8908    0.0000 C   0  0
    7.0504  -27.6515    0.0000 N   0  0
    7.5511  -28.3085    0.0000 C   0  0
    8.3723  -28.2048    0.0000 C   0  0
    6.2318  -27.7554    0.0000 C   0  0
    5.9124  -28.5162    0.0000 C   0  0
    5.0934  -28.6164    0.0000 C   0  0
    4.7741  -29.3764    0.0000 C   0  0
    5.2735  -30.0344    0.0000 C   0  0
    6.0960  -29.9272    0.0000 C   0  0
    6.4115  -29.1671    0.0000 C   0  0
    4.5976  -27.9616    0.0000 C   0  0
    4.9205  -27.2011    0.0000 C   0  0
    4.4236  -26.5432    0.0000 C   0  0
    3.6038  -26.6447    0.0000 C   0  0
    3.2834  -27.4098    0.0000 C   0  0
    3.7822  -28.0644    0.0000 C   0  0
    3.1053  -25.9872    0.0000 Cl  0  0
   12.5313  -29.8883    0.0000 O   0  0
   13.2481  -29.4799    0.0000 S   0  0
   12.5359  -29.0634    0.0000 O   0  0
   13.1762  -25.7954    0.0000 O   0  0
   13.1953  -26.6244    0.0000 S   0  0
   13.9036  -26.1935    0.0000 O   0  0
   12.3711  -26.6429    0.0000 N   0  0
   13.6232  -27.3320    0.0000 C   0  0
   13.2230  -28.0542    0.0000 C   0  0
   13.6495  -28.7597    0.0000 C   0  0
   14.4753  -28.7432    0.0000 C   0  0
   14.8729  -28.0153    0.0000 C   0  0
   14.4442  -27.3128    0.0000 C   0  0
   14.9033  -29.4487    0.0000 N   0  0
   15.7283  -29.4307    0.0000 C   0  0  2  0  0  0
   16.1563  -30.1361    0.0000 C   0  0
   16.9812  -30.1182    0.0000 C   0  0
   17.4093  -30.8237    0.0000 N   0  0
   16.1252  -28.7073    0.0000 C   0  0
   16.9501  -28.6893    0.0000 S   0  0
   17.3471  -27.9659    0.0000 C   0  0
   18.1728  -27.9504    0.0000 C   0  0
   18.5696  -27.2278    0.0000 C   0  0
   18.1415  -26.5214    0.0000 C   0  0
   17.3123  -26.5421    0.0000 C   0  0
   16.9192  -27.2652    0.0000 C   0  0
   18.2300  -30.7998    0.0000 C   0  0
   11.9748  -27.3666    0.0000 C   0  0
   13.6780  -30.1885    0.0000 C   0  0
   13.2798  -30.9113    0.0000 F   0  0
   14.5030  -30.1721    0.0000 F   0  0
   14.0857  -30.9010    0.0000 F   0  0
   11.1815  -28.8081    0.0000 N   0  0
   12.0074  -28.7916    0.0000 C   0  0
   12.4083  -28.0673    0.0000 N   0  0
   10.7547  -28.1048    0.0000 C   0  0
   11.1510  -27.3812    0.0000 C   0  0
   10.7250  -26.6800    0.0000 C   0  0
    9.9008  -26.6963    0.0000 C   0  0
    9.5043  -27.4199    0.0000 N   0  0
    9.9323  -28.1272    0.0000 C   0  0
   17.0151  -31.5484    0.0000 C   0  0
    6.5975  -30.5824    0.0000 F   0  0
  1  2  1  0
  1  6  1  0
  2  3  1  0
  3  4  1  0
  4  5  1  0
  5  6  1  0
  4  7  1  0
  7  8  1  0
  8  9  2  0
  9 10  1  0
 10 11  2  0
 11 12  1  0
 12 13  2  0
 13  8  1  0
 14 15  2  0
 15 16  1  0
 16 17  2  0
 17 18  1  0
 18 19  2  0
 19 14  1  0
  9 14  1  0
 17 20  1  0
 22 21  2  0
 23 22  2  0
 25 24  2  0
 26 25  2  0
 27 25  1  0
 25 28  1  0
 28 29  2  0
 29 30  1  0
 30 31  2  0
 31 32  1  0
 32 33  2  0
 33 28  1  0
 31 34  1  0
 34 35  1  0
 35 36  1  0
 36 37  1  0
 37 38  1  0
 35 39  1  1
 39 40  1  0
 40 41  1  0
 41 42  2  0
 42 43  1  0
 43 44  2  0
 44 45  1  0
 45 46  2  0
 46 41  1  0
 38 47  1  0
 27 48  1  0
 30 22  1  0
 22 49  1  0
 49 50  1  0
 49 51  1  0
 49 52  1  0
 48 57  2  0
 48 55  1  0
 56 53  2  0
 53 54  1  0
 54 55  2  0
 56 57  1  0
 56 61  1  0
 57 58  1  0
 58 59  1  0
 59 60  1  0
 60 61  1  0
 60  1  1  0
 38 62  1  0
 12 63  1  0
M  END