
  SciTegic10041313202D

 31 32  0  0  1  0            999 V2000
    4.4167   -2.9500    0.0000 C   0  0
    6.5625   -3.3750    0.0000 C   0  0
    5.1292   -3.3667    0.0000 N   0  0
    3.7042   -3.3625    0.0000 N   0  0
    5.8500   -2.9542    0.0000 C   0  0  1  0  0  0
    7.2792   -2.9667    0.0000 N   0  0
    9.5300   -2.4886    0.0000 N   0  0
    8.7042   -2.9667    0.0000 C   0  0
    4.4167   -2.1250    0.0000 O   0  0
    6.5542   -4.1917    0.0000 O   0  0
    7.9917   -3.3792    0.0000 C   0  0  2  0  0  0
    5.8500   -2.1292    0.0000 C   0  0
    2.2792   -4.1875    0.0000 O   0  0
    7.1542   -7.6625    0.0000 C   0  0
    7.9792   -4.8042    0.0000 O   0  0
    7.9792   -6.2375    0.0000 C   0  0
    6.7375   -8.3750    0.0000 Cl  0  0
    7.9792   -7.6542    0.0000 C   0  0
    6.7417   -6.9417    0.0000 C   0  0
    8.3917   -6.9417    0.0000 C   0  0
    7.1542   -6.2292    0.0000 C   0  0
    2.9917   -2.9417    0.0000 C   0  0
    3.7042   -4.1875    0.0000 C   0  0
    8.4000   -4.0917    0.0000 C   0  0
    6.2542   -1.4167    0.0000 C   0  0
    8.3917   -5.5167    0.0000 C   0  0
    2.9917   -4.5917    0.0000 C   0  0
    2.2792   -3.3625    0.0000 C   0  0
    7.0792   -1.4042    0.0000 C   0  0
    5.8375   -0.7042    0.0000 C   0  0
    7.4042   -3.9667    0.0000 H   0  0
  2  5  1  0
  3  1  1  0
  4  1  1  0
  5  3  1  0
  6  2  1  0
  7  8  3  0
  8 11  1  0
  9  1  2  0
 10  2  2  0
 11  6  1  0
  5 12  1  1
 13 27  1  0
 14 19  2  0
 15 24  1  0
 16 26  1  0
 17 14  1  0
 18 20  2  0
 19 21  1  0
 20 16  1  0
 21 16  2  0
 22  4  1  0
 23  4  1  0
 11 24  1  6
 25 12  1  0
 26 15  1  0
 27 23  1  0
 28 22  1  0
 29 25  1  0
 30 25  1  0
 11 31  1  1
 28 13  1  0
 18 14  1  0
M  END