
          11280715012D 1   1.00000     0.00000     0

 34 38  0     0  0            999 V2000
   -0.8958   -3.8125    0.0000 N   0  0  3  0  0  0           0  0  0
   -0.1083   -3.5542    0.0000 C   0  0  0  0  0  0           0  0  0
    0.3750   -4.2167    0.0000 N   0  0  3  0  0  0           0  0  0
   -0.1083   -4.8917    0.0000 N   0  0  0  0  0  0           0  0  0
   -0.8958   -4.6375    0.0000 C   0  0  0  0  0  0           0  0  0
    4.0917   -3.5042    0.0000 C   0  0  3  0  0  0           0  0  0
    4.9167   -3.5042    0.0000 C   0  0  0  0  0  0           0  0  0
    1.2000   -4.2167    0.0000 C   0  0  0  0  0  0           0  0  0
    2.4417   -3.5042    0.0000 N   0  0  3  0  0  0           0  0  0
    3.6792   -2.7917    0.0000 C   0  0  0  0  0  0           0  0  0
    3.6792   -4.2167    0.0000 C   0  0  0  0  0  0           0  0  0
    4.3042   -2.7042    0.0000 C   0  0  0  0  0  0           0  0  0
    0.1417   -2.7667    0.0000 O   0  0  0  0  0  0           0  0  0
    5.3292   -4.2167    0.0000 C   0  0  0  0  0  0           0  0  0
    5.5542   -2.9917    0.0000 O   0  0  0  0  0  0           0  0  0
    1.6125   -3.5042    0.0000 C   0  0  0  0  0  0           0  0  0
    2.8542   -4.2167    0.0000 C   0  0  0  0  0  0           0  0  0
    2.8542   -2.7917    0.0000 C   0  0  0  0  0  0           0  0  0
   -1.6083   -3.4042    0.0000 C   0  0  0  0  0  0           0  0  0
    5.1042   -2.4917    0.0000 C   0  0  0  0  0  0           0  0  0
    3.7250   -2.1292    0.0000 C   0  0  0  0  0  0           0  0  0
    4.9167   -4.9292    0.0000 C   0  0  0  0  0  0           0  0  0
    6.1542   -4.2167    0.0000 C   0  0  0  0  0  0           0  0  0
    4.7375   -1.1167    0.0000 C   0  0  0  0  0  0           0  0  0
    6.1542   -5.6417    0.0000 C   0  0  0  0  0  0           0  0  0
   -1.6000   -5.0542    0.0000 C   0  0  0  0  0  0           0  0  0
    5.3167   -1.7000    0.0000 C   0  0  0  0  0  0           0  0  0
    6.5667   -4.9250    0.0000 C   0  0  0  0  0  0           0  0  0
    3.9292   -1.3292    0.0000 C   0  0  0  0  0  0           0  0  0
    5.3292   -5.6417    0.0000 C   0  0  0  0  0  0           0  0  0
    6.5625   -6.3625    0.0000 F   0  0  0  0  0  0           0  0  0
    4.9500   -0.3167    0.0000 F   0  0  0  0  0  0           0  0  0
   -2.3208   -3.8167    0.0000 C   0  0  0  0  0  0           0  0  0
   -2.3125   -4.6417    0.0000 C   0  0  0  0  0  0           0  0  0
  2  1  1  0     0  0
  3  2  1  0     0  0
  4  5  2  0     0  0
  5  1  1  0     0  0
  6 10  1  0     0  0
  7  6  1  0     0  0
  8  3  1  0     0  0
  9 16  1  0     0  0
 10 18  1  0     0  0
 11 17  1  0     0  0
 12  6  1  0     0  0
 13  2  2  0     0  0
 14  7  1  0     0  0
 15  7  2  0     0  0
 16  8  1  0     0  0
 17  9  1  0     0  0
 18  9  1  0     0  0
 19  1  1  0     0  0
 20 12  2  0     0  0
 21 12  1  0     0  0
 22 14  2  0     0  0
 23 14  1  0     0  0
 24 29  1  0     0  0
 25 28  1  0     0  0
 26  5  1  0     0  0
 27 20  1  0     0  0
 28 23  2  0     0  0
 29 21  2  0     0  0
 30 22  1  0     0  0
 31 25  1  0     0  0
 32 24  1  0     0  0
 33 19  1  0     0  0
 34 33  1  0     0  0
  4  3  1  0     0  0
 34 26  1  0     0  0
 11  6  1  0     0  0
 27 24  2  0     0  0
 30 25  2  0     0  0
M  END