
          11280715142D 1   1.00000     0.00000     0

 39 43  0     1  0            999 V2000
    2.6792   -2.2917    0.0000 C   0  0  2  0  0  0           0  0  0
    2.6625   -0.4250    0.0000 N   0  0  3  0  0  0           0  0  0
    3.0917   -3.0042    0.0000 C   0  0  1  0  0  0           0  0  0
    2.0250   -1.7792    0.0000 C   0  0  0  0  0  0           0  0  0
    2.0250   -0.9500    0.0000 C   0  0  0  0  0  0           0  0  0
    2.8875   -4.5042    0.0000 C   0  0  0  0  0  0           0  0  0
    3.4917   -2.1000    0.0000 N   0  0  0  0  0  0           0  0  0
    3.4750   -0.6042    0.0000 C   0  0  0  0  0  0           0  0  0
    2.4125    0.3625    0.0000 C   0  0  0  0  0  0           0  0  0
    3.8875   -3.2167    0.0000 C   0  0  0  0  0  0           0  0  0
    2.6750   -3.7167    0.0000 O   0  0  0  0  0  0           0  0  0
    2.3000   -5.0917    0.0000 N   0  0  0  0  0  0           0  0  0
    3.6750   -4.7167    0.0000 N   0  0  0  0  0  0           0  0  0
    2.9667    0.9708    0.0000 C   0  0  0  0  0  0           0  0  0
    3.8417   -1.3500    0.0000 C   0  0  0  0  0  0           0  0  0
    2.0917   -2.8750    0.0000 C   0  0  0  0  0  0           0  0  0
    2.5042   -5.8875    0.0000 C   0  0  0  0  0  0           0  0  0
    3.8917   -5.5125    0.0000 C   0  0  0  0  0  0           0  0  0
    2.7125    1.7500    0.0000 C   0  0  0  0  0  0           0  0  0
    3.3042   -6.1000    0.0000 C   0  0  0  0  0  0           0  0  0
    3.9792    0.0458    0.0000 O   0  0  0  0  0  0           0  0  0
    4.1000   -4.0042    0.0000 O   0  0  0  0  0  0           0  0  0
    4.6792   -3.0000    0.0000 O   0  0  0  0  0  0           0  0  0
    1.3042   -2.1917    0.0000 C   0  0  0  0  0  0           0  0  0
    1.9042    1.9208    0.0000 F   0  0  0  0  0  0           0  0  0
    1.3042   -0.5375    0.0000 C   0  0  0  0  0  0           0  0  0
    3.7667    0.7958    0.0000 C   0  0  0  0  0  0           0  0  0
    1.2917   -2.6500    0.0000 C   0  0  0  0  0  0           0  0  0
    2.3042   -3.6667    0.0000 C   0  0  0  0  0  0           0  0  0
    4.6875   -5.7250    0.0000 C   0  0  0  0  0  0           0  0  0
    1.9292   -6.4667    0.0000 C   0  0  0  0  0  0           0  0  0
    3.2625    2.3625    0.0000 C   0  0  0  0  0  0           0  0  0
    0.5917   -1.7792    0.0000 C   0  0  0  0  0  0           0  0  0
    0.5917   -0.9500    0.0000 C   0  0  0  0  0  0           0  0  0
    4.3250    1.4083    0.0000 C   0  0  0  0  0  0           0  0  0
    0.7042   -3.2250    0.0000 C   0  0  0  0  0  0           0  0  0
    1.7042   -4.2500    0.0000 C   0  0  0  0  0  0           0  0  0
    4.0750    2.1958    0.0000 C   0  0  0  0  0  0           0  0  0
    0.9125   -4.0250    0.0000 C   0  0  0  0  0  0           0  0  0
  2  5  1  0     0  0
  3  1  1  0     0  0
  4  1  1  0     0  0
  5  4  1  0     0  0
  6 11  1  0     0  0
  7  1  1  0     0  0
  8 15  1  0     0  0
  9  2  1  0     0  0
 10  3  1  0     0  0
  3 11  1  1     0  0
 12  6  2  0     0  0
 13  6  1  0     0  0
 14  9  1  0     0  0
 15  7  1  0     0  0
  1 16  1  1     0  0
 17 12  1  0     0  0
 18 13  2  0     0  0
 19 14  1  0     0  0
 20 18  1  0     0  0
 21  8  2  0     0  0
 22 10  2  0     0  0
 23 10  1  0     0  0
 24  4  2  0     0  0
 25 19  1  0     0  0
 26  5  2  0     0  0
 27 14  2  0     0  0
 28 16  2  0     0  0
 29 16  1  0     0  0
 30 18  1  0     0  0
 31 17  1  0     0  0
 32 19  2  0     0  0
 33 24  1  0     0  0
 34 33  2  0     0  0
 35 27  1  0     0  0
 36 28  1  0     0  0
 37 29  2  0     0  0
 38 35  2  0     0  0
 39 37  1  0     0  0
  2  8  1  0     0  0
 36 39  2  0     0  0
 26 34  1  0     0  0
 17 20  2  0     0  0
 32 38  1  0     0  0
M  END