
          11280715112D 1   1.00000     0.00000     0

 21 23  0     0  0            999 V2000
    3.5542   -3.1667    0.0000 C   0  0  0  0  0  0           0  0  0
    4.0375   -2.5000    0.0000 N   0  0  0  0  0  0           0  0  0
    1.0750   -4.5917    0.0000 C   0  0  3  0  0  0           0  0  0
    4.0375   -3.8375    0.0000 N   0  0  0  0  0  0           0  0  0
    4.8167   -2.7542    0.0000 C   0  0  0  0  0  0           0  0  0
    1.4917   -3.8792    0.0000 C   0  0  0  0  0  0           0  0  0
    2.7292   -3.1667    0.0000 C   0  0  0  0  0  0           0  0  0
    4.8167   -3.5792    0.0000 C   0  0  0  0  0  0           0  0  0
    2.3167   -3.8792    0.0000 C   0  0  0  0  0  0           0  0  0
    6.8250   -1.3000    0.0000 C   0  0  3  0  0  0           0  0  0
    7.1542   -0.5417    0.0000 C   0  0  0  0  0  0           0  0  0
    6.3292   -0.6375    0.0000 C   0  0  0  0  0  0           0  0  0
    0.6917   -5.2375    0.0000 F   0  0  0  0  0  0           0  0  0
    0.2167   -4.7167    0.0000 F   0  0  0  0  0  0           0  0  0
    1.3667   -5.4000    0.0000 F   0  0  0  0  0  0           0  0  0
    6.9125   -2.1167    0.0000 N   0  0  0  0  0  0           0  0  0
    5.4875   -2.2667    0.0000 C   0  0  0  0  0  0           0  0  0
    6.2417   -2.6042    0.0000 C   0  0  0  0  0  0           0  0  0
    1.0792   -3.1667    0.0000 C   0  0  0  0  0  0           0  0  0
    2.3167   -2.4542    0.0000 C   0  0  0  0  0  0           0  0  0
    1.4917   -2.4542    0.0000 C   0  0  0  0  0  0           0  0  0
  2  1  2  0     0  0
  3  6  1  0     0  0
  4  1  1  0     0  0
  5  2  1  0     0  0
  6  9  2  0     0  0
  7  1  1  0     0  0
  8  4  1  0     0  0
  9  7  1  0     0  0
 10 16  1  0     0  0
 11 10  1  0     0  0
 12 10  1  0     0  0
 13  3  1  0     0  0
 14  3  1  0     0  0
 15  3  1  0     0  0
 16 18  1  0     0  0
 17  5  1  0     0  0
 18 17  1  0     0  0
 19 21  2  0     0  0
 20  7  2  0     0  0
 21 20  1  0     0  0
  5  8  2  0     0  0
 19  6  1  0     0  0
 11 12  1  0     0  0
M  END