
  SciTegic12231509382D

 26 30  0  0  0  0            999 V2000
   -2.4915    1.5389    0.0000 N   0  0
   -3.7006    0.8244    0.0000 C   0  0
   -3.7006   -0.6045    0.0000 N   0  0
   -2.4915   -1.3190    0.0000 C   0  0
    0.0000   -1.3190    0.0000 O   0  0
   -1.2274    0.8244    0.0000 C   0  0
   -1.2274   -0.6045    0.0000 C   0  0
   -5.0040    1.5682    0.0000 C   0  0
   -6.2982    0.8093    0.0000 C   0  0
   -7.6024    1.5503    0.0000 C   0  0
   -7.6127    3.0503    0.0000 C   0  0
   -6.3188    3.8092    0.0000 C   0  0
   -5.0147    3.0681    0.0000 C   0  0
   -6.3271    5.0092    0.0000 O   0  0
   -2.5059   -2.8197    0.0000 N   0  0
   -1.2156   -3.5847    0.0000 C   0  0
   -1.2329   -5.0846    0.0000 C   0  0
   -2.5404   -5.8196    0.0000 O   0  0
   -3.8308   -5.0547    0.0000 C   0  0
   -3.8135   -3.5548    0.0000 C   0  0
    1.2274    0.8244    0.0000 C   0  0
    1.2274   -0.6045    0.0000 C   0  0
    2.4732   -1.3190    0.0000 N   0  0
    3.7372   -0.6045    0.0000 C   0  0
    3.7372    0.8244    0.0000 C   0  0
    2.4732    1.5389    0.0000 C   0  0
  1  2  2  0
  2  3  1  0
  3  4  2  0
  1  6  1  0
  4  7  1  0
  5  7  1  0
  6  7  2  0
  2  8  1  0
  8  9  2  0
  9 10  1  0
 10 11  2  0
 11 12  1  0
  8 13  1  0
 12 13  2  0
 12 14  1  0
  4 15  1  0
 15 16  1  0
 16 17  1  0
 17 18  1  0
 18 19  1  0
 15 20  1  0
 19 20  1  0
  6 21  1  0
  5 22  1  0
 21 22  2  0
 22 23  1  0
 23 24  2  0
 24 25  1  0
 21 26  1  0
 25 26  2  0
M  END