
  SciTegic07101214422D

 69 71  0  0  0  0            999 V2000
   -2.7833  -16.9833    0.0000 O   0  0
   -2.3667  -16.2708    0.0000 S   0  0
   -3.1920  -16.2662    0.0000 O   0  0
   -4.5098  -14.2125    0.0000 N   0  0
   -4.5109  -15.0398    0.0000 C   0  0
   -3.7961  -15.4527    0.0000 C   0  0
   -3.7979  -13.7997    0.0000 C   0  0
   -3.0825  -14.2088    0.0000 C   0  0
   -3.0818  -15.0357    0.0000 C   0  0
   -2.3665  -15.4466    0.0000 C   0  0
   -1.6514  -15.0319    0.0000 C   0  0
   -1.6562  -14.2019    0.0000 C   0  0
   -2.3721  -13.7947    0.0000 C   0  0
   -1.6494  -16.6826    0.0000 N   0  0
   -1.7044  -17.5280    0.0000 C   0  0
   -1.0992  -18.0614    0.0000 C   0  0
   -0.9600  -16.2145    0.0000 C   0  0
   -0.1788  -16.4741    0.0000 C   0  0
    0.1175  -17.2803    0.0000 N   0  0
   -0.2945  -17.9554    0.0000 C   0  0
    0.9386  -17.3609    0.0000 C   0  0
    1.2793  -18.1122    0.0000 C   0  0
    2.1004  -18.1928    0.0000 C   0  0
    2.4411  -18.9442    0.0000 C   0  0
    3.2621  -19.0248    0.0000 C   0  0
    3.6029  -19.7761    0.0000 C   0  0
    4.4239  -19.8567    0.0000 C   0  0
    4.7646  -20.6081    0.0000 C   0  0
    5.5857  -20.6887    0.0000 N   0  0
    4.2843  -21.2789    0.0000 O   0  0
    6.0660  -20.0179    0.0000 C   0  0  1  0  0  0
    6.8871  -20.0985    0.0000 C   0  0
    5.7253  -19.2666    0.0000 C   0  0
    6.2056  -18.5958    0.0000 C   0  0
    5.8649  -17.8445    0.0000 C   0  0
    6.3452  -17.1737    0.0000 C   0  0
    6.0045  -16.4224    0.0000 N   0  0
    7.2278  -20.8499    0.0000 O   0  0
    7.3674  -19.4278    0.0000 N   0  0
    8.1885  -19.5084    0.0000 C   0  0
    8.6688  -18.8376    0.0000 C   0  0
    9.4898  -18.9182    0.0000 C   0  0
    9.9702  -18.2475    0.0000 C   0  0
   10.7912  -18.3281    0.0000 C   0  0
   11.2715  -17.6573    0.0000 C   0  0
   12.0926  -17.7379    0.0000 N   0  0
   10.9308  -16.9060    0.0000 O   0  0
   12.5729  -17.0672    0.0000 C   0  0  1  0  0  0
   13.3940  -17.1478    0.0000 C   0  0
   12.2322  -16.3158    0.0000 C   0  0
   12.7125  -15.6451    0.0000 C   0  0
   12.3718  -14.8937    0.0000 C   0  0
   12.8521  -14.2230    0.0000 N   0  0
   12.5114  -13.4716    0.0000 C   0  0
   12.9917  -12.8009    0.0000 N   0  0
   11.6904  -13.3910    0.0000 N   0  0
   13.7347  -17.8991    0.0000 O   0  0
   13.8743  -16.4770    0.0000 N   0  0
   14.6954  -16.5576    0.0000 C   0  0  1  0  0  0
   15.1757  -15.8869    0.0000 C   0  0
   15.9967  -15.9675    0.0000 N   0  0
   14.8350  -15.1355    0.0000 O   0  0
   15.0361  -17.3090    0.0000 C   0  0
   14.5558  -17.9797    0.0000 C   0  0
   14.8965  -18.7311    0.0000 C   0  0
   14.4162  -19.4018    0.0000 N   0  0
   14.7569  -20.1532    0.0000 C   0  0
   14.2766  -20.8240    0.0000 N   0  0
   15.5779  -20.2338    0.0000 N   0  0
  8  9  1  0
 33 34  1  0
  3  2  2  0
 34 35  1  0
  9 10  1  0
 35 36  1  0
 14 15  1  0
 36 37  1  0
 15 16  1  0
 32 38  2  0
 14 17  1  0
 32 39  1  0
 18 19  1  0
 39 40  1  0
 19 20  1  0
 40 41  1  0
 20 16  1  0
 41 42  1  0
 17 18  1  0
 42 43  1  0
  5  6  1  0
 43 44  1  0
 19 21  1  0
 44 45  1  0
 10 11  2  0
 45 46  1  0
 21 22  1  0
 45 47  2  0
  6  9  2  0
 46 48  1  0
 22 23  1  0
 48 49  1  0
 11 12  1  0
 48 50  1  6
 23 24  1  0
 50 51  1  0
 51 52  1  0
 24 25  1  0
 52 53  1  0
 12 13  2  0
 53 54  1  0
 25 26  1  0
 54 55  1  0
 13  8  1  0
 54 56  2  0
 26 27  1  0
 49 57  2  0
 10  2  1  0
 49 58  1  0
 27 28  1  0
 58 59  1  0
  8  7  2  0
 59 60  1  0
 28 29  1  0
 60 61  1  0
  2 14  1  0
 60 62  2  0
 28 30  2  0
 59 63  1  1
  7  4  1  0
 63 64  1  0
 29 31  1  0
 64 65  1  0
  2  1  2  0
 65 66  1  0
 31 32  1  0
 66 67  1  0
  4  5  2  0
 67 68  1  0
 31 33  1  6
 67 69  2  0
M  END