
  SciTegic02011310452D

112121  0  0  0  0            999 V2000
    9.1426   -5.5113    0.0000 O   0  0
    9.4008   -4.7255    0.0000 S   0  0
    8.5942   -4.8954    0.0000 O   0  0
   12.1495   -4.0619    0.0000 C   0  0
   12.3164   -4.8698    0.0000 C   0  0
   12.9327   -4.3214    0.0000 C   0  0
   19.2844  -10.6085    0.0000 O   0  0
   18.4593  -10.5873    0.0000 S   0  0
   18.8534  -11.3124    0.0000 O   0  0
   14.9746  -10.1231    0.0000 C   0  0
   15.6941   -9.7194    0.0000 C   0  0
   15.7042   -8.8945    0.0000 C   0  0
   16.4237   -8.4908    0.0000 C   0  0
   17.3288   -7.5055    0.0000 N   0  0
   16.5205   -7.6675    0.0000 C   0  0
   15.6255   -8.2665    0.0000 C   0  0
   17.7325   -8.2250    0.0000 C   0  0
   17.1719   -8.8282    0.0000 C   0  0
   17.4144   -9.6133    0.0000 C   0  0
   18.2171   -9.7962    0.0000 C   0  0
   18.7769   -9.1880    0.0000 C   0  0
   18.5315   -8.4053    0.0000 C   0  0
   17.6560  -10.7871    0.0000 O   0  0
   17.6735   -6.7560    0.0000 C   0  0
   18.4950   -6.6797    0.0000 C   0  0
   16.1062   -6.9541    0.0000 C   0  0
   15.2812   -6.9561    0.0000 C   0  0
   14.8669   -6.2427    0.0000 C   0  0
   14.0420   -6.2448    0.0000 C   0  0
   13.6277   -5.5313    0.0000 C   0  0
   12.8027   -5.5334    0.0000 C   0  0
   12.3202   -6.2039    0.0000 N   0  3
   12.5781   -6.9876    0.0000 C   0  0
   12.0283   -7.6027    0.0000 C   0  0
   11.5350   -5.9511    0.0000 C   0  0
   11.5347   -5.1296    0.0000 C   0  0
   10.8243   -4.7209    0.0000 C   0  0
   10.1181   -5.1349    0.0000 C   0  0
   10.1179   -5.9571    0.0000 C   0  0
   10.8289   -6.3621    0.0000 C   0  0
    9.3975   -3.8987    0.0000 O   0  5
   14.2686  -11.3655    0.0000 N   0  0
   14.9802  -10.9481    0.0000 C   0  0
   15.6975  -11.3557    0.0000 O   0  0
    2.7655  -17.4089    0.0000 N   0  0
    3.5152  -17.0427    0.0000 C   0  0
    3.6935  -16.2302    0.0000 C   0  0
    2.3412  -15.5989    0.0000 C   0  0
    3.1671  -15.5930    0.0000 C   0  0
    8.4609  -19.9148    0.0000 C   0  0
    8.4621  -20.7422    0.0000 C   0  0
    7.7431  -21.1551    0.0000 C   0  0
    7.0308  -20.7417    0.0000 C   0  0
    7.0337  -19.9112    0.0000 C   0  0
    7.7449  -19.5021    0.0000 C   0  0
    6.3214  -19.4967    0.0000 C   0  0
    5.6068  -19.9072    0.0000 N   0  0
    6.3237  -18.6717    0.0000 O   0  0
    4.8945  -19.4927    0.0000 C   0  0
    4.1793  -19.9063    0.0000 C   0  0
    3.4674  -19.4924    0.0000 C   0  0
    3.4694  -18.6666    0.0000 C   0  0
    4.1924  -18.2563    0.0000 C   0  0
    4.9018  -18.6723    0.0000 C   0  0
    2.7576  -18.2513    0.0000 C   0  0
    2.0425  -18.6610    0.0000 O   0  0
    7.7505  -18.6771    0.0000 C   0  0
    1.9356  -14.9022    0.0000 N   0  0
    8.4635  -18.2686    0.0000 C   0  0
    8.4652  -17.4442    0.0000 C   0  0
    7.7520  -17.0298    0.0000 C   0  0
    7.0317  -17.4490    0.0000 C   0  0
    7.0330  -18.2680    0.0000 C   0  0
    2.0236  -17.0593    0.0000 C   0  0
    1.8240  -16.2500    0.0000 C   0  0
    1.0241  -16.0172    0.0000 C   0  0
    0.4232  -16.5969    0.0000 C   0  0
    0.6268  -17.4081    0.0000 C   0  0
    1.4264  -17.6377    0.0000 C   0  0
    2.3454  -14.1861    0.0000 C   0  0
    1.9302  -13.4732    0.0000 O   0  0
    3.1704  -14.1830    0.0000 C   0  0
    3.5802  -13.4670    0.0000 C   0  0
    4.4052  -13.4638    0.0000 C   0  0
    4.8149  -12.7478    0.0000 N   0  0
    4.8204  -14.1767    0.0000 O   0  0
    5.6399  -12.7448    0.0000 C   0  0
    6.1083  -12.0657    0.0000 C   0  0
    6.9286  -12.0445    0.0000 N   0  0
    7.1643  -11.2539    0.0000 N   0  0
    6.4850  -10.7855    0.0000 N   0  0
    5.8298  -11.2866    0.0000 C   0  0
    6.4847   -9.9605    0.0000 C   0  0
    7.1910   -9.5453    0.0000 C   0  0
    7.8943   -9.9766    0.0000 O   0  0
    7.8724  -10.8013    0.0000 C   0  0
    8.5757  -11.2326    0.0000 C   0  0
    8.5538  -12.0573    0.0000 O   0  0
    9.2570  -12.4886    0.0000 C   0  0
    9.2352  -13.3133    0.0000 C   0  0
    9.9384  -13.7446    0.0000 O   0  0
    9.9165  -14.5693    0.0000 C   0  0
   10.6198  -15.0007    0.0000 C   0  0
   10.5979  -15.8254    0.0000 O   0  0
   11.3027  -16.2493    0.0000 C   0  0
   12.0265  -15.8534    0.0000 C   0  0
   12.0455  -15.0286    0.0000 O   0  0
   12.7692  -14.6327    0.0000 C   0  0
   12.7882  -13.8079    0.0000 C   0  0
   13.5120  -13.4119    0.0000 O   0  0
   13.5310  -12.5871    0.0000 C   0  0
   14.2548  -12.1912    0.0000 C   0  0
  2  1  2  0
  3  2  2  0
  5  4  1  0
  6  5  1  0
  8  7  2  0
  9  8  2  0
 10 11  1  0
 11 12  1  0
 12 13  1  0
 13 18  1  0
 17 14  1  0
 14 15  1  0
 15 13  1  0
 13 16  1  0
 17 18  2  0
 18 19  1  0
 19 20  2  0
 20 21  1  0
 21 22  2  0
 22 17  1  0
 20  8  1  0
  8 23  1  0
 14 24  1  0
 24 25  1  0
 15 26  2  0
 26 27  1  0
 27 28  2  0
 28 29  1  0
 29 30  2  0
 30 31  1  0
 31  5  1  0
  5 36  1  0
 35 32  1  0
 32 31  2  0
 32 33  1  0
 33 34  1  0
 35 36  2  0
 36 37  1  0
 37 38  2  0
 38 39  1  0
 39 40  2  0
 40 35  1  0
 38  2  1  0
  2 41  1  0
 42 43  1  0
 43 44  2  0
 43 10  1  0
 74 45  1  0
 45 46  1  0
 46 47  1  0
 75 48  1  0
 47 49  1  0
 48 49  1  0
 50 51  2  0
 51 52  1  0
 52 53  2  0
 53 54  1  0
 54 55  2  0
 55 50  1  0
 54 56  1  0
 56 57  1  0
 56 58  2  0
 57 59  1  0
 59 60  2  0
 60 61  1  0
 61 62  2  0
 62 63  1  0
 63 64  2  0
 64 59  1  0
 62 65  1  0
 65 66  2  0
 65 45  1  0
 55 67  1  0
 48 68  1  0
 67 69  2  0
 69 70  1  0
 70 71  2  0
 71 72  1  0
 72 73  2  0
 73 67  1  0
 74 75  2  0
 75 76  1  0
 76 77  2  0
 77 78  1  0
 78 79  2  0
 79 74  1  0
 68 80  1  0
 80 81  2  0
 80 82  1  0
 82 83  1  0
 83 84  1  0
 84 85  1  0
 84 86  2  0
 85 87  1  0
 87 88  1  0
 88 89  1  0
 89 90  2  0
 90 91  1  0
 91 92  1  0
 92 88  2  0
 91 93  1  0
 93 94  1  0
 94 95  1  0
 95 96  1  0
 96 97  1  0
 97 98  1  0
 98 99  1  0
 99100  1  0
100101  1  0
101102  1  0
102103  1  0
103104  1  0
104105  1  0
105106  1  0
106107  1  0
107108  1  0
108109  1  0
109110  1  0
110111  1  0
111112  1  0
112 42  1  0
M  CHG  2  32   1  41  -1
M  END