
          11280715092D 1   1.00000     0.00000     0

 30 31  0     0  0            999 V2000
    2.2792   -0.0875    0.0000 C   0  0  3  0  0  0           0  0  0
    1.1167   -0.9542    0.0000 O   0  0  0  0  0  0           0  0  0
    1.6375   -0.3042    0.0000 C   0  0  3  0  0  0           0  0  0
    1.6542    0.2875    0.0000 C   0  0  3  0  0  0           0  0  0
    2.2792    0.5083    0.0000 C   0  0  3  0  0  0           0  0  0
    2.6792   -0.5125    0.0000 C   0  0  0  0  0  0           0  0  0
    3.5042   -1.1625    0.0000 C   0  0  0  0  0  0           0  0  0
    4.8167   -2.0500    0.0000 C   0  0  0  0  0  0           0  0  0
    3.3500   -0.5792    0.0000 N   0  0  0  0  0  0           0  0  0
    5.9750    0.3875    0.0000 C   0  0  0  0  0  0           0  0  0
    5.2417   -1.6250    0.0000 S   0  0  0  0  0  0           0  0  0
    4.2417   -1.8917    0.0000 N   0  0  0  0  0  0           0  0  0
    0.9917    0.0083    0.0000 C   0  0  0  0  0  0           0  0  0
    0.9917    0.5708    0.0000 C   0  0  0  0  0  0           0  0  0
    3.0792   -1.5917    0.0000 O   0  0  0  0  0  0           0  0  0
    5.9792   -0.2125    0.0000 O   0  0  0  0  0  0           0  0  0
    3.3667    0.6625    0.0000 C   0  0  0  0  0  0           0  0  0
    3.8917    0.3708    0.0000 C   0  0  0  0  0  0           0  0  0
    4.0792   -1.3167    0.0000 C   0  0  0  0  0  0           0  0  0
    6.4917    0.6958    0.0000 O   0  0  0  0  0  0           0  0  0
    2.8542    0.3583    0.0000 C   0  0  0  0  0  0           0  0  0
    4.9792   -2.6292    0.0000 C   0  0  0  0  0  0           0  0  0
    5.4500    0.6833    0.0000 C   0  0  0  0  0  0           0  0  0
    4.4125    0.6750    0.0000 C   0  0  0  0  0  0           0  0  0
    4.9292    0.3833    0.0000 C   0  0  0  0  0  0           0  0  0
    4.5542   -3.0542    0.0000 C   0  0  0  0  0  0           0  0  0
    4.4500   -4.6375    0.0000 C   0  0  0  0  0  0           0  0  0
    4.2917   -4.0542    0.0000 C   0  0  0  0  0  0           0  0  0
    4.7125   -3.6292    0.0000 C   0  0  0  0  0  0           0  0  0
    4.0250   -5.0625    0.0000 C   0  0  0  0  0  0           0  0  0
  2  3  1  0     0  0
  3  1  1  0     0  0
  4  5  1  0     0  0
  5  1  1  0     0  0
  6  1  1  0     0  0
  7  9  1  0     0  0
  8 12  2  0     0  0
  9  6  1  0     0  0
 10 23  1  0     0  0
 11  8  1  0     0  0
 12 19  1  0     0  0
 13  3  1  0     0  0
 14  4  1  0     0  0
 15  7  2  0     0  0
 16 10  2  0     0  0
 17 21  1  0     0  0
 18 17  2  0     0  0
 19  7  1  0     0  0
 20 10  1  0     0  0
 21  5  1  0     0  0
 22  8  1  0     0  0
 23 25  1  0     0  0
 24 18  1  0     0  0
 25 24  1  0     0  0
 26 22  1  0     0  0
 27 28  1  0     0  0
 28 29  1  0     0  0
 29 26  1  0     0  0
 30 27  1  0     0  0
  2  4  1  0     0  0
 13 14  1  0     0  0
M  END