
          11280715392D 1   1.00000     0.00000     0

 18 19  0     0  0            999 V2000
    4.1792   -6.0000    0.0000 N   0  0  0  0  0  0           0  0  0
    4.1750   -5.4000    0.0000 C   0  0  0  0  0  0           0  0  0
    4.7000   -6.3000    0.0000 C   0  0  0  0  0  0           0  0  0
    4.6917   -5.0917    0.0000 N   0  0  0  0  0  0           0  0  0
    4.6917   -4.4917    0.0000 N   0  0  0  0  0  0           0  0  0
    3.6542   -5.1000    0.0000 C   0  0  0  0  0  0           0  0  0
    5.2167   -5.9917    0.0000 N   0  0  0  0  0  0           0  0  0
    4.7000   -6.9000    0.0000 N   0  0  0  0  0  0           0  0  0
    3.6542   -4.5000    0.0000 C   0  0  0  0  0  0           0  0  0
    4.1667   -4.1917    0.0000 C   0  0  0  0  0  0           0  0  0
    3.1292   -5.4042    0.0000 C   0  0  0  0  0  0           0  0  0
    5.2167   -7.1917    0.0000 C   0  0  0  0  0  0           0  0  0
    3.1292   -4.1917    0.0000 C   0  0  0  0  0  0           0  0  0
    5.2250   -7.7917    0.0000 C   0  0  0  0  0  0           0  0  0
    5.7417   -8.0917    0.0000 C   0  0  0  0  0  0           0  0  0
    2.6167   -5.1042    0.0000 C   0  0  0  0  0  0           0  0  0
    5.7417   -8.6917    0.0000 C   0  0  0  0  0  0           0  0  0
    2.6167   -4.5000    0.0000 C   0  0  0  0  0  0           0  0  0
  2  1  1  0     0  0
  3  1  1  0     0  0
  4  2  2  0     0  0
  5  4  1  0     0  0
  6  2  1  0     0  0
  7  3  1  0     0  0
  8  3  2  0     0  0
  9  6  2  0     0  0
 10  9  1  0     0  0
 11  6  1  0     0  0
 12  8  1  0     0  0
 13  9  1  0     0  0
 14 12  1  0     0  0
 15 14  1  0     0  0
 16 11  2  0     0  0
 17 15  1  0     0  0
 18 16  1  0     0  0
 10  5  2  0     0  0
 18 13  2  0     0  0
M  END