
  Mrv0541 05211314572D          

 19 20  0  0  0  0            999 V2000
   -0.4093    0.2077    0.0000 C   0  0  0  0  0  0  0  0  0  0  0  0
    0.3051   -0.2048    0.0000 O   0  0  0  0  0  0  0  0  0  0  0  0
   -0.6915   -0.5675    0.0000 C   0  0  0  0  0  0  0  0  0  0  0  0
   -0.2302   -1.2515    0.0000 N   0  0  0  0  0  0  0  0  0  0  0  0
    0.3051    1.4452    0.0000 O   0  0  0  0  0  0  0  0  0  0  0  0
    1.0196    0.2077    0.0000 C   0  0  0  0  0  0  0  0  0  0  0  0
   -0.4093    1.0327    0.0000 C   0  0  0  0  0  0  0  0  0  0  0  0
   -1.4845   -0.7949    0.0000 N   0  0  0  0  0  0  0  0  0  0  0  0
    1.0196    1.0327    0.0000 C   0  0  0  0  0  0  0  0  0  0  0  0
   -1.2218    0.3510    0.0000 O   0  0  0  0  0  0  0  0  0  0  0  0
    4.6878    0.0000    0.0000 Cl  0  0  0  0  0  0  0  0  0  0  0  0
   -0.7381   -1.9016    0.0000 C   0  0  0  0  0  0  0  0  0  0  0  0
   -1.5133   -1.6194    0.0000 C   0  0  0  0  0  0  0  0  0  0  0  0
    1.7341   -0.2048    0.0000 C   0  0  0  0  0  0  0  0  0  0  0  0
    1.7341    1.4452    0.0000 C   0  0  0  0  0  0  0  0  0  0  0  0
   -1.7521   -0.2810    0.0000 C   0  0  0  0  0  0  0  0  0  0  0  0
   -2.5646   -0.1377    0.0000 C   0  0  0  0  0  0  0  0  0  0  0  0
    2.4486    0.2077    0.0000 C   0  0  0  0  0  0  0  0  0  0  0  0
    2.4486    1.0327    0.0000 C   0  0  0  0  0  0  0  0  0  0  0  0
  1  2  1  0  0  0  0
  1  3  1  0  0  0  0
  3  4  2  0  0  0  0
  2  6  1  0  0  0  0
  1  7  1  0  0  0  0
  5  7  1  0  0  0  0
  3  8  1  0  0  0  0
  5  9  1  0  0  0  0
  6  9  1  0  0  0  0
  1 10  1  0  0  0  0
  4 12  1  0  0  0  0
  8 13  1  0  0  0  0
 12 13  1  0  0  0  0
  6 14  2  0  0  0  0
  9 15  2  0  0  0  0
 10 16  1  0  0  0  0
 16 17  1  0  0  0  0
 14 18  1  0  0  0  0
 15 19  1  0  0  0  0
 18 19  2  0  0  0  0
M  END