
  SciTegic02271515152D

 33 35  0  0  0  0            999 V2000
   21.5483   -9.3415    0.0000 C   0  0
   21.5472  -10.1688    0.0000 C   0  0
   22.2620  -10.5817    0.0000 C   0  0
   22.9785  -10.1684    0.0000 C   0  0
   22.9755   -9.3379    0.0000 C   0  0
   22.2602   -8.9287    0.0000 C   0  0
   20.8338   -8.9292    0.0000 C   0  0
   20.1194   -9.3418    0.0000 N   0  0
   23.6895  -10.5778    0.0000 C   0  0
   23.7770  -11.3982    0.0000 C   0  0
   24.5842  -11.5684    0.0000 N   0  0
   24.9957  -10.8532    0.0000 C   0  0
   24.4426  -10.2411    0.0000 S   0  0
   19.4049   -8.9295    0.0000 C   0  0
   18.6905   -9.3422    0.0000 O   0  0
   19.4047   -8.1045    0.0000 C   0  0  2  0  0  0
   20.0774   -7.6205    0.0000 C   0  0
   19.8223   -6.8360    0.0000 C   0  0  2  0  0  0
   18.9972   -6.8362    0.0000 C   0  0
   18.7426   -7.6209    0.0000 N   0  0
   17.9577   -7.8750    0.0000 C   0  0
   17.3453   -7.3222    0.0000 C   0  0  2  0  0  0
   17.7853   -8.6817    0.0000 O   0  0
   20.3070   -6.1684    0.0000 O   0  0
   23.1648  -11.9512    0.0000 C   0  0
   17.5177   -6.5154    0.0000 C   0  0
   16.5604   -7.5762    0.0000 N   0  0
   15.9479   -7.0235    0.0000 C   0  0
   15.1630   -7.2776    0.0000 C   0  0
   16.1203   -6.2168    0.0000 O   0  0
   18.3025   -6.2614    0.0000 C   0  0
   16.9052   -5.9627    0.0000 C   0  0
   17.7290   -5.7124    0.0000 C   0  0
  1  2  2  0
  2  3  1  0
  3  4  2  0
  4  5  1  0
  5  6  2  0
  6  1  1  0
  1  7  1  0
  7  8  1  0
  9 10  2  0
 10 11  1  0
 11 12  2  0
 12 13  1  0
 13  9  1  0
  4  9  1  0
  8 14  1  0
 14 15  2  0
 16 14  1  1
 16 17  1  0
 17 18  1  0
 18 19  1  0
 19 20  1  0
 20 16  1  0
 20 21  1  0
 21 22  1  0
 21 23  2  0
 18 24  1  6
 10 25  1  0
 22 26  1  1
 22 27  1  0
 27 28  1  0
 28 29  1  0
 28 30  2  0
 26 31  1  0
 26 32  1  0
 26 33  1  0
M  END