
          11280715372D 1   1.00000     0.00000     0

 28 30  0     0  0            999 V2000
   -1.1958   -1.1875    0.0000 C   0  0  0  0  0  0           0  0  0
   -1.1958   -0.5875    0.0000 C   0  0  0  0  0  0           0  0  0
   -2.2375   -0.5875    0.0000 C   0  0  0  0  0  0           0  0  0
   -1.7125   -1.4875    0.0000 C   0  0  0  0  0  0           0  0  0
   -0.6833   -0.2875    0.0000 O   0  0  0  0  0  0           0  0  0
   -0.6833   -1.4875    0.0000 C   0  0  0  0  0  0           0  0  0
   -1.7125   -0.2875    0.0000 C   0  0  0  0  0  0           0  0  0
   -2.2375   -1.1792    0.0000 C   0  0  0  0  0  0           0  0  0
   -0.1583   -0.5875    0.0000 C   0  0  0  0  0  0           0  0  0
   -0.1583   -1.1792    0.0000 C   0  0  0  0  0  0           0  0  0
   -2.7750   -0.3000    0.0000 O   0  0  0  0  0  0           0  0  0
   -0.6833   -2.0875    0.0000 O   0  0  0  0  0  0           0  0  0
    0.3667   -0.2875    0.0000 C   0  0  0  0  0  0           0  0  0
   -1.7208    0.3125    0.0000 C   0  0  3  0  0  0           0  0  0
   -2.7583   -1.4750    0.0000 C   0  0  3  0  0  0           0  0  0
   -1.7083   -2.0875    0.0000 O   0  0  0  0  0  0           0  0  0
   -2.7833    0.3000    0.0000 C   0  0  3  0  0  0           0  0  0
    0.8875   -0.5875    0.0000 C   0  0  0  0  0  0           0  0  0
    0.3667    0.3208    0.0000 C   0  0  0  0  0  0           0  0  0
   -2.9208   -2.0542    0.0000 C   0  0  0  0  0  0           0  0  0
   -3.2833   -1.1750    0.0000 C   0  0  0  0  0  0           0  0  0
   -2.2375    0.6125    0.0000 C   0  0  0  0  0  0           0  0  0
   -1.2000    0.6250    0.0000 C   0  0  0  0  0  0           0  0  0
   -3.3000    0.6000    0.0000 C   0  0  0  0  0  0           0  0  0
   -2.3583    0.7250    0.0000 C   0  0  0  0  0  0           0  0  0
    0.8875    0.6208    0.0000 C   0  0  0  0  0  0           0  0  0
    1.4125   -0.2792    0.0000 C   0  0  0  0  0  0           0  0  0
    1.4125    0.3125    0.0000 C   0  0  0  0  0  0           0  0  0
  2  1  2  0     0  0
  3  8  1  0     0  0
  4  1  1  0     0  0
  5  2  1  0     0  0
  6  1  1  0     0  0
  7  2  1  0     0  0
  8  4  2  0     0  0
  9 10  2  0     0  0
 10  6  1  0     0  0
 11  3  1  0     0  0
 12  6  2  0     0  0
 13  9  1  0     0  0
 14  7  1  0     0  0
 15  8  1  0     0  0
 16  4  1  0     0  0
 17 11  1  0     0  0
 18 13  2  0     0  0
 19 13  1  0     0  0
 20 15  1  0     0  0
 21 15  1  0     0  0
 22 14  1  0     0  0
 23 14  1  0     0  0
 24 17  1  0     0  0
 25 17  1  0     0  0
 26 19  2  0     0  0
 27 18  1  0     0  0
 28 26  1  0     0  0
  3  7  2  0     0  0
  9  5  1  0     0  0
 28 27  2  0     0  0
M  END