
  SciTegic05071317032D

 36 34  0  0  0  0            999 V2000
   -0.1986  -25.8708    0.0000 C   0  0
   -0.1974  -26.6982    0.0000 C   0  0
    0.5205  -27.1110    0.0000 C   0  0
    1.2370  -26.6977    0.0000 C   0  0
    1.2342  -25.8672    0.0000 C   0  0
    0.5187  -25.4581    0.0000 C   0  0
    1.9470  -25.4520    0.0000 O   0  0
    2.6631  -25.8618    0.0000 C   0  0
    3.3760  -25.4466    0.0000 C   0  0
    4.0920  -25.8565    0.0000 C   0  0
    4.8049  -25.4412    0.0000 C   0  0
    5.5210  -25.8510    0.0000 C   0  0
    6.2338  -25.4359    0.0000 C   0  0
    6.9499  -25.8457    0.0000 C   0  0
    7.6628  -25.4304    0.0000 C   0  0
    8.3788  -25.8403    0.0000 C   0  0
    9.0918  -25.4251    0.0000 N   0  0
    9.8075  -25.8371    0.0000 C   0  0
   10.5183  -25.4254    0.0000 C   0  0
   10.5195  -24.6001    0.0000 N   0  0
    9.8036  -24.1881    0.0000 C   0  0
    9.0866  -24.6014    0.0000 C   0  0
   11.2339  -24.1876    0.0000 C   0  0
   11.9484  -24.6001    0.0000 C   0  0
   12.6629  -24.1876    0.0000 C   0  0
   13.3773  -24.6001    0.0000 C   0  0
   14.0918  -24.1877    0.0000 N   0  0
   14.0918  -23.3626    0.0000 C   0  0
   14.8063  -24.6002    0.0000 C   0  0
   14.8063  -25.4251    0.0000 C   0  0
   15.5207  -25.8377    0.0000 C   0  0
   15.5207  -26.6626    0.0000 C   0  0
   14.8063  -27.0751    0.0000 C   0  0
    9.3309  -27.4721    0.0000 Cl  0  0
   11.6089  -27.4313    0.0000 Cl  0  0
   11.0786  -28.8455    0.0000 Cl  0  0
  1  2  2  0
  2  3  1  0
  3  4  2  0
  4  5  1  0
  5  6  2  0
  6  1  1  0
  5  7  1  0
  7  8  1  0
  8  9  1  0
  9 10  1  0
 10 11  1  0
 11 12  1  0
 12 13  1  0
 13 14  1  0
 14 15  1  0
 15 16  1  0
 16 17  1  0
 17 18  1  0
 17 22  1  0
 18 19  1  0
 19 20  1  0
 20 21  1  0
 21 22  1  0
 20 23  1  0
 23 24  1  0
 24 25  1  0
 25 26  1  0
 26 27  1  0
 27 28  1  0
 27 29  1  0
 29 30  1  0
 30 31  1  0
 31 32  1  0
 32 33  1  0
M  END