
  SciTegic12011114592D

 23 25  0  0  0  0            999 V2000
    8.7505   -5.5047    0.0000 C   0  0
    8.0357   -5.9207    0.0000 C   0  0
    7.3251   -5.5047    0.0000 C   0  0
    8.7505   -4.6810    0.0000 O   0  0
    9.4653   -5.9207    0.0000 N   0  0
   10.1801   -5.5047    0.0000 C   0  0
    9.4653   -6.7445    0.0000 C   0  0
    5.8955   -7.1564    0.0000 N   0  0
    6.6103   -6.7445    0.0000 C   0  0
    6.6103   -5.9207    0.0000 C   0  0
    5.8955   -5.5047    0.0000 C   0  0
    5.1848   -5.9207    0.0000 C   0  0
    4.4701   -5.5047    0.0000 C   0  0
    3.7553   -5.9207    0.0000 C   0  0
    3.7553   -6.7445    0.0000 C   0  0
    4.4701   -7.1564    0.0000 C   0  0
    5.1848   -6.7445    0.0000 C   0  0
    7.3251   -7.1564    0.0000 N   0  0
   10.8952   -5.9212    0.0000 C   0  0
   11.6078   -5.5086    0.0000 C   0  0
   11.6092   -4.6813    0.0000 C   0  0
   10.8917   -4.2680    0.0000 C   0  0
   10.1727   -4.6823    0.0000 C   0  0
  5  6  1  0
  5  7  1  0
  8  9  2  0
  9 10  1  0
 10 11  2  0
 11 12  1  0
 12 13  2  0
 13 14  1  0
 14 15  2  0
 15 16  1  0
 16 17  2  0
  8 17  1  0
 12 17  1  0
  9 18  1  0
  3 10  1  0
  6 19  1  0
  1  2  1  0
  2  3  1  0
  1  4  2  0
  1  5  1  0
  6 23  1  0
 19 20  1  0
 20 21  1  0
 21 22  1  0
 22 23  1  0
M  END