
  SciTegic06051315212D

 32 35  0  0  0  0            999 V2000
   19.9785  -24.9202    0.0000 C   0  0
   19.9774  -25.7397    0.0000 C   0  0
   20.6854  -26.1487    0.0000 C   0  0
   21.3951  -25.7392    0.0000 C   0  0
   21.3922  -24.9166    0.0000 C   0  0
   20.6836  -24.5113    0.0000 C   0  0
   20.6812  -23.6941    0.0000 S   0  0
   21.3877  -23.2834    0.0000 N   0  0
   19.8850  -23.9008    0.0000 O   0  0
   20.2647  -22.9804    0.0000 O   0  0
   22.0984  -24.5053    0.0000 F   0  0
   19.2707  -24.5117    0.0000 F   0  0
   19.2693  -26.1477    0.0000 F   0  0
   22.1034  -26.1467    0.0000 F   0  0
   20.6852  -26.9659    0.0000 S   0  0
   21.3928  -27.3746    0.0000 C   0  0
   21.4810  -28.1855    0.0000 N   0  0
   22.2803  -28.3556    0.0000 C   0  0
   22.6891  -27.6479    0.0000 C   0  0
   22.1423  -27.0406    0.0000 N   0  0
   23.4989  -27.5634    0.0000 C   0  0
   23.9787  -28.2263    0.0000 C   0  0
   24.7907  -28.1414    0.0000 C   0  0
   25.1240  -27.3943    0.0000 C   0  0
   24.6392  -26.7313    0.0000 C   0  0
   23.8289  -26.8195    0.0000 C   0  0
   22.6125  -29.1008    0.0000 C   0  0
   22.1303  -29.7619    0.0000 C   0  0
   22.4618  -30.5080    0.0000 C   0  0
   23.2754  -30.5941    0.0000 C   0  0
   23.7562  -29.9282    0.0000 C   0  0
   23.4220  -29.1847    0.0000 C   0  0
  1  2  2  0
  2  3  1  0
  3  4  2  0
  4  5  1  0
  5  6  2  0
  6  1  1  0
  6  7  1  0
  7  8  1  0
  7  9  2  0
  7 10  2  0
  5 11  1  0
  1 12  1  0
  2 13  1  0
  4 14  1  0
  3 15  1  0
 15 16  1  0
 16 17  2  0
 17 18  1  0
 18 19  2  0
 19 20  1  0
 20 16  1  0
 21 22  2  0
 22 23  1  0
 23 24  2  0
 24 25  1  0
 25 26  2  0
 26 21  1  0
 19 21  1  0
 27 28  2  0
 28 29  1  0
 29 30  2  0
 30 31  1  0
 31 32  2  0
 32 27  1  0
 18 27  1  0
M  END