
  Mrv0541 04051115152D          

 22 24  0  0  0  0            999 V2000
    2.1476   -1.1476    0.0000 N   0  0  0  0  0  0  0  0  0  0  0  0
    2.1476   -0.3226    0.0000 C   0  0  0  0  0  0  0  0  0  0  0  0
    1.4331    0.0899    0.0000 N   0  0  0  0  0  0  0  0  0  0  0  0
    0.7186   -0.3226    0.0000 C   0  0  0  0  0  0  0  0  0  0  0  0
    0.7186   -1.1476    0.0000 C   0  0  0  0  0  0  0  0  0  0  0  0
    1.4331   -1.5601    0.0000 C   0  0  0  0  0  0  0  0  0  0  0  0
    1.4331   -2.3851    0.0000 N   0  0  0  0  0  0  0  0  0  0  0  0
   -0.0660   -1.4026    0.0000 C   0  0  0  0  0  0  0  0  0  0  0  0
   -0.5509   -0.7351    0.0000 C   0  0  0  0  0  0  0  0  0  0  0  0
   -0.0660   -0.0677    0.0000 N   0  0  0  0  0  0  0  0  0  0  0  0
   -0.3209    0.7169    0.0000 C   0  0  1  0  0  0  0  0  0  0  0  0
   -0.3209   -2.1872    0.0000 C   0  0  0  0  0  0  0  0  0  0  0  0
   -1.1279   -2.3587    0.0000 N   0  0  0  0  0  0  0  0  0  0  0  0
    0.2311   -2.8003    0.0000 O   0  0  0  0  0  0  0  0  0  0  0  0
   -1.1056    0.9719    0.0000 C   0  0  2  0  0  0  0  0  0  0  0  0
   -1.7730    0.4870    0.0000 O   0  0  0  0  0  0  0  0  0  0  0  0
   -1.1056    1.7969    0.0000 C   0  0  2  0  0  0  0  0  0  0  0  0
   -1.7730    2.2818    0.0000 O   0  0  0  0  0  0  0  0  0  0  0  0
   -0.3209    2.0518    0.0000 C   0  0  2  0  0  0  0  0  0  0  0  0
    0.1640    1.3844    0.0000 O   0  0  0  0  0  0  0  0  0  0  0  0
   -0.0660    2.8364    0.0000 C   0  0  0  0  0  0  0  0  0  0  0  0
   -0.6180    3.4495    0.0000 O   0  0  0  0  0  0  0  0  0  0  0  0
  2  1  2  0  0  0  0
  6  1  1  0  0  0  0
  2  3  1  0  0  0  0
  4  3  2  0  0  0  0
  4  5  1  0  0  0  0
  4 10  1  0  0  0  0
  5  6  2  0  0  0  0
  5  8  1  0  0  0  0
  6  7  1  0  0  0  0
  8  9  2  0  0  0  0
 12  8  1  0  0  0  0
  9 10  1  0  0  0  0
 11 10  1  1  0  0  0
 11 15  1  0  0  0  0
 11 20  1  0  0  0  0
 12 13  1  0  0  0  0
 12 14  2  0  0  0  0
 15 16  1  6  0  0  0
 15 17  1  0  0  0  0
 17 18  1  6  0  0  0
 17 19  1  0  0  0  0
 19 20  1  0  0  0  0
 19 21  1  1  0  0  0
 21 22  1  0  0  0  0
M  END