
          11280715362D 1   1.00000     0.00000     0

 31 34  0     0  0            999 V2000
   -0.7333    0.6750    0.0000 S   0  0  3  0  0  0           0  0  0
   -0.7333    1.5000    0.0000 N   0  0  0  0  0  0           0  0  0
   -2.1708    3.1500    0.0000 N   0  0  0  0  0  0           0  0  0
   -1.4500    2.7333    0.0000 N   0  0  3  0  0  0           0  0  0
   -1.4500    1.9083    0.0000 C   0  0  0  0  0  0           0  0  0
   -2.1708    3.9833    0.0000 C   0  0  0  0  0  0           0  0  0
   -0.7458    3.9833    0.0000 C   0  0  3  0  0  0           0  0  0
   -0.7458    3.1583    0.0000 C   0  0  0  0  0  0           0  0  0
   -0.7333   -0.1500    0.0000 C   0  0  0  0  0  0           0  0  0
    0.0667    0.4625    0.0000 O   0  0  0  0  0  0           0  0  0
   -1.4458    0.2708    0.0000 O   0  0  0  0  0  0           0  0  0
   -2.7500    4.5542    0.0000 C   0  0  0  0  0  0           0  0  0
   -0.1625    4.5625    0.0000 C   0  0  0  0  0  0           0  0  0
   -2.1625    1.4958    0.0000 N   0  0  0  0  0  0           0  0  0
   -1.4583   -0.5542    0.0000 C   0  0  0  0  0  0           0  0  0
   -0.0333   -0.5542    0.0000 C   0  0  0  0  0  0           0  0  0
   -2.5333    5.3542    0.0000 C   0  0  0  0  0  0           0  0  0
   -3.5458    4.3417    0.0000 C   0  0  0  0  0  0           0  0  0
   -3.9208    5.7167    0.0000 C   0  0  0  0  0  0           0  0  0
   -4.1333    4.9167    0.0000 C   0  0  0  0  0  0           0  0  0
   -3.1208    5.9375    0.0000 C   0  0  0  0  0  0           0  0  0
   -1.4583   -1.3750    0.0000 C   0  0  0  0  0  0           0  0  0
   -0.0333   -1.3792    0.0000 C   0  0  0  0  0  0           0  0  0
   -0.7458   -1.7917    0.0000 C   0  0  0  0  0  0           0  0  0
   -4.5000    6.3042    0.0000 Cl  0  0  0  0  0  0           0  0  0
    0.6292    4.3417    0.0000 C   0  0  0  0  0  0           0  0  0
   -0.3833    5.3542    0.0000 C   0  0  0  0  0  0           0  0  0
   -0.7500   -2.6167    0.0000 C   0  0  0  0  0  0           0  0  0
    1.2167    4.9292    0.0000 C   0  0  0  0  0  0           0  0  0
    0.2000    5.9375    0.0000 C   0  0  0  0  0  0           0  0  0
    1.0042    5.7167    0.0000 C   0  0  0  0  0  0           0  0  0
  2  1  1  0     0  0
  3  4  1  0     0  0
  4  5  1  0     0  0
  5  2  1  0     0  0
  6  3  2  0     0  0
  7  8  1  0     0  0
  8  4  1  0     0  0
  9  1  1  0     0  0
 10  1  2  0     0  0
 11  1  2  0     0  0
 12  6  1  0     0  0
 13  7  1  0     0  0
 14  5  2  0     0  0
 15  9  2  0     0  0
 16  9  1  0     0  0
 17 12  2  0     0  0
 18 12  1  0     0  0
 19 20  1  0     0  0
 20 18  2  0     0  0
 21 17  1  0     0  0
 22 15  1  0     0  0
 23 16  2  0     0  0
 24 23  1  0     0  0
 25 19  1  0     0  0
 26 13  2  0     0  0
 27 13  1  0     0  0
 28 24  1  0     0  0
 29 26  1  0     0  0
 30 27  2  0     0  0
 31 30  1  0     0  0
 24 22  2  0     0  0
  6  7  1  0     0  0
 19 21  2  0     0  0
 31 29  2  0     0  0
M  END