
  SciTegic12231509382D

 23 26  0  0  0  0            999 V2000
    5.0972    0.0717    0.0000 O   0  0
    5.0972    2.5467    0.0000 O   0  0
    2.2393   -0.7533    0.0000 O   0  0
    3.6682    0.0717    0.0000 N   0  0
    5.8116    0.4842    0.0000 C   0  0
    5.8116    1.3092    0.0000 C   0  0
    6.5261    0.0717    0.0000 C   0  0
    4.3827    0.4842    0.0000 C   0  0
    5.0972    1.7217    0.0000 C   0  0
    4.3827    1.3092    0.0000 C   0  0
    6.5261   -0.7533    0.0000 C   0  0
    6.5261    1.7217    0.0000 C   0  0
    7.2406    0.4842    0.0000 C   0  0
    7.2406    1.3092    0.0000 C   0  0
    2.9538    0.4842    0.0000 C   0  0
    3.6682   -0.7533    0.0000 C   0  0
    7.2406   -1.1658    0.0000 C   0  0
    5.8116   -1.1658    0.0000 C   0  0
    2.2393    0.0717    0.0000 C   0  0
    2.9538   -1.1658    0.0000 C   0  0
    7.2406   -1.9908    0.0000 C   0  0
    5.8116   -1.9908    0.0000 C   0  0
    6.5261   -2.4033    0.0000 C   0  0
  1  5  1  0
  1  8  1  0
  2  9  2  0
  3 19  1  0
  3 20  1  0
  4  8  1  0
  4 15  1  0
  4 16  1  0
  5  6  1  0
  5  7  2  0
  6  9  1  0
  6 12  2  0
  7 11  1  0
  7 13  1  0
  8 10  2  0
  9 10  1  0
 11 17  2  0
 11 18  1  0
 12 14  1  0
 13 14  2  0
 15 19  1  0
 16 20  1  0
 17 21  1  0
 18 22  2  0
 21 23  2  0
 22 23  1  0
M  END