
          11280715362D 1   1.00000     0.00000     0

 35 38  0     0  0            999 V2000
    3.0542   -1.8625    0.0000 S   0  0  3  0  0  0           0  0  0
    3.0542   -1.0375    0.0000 N   0  0  0  0  0  0           0  0  0
    1.6167    0.6125    0.0000 N   0  0  0  0  0  0           0  0  0
    2.3375    0.2000    0.0000 N   0  0  3  0  0  0           0  0  0
    2.3375   -0.6292    0.0000 C   0  0  0  0  0  0           0  0  0
    1.6167    1.4375    0.0000 C   0  0  0  0  0  0           0  0  0
    3.0417    1.4458    0.0000 C   0  0  3  0  0  0           0  0  0
    3.0417    0.6208    0.0000 C   0  0  0  0  0  0           0  0  0
    3.0292   -5.1542    0.0000 C   0  0  3  0  0  0           0  0  0
    3.0542   -2.6792    0.0000 C   0  0  0  0  0  0           0  0  0
    2.3417   -2.2667    0.0000 O   0  0  0  0  0  0           0  0  0
    3.8542   -2.0667    0.0000 O   0  0  0  0  0  0           0  0  0
    1.0375    2.0208    0.0000 C   0  0  0  0  0  0           0  0  0
    3.0417   -4.3292    0.0000 C   0  0  0  0  0  0           0  0  0
    3.6250    2.0250    0.0000 C   0  0  0  0  0  0           0  0  0
    1.6250   -1.0417    0.0000 S   0  0  0  0  0  0           0  0  0
    3.7542   -3.0917    0.0000 C   0  0  0  0  0  0           0  0  0
    2.3292   -3.0917    0.0000 C   0  0  0  0  0  0           0  0  0
    2.3292   -3.9125    0.0000 C   0  0  0  0  0  0           0  0  0
    3.7542   -3.9167    0.0000 C   0  0  0  0  0  0           0  0  0
    3.0292   -5.9792    0.0000 F   0  0  0  0  0  0           0  0  0
    2.2042   -5.1500    0.0000 F   0  0  0  0  0  0           0  0  0
    3.8542   -5.1667    0.0000 F   0  0  0  0  0  0           0  0  0
    0.2417    1.8083    0.0000 C   0  0  0  0  0  0           0  0  0
    1.2542    2.8208    0.0000 C   0  0  0  0  0  0           0  0  0
   -0.1333    3.1875    0.0000 C   0  0  0  0  0  0           0  0  0
    0.6667    3.4000    0.0000 C   0  0  0  0  0  0           0  0  0
   -0.3458    2.3958    0.0000 C   0  0  0  0  0  0           0  0  0
   -0.7125    3.7708    0.0000 Cl  0  0  0  0  0  0           0  0  0
    3.4042    2.8208    0.0000 C   0  0  0  0  0  0           0  0  0
    4.4167    1.8083    0.0000 C   0  0  0  0  0  0           0  0  0
    0.9042   -0.6292    0.0000 C   0  0  0  0  0  0           0  0  0
    3.9875    3.4000    0.0000 C   0  0  0  0  0  0           0  0  0
    5.0042    2.3958    0.0000 C   0  0  0  0  0  0           0  0  0
    4.7917    3.1875    0.0000 C   0  0  0  0  0  0           0  0  0
  2  1  1  0     0  0
  3  4  1  0     0  0
  4  5  1  0     0  0
  5  2  2  0     0  0
  6  3  2  0     0  0
  7  8  1  0     0  0
  8  4  1  0     0  0
  9 14  1  0     0  0
 10  1  1  0     0  0
 11  1  2  0     0  0
 12  1  2  0     0  0
 13  6  1  0     0  0
 14 19  2  0     0  0
 15  7  1  0     0  0
 16  5  1  0     0  0
 17 10  1  0     0  0
 18 10  2  0     0  0
 19 18  1  0     0  0
 20 17  2  0     0  0
 21  9  1  0     0  0
 22  9  1  0     0  0
 23  9  1  0     0  0
 24 13  1  0     0  0
 25 13  2  0     0  0
 26 27  2  0     0  0
 27 25  1  0     0  0
 28 24  2  0     0  0
 29 26  1  0     0  0
 30 15  1  0     0  0
 31 15  2  0     0  0
 32 16  1  0     0  0
 33 30  2  0     0  0
 34 31  1  0     0  0
 35 34  2  0     0  0
 20 14  1  0     0  0
  6  7  1  0     0  0
 28 26  1  0     0  0
 33 35  1  0     0  0
M  END