
  SciTegic04091414152D

 32 36  0  0  0  0            999 V2000
    8.1141   -5.9425    0.0000 C   0  0
    7.4954   -6.4744    0.0000 C   0  0  2  0  0  0
    7.6492   -7.2733    0.0000 C   0  0
    8.4347   -7.5176    0.0000 N   0  3
    9.0394   -7.0075    0.0000 C   0  0
    8.8861   -6.2021    0.0000 C   0  0
    7.7222   -6.6572    0.0000 C   0  0
    8.5181   -6.8414    0.0000 C   0  0
    6.7238   -6.2055    0.0000 O   0  0
    5.3162   -6.0349    0.0000 C   0  0
    4.7760   -6.6527    0.0000 C   0  0
    5.9753   -6.5279    0.0000 C   0  0
    4.5626   -5.7135    0.0000 C   0  0
    4.3361   -4.9270    0.0000 C   0  0
    4.8133   -4.2603    0.0000 C   0  0
    5.6273   -4.2263    0.0000 C   0  0
    6.1697   -4.8375    0.0000 C   0  0
    6.0305   -5.6452    0.0000 C   0  0
    3.9623   -6.5827    0.0000 C   0  0
    3.6397   -7.3372    0.0000 C   0  0
    4.2576   -7.8772    0.0000 C   0  0
    4.9619   -7.4564    0.0000 C   0  0
    5.8784   -7.3393    0.0000 O   0  0
    8.4900   -8.3329    0.0000 C   0  0
    9.2238   -8.6926    0.0000 C   0  0
    9.2792   -9.5079    0.0000 O   0  0
    9.9022   -8.2370    0.0000 N   0  0
   10.6360   -8.5967    0.0000 C   0  0
   10.7804   -9.4009    0.0000 C   0  0
   11.5894   -9.5162    0.0000 C   0  0
   11.9491   -8.7824    0.0000 O   0  0
   11.3623   -8.2137    0.0000 N   0  0
  1  2  1  0
  1  6  1  0
  2  3  1  0
  3  4  1  0
  4  5  1  0
  5  6  1  0
  1  7  1  0
  4  8  1  0
  7  8  1  0
  2  9  1  6
 11 10  1  0
 10 12  1  0
 13 14  1  0
 14 15  1  0
 15 16  1  0
 13 10  1  0
 16 17  1  0
 10 18  1  0
 17 18  1  0
 11 19  2  0
 19 20  1  0
 20 21  2  0
 21 22  1  0
 22 11  1  0
 12 23  2  0
 12  9  1  0
  4 24  1  0
 24 25  1  0
 25 26  2  0
 25 27  1  0
 27 28  1  0
 28 29  1  0
 29 30  2  0
 30 31  1  0
 31 32  1  0
 32 28  2  0
M  CHG  1   4   1
M  END