
  SciTegic04091415032D

 35 38  0  0  0  0            999 V2000
   11.4888   -5.9927    0.0000 C   0  0
   11.4876   -6.8164    0.0000 C   0  0
   12.1998   -7.2295    0.0000 C   0  0
   12.1980   -5.5838    0.0000 C   0  0
   12.9108   -5.9891    0.0000 C   0  0
   12.9115   -6.8122    0.0000 C   0  0
   13.6242   -7.2234    0.0000 N   0  0
   14.3366   -6.8085    0.0000 C   0  0
   14.3318   -5.9822    0.0000 C   0  0
   13.6186   -5.5789    0.0000 C   0  0
   10.7809   -5.5800    0.0000 C   0  0
   13.6143   -4.7576    0.0000 C   0  0
   14.3239   -4.3411    0.0000 O   0  0
   12.9003   -4.3486    0.0000 O   0  0
   15.0500   -7.2185    0.0000 C   0  0
   15.0532   -8.0398    0.0000 N   0  0
   15.7561   -6.8030    0.0000 O   0  0
   15.7625   -8.4456    0.0000 C   0  0  2  0  0  0
   15.7656   -9.2669    0.0000 C   0  0
   16.4727   -8.0343    0.0000 C   0  0
   17.1861   -8.4401    0.0000 C   0  0
   16.4791   -9.6769    0.0000 O   0  0
   15.0595   -9.6824    0.0000 O   0  0
   16.4822  -10.4982    0.0000 C   0  0
   17.1862   -9.2585    0.0000 C   0  0
   17.8988   -9.6683    0.0000 C   0  0
   18.6100   -9.2528    0.0000 C   0  0
   18.6042   -8.4273    0.0000 C   0  0
   17.8910   -8.0252    0.0000 C   0  0
   19.3240   -9.6618    0.0000 O   0  0
   10.7896   -4.7591    0.0000 C   0  0
   10.0867   -4.3424    0.0000 C   0  0
    9.3723   -4.7498    0.0000 C   0  0
    9.3694   -5.5739    0.0000 C   0  0
   10.0771   -5.9828    0.0000 C   0  0
  1  2  2  0
  2  3  1  0
  3  6  2  0
  5  4  2  0
  4  1  1  0
  5  6  1  0
  6  7  1  0
  7  8  2  0
  8  9  1  0
  9 10  2  0
 10  5  1  0
  1 11  1  0
 10 12  1  0
 12 13  2  0
 12 14  1  0
  8 15  1  0
 15 16  1  0
 15 17  2  0
 16 18  1  0
 18 19  1  1
 18 20  1  0
 20 21  1  0
 19 22  1  0
 19 23  2  0
 22 24  1  0
 21 25  2  0
 25 26  1  0
 26 27  2  0
 27 28  1  0
 28 29  2  0
 29 21  1  0
 27 30  1  0
 11 31  2  0
 31 32  1  0
 32 33  2  0
 33 34  1  0
 34 35  2  0
 35 11  1  0
M  END