
  CDK    9/16/09,10:8

 32 34  0  0  0  0  0  0  0  0999 V2000
    2.1875  -23.2250    0.0000 C   0  0  0  0  0  0  0  0  0  0  0  0
    2.1875  -24.0500    0.0000 C   0  0  0  0  0  0  0  0  0  0  0  0
    2.8995  -24.4583    0.0000 C   0  0  0  0  0  0  0  0  0  0  0  0
    2.8995  -22.8083    0.0000 C   0  0  0  0  0  0  0  0  0  0  0  0
    3.6115  -23.2250    0.0000 C   0  0  0  0  0  0  0  0  0  0  0  0
    3.6080  -24.0500    0.0000 C   0  0  0  0  0  0  0  0  0  0  0  0
    4.3168  -24.4632    0.0000 C   0  0  0  0  0  0  0  0  0  0  0  0
    5.0336  -24.0560    0.0000 C   0  0  0  0  0  0  0  0  0  0  0  0
    4.3122  -25.2882    0.0000 O   0  0  0  0  0  0  0  0  0  0  0  0
    4.3238  -22.8132    0.0000 C   0  0  0  0  0  0  0  0  0  0  0  0
    5.0395  -23.2320    0.0000 C   0  0  0  0  0  0  0  0  0  0  0  0
    5.7533  -20.3247    0.0000 C   0  0  0  0  0  0  0  0  0  0  0  0
    5.0385  -20.7438    0.0000 C   0  0  0  0  0  0  0  0  0  0  0  0
    5.0473  -21.5765    0.0000 C   0  0  0  0  0  0  0  0  0  0  0  0
    4.3246  -21.9864    0.0000 C   0  0  0  0  0  0  0  0  0  0  0  0
    4.3167  -23.6375    0.0000 H   0  0  0  0  0  0  0  0  0  0  0  0
    4.3207  -20.3371    0.0000 C   0  0  0  0  0  0  0  0  0  0  0  0
    4.3140  -19.5121    0.0000 C   0  0  0  0  0  0  0  0  0  0  0  0
    3.5962  -19.1054    0.0000 C   0  0  0  0  0  0  0  0  0  0  0  0
    3.5056  -18.2884    0.0000 O   0  0  0  0  0  0  0  0  0  0  0  0
    2.6972  -18.1284    0.0000 C   0  0  0  0  0  0  0  0  0  0  0  0
    2.2905  -18.8439    0.0000 C   0  0  0  0  0  0  0  0  0  0  0  0
    2.8476  -19.4479    0.0000 C   0  0  0  0  0  0  0  0  0  0  0  0
    2.3556  -17.3710    0.0000 O   0  0  0  0  0  0  0  0  0  0  0  0
    3.6042  -22.4000    0.0000 C   0  0  0  0  0  0  0  0  0  0  0  0
    2.6850  -20.2567    0.0000 C   0  0  0  0  0  0  0  0  0  0  0  0
    3.6000  -24.8708    0.0000 H   0  0  0  0  0  0  0  0  0  0  0  0
    3.1083  -25.2542    0.0000 C   0  0  0  0  0  0  0  0  0  0  0  0
    2.1792  -24.8667    0.0000 C   0  0  0  0  0  0  0  0  0  0  0  0
    5.4458  -22.5125    0.0000 C   0  0  0  0  0  0  0  0  0  0  0  0
    5.7500  -23.6417    0.0000 O   0  0  0  0  0  0  0  0  0  0  0  0
    1.4680  -24.4485    0.0000 O   0  0  0  0  0  0  0  0  0  0  0  0
  5 10  1  0  0  0  0 
 10 16  1  6  0  0  0 
  6  7  1  0  0  0  0 
 13 17  2  0  0  0  0 
  7  8  1  0  0  0  0 
 17 18  1  0  0  0  0 
  8 11  1  0  0  0  0 
 19 18  1  6  0  0  0 
 19 20  1  0  0  0  0 
  3  6  1  0  0  0  0 
  7  9  1  6  0  0  0 
 10 11  1  0  0  0  0 
  5  4  1  0  0  0  0 
 20 21  1  0  0  0  0 
 21 22  1  0  0  0  0 
 22 23  2  0  0  0  0 
 23 19  1  0  0  0  0 
  5  6  1  0  0  0  0 
 21 24  2  0  0  0  0 
  5 25  1  1  0  0  0 
  1  2  1  0  0  0  0 
 23 26  1  0  0  0  0 
  1  4  1  0  0  0  0 
  6 27  1  6  0  0  0 
  2  3  1  0  0  0  0 
  3 28  1  1  0  0  0 
 10 15  1  0  0  0  0 
  3 29  1  0  0  0  0 
 12 13  1  0  0  0  0 
 11 30  1  0  0  0  0 
 13 14  1  0  0  0  0 
 11 31  1  6  0  0  0 
 14 15  1  0  0  0  0 
 29 32  2  0  0  0  0 
M  END