
  CDK    9/16/09,9:46

 13 13  0  0  0  0  0  0  0  0999 V2000
   -3.7833    1.0167    0.0000 C   0  0  0  0  0  0  0  0  0  0  0  0
   -3.7833    0.1917    0.0000 C   0  0  0  0  0  0  0  0  0  0  0  0
   -3.0713   -0.2167    0.0000 C   0  0  0  0  0  0  0  0  0  0  0  0
   -2.3593    0.1917    0.0000 C   0  0  0  0  0  0  0  0  0  0  0  0
   -2.3593    1.0167    0.0000 C   0  0  0  0  0  0  0  0  0  0  0  0
   -3.0713    1.4333    0.0000 O   0  0  0  0  0  0  0  0  0  0  0  0
   -1.6436    1.4271    0.0000 O   0  0  0  0  0  0  0  0  0  0  0  0
   -1.6454   -0.2219    0.0000 O   0  0  0  0  0  0  0  0  0  0  0  0
   -3.0713   -1.0417    0.0000 O   0  0  0  0  0  0  0  0  0  0  0  0
   -4.4972   -0.2219    0.0000 O   0  0  0  0  0  0  0  0  0  0  0  0
   -4.4990    1.4271    0.0000 C   0  0  0  0  0  0  0  0  0  0  0  0
   -4.5014    2.2521    0.0000 O   0  0  0  0  0  0  0  0  0  0  0  0
   -1.6412    2.2521    0.0000 C   0  0  0  0  0  0  0  0  0  0  0  0
  5  7  1  1  0  0  0 
  1  2  1  0  0  0  0 
  4  8  1  1  0  0  0 
  1  6  1  0  0  0  0 
  3  9  1  1  0  0  0 
  2  3  1  0  0  0  0 
  2 10  1  1  0  0  0 
  3  4  1  0  0  0  0 
  1 11  1  1  0  0  0 
  4  5  1  0  0  0  0 
 11 12  1  0  0  0  0 
  5  6  1  0  0  0  0 
  7 13  1  0  0  0  0 
M  END