
          11280715402D 1   1.00000     0.00000     0

 36 40  0     0  0            999 V2000
    4.4667   -5.0792    0.0000 N   0  0  3  0  0  0           0  0  0
    4.3875   -5.9000    0.0000 C   0  0  0  0  0  0           0  0  0
    3.7167   -4.7417    0.0000 C   0  0  0  0  0  0           0  0  0
    8.7417   -5.0750    0.0000 C   0  0  0  0  0  0           0  0  0
    5.0042   -6.4500    0.0000 C   0  0  0  0  0  0           0  0  0
    8.3292   -3.8042    0.0000 N   0  0  0  0  0  0           0  0  0
    8.0750   -4.5917    0.0000 N   0  0  0  0  0  0           0  0  0
    9.1542   -3.8042    0.0000 N   0  0  0  0  0  0           0  0  0
    3.1667   -5.3500    0.0000 C   0  0  3  0  0  0           0  0  0
    9.4125   -4.5875    0.0000 N   0  0  0  0  0  0           0  0  0
    8.7542   -5.9000    0.0000 C   0  0  0  0  0  0           0  0  0
    3.5792   -6.0667    0.0000 C   0  0  0  0  0  0           0  0  0
    8.0417   -6.3125    0.0000 C   0  0  0  0  0  0           0  0  0
    4.8292   -7.2542    0.0000 C   0  0  0  0  0  0           0  0  0
    5.1875   -4.6667    0.0000 C   0  0  0  0  0  0           0  0  0
    7.3292   -5.9042    0.0000 C   0  0  0  0  0  0           0  0  0
    3.5500   -3.9375    0.0000 O   0  0  0  0  0  0           0  0  0
    4.0500   -7.5125    0.0000 O   0  0  0  0  0  0           0  0  0
    7.3292   -5.0750    0.0000 C   0  0  0  0  0  0           0  0  0
    6.6125   -6.3167    0.0000 C   0  0  0  0  0  0           0  0  0
    5.9000   -5.0750    0.0000 C   0  0  0  0  0  0           0  0  0
    5.4417   -7.8042    0.0000 O   0  0  0  0  0  0           0  0  0
    5.9000   -5.9042    0.0000 C   0  0  0  0  0  0           0  0  0
    6.6125   -4.6625    0.0000 C   0  0  0  0  0  0           0  0  0
    2.7417   -4.6375    0.0000 C   0  0  0  0  0  0           0  0  0
    2.9667   -6.0375    0.0000 C   0  0  0  0  0  0           0  0  0
    9.4667   -6.3042    0.0000 C   0  0  0  0  0  0           0  0  0
    8.0417   -7.1417    0.0000 C   0  0  0  0  0  0           0  0  0
    5.2792   -8.6167    0.0000 C   0  0  0  0  0  0           0  0  0
    2.0667   -4.4625    0.0000 C   0  0  0  0  0  0           0  0  0
    2.2042   -6.3125    0.0000 C   0  0  0  0  0  0           0  0  0
    9.4667   -7.1375    0.0000 C   0  0  0  0  0  0           0  0  0
    8.7542   -7.5500    0.0000 C   0  0  0  0  0  0           0  0  0
    5.8917   -9.1667    0.0000 C   0  0  0  0  0  0           0  0  0
    1.4542   -4.9792    0.0000 C   0  0  0  0  0  0           0  0  0
    1.5000   -5.8250    0.0000 C   0  0  0  0  0  0           0  0  0
  2  1  1  0     0  0
  3  1  1  0     0  0
  4 11  1  0     0  0
  5  2  2  0     0  0
  6  7  2  0     0  0
  7  4  1  0     0  0
  8 10  1  0     0  0
  9  3  1  0     0  0
 10  4  2  0     0  0
 11 13  2  0     0  0
 12  2  1  0     0  0
 13 16  1  0     0  0
 14  5  1  0     0  0
 15  1  1  0     0  0
 16 19  2  0     0  0
 17  3  2  0     0  0
 18 14  2  0     0  0
 19 24  1  0     0  0
 20 23  2  0     0  0
 21 15  1  0     0  0
 22 14  1  0     0  0
 23 21  1  0     0  0
 24 21  2  0     0  0
 25  9  1  0     0  0
 26  9  1  0     0  0
 27 11  1  0     0  0
 28 13  1  0     0  0
 29 22  1  0     0  0
 30 25  1  0     0  0
 31 26  1  0     0  0
 32 33  1  0     0  0
 33 28  2  0     0  0
 34 29  1  0     0  0
 35 30  1  0     0  0
 36 31  1  0     0  0
 12  9  1  0     0  0
 16 20  1  0     0  0
 36 35  1  0     0  0
 27 32  2  0     0  0
  6  8  1  0     0  0
M  END