
  SciTegic12231509382D

 18 19  0  0  0  0            999 V2000
    0.0000    0.7486    0.0000 C   0  0
   -1.2964    1.4973    0.0000 C   0  0
   -2.6111    0.7486    0.0000 C   0  0  1  0  0  0
    0.0000   -0.7486    0.0000 C   0  0
   -3.9122    1.4966    0.0000 N   0  0
    1.2964    1.4973    0.0000 C   0  0
   -2.6111   -0.7486    0.0000 C   0  0
   -1.2964   -1.4973    0.0000 C   0  0
    1.2964    2.6973    0.0000 O   0  0
    2.5929   -0.7486    0.0000 C   0  0
    1.2964   -1.4973    0.0000 C   0  0
   -5.2109    0.7445    0.0000 C   0  0
   -3.9177    2.9974    0.0000 C   0  0
    2.5929    0.7486    0.0000 C   0  0
   -6.5121    1.4924    0.0000 C   0  0
   -5.2197    3.7439    0.0000 C   0  0
   -7.5506    0.8910    0.0000 C   0  0
   -5.2241    4.9438    0.0000 C   0  0
  1  2  1  0
  2  3  1  0
  1  4  1  0
  3  5  1  6
  1  6  2  0
  3  7  1  0
  4  8  1  0
  7  8  1  0
  6  9  1  0
  4 11  2  0
 10 11  1  0
  5 12  1  0
  5 13  1  0
  6 14  1  0
 10 14  2  0
 12 15  1  0
 13 16  1  0
 15 17  1  0
 16 18  1  0
M  END