
  SciTegic04021211102D

 28 31  0  0  0  0            999 V2000
    1.4780  -28.8690    0.0000 C   0  0
    1.8852  -29.5818    0.0000 C   0  0
    2.7043  -29.5846    0.0000 C   0  0
    3.1172  -28.8753    0.0000 C   0  0
    2.7050  -28.1617    0.0000 C   0  0
    1.8871  -28.1625    0.0000 C   0  0
    3.9427  -28.8754    0.0000 C   0  0
    4.3543  -29.5935    0.0000 C   0  0
    5.1800  -29.5953    0.0000 C   0  0
    5.5953  -28.8796    0.0000 C   0  0
    4.3543  -28.1626    0.0000 C   0  0
    5.1775  -28.1615    0.0000 C   0  0
    5.5864  -27.4491    0.0000 C   0  0
    5.1732  -26.7375    0.0000 N   0  0
    4.3469  -26.7425    0.0000 N   0  0
    3.9417  -27.4553    0.0000 C   0  0
    6.4130  -27.4471    0.0000 N   0  0
    6.8244  -26.7303    0.0000 C   0  0
    7.6513  -26.7302    0.0000 C   0  0
    8.0627  -26.0142    0.0000 C   0  0
    7.6476  -25.2985    0.0000 C   0  0
    6.8168  -25.3032    0.0000 C   0  0
    6.4091  -26.0197    0.0000 C   0  0
    0.6514  -28.8666    0.0000 O   0  0
    8.0582  -24.5810    0.0000 C   0  0
    8.8847  -24.5779    0.0000 C   0  0
    9.2953  -23.8606    0.0000 N   0  0
    9.3007  -25.2922    0.0000 O   0  0
  1  2  2  0
 13 14  2  0
  3  4  2  0
 14 15  1  0
  7  8  2  0
 15 16  2  0
 16 11  1  0
 13 17  1  0
  8  9  1  0
 17 18  1  0
  4  5  1  0
 18 19  2  0
  9 10  2  0
 19 20  1  0
 10 12  1  0
 20 21  2  0
 11  7  1  0
 21 22  1  0
  4  7  1  0
 22 23  2  0
 23 18  1  0
  2  3  1  0
  1 24  1  0
  5  6  2  0
 21 25  1  0
 11 12  2  0
 25 26  1  0
  6  1  1  0
 26 27  1  0
 12 13  1  0
 26 28  2  0
M  END