
  CDK    9/16/09,9:54

 44 47  0  0  0  0  0  0  0  0999 V2000
   -2.7208   -8.0792    0.0000 C   0  0  0  0  0  0  0  0  0  0  0  0
   -2.7208   -8.9042    0.0000 C   0  0  0  0  0  0  0  0  0  0  0  0
   -2.0088   -9.3125    0.0000 C   0  0  0  0  0  0  0  0  0  0  0  0
   -1.2968   -8.9042    0.0000 C   0  0  0  0  0  0  0  0  0  0  0  0
   -1.2968   -8.0792    0.0000 O   0  0  0  0  0  0  0  0  0  0  0  0
   -2.0088   -7.6625    0.0000 C   0  0  0  0  0  0  0  0  0  0  0  0
   -2.0088   -6.8375    0.0000 C   0  0  0  0  0  0  0  0  0  0  0  0
   -1.2943   -6.4250    0.0000 O   0  0  0  0  0  0  0  0  0  0  0  0
   -3.4365   -7.6688    0.0000 O   0  0  0  0  0  0  0  0  0  0  0  0
   -3.4347   -9.3177    0.0000 O   0  0  0  0  0  0  0  0  0  0  0  0
   -4.1498   -8.9062    0.0000 C   0  0  0  0  0  0  0  0  0  0  0  0
   -4.8636   -9.3198    0.0000 C   0  0  0  0  0  0  0  0  0  0  0  0
   -5.5761   -8.9079    0.0000 C   0  0  0  0  0  0  0  0  0  0  0  0
   -6.2938   -9.3208    0.0000 C   0  0  0  0  0  0  0  0  0  0  0  0
   -6.2946  -10.1466    0.0000 C   0  0  0  0  0  0  0  0  0  0  0  0
   -5.5687  -10.5579    0.0000 C   0  0  0  0  0  0  0  0  0  0  0  0
   -4.8582  -10.1427    0.0000 C   0  0  0  0  0  0  0  0  0  0  0  0
   -2.0088  -10.1375    0.0000 O   0  0  0  0  0  0  0  0  0  0  0  0
   -0.5829   -9.3177    0.0000 S   0  0  0  0  0  0  0  0  0  0  0  0
    0.1321   -8.9062    0.0000 C   0  0  0  0  0  0  0  0  0  0  0  0
    0.8422   -9.3236    0.0000 O   0  0  0  0  0  0  0  0  0  0  0  0
    1.5552   -8.9157    0.0000 C   0  0  0  0  0  0  0  0  0  0  0  0
    1.5606   -8.0904    0.0000 C   0  0  0  0  0  0  0  0  0  0  0  0
    0.8469   -7.6746    0.0000 C   0  0  0  0  0  0  0  0  0  0  0  0
    0.1278   -8.0842    0.0000 C   0  0  0  0  0  0  0  0  0  0  0  0
    0.1250   -9.7292    0.0000 H   0  0  0  0  0  0  0  0  0  0  0  0
    2.2675   -9.3319    0.0000 C   0  0  0  0  0  0  0  0  0  0  0  0
    2.2632  -10.1569    0.0000 O   0  0  0  0  0  0  0  0  0  0  0  0
    2.2773   -7.6816    0.0000 O   0  0  0  0  0  0  0  0  0  0  0  0
    0.8509   -6.8496    0.0000 O   0  0  0  0  0  0  0  0  0  0  0  0
    1.5674   -6.4406    0.0000 C   0  0  0  0  0  0  0  0  0  0  0  0
    1.5714   -5.6156    0.0000 C   0  0  0  0  0  0  0  0  0  0  0  0
    2.2799   -6.8566    0.0000 O   0  0  0  0  0  0  0  0  0  0  0  0
   -0.5866   -7.6715    0.0000 O   0  0  0  0  0  0  0  0  0  0  0  0
   -4.1510   -8.0812    0.0000 O   0  0  0  0  0  0  0  0  0  0  0  0
    2.2878   -5.2105    0.0000 C   0  0  0  0  0  0  0  0  0  0  0  0
    2.2921   -4.3863    0.0000 C   0  0  0  0  0  0  0  0  0  0  0  0
    1.5791   -3.9695    0.0000 C   0  0  0  0  0  0  0  0  0  0  0  0
    0.8603   -4.3829    0.0000 C   0  0  0  0  0  0  0  0  0  0  0  0
    0.8595   -5.2058    0.0000 C   0  0  0  0  0  0  0  0  0  0  0  0
   -5.5646  -11.3829    0.0000 O   0  0  0  0  0  0  0  0  0  0  0  0
   -6.2814  -11.7990    0.0000 C   0  0  0  0  0  0  0  0  0  0  0  0
    3.0088   -3.9776    0.0000 O   0  0  0  0  0  0  0  0  0  0  0  0
    3.7211   -4.3939    0.0000 C   0  0  0  0  0  0  0  0  0  0  0  0
  3  4  1  0  0  0  0 
 10 11  1  0  0  0  0 
  4  5  1  0  0  0  0 
 11 12  1  0  0  0  0 
 20 25  1  0  0  0  0 
 21 22  1  0  0  0  0 
 22 23  1  0  0  0  0 
 23 24  1  0  0  0  0 
 24 25  1  0  0  0  0 
  5  6  1  0  0  0  0 
 20 26  1  6  0  0  0 
 12 13  2  0  0  0  0 
 22 27  1  1  0  0  0 
 27 28  1  0  0  0  0 
 13 14  1  0  0  0  0 
 23 29  1  1  0  0  0 
  6  7  1  1  0  0  0 
 24 30  1  1  0  0  0 
 14 15  2  0  0  0  0 
 30 31  1  0  0  0  0 
  1  2  1  0  0  0  0 
 31 32  1  0  0  0  0 
 15 16  1  0  0  0  0 
 31 33  2  0  0  0  0 
  7  8  1  0  0  0  0 
 25 34  1  6  0  0  0 
 16 17  2  0  0  0  0 
 11 35  2  0  0  0  0 
 17 12  1  0  0  0  0 
 32 36  2  0  0  0  0 
  1  6  1  0  0  0  0 
 36 37  1  0  0  0  0 
  3 18  1  6  0  0  0 
 37 38  2  0  0  0  0 
  1  9  1  1  0  0  0 
 38 39  1  0  0  0  0 
  4 19  1  1  0  0  0 
 39 40  2  0  0  0  0 
 40 32  1  0  0  0  0 
  2  3  1  0  0  0  0 
 16 41  1  0  0  0  0 
 19 20  1  0  0  0  0 
 41 42  1  0  0  0  0 
 20 21  1  0  0  0  0 
 37 43  1  0  0  0  0 
  2 10  1  1  0  0  0 
 43 44  1  0  0  0  0 
M  END