
  SciTegic12211612532D

 13 14  0  0  0  0            999 V2000
    1.7138   -1.2033    0.0000 N   0  0
    2.5889    0.0182    0.0000 C   0  0
    1.7138    1.2033    0.0000 C   0  0
    0.2917   -0.7475    0.0000 C   0  0
    0.2917    0.7475    0.0000 C   0  0
   -1.0028    1.5132    0.0000 C   0  0
   -2.3155    0.7475    0.0000 C   0  0
   -2.3155   -0.7475    0.0000 C   0  0
   -1.0028   -1.5132    0.0000 C   0  0
    2.1812    2.6271    0.0000 C   0  0
    1.3808    3.5211    0.0000 C   0  0
    3.3556    2.8737    0.0000 O   0  0
   -0.9991   -2.7132    0.0000 C   0  0
  4  1  1  0
  1  2  1  0
  2  3  2  0
  3  5  1  0
  4  5  2  0
  5  6  1  0
  6  7  2  0
  7  8  1  0
  8  9  2  0
  9  4  1  0
  3 10  1  0
 10 11  1  0
 10 12  2  0
  9 13  1  0
M  END