
  SciTegic01181116592D

 60 65  0  0  0  0            999 V2000
   14.3696   -5.4433    0.0000 C   0  0
   14.7907   -6.1555    0.0000 C   0  0
   14.3846   -6.8741    0.0000 C   0  0
   13.5575   -6.8819    0.0000 C   0  0
   13.1382   -6.1650    0.0000 C   0  0
   13.5467   -5.4492    0.0000 C   0  0
   13.1294   -4.7376    0.0000 N   0  0
   12.3085   -4.6564    0.0000 N   0  0
   12.1320   -3.8505    0.0000 C   0  0
   12.8440   -3.4336    0.0000 C   0  0
   13.4604   -3.9819    0.0000 C   0  0
   14.2808   -3.9836    0.0000 C   0  0
   14.6933   -3.2678    0.0000 C   0  0
   15.5175   -3.2680    0.0000 C   0  0
   15.9303   -3.9834    0.0000 C   0  0
   15.5128   -4.6999    0.0000 C   0  0
   14.6899   -4.6961    0.0000 C   0  0
   12.9253   -2.6126    0.0000 C   0  0
   11.4124   -3.4465    0.0000 C   0  0
   10.7028   -3.8674    0.0000 N   0  0
   11.4026   -2.6216    0.0000 O   0  0
   12.3132   -6.1694    0.0000 Cl  0  0
   14.8038   -7.5847    0.0000 Cl  0  0
   16.7553   -3.9851    0.0000 Cl  0  0
   -1.5404   -5.3433    0.0000 C   0  0
   -1.9616   -6.0555    0.0000 C   0  0
   -1.5555   -6.7741    0.0000 C   0  0
   -0.7284   -6.7819    0.0000 C   0  0
   -0.3090   -6.0650    0.0000 C   0  0
   -0.7175   -5.3492    0.0000 C   0  0
   -0.3003   -4.6376    0.0000 N   0  0
    0.5207   -4.5564    0.0000 N   0  0
    0.6971   -3.7505    0.0000 C   0  0
   -0.0149   -3.3336    0.0000 C   0  0
   -0.6312   -3.8819    0.0000 C   0  0
   -1.4516   -3.8836    0.0000 C   0  0
   -1.8641   -3.1678    0.0000 C   0  0
   -2.6883   -3.1680    0.0000 C   0  0
   -3.1011   -3.8834    0.0000 C   0  0
   -2.6836   -4.5999    0.0000 C   0  0
   -1.8607   -4.5961    0.0000 C   0  0
   -0.0961   -2.5126    0.0000 C   0  0
    1.4168   -3.3465    0.0000 C   0  0
    2.1264   -3.7674    0.0000 N   0  0
    1.4265   -2.5216    0.0000 O   0  0
    0.5159   -6.0694    0.0000 Cl  0  0
   -1.9746   -7.4847    0.0000 Cl  0  0
   -3.9261   -3.8851    0.0000 Cl  0  0
    2.8456   -3.3634    0.0000 C   0  0
    3.5552   -3.7843    0.0000 C   0  0
    4.2745   -3.3802    0.0000 C   0  0
    4.9840   -3.8011    0.0000 C   0  0
    5.7033   -3.3970    0.0000 C   0  0
    6.4129   -3.8179    0.0000 N   0  0
    7.1322   -3.4139    0.0000 C   0  0
    7.8417   -3.8348    0.0000 C   0  0
    8.5610   -3.4307    0.0000 C   0  0
    9.2706   -3.8516    0.0000 C   0  0
    9.9899   -3.4476    0.0000 C   0  0
    6.4032   -4.6429    0.0000 C   0  0
  1  2  2  0
 29 30  2  0
 30 25  1  0
 31 32  1  0
 14 15  2  0
  3  4  2  0
 15 16  1  0
 16 17  2  0
 32 33  2  0
 33 34  1  0
 34 35  2  0
 35 31  1  0
 30 31  1  0
 17 12  1  0
 11 12  1  0
 36 37  2  0
  4  5  1  0
 37 38  1  0
 10 18  1  0
 38 39  2  0
  2  3  1  0
 39 40  1  0
  9 19  1  0
 40 41  2  0
 41 36  1  0
 35 36  1  0
  8  9  2  0
 34 42  1  0
 19 20  1  0
 33 43  1  0
  9 10  1  0
 43 44  1  0
 19 21  2  0
 43 45  2  0
 10 11  2  0
 29 46  1  0
  5 22  1  0
 27 47  1  0
 11  7  1  0
 39 48  1  0
  3 23  1  0
 44 49  1  0
  6  7  1  0
 49 50  1  0
 15 24  1  0
 50 51  1  0
  5  6  2  0
 51 52  1  0
  6  1  1  0
 52 53  1  0
 25 26  2  0
 53 54  1  0
 12 13  2  0
 54 55  1  0
 26 27  1  0
 55 56  1  0
  7  8  1  0
 56 57  1  0
 27 28  2  0
 57 58  1  0
 13 14  1  0
 58 59  1  0
 59 20  1  0
 28 29  1  0
 54 60  1  0
M  END