
          11280714532D 1   1.00000     0.00000     0

 32 35  0     0  0            999 V2000
    8.6292   -3.6500    0.0000 C   0  0  0  0  0  0           0  0  0
    7.9125   -3.2292    0.0000 C   0  0  0  0  0  0           0  0  0
    8.6292   -4.4792    0.0000 C   0  0  0  0  0  0           0  0  0
    9.3500   -3.2417    0.0000 N   0  3  0  0  0  0           0  0  0
    7.1917   -3.6500    0.0000 C   0  0  0  0  0  0           0  0  0
    7.9042   -4.8917    0.0000 O   0  0  0  0  0  0           0  0  0
    7.1917   -4.4792    0.0000 C   0  0  0  0  0  0           0  0  0
    0.7667   -5.7042    0.0000 N   0  0  3  0  0  0           0  0  0
    6.4792   -4.8917    0.0000 C   0  0  0  0  0  0           0  0  0
    6.4792   -3.2375    0.0000 C   0  0  0  0  0  0           0  0  0
    2.1917   -4.8875    0.0000 N   0  0  3  0  0  0           0  0  0
   10.0625   -3.6542    0.0000 O   0  5  0  0  0  0           0  0  0
    9.3417   -4.9000    0.0000 O   0  0  0  0  0  0           0  0  0
    9.3500   -2.4125    0.0000 O   0  0  0  0  0  0           0  0  0
    7.9125   -2.4042    0.0000 O   0  0  0  0  0  0           0  0  0
    0.0500   -6.1167    0.0000 C   0  0  0  0  0  0           0  0  0
    5.7667   -4.4792    0.0000 C   0  0  0  0  0  0           0  0  0
    1.4792   -6.1167    0.0000 C   0  0  0  0  0  0           0  0  0
    0.7667   -4.8792    0.0000 C   0  0  0  0  0  0           0  0  0
    1.4792   -4.4667    0.0000 C   0  0  0  0  0  0           0  0  0
    2.1917   -5.7125    0.0000 C   0  0  0  0  0  0           0  0  0
    5.7667   -3.6500    0.0000 C   0  0  0  0  0  0           0  0  0
   -0.6625   -5.7000    0.0000 C   0  0  0  0  0  0           0  0  0
    2.9042   -4.4792    0.0000 C   0  0  0  0  0  0           0  0  0
    3.6167   -4.8917    0.0000 C   0  0  0  0  0  0           0  0  0
    5.0500   -4.8917    0.0000 O   0  0  0  0  0  0           0  0  0
    4.3375   -4.4792    0.0000 C   0  0  0  0  0  0           0  0  0
   -0.6583   -4.8750    0.0000 C   0  0  0  0  0  0           0  0  0
   -1.3750   -6.1042    0.0000 C   0  0  0  0  0  0           0  0  0
   -2.0875   -5.6917    0.0000 C   0  0  0  0  0  0           0  0  0
   -1.3708   -4.4542    0.0000 C   0  0  0  0  0  0           0  0  0
   -2.0833   -4.8667    0.0000 C   0  0  0  0  0  0           0  0  0
  2  1  2  0     0  0
  3  1  1  0     0  0
  4  1  1  0     0  0
  5  2  1  0     0  0
  6  3  1  0     0  0
  7  6  1  0     0  0
  8 18  1  0     0  0
  9  7  2  0     0  0
 10  5  2  0     0  0
 11 24  1  0     0  0
 12  4  1  0     0  0
 13  3  2  0     0  0
 14  4  2  0     0  0
 15  2  1  0     0  0
 16  8  1  0     0  0
 17  9  1  0     0  0
 18 21  1  0     0  0
 19 20  1  0     0  0
 20 11  1  0     0  0
 21 11  1  0     0  0
 22 10  1  0     0  0
 23 16  1  0     0  0
 24 25  1  0     0  0
 25 27  1  0     0  0
 26 17  1  0     0  0
 27 26  1  0     0  0
 28 23  2  0     0  0
 29 23  1  0     0  0
 30 29  2  0     0  0
 31 28  1  0     0  0
 32 30  1  0     0  0
  5  7  1  0     0  0
 22 17  2  0     0  0
 19  8  1  0     0  0
 31 32  2  0     0  0
M  CHG  2   4   1  12  -1
M  END