
  SciTegic06061310022D

 32 32  0  0  0  0            999 V2000
   -0.7716    1.9305    0.0000 C   0  0  2  0  0  0
   -0.0572    1.5180    0.0000 C   0  0  1  0  0  0
   -0.0572    0.6930    0.0000 C   0  0  1  0  0  0
   -0.7716    0.2805    0.0000 C   0  0  1  0  0  0
   -1.4861    0.6930    0.0000 C   0  0  1  0  0  0
   -1.4861    1.5180    0.0000 O   0  0
   -2.2006    0.2805    0.0000 O   0  0
   -0.7716   -0.5445    0.0000 O   0  0
    0.6573    0.2805    0.0000 O   0  0
    0.6573    1.9305    0.0000 O   0  0
   -0.7716    2.7555    0.0000 C   0  0
   -1.4861    3.1680    0.0000 O   0  0
   -2.9150    0.6930    0.0000 C   0  0
    0.6573   -0.5445    0.0000 C   0  0
    1.3718   -0.9570    0.0000 C   0  0
   -0.0572   -0.9570    0.0000 O   0  0
    1.3718   -1.7820    0.0000 C   0  0
    2.0863   -2.1945    0.0000 C   0  0
    2.8007   -1.7820    0.0000 C   0  0
    2.8007   -0.9570    0.0000 C   0  0
    2.0863   -0.5445    0.0000 C   0  0
   -1.4861   -0.9570    0.0000 P   0  0
   -1.4861   -1.7820    0.0000 O   0  0
   -2.2006   -0.5445    0.0000 O   0  0
    6.9920   -0.1021    0.0000 N   0  0
    7.8170   -0.1021    0.0000 C   0  0
    6.5795   -0.8165    0.0000 C   0  0
    6.5795    0.6124    0.0000 C   0  0
    5.7545   -0.8165    0.0000 C   0  0
    8.2295    0.6124    0.0000 C   0  0
    5.7545    0.6124    0.0000 C   0  0
    3.5152   -2.1945    0.0000 C   0  0
  1  2  1  0
 18 19  2  0
  3  9  1  6
 19 20  1  0
  1  6  1  0
 20 21  2  0
 21 15  1  0
  2 10  1  6
  8 22  1  0
  2  3  1  0
  1 11  1  6
 22 23  1  0
  3  4  1  0
 22 24  2  0
 11 12  1  0
  4  5  1  0
  7 13  1  0
  5  6  1  0
  9 14  1  0
 14 15  1  0
  5  7  1  6
 14 16  2  0
 15 17  2  0
  4  8  1  6
 17 18  1  0
 25 26  1  0
 25 27  1  0
 25 28  1  0
 27 29  1  0
 26 30  1  0
 28 31  1  0
 19 32  1  0
M  END