
  SciTegic06141115222D

 32 35  0  0  0  0            999 V2000
    5.2251   -4.2238    0.0000 C   0  0
    5.1357   -3.3981    0.0000 C   0  0
    5.8932   -3.0580    0.0000 C   0  0
    6.4509   -3.6734    0.0000 N   0  0
    6.0381   -4.3933    0.0000 N   0  0
    6.2281   -5.1976    0.0000 C   0  0
    7.0248   -5.4339    0.0000 C   0  0
    7.2173   -6.2405    0.0000 C   0  0
    6.6137   -6.8116    0.0000 C   0  0
    5.8151   -6.5705    0.0000 C   0  0
    5.6265   -5.7645    0.0000 C   0  0
    6.1472   -2.2674    0.0000 C   0  0
    5.5898   -1.6525    0.0000 N   0  0
    6.9585   -2.0923    0.0000 O   0  0
    5.8438   -0.8622    0.0000 N   0  0
    4.6100   -4.7780    0.0000 C   0  0
    4.7867   -5.5901    0.0000 C   0  0
    4.1725   -6.1471    0.0000 C   0  0
    3.3813   -5.8933    0.0000 C   0  0
    3.2080   -5.0772    0.0000 C   0  0
    3.8236   -4.5238    0.0000 C   0  0
    6.8048   -7.6192    0.0000 Cl  0  0
    2.7656   -6.4497    0.0000 Cl  0  0
    7.6273   -4.8632    0.0000 Cl  0  0
    4.4157   -2.9854    0.0000 S   0  3
    3.6981   -3.4027    0.0000 C   0  0
    5.2851   -0.2529    0.0000 C   0  0
    5.5359    0.5345    0.0000 C   0  0
    6.3466    0.7139    0.0000 C   0  0
    6.9061    0.0995    0.0000 C   0  0
    6.6548   -0.6942    0.0000 C   0  0
    4.4130   -2.1554    0.0000 O   0  5
  7  8  1  0
  3  4  2  0
 16 17  2  0
  8  9  2  0
 17 18  1  0
  4  5  1  0
 18 19  2  0
  9 10  1  0
 19 20  1  0
  5  1  1  0
 20 21  2  0
 21 16  1  0
  1 16  1  0
 10 11  2  0
  9 22  1  0
 11  6  1  0
 19 23  1  0
  5  6  1  0
  7 24  1  0
  1  2  2  0
  2 25  1  0
  3 12  1  0
 25 26  1  0
 15 27  1  0
 12 13  1  0
  6  7  2  0
 12 14  2  0
  2  3  1  0
 15 31  1  0
 27 28  1  0
 28 29  1  0
 29 30  1  0
 30 31  1  0
 13 15  1  0
 25 32  1  0
M  CHG  2  25   1  32  -1
M  END