
  SciTegic06051315212D

 37 43  0  0  0  0            999 V2000
    6.8075   -9.4192    0.0000 C   0  0
    6.8064  -10.2471    0.0000 N   0  0
    7.5217  -10.6603    0.0000 C   0  0
    8.2387  -10.2466    0.0000 C   0  0
    8.2359   -9.4156    0.0000 C   0  0
    7.5200   -9.0061    0.0000 C   0  0
    8.8877   -8.9087    0.0000 N   0  0
    9.6361   -7.7996    0.0000 N   0  0
    8.8599   -8.0826    0.0000 C   0  0
   10.1446   -8.4516    0.0000 C   0  0
    9.6805   -9.1334    0.0000 C   0  0
   10.0390   -9.8741    0.0000 C   0  0
   10.8615   -9.9343    0.0000 C   0  0
   11.3240   -9.2475    0.0000 C   0  0
   10.9629   -8.5095    0.0000 C   0  0
    7.5215  -11.4859    0.0000 N   0  0
    6.8064  -11.8985    0.0000 C   0  0  2  0  0  0
    8.1295   -7.7013    0.0000 C   0  0
    8.0987   -6.8751    0.0000 C   0  0
    6.7046   -7.7601    0.0000 C   0  0
    7.4347   -8.1410    0.0000 C   0  0
    6.6696   -6.9310    0.0000 C   0  0
    7.3715   -6.4912    0.0000 C   0  0
    7.3406   -5.6655    0.0000 C   0  0
    6.6086   -5.2785    0.0000 C   0  0
    5.9062   -5.7233    0.0000 C   0  0
    5.9405   -6.5476    0.0000 C   0  0
    6.0950  -11.4825    0.0000 C   0  0
    5.3804  -11.8944    0.0000 C   0  0
    5.3798  -12.7209    0.0000 C   0  0
    6.0997  -13.1337    0.0000 N   0  0
    6.8114  -12.7194    0.0000 C   0  0
    6.1025  -13.9593    0.0000 C   0  0
    5.3888  -14.3744    0.0000 O   0  0
    6.8188  -14.3697    0.0000 C   0  0
    7.2342  -15.0814    0.0000 C   0  0
    7.6447  -14.3650    0.0000 C   0  0
  1  2  2  0
  2  3  1  0
  3  4  2  0
  4  5  1  0
  5  6  2  0
  6  1  1  0
  5  7  1  0
  7 11  1  0
 10  8  1  0
  8  9  2  0
  9  7  1  0
 10 11  2  0
 11 12  1  0
 12 13  2  0
 13 14  1  0
 14 15  2  0
 15 10  1  0
  3 16  1  0
 17 16  1  1
 18 19  2  0
 19 23  1  0
 22 20  1  0
 20 21  2  0
 21 18  1  0
  9 18  1  0
 22 23  1  0
 23 24  2  0
 24 25  1  0
 25 26  2  0
 26 27  1  0
 27 22  2  0
 17 28  1  0
 28 29  1  0
 29 30  1  0
 30 31  1  0
 31 32  1  0
 17 32  1  0
 31 33  1  0
 33 34  2  0
 33 35  1  0
 36 35  1  0
 37 36  1  0
 35 37  1  0
M  END