
  SciTegic12131615082D

 11 11  0  0  0  0            999 V2000
    1.2990   -0.7500    0.0000 N   0  0
    1.2990    0.7500    0.0000 C   0  0
    0.0000    1.5000    0.0000 C   0  0
   -1.2990    0.7500    0.0000 C   0  0
   -1.2990   -0.7500    0.0000 N   0  0
    0.0000   -1.5000    0.0000 C   0  0
    2.3383    1.3500    0.0000 N   0  0
   -2.5988    1.5004    0.0000 C   0  0
   -2.5996    2.7004    0.0000 F   0  0
   -3.6378    0.9001    0.0000 F   0  0
   -3.6383    2.0999    0.0000 F   0  0
  1  2  2  0
  2  3  1  0
  3  4  2  0
  4  5  1  0
  5  6  2  0
  6  1  1  0
  2  7  1  0
  8  9  1  0
  8 10  1  0
  8 11  1  0
  4  8  1  0
M  END