
  SciTegic01161211242D

 16 15  0  0  0  0            999 V2000
    2.5973   -1.5031    0.0000 C   0  0  2  0  0  0
    2.5951   -3.0039    0.0000 C   0  0  2  0  0  0
    3.8933   -3.7570    0.0000 C   0  0
    1.2990   -0.7500    0.0000 C   0  0
    1.5548   -3.6021    0.0000 O   0  0
    3.8999   -0.7576    0.0000 C   0  0
    7.6972   -1.8789    0.0000 Cl  0  0
    4.9372   -1.3609    0.0000 N   0  0
    3.8916   -4.9570    0.0000 C   0  0
    4.9336   -3.1588    0.0000 C   0  0
    4.9316   -4.3586    0.0000 C   0  0
    1.2990    0.7500    0.0000 C   0  0
    0.0000   -1.5000    0.0000 C   0  0
   -1.2990   -0.7500    0.0000 C   0  0
    0.0000    1.5000    0.0000 C   0  0
   -1.2990    0.7500    0.0000 C   0  0
  1  2  1  0
  2  3  1  0
  1  4  1  6
  2  5  1  6
  1  6  1  0
  6  8  1  0
  3  9  1  0
  3 10  1  0
  3 11  1  0
  4 12  2  0
  4 13  1  0
 13 14  2  0
 12 15  1  0
 14 16  1  0
 15 16  2  0
M  END