
  SciTegic12231509382D

 36 39  0  0  0  0            999 V2000
    9.6931   -3.7519    0.0000 Cl  0  0
    9.7137   -6.6197    0.0000 Cl  0  0
    5.1704   -1.2952    0.0000 O   0  0
    5.1704   -2.9501    0.0000 O   0  0
    8.0588   -6.6402    0.0000 O   0  0
    8.0382   -3.7724    0.0000 N   0  0
    8.0382   -1.2952    0.0000 N   0  0
   10.1835   -3.3637    0.0000 N   0  0
    2.3128   -1.2952    0.0000 N   0  0
    0.8738   -0.4626    0.0000 N   0  0
    7.3187   -2.5287    0.0000 C   0  0
    8.0382   -2.9501    0.0000 C   0  0
    7.3187   -1.6961    0.0000 C   0  0
    8.7578   -2.5287    0.0000 C   0  0
    6.5991   -2.9501    0.0000 C   0  0
    5.8899   -2.5287    0.0000 C   0  0
    5.8899   -1.6961    0.0000 C   0  0
    6.5991   -1.2952    0.0000 C   0  0
    8.4596   -4.4817    0.0000 C   0  0
    8.7578   -1.6961    0.0000 C   0  0
    9.2820   -4.4817    0.0000 C   0  0
    8.0485   -5.1909    0.0000 C   0  0
    8.4699   -5.9208    0.0000 C   0  0
    9.4773   -2.9501    0.0000 C   0  0
    9.2922   -5.9105    0.0000 C   0  0
    9.7034   -5.1909    0.0000 C   0  0
    4.4611   -1.6961    0.0000 C   0  0
    4.4611   -2.5287    0.0000 C   0  0
    3.7416   -1.2952    0.0000 C   0  0
    7.2261   -6.6402    0.0000 C   0  0
    3.0323   -1.6961    0.0000 C   0  0
    2.3128   -0.4626    0.0000 C   0  0
    1.5932   -1.6961    0.0000 C   0  0
    1.5932   -0.0514    0.0000 C   0  0
    0.8738   -1.2952    0.0000 C   0  0
    0.0000    0.0000    0.0000 C   0  0
  1 21  1  0
  2 25  1  0
  3 17  1  0
  3 27  1  0
  4 16  1  0
  4 28  1  0
  5 23  1  0
  5 30  1  0
  6 12  1  0
  6 19  1  0
  7 13  1  0
  7 20  2  0
  8 24  3  0
  9 31  1  0
  9 32  1  0
  9 33  1  0
 10 34  1  0
 10 35  1  0
 10 36  1  0
 11 12  1  0
 11 13  1  0
 11 15  2  0
 12 14  2  0
 13 18  2  0
 14 20  1  0
 14 24  1  0
 15 16  1  0
 16 17  2  0
 17 18  1  0
 19 21  1  0
 19 22  2  0
 21 26  2  0
 22 23  1  0
 23 25  2  0
 25 26  1  0
 27 29  1  0
 29 31  1  0
 32 34  1  0
 33 35  1  0
M  END