
  SciTegic12011113442D

301313  0  0  0  0            999 V2000
    1.2165  -40.4938    0.0000 C   0  0
    1.7102  -41.1653    0.0000 O   0  0
    2.5059  -40.8989    0.0000 C   0  0
    3.1821  -41.3806    0.0000 O   0  0
    2.5059  -40.0597    0.0000 C   0  0
    3.1273  -39.5060    0.0000 C   0  0
    2.9676  -38.6775    0.0000 C   0  0
    2.1762  -38.4190    0.0000 C   0  0
    1.5305  -38.9720    0.0000 C   0  0
    1.7106  -39.8122    0.0000 C   0  0
    0.7964  -39.7741    0.0000 C   0  0
    1.2068  -39.0591    0.0000 C   0  0
    0.7951  -38.3213    0.0000 C   0  0
   -0.0507  -38.3192    0.0000 C   0  0
   -0.4762  -39.0585    0.0000 C   0  0
   -0.0567  -39.7951    0.0000 C   0  0
   -0.4646  -40.5062    0.0000 O   0  0
   -0.0394  -41.2506    0.0000 C   0  0
   -0.4523  -41.9596    0.0000 C   0  0
   -0.0297  -42.6824    0.0000 C   0  0
    0.8159  -42.6847    0.0000 C   0  0
    1.2418  -41.9596    0.0000 C   0  0
    0.8244  -41.2133    0.0000 C   0  0
    1.9990  -37.6088    0.0000 C   0  0
    2.5865  -37.0300    0.0000 O   0  0
    1.0018  -36.6076    0.0000 C   0  0  2  0  0  0
    2.3761  -36.2236    0.0000 O   0  0
    1.5769  -36.0161    0.0000 C   0  0
    0.1947  -36.3839    0.0000 C   0  0
   -0.0157  -35.5892    0.0000 C   0  0
   -0.8098  -35.3796    0.0000 S   0  0
   -1.0226  -34.5911    0.0000 C   0  0
    1.9424  -34.6490    0.0000 C   0  0  2  0  0  0
    0.9464  -33.6517    0.0000 O   0  0
    1.7271  -33.8526    0.0000 C   0  0
    2.7392  -34.8565    0.0000 C   0  0
    3.3264  -34.2775    0.0000 C   0  0
    4.1135  -34.4932    0.0000 C   0  0
    4.3387  -35.2896    0.0000 O   0  0
    2.1045  -32.4698    0.0000 C   0  0  2  0  0  0
    0.7329  -32.8498    0.0000 O   0  0
    1.3123  -32.2626    0.0000 C   0  0
    2.6916  -31.8826    0.0000 C   0  0
    0.2808  -31.2614    0.0000 C   0  0  2  0  0  0
   -0.7160  -30.2571    0.0000 O   0  0
    0.0602  -30.4727    0.0000 C   0  0
   -0.2938  -31.8482    0.0000 C   0  0  2  0  0  0
   -0.0793  -32.6407    0.0000 O   0  0
   -1.0968  -31.6284    0.0000 C   0  0
    0.6523  -29.8852    0.0000 N   0  0
    0.5287  -29.0679    0.0000 C   0  0  2  0  0  0
   -0.9233  -29.1037    0.0000 O   0  0
   -0.2079  -28.6832    0.0000 C   0  0
    1.2602  -28.6997    0.0000 C   0  0
    1.4722  -30.0084    0.0000 C   0  0
    1.8484  -29.2815    0.0000 C   0  0
    0.4951  -27.4644    0.0000 C   0  0  2  0  0  0
   -0.2225  -26.2185    0.0000 O   0  0
    0.4951  -26.6392    0.0000 C   0  0
    1.2070  -27.8608    0.0000 C   0  0
    1.9236  -27.4644    0.0000 C   0  0
    2.6335  -27.8608    0.0000 C   0  0
    1.9236  -26.6392    0.0000 C   0  0
    1.2148  -25.3924    0.0000 C   0  0  2  0  0  0
    2.6334  -25.3924    0.0000 O   0  0
    1.9232  -24.9878    0.0000 C   0  0
    0.4947  -24.9878    0.0000 C   0  0
    2.6207  -23.7416    0.0000 C   0  0  2  0  0  0
    1.9183  -22.5202    0.0000 O   0  0
    2.6207  -22.9244    0.0000 C   0  0
    3.3412  -24.1620    0.0000 C   0  0
    4.0578  -22.9481    0.0000 C   0  0
    4.0578  -23.7416    0.0000 C   0  0
    4.7810  -24.1737    0.0000 C   0  0
    5.4849  -23.7598    0.0000 C   0  0
    5.4849  -22.9537    0.0000 C   0  0
    4.7812  -22.5538    0.0000 C   0  0
    3.3408  -21.6968    0.0000 C   0  0  2  0  0  0
    4.7592  -21.6968    0.0000 O   0  0
    4.0492  -21.2763    0.0000 C   0  0
    2.6122  -21.2763    0.0000 C   0  0
    2.2144  -19.2008    0.0000 C   0  0
    3.0435  -19.1944    0.0000 N   0  0
    3.3064  -19.9599    0.0000 C   0  0
    2.6122  -20.4511    0.0000 C   0  0
    4.7543  -20.0489    0.0000 C   0  0  2  0  0  0
    4.0442  -18.8112    0.0000 O   0  0
    4.7543  -19.2237    0.0000 C   0  0
    5.4746  -20.4532    0.0000 C   0  0  1  0  0  0
    6.1912  -20.0489    0.0000 C   0  0
    5.4797  -17.9757    0.0000 C   0  0  2  0  0  0
    6.1879  -16.7625    0.0000 O   0  0
    6.1879  -17.5791    0.0000 C   0  0
    4.7592  -17.5791    0.0000 C   0  0
    4.0624  -16.3533    0.0000 C   0  0
    4.7592  -16.7625    0.0000 C   0  0
    5.4942  -16.3315    0.0000 C   0  0
    5.4942  -15.5157    0.0000 C   0  0
    4.7806  -15.1131    0.0000 C   0  0
    4.0828  -15.5254    0.0000 C   0  0
    6.8983  -17.9757    0.0000 N   0  0
    7.6477  -17.6615    0.0000 C   0  0  2  0  0  0
    7.2227  -16.2707    0.0000 O   0  0
    7.8181  -16.8577    0.0000 C   0  0
    8.1985  -18.2677    0.0000 C   0  0
    6.9977  -18.8147    0.0000 C   0  0
    7.7996  -18.9839    0.0000 C   0  0
    8.7779  -15.7908    0.0000 C   0  0  2  0  0  0
   10.1402  -16.1126    0.0000 O   0  0
    9.5732  -15.5252    0.0000 C   0  0
    8.1987  -15.2114    0.0000 C   0  0
    8.4144  -14.4165    0.0000 C   0  0
    7.8352  -13.8356    0.0000 C   0  0
    8.0485  -13.0403    0.0000 O   0  0
   10.5554  -14.5238    0.0000 C   0  0  2  0  0  0
   10.1916  -13.1444    0.0000 O   0  0
   10.7627  -13.7316    0.0000 C   0  0
   11.1429  -15.1034    0.0000 C   0  0  1  0  0  0
   10.9146  -15.9062    0.0000 C   0  0
   11.7913  -12.7156    0.0000 C   0  0  1  0  0  0
   13.1674  -13.0873    0.0000 O   0  0
   11.2084  -12.1401    0.0000 C   0  0
   12.5881  -12.5001    0.0000 C   0  0
   13.5966  -11.4801    0.0000 C   0  0  2  0  0  0
   13.2124  -10.1048    0.0000 O   0  0
   13.7918  -10.6910    0.0000 C   0  0
   14.1674  -12.0766    0.0000 C   0  0  1  0  0  0
   14.9642  -11.8488    0.0000 C   0  0
   13.9584  -12.8608    0.0000 C   0  0
   14.5352  -13.4398    0.0000 C   0  0
   14.8228   -9.6946    0.0000 C   0  0
   16.2025  -10.0562    0.0000 O   0  0
   15.6256   -9.4722    0.0000 C   0  0
   16.6230   -8.4630    0.0000 C   0  0  2  0  0  0
   16.2556   -7.0811    0.0000 O   0  0
   16.8429   -7.6574    0.0000 C   0  0
   17.2022   -9.0451    0.0000 C   0  0
   18.0016   -8.8352    0.0000 C   0  0
   16.9972   -9.8477    0.0000 C   0  0
   17.8430   -6.6620    0.0000 C   0  0
   19.2192   -7.0172    0.0000 O   0  0
   18.6381   -6.4389    0.0000 C   0  0
   19.6465   -5.4280    0.0000 C   0  0  1  0  0  0
   19.2812   -4.0552    0.0000 O   0  0
   20.2261   -6.0179    0.0000 C   0  0
   19.8641   -4.6284    0.0000 C   0  0
   20.6551   -4.4044    0.0000 N   0  0
   20.9543   -3.6573    0.0000 C   0  0  2  0  0  0
   19.6791   -2.9672    0.0000 O   0  0
   20.5041   -2.9672    0.0000 C   0  0
   21.7801   -3.6894    0.0000 C   0  0
   21.2942   -4.9310    0.0000 C   0  0
   21.9958   -4.4860    0.0000 C   0  0
  -24.3981  -14.3079    0.0000 C   0  0  2  0  0  0
  -23.0147  -13.9420    0.0000 O   0  0
  -23.5994  -14.5209    0.0000 C   0  0
  -24.9665  -14.8931    0.0000 C   0  0
  -24.7615  -15.6960    0.0000 C   0  0
  -25.3300  -16.2670    0.0000 C   0  0
  -25.1334  -17.0701    0.0000 C   0  0
  -22.6100  -15.5438    0.0000 C   0  0  2  0  0  0
  -22.9832  -16.9343    0.0000 O   0  0
  -22.3988  -16.3389    0.0000 C   0  0
  -22.0278  -14.9631    0.0000 C   0  0
  -21.2466  -15.1725    0.0000 C   0  0
  -20.6540  -14.5933    0.0000 C   0  0
  -19.8630  -14.8209    0.0000 C   0  0
  -23.3337  -18.2590    0.0000 C   0  0
  -21.4008  -17.3254    0.0000 C   0  0  2  0  0  0
  -20.0110  -16.9535    0.0000 O   0  0
  -20.5951  -17.5488    0.0000 C   0  0
  -21.9767  -17.9128    0.0000 C   0  0
  -21.7558  -18.7172    0.0000 C   0  0
  -22.3399  -19.2925    0.0000 C   0  0
  -19.5966  -18.5714    0.0000 C   0  0  2  0  0  0
  -19.9764  -19.9473    0.0000 O   0  0
  -19.3939  -19.3681    0.0000 C   0  0
  -19.0207  -17.9883    0.0000 C   0  0
  -18.2297  -18.1852    0.0000 C   0  0
  -17.6454  -17.6246    0.0000 C   0  0
  -16.8352  -17.8418    0.0000 C   0  0
  -18.3756  -20.3508    0.0000 C   0  0  1  0  0  0
  -16.9902  -19.9912    0.0000 O   0  0
  -18.9682  -20.9380    0.0000 C   0  0
  -17.5949  -20.5708    0.0000 C   0  0
  -17.4103  -21.3686    0.0000 N   0  0
  -16.6434  -21.7115    0.0000 C   0  0  2  0  0  0
  -15.9365  -20.4657    0.0000 O   0  0
  -15.9365  -21.2909    0.0000 C   0  0
  -16.7454  -22.5245    0.0000 C   0  0
  -17.9571  -21.9913    0.0000 C   0  0
  -17.5381  -22.6955    0.0000 C   0  0
  -14.4857  -21.3045    0.0000 C   0  0  2  0  0  0
  -13.7778  -22.5418    0.0000 O   0  0
  -13.7778  -21.7168    0.0000 C   0  0
  -14.4857  -20.4791    0.0000 C   0  0
  -13.7778  -20.0666    0.0000 C   0  0
  -13.7778  -19.2418    0.0000 C   0  0
  -13.0632  -18.8289    0.0000 C   0  0
  -12.3474  -21.7150    0.0000 C   0  0  2  0  0  0
  -11.6295  -20.4692    0.0000 O   0  0
  -11.6295  -21.2942    0.0000 C   0  0
  -12.3474  -22.5319    0.0000 C   0  0
  -11.6295  -22.9362    0.0000 C   0  0
  -11.6295  -23.7612    0.0000 C   0  0
  -10.9104  -24.1739    0.0000 C   0  0
  -10.1971  -21.2944    0.0000 C   0  0  2  0  0  0
   -9.4743  -22.5321    0.0000 O   0  0
   -9.4743  -21.7148    0.0000 C   0  0
  -10.1971  -20.4692    0.0000 C   0  0
   -9.4743  -20.0644    0.0000 C   0  0
   -9.4743  -19.2394    0.0000 C   0  0
   -8.7834  -18.8269    0.0000 C   0  0
   -6.6293  -24.9886    0.0000 C   0  0
   -8.0619  -21.6999    0.0000 C   0  0  2  0  0  0
   -7.3385  -20.4540    0.0000 O   0  0
   -7.3385  -21.2874    0.0000 C   0  0
   -8.0619  -22.5251    0.0000 C   0  0
   -7.3385  -22.9212    0.0000 C   0  0
   -7.3385  -23.7462    0.0000 C   0  0
   -5.9188  -21.2878    0.0000 C   0  0  2  0  0  0
   -5.2205  -22.5336    0.0000 O   0  0
   -5.2205  -21.7086    0.0000 C   0  0
   -5.9188  -20.4628    0.0000 C   0  0
   -5.2205  -20.0582    0.0000 C   0  0
   -5.2205  -19.2332    0.0000 C   0  0
   -4.4967  -18.8126    0.0000 C   0  0
   -3.7927  -21.6997    0.0000 C   0  0  2  0  0  0
   -3.0614  -20.4538    0.0000 O   0  0
   -3.0614  -21.2874    0.0000 C   0  0
   -3.7927  -22.5247    0.0000 C   0  0
   -2.3677  -22.5356    0.0000 C   0  0
   -3.0614  -22.9212    0.0000 C   0  0
   -3.0614  -23.7643    0.0000 C   0  0
   -2.3707  -24.1723    0.0000 C   0  0
   -1.6640  -23.7670    0.0000 C   0  0
   -1.6640  -22.9723    0.0000 C   0  0
   -1.6502  -21.2883    0.0000 C   0  0  1  0  0  0
   -1.6502  -20.4550    0.0000 C   0  0
   -0.9307  -21.7008    0.0000 C   0  0
   -0.2153  -21.2883    0.0000 O   0  0
   -0.2147  -22.9253    0.0000 C   0  0
   -0.2147  -23.7424    0.0000 C   0  0
    0.4947  -24.1628    0.0000 C   0  0
   -0.6723  -33.2199    0.0000 P   0  0
   -1.4732  -33.0041    0.0000 O   0  0
   -0.4809  -37.6102    0.0000 O   0  0
   -0.4502  -43.3988    0.0000 O   0  0
    1.2093  -37.3929    0.0000 N   0  0
    1.3479  -35.2383    0.0000 N   0  0
    4.6859  -33.9237    0.0000 N   0  0
    2.3077  -33.2730    0.0000 N   0  0
    2.4711  -31.0990    0.0000 O   0  0
    1.0823  -31.4699    0.0000 N   0  0
   -0.2225  -27.8580    0.0000 N   0  0
    1.2060  -26.2183    0.0000 N   0  0
    1.9142  -24.1624    0.0000 N   0  0
    3.3414  -22.5229    0.0000 N   0  0
    1.9494  -19.9832    0.0000 N   0  0
    4.0368  -20.4505    0.0000 N   0  0
    5.4643  -21.2835    0.0000 O   0  0
    5.4680  -18.8013    0.0000 N   0  0
    8.5892  -16.5913    0.0000 N   0  0
    7.0265  -14.0316    0.0000 N   0  0
    9.7644  -14.7270    0.0000 N   0  0
   11.9196  -14.8937    0.0000 O   0  0
   11.5655  -13.5144    0.0000 N   0  0
   12.7953  -11.7039    0.0000 N   0  0
   14.5957  -10.4901    0.0000 N   0  0
   15.8236   -8.6800    0.0000 N   0  0
   17.6337   -7.4472    0.0000 N   0  0
   18.8481   -5.6376    0.0000 N   0  0
  -24.6665  -13.4930    0.0000 N   0  0
  -25.7440  -17.6229    0.0000 N   0  0
  -23.4035  -15.3222    0.0000 N   0  0
  -19.3166  -14.2024    0.0000 N   0  0
  -23.1326  -19.0669    0.0000 N   0  0
  -22.7681  -17.6606    0.0000 N   0  0
  -24.1416  -18.0323    0.0000 N   0  0
  -21.6105  -16.5447    0.0000 N   0  0
  -20.3951  -18.3530    0.0000 N   0  0
  -16.2870  -17.2263    0.0000 N   0  0
  -18.6060  -19.5674    0.0000 N   0  0
  -15.2229  -21.6979    0.0000 N   0  0
  -13.0722  -17.9998    0.0000 N   0  0
  -13.0685  -21.2899    0.0000 N   0  0
  -10.9265  -24.9894    0.0000 N   0  0
  -10.9098  -21.6997    0.0000 N   0  0
   -8.7785  -17.9986    0.0000 N   0  0
   -6.6449  -24.1626    0.0000 N   0  0
   -7.3401  -25.3957    0.0000 N   0  0
   -5.9163  -25.3955    0.0000 N   0  0
   -8.7688  -21.2866    0.0000 N   0  0
   -6.6416  -21.7102    0.0000 N   0  0
   -4.5255  -18.0033    0.0000 N   0  0
   -4.5076  -21.2854    0.0000 N   0  0
   -2.3586  -21.6999    0.0000 N   0  0
   -0.9290  -22.5268    0.0000 N   0  0
   20.9209   -2.2558    0.0000 N   0  0
   -0.8691  -34.0160    0.0000 O   0  0
   -0.0785  -33.7840    0.0000 O   0  0
 33 36  1  6
 36 37  1  0
 37 38  1  0
 38 39  2  0
 40 42  1  0
 42 41  2  0
 40 43  1  0
 44 46  1  0
 46 45  2  0
 44 47  1  0
 47 48  1  6
 47 49  1  0
 50 51  1  0
 51 53  1  6
 53 52  2  0
 51 54  1  0
 55 56  1  0
 56 54  1  0
 55 50  1  0
 57 59  1  0
 59 58  2  0
 57 60  1  6
 60 61  1  0
 61 62  1  0
 61 63  1  0
 64 66  1  0
 66 65  2  0
 64 67  1  1
 68 70  1  0
 70 69  2  0
 68 71  1  6
 71 73  1  0
 72 73  2  0
 73 74  1  0
 74 75  2  0
 75 76  1  0
 76 77  2  0
 77 72  1  0
 78 80  1  0
 80 79  2  0
 78 81  1  1
 81 85  1  0
 82 83  2  0
 83 84  1  0
 84 85  2  0
 86 88  1  6
 88 87  2  0
 86 89  1  0
 89 90  1  0
 91 93  1  0
 93 92  2  0
 91 94  1  1
 94 96  1  0
 95 96  2  0
 96 97  1  0
 97 98  2  0
 98 99  1  0
 99100  2  0
100 95  1  0
101102  1  0
102104  1  6
104103  2  0
102105  1  0
106107  1  0
107105  1  0
106101  1  0
108110  1  0
110109  2  0
108111  1  1
111112  1  0
112113  1  0
113114  2  0
115117  1  6
117116  2  0
115118  1  0
118119  1  0
120123  1  0
123121  2  0
120122  1  1
124126  1  6
126125  2  0
124127  1  0
127128  1  1
127129  1  0
129130  1  0
131133  1  0
133132  2  0
134136  1  0
136135  2  0
134137  1  6
137138  1  0
137139  1  0
140142  1  0
142141  2  0
143146  1  0
146144  2  0
143145  1  6
147148  1  0
148150  1  6
150149  2  0
148151  1  0
152153  1  0
153151  1  0
152147  1  0
185186  1  0
154156  1  0
156155  2  0
154157  1  0
157158  1  0
158159  1  0
159160  1  0
161163  1  0
163162  2  0
161164  1  0
164165  1  0
165166  1  0
166167  1  0
169171  1  0
171170  2  0
169172  1  0
172173  1  0
173174  1  0
175177  1  0
177176  2  0
175178  1  0
178179  1  0
179180  1  0
180181  1  0
182185  1  0
185183  2  0
182184  1  6
186187  1  0
187189  1  6
189188  2  0
187190  1  0
191192  1  0
192190  1  0
191186  1  0
193195  1  0
195194  2  0
193196  1  1
196197  1  0
197198  1  0
198199  1  0
200202  1  0
202201  2  0
200203  1  6
203204  1  0
204205  1  0
205206  1  0
207209  1  0
209208  2  0
207210  1  1
210211  1  0
211212  1  0
212213  1  0
215217  1  0
217216  2  0
215218  1  6
218219  1  0
219220  1  0
221223  1  0
223222  2  0
221224  1  1
224225  1  0
225226  1  0
226227  1  0
228230  1  0
230229  2  0
228231  1  6
231233  1  0
232233  2  0
233234  1  0
234235  2  0
235236  1  0
236237  2  0
237232  1  0
238240  1  0
238239  1  1
240241  2  0
242243  1  0
243244  1  0
244 67  1  0
 48245  1  0
245246  2  0
  1  2  1  0
  2  3  1  0
  3  4  2  0
  3  5  1  0
  5  6  1  0
  6  7  2  0
  7  8  1  0
  8  9  2  0
  9 10  1  0
  5 10  2  0
  1 10  1  0
  1 11  1  0
 11 12  1  0
 12 13  2  0
 13 14  1  0
 14 15  2  0
 15 16  1  0
 11 16  2  0
 16 17  1  0
 17 18  1  0
 18 19  1  0
 19 20  2  0
 20 21  1  0
 21 22  2  0
 22 23  1  0
  1 23  1  0
 18 23  2  0
  8 24  1  0
 24 25  2  0
 46 50  1  0
 93101  1  0
146147  1  0
 26 28  1  0
 28 27  2  0
 26 29  1  1
150299  1  0
272143  1  0
142272  1  0
271140  1  0
136271  1  0
270134  1  0
133270  1  0
269131  1  0
126269  1  0
268124  1  0
123268  1  0
267120  1  0
117267  1  0
265115  1  0
110265  1  0
113264  1  0
118266  1  6
263108  1  0
104263  1  0
262 91  1  0
 88262  1  0
260 86  1  0
 80260  1  0
259 82  1  0
 85259  1  0
 89261  1  1
258 78  1  0
 70258  1  0
257 68  1  0
 66257  1  0
256 64  1  0
 59256  1  0
255 57  1  0
 53255  1  0
 43253  1  0
 44254  1  1
 42254  1  0
 40252  1  6
 35252  1  0
250 33  1  0
 28250  1  0
 38251  1  0
249 24  1  0
249 26  1  0
 14247  1  0
 20248  1  0
240298  1  0
298242  1  0
230297  1  0
297238  1  0
223296  1  0
296228  1  0
227295  1  0
217294  1  0
294221  1  0
214292  2  0
214291  1  0
290214  1  0
220290  1  0
209293  1  0
293215  1  0
213289  1  0
202288  1  0
288207  1  0
206287  1  0
195286  1  0
286200  1  0
199285  1  0
189284  1  0
284193  1  0
177283  1  0
283182  1  0
171281  1  0
175281  1  1
181282  1  0
163280  1  0
169280  1  6
277168  1  0
174277  1  0
168279  2  0
168278  1  0
160274  1  0
167276  1  0
156275  1  0
161275  1  1
154273  1  6
 29 30  1  0
 30 31  1  0
 31 32  1  0
 33 35  1  0
 35 34  2  0
245300  1  0
245301  1  0
M  END