
          02060813472D 1   1.00000     0.00000     0

 34 37  0     1  0            999 V2000
    7.8375  -26.8167    0.0000 C   0  0  0  0  0  0           0  0  0
    7.8375  -27.6417    0.0000 O   0  0  0  0  0  0           0  0  0
    8.5495  -28.0500    0.0000 C   0  0  0  0  0  0           0  0  0
    9.2615  -27.6417    0.0000 C   0  0  0  0  0  0           0  0  0
    9.2615  -26.8167    0.0000 N   0  0  3  0  0  0           0  0  0
    8.5495  -26.4000    0.0000 C   0  0  0  0  0  0           0  0  0
    9.9772  -26.4063    0.0000 C   0  0  0  0  0  0           0  0  0
   10.6905  -26.8209    0.0000 C   0  0  0  0  0  0           0  0  0
    9.9796  -25.5813    0.0000 O   0  0  0  0  0  0           0  0  0
   11.4062  -26.4104    0.0000 C   0  0  1  0  0  0           0  0  0
   11.4000  -25.5833    0.0000 C   0  0  0  0  0  0           0  0  0
   12.1114  -25.1655    0.0000 C   0  0  3  0  0  0           0  0  0
   12.8282  -25.5784    0.0000 C   0  0  0  0  0  0           0  0  0
   13.5375  -25.1641    0.0000 C   0  0  0  0  0  0           0  0  0
   13.5356  -24.3388    0.0000 C   0  0  0  0  0  0           0  0  0
   12.8182  -23.9294    0.0000 C   0  0  0  0  0  0           0  0  0
   12.1027  -24.3454    0.0000 C   0  0  0  0  0  0           0  0  0
   12.1215  -26.8213    0.0000 C   0  0  0  0  0  0           0  0  0
   12.1234  -27.6463    0.0000 O   0  0  0  0  0  0           0  0  0
   12.8351  -26.4072    0.0000 N   0  0  0  0  0  0           0  0  0
   13.5494  -26.8192    0.0000 C   0  0  2  0  0  0           0  0  0
   13.9550  -26.0959    0.0000 C   0  0  0  0  0  0           0  0  0
   14.3601  -25.3741    0.0000 N   0  0  0  0  0  0           0  0  0
   13.2233  -27.5742    0.0000 C   0  0  0  0  0  0           0  0  0
   13.9838  -28.0782    0.0000 C   0  0  0  0  0  0           0  0  0
   14.6419  -27.5806    0.0000 N   0  0  3  0  0  0           0  0  0
   14.3720  -26.8011    0.0000 C   0  0  0  0  0  0           0  0  0
   15.4313  -27.8205    0.0000 C   0  0  3  0  0  0           0  0  0
   15.9868  -27.2157    0.0000 C   0  0  0  0  0  0           0  0  0
   16.8117  -27.2722    0.0000 C   0  0  0  0  0  0           0  0  0
   15.5576  -28.6363    0.0000 C   0  0  0  0  0  0           0  0  0
   17.2826  -27.9481    0.0000 C   0  0  0  0  0  0           0  0  0
   16.2760  -29.0449    0.0000 C   0  0  0  0  0  0           0  0  0
   17.0421  -28.7361    0.0000 C   0  0  0  0  0  0           0  0  0
 15 16  1  0     0  0
 16 17  1  0     0  0
  1  6  1  0     0  0
 10 18  1  0     0  0
  7  9  2  0     0  0
 18 19  2  0     0  0
  2  3  1  0     0  0
 18 20  1  0     0  0
  8 10  1  0     0  0
 20 21  1  0     0  0
  3  4  1  0     0  0
 21 22  1  6     0  0
 10 11  1  1     0  0
 22 23  3  0     0  0
  4  5  1  0     0  0
 11 12  1  0     0  0
 12 13  1  0     0  0
  5  6  1  0     0  0
 24 25  1  0     0  0
 25 26  1  0     0  0
 26 27  1  0     0  0
 21 24  1  0     0  0
 21 27  1  0     0  0
 26 28  1  0     0  0
  5  7  1  0     0  0
 28 29  1  0     0  0
  1  2  1  0     0  0
 29 30  1  0     0  0
  7  8  1  0     0  0
 28 31  1  0     0  0
 12 17  1  0     0  0
 30 32  1  0     0  0
 13 14  1  0     0  0
 31 33  1  0     0  0
 14 15  1  0     0  0
 32 34  1  0     0  0
 33 34  1  0     0  0
M  END