
  CDK    9/16/09,10:1

 31 34  0  0  0  0  0  0  0  0999 V2000
   -2.2410   -0.8461    0.0000 C   0  0  0  0  0  0  0  0  0  0  0  0
   -3.0642   -0.8450    0.0000 C   0  0  0  0  0  0  0  0  0  0  0  0
   -3.4751   -1.5563    0.0000 C   0  0  0  0  0  0  0  0  0  0  0  0
   -3.0637   -2.2692    0.0000 C   0  0  0  0  0  0  0  0  0  0  0  0
   -2.2374   -2.2663    0.0000 C   0  0  0  0  0  0  0  0  0  0  0  0
   -1.8302   -1.5544    0.0000 C   0  0  0  0  0  0  0  0  0  0  0  0
   -0.4465   -0.8475    0.0000 C   0  0  0  0  0  0  0  0  0  0  0  0
   -0.4522   -1.6708    0.0000 C   0  0  0  0  0  0  0  0  0  0  0  0
    0.2568   -2.0855    0.0000 C   0  0  0  0  0  0  0  0  0  0  0  0
    0.9719   -1.6782    0.0000 C   0  0  0  0  0  0  0  0  0  0  0  0
    0.9737   -0.8518    0.0000 C   0  0  0  0  0  0  0  0  0  0  0  0
    0.2641   -0.4407    0.0000 N   0  0  0  0  0  0  0  0  0  0  0  0
   -1.7556   -0.1788    0.0000 C   0  0  0  0  0  0  0  0  0  0  0  0
   -0.9306   -0.1788    0.0000 C   0  0  0  0  0  0  0  0  0  0  0  0
   -0.6756    0.6059    0.0000 C   0  0  0  0  0  0  0  0  0  0  0  0
   -1.3431    1.0910    0.0000 C   0  0  0  0  0  0  0  0  0  0  0  0
   -2.0105    0.6059    0.0000 C   0  0  0  0  0  0  0  0  0  0  0  0
   -1.0052   -1.5520    0.0000 O   0  0  0  0  0  0  0  0  0  0  0  0
   -0.5905   -2.2653    0.0000 C   0  0  0  0  0  0  0  0  0  0  0  0
   -1.0009   -2.9810    0.0000 C   0  0  0  0  0  0  0  0  0  0  0  0
   -1.8256   -2.9780    0.0000 C   0  0  0  0  0  0  0  0  0  0  0  0
   -2.2359   -3.6930    0.0000 C   0  0  0  0  0  0  0  0  0  0  0  0
   -1.8212   -4.4073    0.0000 C   0  0  0  0  0  0  0  0  0  0  0  0
   -0.9918   -4.4021    0.0000 C   0  0  0  0  0  0  0  0  0  0  0  0
   -0.5852   -3.6866    0.0000 C   0  0  0  0  0  0  0  0  0  0  0  0
    0.2398   -3.6802    0.0000 F   0  0  0  0  0  0  0  0  0  0  0  0
   -2.2306   -5.1236    0.0000 F   0  0  0  0  0  0  0  0  0  0  0  0
   -4.3001   -1.5561    0.0000 Cl  0  0  0  0  0  0  0  0  0  0  0  0
    1.6890   -0.4406    0.0000 C   0  0  0  0  0  0  0  0  0  0  0  0
    2.4027   -0.8543    0.0000 O   0  0  0  0  0  0  0  0  0  0  0  0
    1.6904    0.3845    0.0000 O   0  0  0  0  0  0  0  0  0  0  0  0
 14 15  1  0  0  0  0 
 15 16  1  0  0  0  0 
 16 17  1  0  0  0  0 
 17 13  1  0  0  0  0 
 13  1  1  0  0  0  0 
 14  7  1  0  0  0  0 
  8  9  1  0  0  0  0 
  6 18  1  0  0  0  0 
  4  5  1  0  0  0  0 
 18 19  1  0  0  0  0 
  9 10  2  0  0  0  0 
 19 20  1  0  0  0  0 
  2  3  1  0  0  0  0 
 20 21  2  0  0  0  0 
 10 11  1  0  0  0  0 
 21 22  1  0  0  0  0 
  5  6  2  0  0  0  0 
 22 23  2  0  0  0  0 
 11 12  2  0  0  0  0 
 23 24  1  0  0  0  0 
 12  7  1  0  0  0  0 
 24 25  2  0  0  0  0 
 25 20  1  0  0  0  0 
 13 14  2  0  0  0  0 
 25 26  1  0  0  0  0 
  6  1  1  0  0  0  0 
 23 27  1  0  0  0  0 
  1  2  2  0  0  0  0 
  3 28  1  0  0  0  0 
  3  4  2  0  0  0  0 
 11 29  1  0  0  0  0 
  7  8  2  0  0  0  0 
 29 30  1  0  0  0  0 
 29 31  2  0  0  0  0 
M  END