
  CDK    8/10/10,12:22

 20 22  0  0  0  0  0  0  0  0999 V2000
    6.3357  -18.8785    0.0000 C   0  0  0  0  0  0  0  0  0  0  0  0
    5.6225  -19.2890    0.0000 C   0  0  0  0  0  0  0  0  0  0  0  0
    4.9093  -18.8785    0.0000 C   0  0  0  0  0  0  0  0  0  0  0  0
    6.3357  -18.0534    0.0000 C   0  0  0  0  0  0  0  0  0  0  0  0
    5.6225  -17.6387    0.0000 O   0  0  0  0  0  0  0  0  0  0  0  0
    4.9093  -18.0534    0.0000 C   0  0  0  0  0  0  0  0  0  0  0  0
    4.1962  -19.2890    0.0000 C   0  0  0  0  0  0  0  0  0  0  0  0
    4.1962  -17.6387    0.0000 C   0  0  0  0  0  0  0  0  0  0  0  0
    3.4830  -18.8785    0.0000 C   0  0  0  0  0  0  0  0  0  0  0  0
    5.6225  -20.1141    0.0000 O   0  0  0  0  0  0  0  0  0  0  0  0
    3.4830  -18.0534    0.0000 C   0  0  0  0  0  0  0  0  0  0  0  0
    7.0488  -17.6387    0.0000 C   0  0  0  0  0  0  0  0  0  0  0  0
    7.0488  -19.2890    0.0000 O   0  0  0  0  0  0  0  0  0  0  0  0
    4.1962  -20.1141    0.0000 O   0  0  0  0  0  0  0  0  0  0  0  0
    2.7698  -17.6387    0.0000 O   0  0  0  0  0  0  0  0  0  0  0  0
    7.0488  -16.8136    0.0000 C   0  0  0  0  0  0  0  0  0  0  0  0
    7.7703  -18.0534    0.0000 C   0  0  0  0  0  0  0  0  0  0  0  0
    8.4793  -17.6387    0.0000 C   0  0  0  0  0  0  0  0  0  0  0  0
    7.7703  -16.4114    0.0000 C   0  0  0  0  0  0  0  0  0  0  0  0
    8.4793  -16.8136    0.0000 C   0  0  0  0  0  0  0  0  0  0  0  0
  2  1  1  0  0  0  0 
  3  2  1  0  0  0  0 
  4  1  2  0  0  0  0 
  5  4  1  0  0  0  0 
  6  5  1  0  0  0  0 
  7  3  1  0  0  0  0 
  8  6  1  0  0  0  0 
  9  7  2  0  0  0  0 
 10  2  2  0  0  0  0 
 11  8  2  0  0  0  0 
 12  4  1  0  0  0  0 
 13  1  1  0  0  0  0 
 14  7  1  0  0  0  0 
 15 11  1  0  0  0  0 
 16 12  1  0  0  0  0 
 17 12  2  0  0  0  0 
 18 17  1  0  0  0  0 
 19 16  2  0  0  0  0 
 20 18  2  0  0  0  0 
  3  6  2  0  0  0  0 
 19 20  1  0  0  0  0 
  9 11  1  0  0  0  0 
M  END