
  SciTegic01161211212D

 17 16  0  0  0  0            999 V2000
   -3.0958   -1.8625    0.0000 P   0  0
    1.1917   -1.8625    0.0000 P   0  0
    0.4750   -2.2750    0.0000 C   0  0
   -2.3833   -2.2750    0.0000 C   0  0
   -3.8083   -2.2750    0.0000 O   0  0
   -2.5125   -1.2750    0.0000 O   0  0
    1.9042   -2.2750    0.0000 O   0  0
    1.7750   -1.2750    0.0000 O   0  0
    1.1917   -1.0375    0.0000 O   0  0
   -3.0958   -1.0375    0.0000 O   0  0
   -3.0958   -2.6792    0.0000 F   0  0
   -1.7958   -2.8542    0.0000 F   0  0
   -0.1125   -2.8542    0.0000 F   0  0
    1.0542   -2.8542    0.0000 F   0  0
   -1.6708   -1.8625    0.0000 C   0  0
   -0.2375   -1.8625    0.0000 C   0  0
   -0.9583   -2.2750    0.0000 C   0  0
  2  3  1  0
  3 16  1  0
  4  1  1  0
  5  1  1  0
  6  1  1  0
  7  2  1  0
  8  2  1  0
  9  2  2  0
 10  1  2  0
 11  4  1  0
 12  4  1  0
 13  3  1  0
 14  3  1  0
 15  4  1  0
 16 17  1  0
 17 15  1  0
M  END