
          05270816392D 1   1.00000     0.00000     0

 33 38  0     1  0            999 V2000
   -4.3649    1.9846    0.0000 C   0  0  0  0  0  0           0  0  0
   -4.3662    1.1616    0.0000 C   0  0  0  0  0  0           0  0  0
   -2.9416    1.9886    0.0000 C   0  0  0  0  0  0           0  0  0
   -3.6506    2.3974    0.0000 C   0  0  0  0  0  0           0  0  0
   -2.9384    1.1621    0.0000 C   0  0  0  0  0  0           0  0  0
   -3.6499    0.7477    0.0000 C   0  0  0  0  0  0           0  0  0
   -3.6512   -0.0745    0.0000 C   0  0  0  0  0  0           0  0  0
   -2.9382   -0.4884    0.0000 C   0  0  0  0  0  0           0  0  0
   -4.9821    0.6096    0.0000 N   0  0  0  0  0  0           0  0  0
   -4.4356   -0.3290    0.0000 C   0  0  0  0  0  0           0  0  0
   -2.2237    0.7500    0.0000 C   0  0  2  0  0  0           0  0  0
   -2.2229   -0.0779    0.0000 C   0  0  2  0  0  0           0  0  0
   -1.5095   -0.4888    0.0000 N   0  0  3  0  0  0           0  0  0
   -0.7924   -0.0764    0.0000 C   0  0  0  0  0  0           0  0  0
   -0.7933    0.7514    0.0000 C   0  0  1  0  0  0           0  0  0
   -1.5113    1.1669    0.0000 C   0  0  0  0  0  0           0  0  0
   -2.2321   -0.8984    0.0000 H   0  0  0  0  0  0           0  0  0
   -2.2321    1.5766    0.0000 H   0  0  0  0  0  0           0  0  0
   -1.5099   -1.3138    0.0000 C   0  0  0  0  0  0           0  0  0
   -0.0789    1.1639    0.0000 C   0  0  0  0  0  0           0  0  0
   -0.0789    1.9889    0.0000 O   0  0  0  0  0  0           0  0  0
    0.6357    0.7514    0.0000 N   0  0  3  0  0  0           0  0  0
    0.6305   -0.0789    0.0000 C   0  0  0  0  0  0           0  0  0
    1.3409   -0.4913    0.0000 C   0  0  0  0  0  0           0  0  0
    2.0578   -0.0823    0.0000 N   0  0  3  0  0  0           0  0  0
    2.0597    0.7437    0.0000 C   0  0  0  0  0  0           0  0  0
    1.3449    1.1607    0.0000 C   0  0  0  0  0  0           0  0  0
    2.7707   -0.4974    0.0000 C   0  0  0  0  0  0           0  0  0
    2.7626   -1.3213    0.0000 C   0  0  0  0  0  0           0  0  0
    3.4748   -1.7363    0.0000 C   0  0  0  0  0  0           0  0  0
    4.1918   -1.3265    0.0000 C   0  0  0  0  0  0           0  0  0
    4.1922   -0.4972    0.0000 C   0  0  0  0  0  0           0  0  0
    3.4795   -0.0859    0.0000 N   0  0  0  0  0  0           0  0  0
 13 14  1  0     0  0
 14 15  1  0     0  0
 15 16  1  0     0  0
  6  7  1  0     0  0
 12 17  1  1     0  0
  7  8  1  0     0  0
 11 18  1  6     0  0
  8 12  1  0     0  0
 13 19  1  0     0  0
  3  4  2  0     0  0
 15 20  1  1     0  0
  2  9  1  0     0  0
 20 21  2  0     0  0
  4  1  1  0     0  0
 20 22  1  0     0  0
 22 23  1  0     0  0
  7 10  2  0     0  0
  9 10  1  0     0  0
 11 12  1  0     0  0
  5  6  2  0     0  0
  2  6  1  0     0  0
 22 27  1  0     0  0
 23 24  1  0     0  0
 24 25  1  0     0  0
 25 26  1  0     0  0
 26 27  1  0     0  0
 25 28  1  0     0  0
  5  3  1  0     0  0
 28 29  2  0     0  0
  1  2  2  0     0  0
 29 30  1  0     0  0
  5 11  1  0     0  0
 30 31  2  0     0  0
 11 16  1  0     0  0
 31 32  1  0     0  0
 12 13  1  0     0  0
 32 33  2  0     0  0
 33 28  1  0     0  0
M  END