
  SciTegic12161614542D

 25 28  0  0  0  0            999 V2000
   -0.9674    2.4458    0.0000 N   0  0
    0.8944    2.4276    0.0000 C   0  0
    1.2777    0.9674    0.0000 C   0  0
    0.0000    0.2373    0.0000 C   0  0
    0.0000   -1.2229    0.0000 C   0  0
   -1.2594   -1.9530    0.0000 C   0  0
   -2.5371   -1.2229    0.0000 C   0  0
   -2.5371    0.2373    0.0000 C   0  0
   -1.2594    0.9674    0.0000 C   0  0
    1.2777   -1.9530    0.0000 C   0  0
    2.5553   -1.2229    0.0000 C   0  0
    2.5553    0.2373    0.0000 C   0  0
   -1.2504   -3.4542    0.0000 S   0  0
    0.0535   -4.1975    0.0000 N   0  0
    1.6320    3.3741    0.0000 O   0  0
   -1.9486    3.5729    0.0000 C   0  0
   -1.5609    4.7086    0.0000 C   0  0
   -2.2861   -4.0602    0.0000 O   0  0
   -1.2436   -4.6542    0.0000 O   0  0
    0.0626   -5.6983    0.0000 C   0  0
    1.3647   -6.4431    0.0000 C   0  0
    1.3708   -7.9431    0.0000 C   0  0
    0.0748   -8.6984    0.0000 C   0  0
   -1.2273   -7.9537    0.0000 C   0  0
   -1.2334   -6.4537    0.0000 C   0  0
  1  2  1  0
  2  3  1  0
  3  4  1  0
  4  5  1  0
  5  6  2  0
  6  7  1  0
  7  8  2  0
  8  9  1  0
  1  9  1  0
  4  9  2  0
 10 11  2  0
 11 12  1  0
  3 12  2  0
  5 10  1  0
 13 14  1  0
  6 13  1  0
  2 15  2  0
 16 17  1  0
  1 16  1  0
 13 18  2  0
 13 19  2  0
 14 20  1  0
 20 21  1  0
 20 25  1  0
 21 22  1  0
 22 23  1  0
 23 24  1  0
 24 25  1  0
M  END