
  SciTegic01091216402D

 60 61  0  0  0  0            999 V2000
   -0.4447    2.8053    0.0000 Na  0  3
    5.4495    1.9773    0.0000 O   0  0
    1.1312   -0.4462    0.0000 C   0  0  2  0  0  0
    1.8405   -0.8632    0.0000 C   0  0  2  0  0  0
    2.5545   -0.4633    0.0000 C   0  0  1  0  0  0
    2.5654    0.3594    0.0000 O   0  0
    1.8561    0.7806    0.0000 C   0  0  1  0  0  0
    1.1359    0.3749    0.0000 C   0  0  2  0  0  0
    0.4228    0.7970    0.0000 O   0  0
    1.8654    1.6076    0.0000 C   0  0
    1.1535    2.0272    0.0000 O   0  0
    3.2622   -0.8831    0.0000 O   0  0
    0.4112   -0.8519    0.0000 O   0  0
    1.8319   -1.6903    0.0000 O   0  0
   -1.7164   -0.4489    0.0000 C   0  0  1  0  0  0
   -1.7164   -1.2759    0.0000 C   0  0  1  0  0  0
   -1.0020   -1.6832    0.0000 C   0  0  2  0  0  0
   -0.2878   -1.2759    0.0000 C   0  0
   -0.2887   -0.4466    0.0000 C   0  0  2  0  0  0
   -1.0020   -0.0291    0.0000 O   0  0
   -0.2907    0.3811    0.0000 C   0  0
   -1.0084    0.7950    0.0000 O   0  0
   -1.0020   -2.5103    0.0000 O   0  0
   -2.4285   -1.6884    0.0000 N   0  0
   -2.4303   -0.0353    0.0000 C   0  0  1  0  0  0
   -2.4327    0.7917    0.0000 C   0  0  1  0  0  0
   -2.4273   -2.5155    0.0000 C   0  0
   -3.1435   -2.9321    0.0000 C   0  0
   -1.7140   -2.9300    0.0000 O   0  0
   -3.1459   -0.4530    0.0000 O   0  0
   -1.7206    0.3782    0.0000 H   0  0
   -3.1508    1.2010    0.0000 C   0  0
   -1.7213    1.2052    0.0000 O   0  0
   -0.2950    1.2094    0.0000 O   0  5
    3.9838   -0.4802    0.0000 C   0  0  2  0  0  0
    4.6921   -0.9032    0.0000 C   0  0  2  0  0  0
    5.4116   -0.5037    0.0000 C   0  0  2  0  0  0
    5.4256    0.3236    0.0000 O   0  0
    4.7139    0.7498    0.0000 C   0  0  1  0  0  0
    3.9882    0.3446    0.0000 C   0  0  2  0  0  0
    3.9774   -1.3050    0.0000 H   0  0
    3.2758    0.7678    0.0000 O   0  0
    4.7264    1.5768    0.0000 C   0  0
    6.1219   -0.9262    0.0000 O   0  0
    4.6791   -1.7302    0.0000 N   0  0
    5.3852   -2.1527    0.0000 C   0  0
    5.3722   -2.9755    0.0000 C   0  0
    6.1042   -1.7525    0.0000 O   0  0
    6.8398   -0.5242    0.0000 C   0  0  1  0  0  0
    7.5470   -0.9449    0.0000 C   0  0  2  0  0  0
    6.8505    0.2987    0.0000 C   0  0
    7.5363   -1.7677    0.0000 N   0  0
    8.2650   -0.5427    0.0000 C   0  0
    8.9722   -0.9634    0.0000 O   0  0
    8.2758    0.2801    0.0000 O   0  0
    9.6902   -0.5614    0.0000 C   0  0
    8.2435   -2.1884    0.0000 C   0  0
    8.2328   -3.0112    0.0000 C   0  0
    8.9614   -1.7863    0.0000 O   0  0
   -3.1552    2.0239    0.0000 O   0  0
  7  8  1  0
 15 31  1  1
  3  4  1  0
 26 32  1  0
  8  9  1  1
 26 33  1  1
 19 13  1  0
 21 34  1  0
  7 10  1  1
 35 12  1  0
 35 36  1  0
 15 20  1  0
 16 17  1  0
 17 18  1  0
 18 19  1  0
 19 20  1  0
 35 40  1  0
 36 37  1  0
 37 38  1  0
 38 39  1  0
 39 40  1  0
 35 41  1  6
 19 21  1  1
 40 42  1  1
 10 11  1  0
 39 43  1  1
 43  2  1  0
 21 22  2  0
 37 44  1  6
  3  8  1  0
 36 45  1  6
 17 23  1  6
 45 46  1  0
  5 12  1  1
 46 47  1  0
 16 24  1  1
 46 48  2  0
  4  5  1  0
 44 49  1  0
 15 25  1  0
 49 50  1  0
  3 13  1  1
 49 51  1  6
 25 26  1  0
 50 52  1  1
  5  6  1  0
 50 53  1  0
 24 27  1  0
 53 54  1  0
  4 14  1  6
 53 55  2  0
 27 28  1  0
 54 56  1  0
 15 16  1  0
 52 57  1  0
 27 29  2  0
 57 58  1  0
  6  7  1  0
 57 59  2  0
 25 30  1  6
 32 60  1  0
M  CHG  2   1   1  34  -1
M  END