
  SciTegic07101214422D

 22 24  0  0  0  0            999 V2000
   13.3152   -6.5166    0.0000 C   0  0
   13.3141   -7.3440    0.0000 C   0  0
   14.0289   -7.7569    0.0000 N   0  0
   14.7453   -7.3435    0.0000 C   0  0
   14.7425   -6.5130    0.0000 N   0  0
   14.0271   -6.1039    0.0000 N   0  0
   15.4605   -7.7549    0.0000 N   0  0
   12.6007   -6.1043    0.0000 C   0  0
   12.5993   -7.7559    0.0000 C   0  0
   12.6039   -5.2784    0.0000 C   0  0
   11.8902   -4.8661    0.0000 C   0  0
   11.1748   -5.2788    0.0000 C   0  0
   11.1777   -6.1081    0.0000 C   0  0
   11.8920   -6.5166    0.0000 C   0  0
   11.8868   -7.3414    0.0000 C   0  0
   11.1725   -7.7527    0.0000 C   0  0
   11.1714   -8.5785    0.0000 C   0  0
   11.8905   -8.9915    0.0000 C   0  0
   12.6019   -8.5778    0.0000 C   0  0
   11.8904   -4.0411    0.0000 C   0  0
   10.4648   -6.5233    0.0000 C   0  0
   10.4597   -4.8675    0.0000 O   0  0
 10 11  1  0
  5  6  2  0
 11 12  2  0
  6  1  1  0
 12 13  1  0
  1  2  2  0
 13 14  2  0
 14  8  1  0
  4  7  1  0
  9 15  2  0
  3  4  2  0
 15 16  1  0
  1  8  1  0
 16 17  2  0
 17 18  1  0
  2  9  1  0
 18 19  2  0
 19  9  1  0
  4  5  1  0
 11 20  1  0
  8 10  2  0
 13 21  1  0
  2  3  1  0
 12 22  1  0
M  END