
          11280715102D 1   1.00000     0.00000     0

 13 13  0     0  0            999 V2000
    4.2792   -3.2167    0.0000 C   0  0  0  0  0  0           0  0  0
    4.2792   -3.8167    0.0000 C   0  0  3  0  0  0           0  0  0
    3.7542   -2.9167    0.0000 C   0  0  0  0  0  0           0  0  0
    4.8000   -4.1167    0.0000 C   0  0  0  0  0  0           0  0  0
    3.7542   -4.1167    0.0000 C   0  0  0  0  0  0           0  0  0
    3.2417   -3.2167    0.0000 C   0  0  0  0  0  0           0  0  0
    4.8000   -4.7167    0.0000 O   0  0  0  0  0  0           0  0  0
    2.7250   -2.9167    0.0000 O   0  0  0  0  0  0           0  0  0
    3.2417   -3.8167    0.0000 C   0  0  0  0  0  0           0  0  0
    5.3167   -3.8167    0.0000 O   0  0  0  0  0  0           0  0  0
    4.8000   -2.9125    0.0000 C   0  0  0  0  0  0           0  0  0
    5.8375   -4.1167    0.0000 C   0  0  0  0  0  0           0  0  0
    6.3542   -3.8167    0.0000 C   0  0  0  0  0  0           0  0  0
  2  1  1  0     0  0
  3  1  2  0     0  0
  4  2  1  0     0  0
  5  2  1  0     0  0
  6  3  1  0     0  0
  7  4  2  0     0  0
  8  6  2  0     0  0
  9  6  1  0     0  0
 10  4  1  0     0  0
 11  1  1  0     0  0
 12 10  1  0     0  0
 13 12  1  0     0  0
  9  5  1  0     0  0
M  END