
          11280715302D 1   1.00000     0.00000     0

 21 24  0     0  0            999 V2000
   12.5292   -5.4750    0.0000 C   0  0  0  0  0  0           0  0  0
   12.1917   -6.2250    0.0000 C   0  0  0  0  0  0           0  0  0
   11.9125   -4.9167    0.0000 C   0  0  0  0  0  0           0  0  0
   11.3667   -6.1375    0.0000 N   0  0  0  0  0  0           0  0  0
   11.1917   -5.3292    0.0000 C   0  0  0  0  0  0           0  0  0
   13.2417   -5.0625    0.0000 C   0  0  0  0  0  0           0  0  0
   16.5875   -5.5750    0.0000 N   0  0  0  0  0  0           0  0  0
   10.4792   -4.9125    0.0000 C   0  0  0  0  0  0           0  0  0
   11.9125   -4.0875    0.0000 C   0  0  0  0  0  0           0  0  0
   13.9542   -5.4750    0.0000 C   0  0  0  0  0  0           0  0  0
   14.6667   -5.0667    0.0000 C   0  0  3  0  0  0           0  0  0
   15.9667   -5.2292    0.0000 C   0  0  3  0  0  0           0  0  0
   16.1792   -4.8625    0.0000 C   0  0  3  0  0  0           0  0  0
   13.2417   -4.2375    0.0000 O   0  0  0  0  0  0           0  0  0
   15.4667   -5.2792    0.0000 C   0  0  0  0  0  0           0  0  0
   15.2542   -5.6500    0.0000 C   0  0  0  0  0  0           0  0  0
   10.4792   -4.0792    0.0000 C   0  0  0  0  0  0           0  0  0
   11.2000   -3.6667    0.0000 C   0  0  0  0  0  0           0  0  0
   15.9625   -4.4042    0.0000 C   0  0  0  0  0  0           0  0  0
   16.1750   -4.0375    0.0000 C   0  0  0  0  0  0           0  0  0
    9.7667   -3.6667    0.0000 O   0  0  0  0  0  0           0  0  0
  2  1  2  0     0  0
  3  1  1  0     0  0
  4  2  1  0     0  0
  5  3  1  0     0  0
  6  1  1  0     0  0
  7 12  1  0     0  0
  8  5  2  0     0  0
  9  3  2  0     0  0
 10  6  1  0     0  0
 11 10  1  0     0  0
 12 16  1  0     0  0
 13 15  1  0     0  0
 14  6  2  0     0  0
 15 11  1  0     0  0
 16 11  1  0     0  0
 17 18  2  0     0  0
 18  9  1  0     0  0
 19 12  1  0     0  0
 20 13  1  0     0  0
 21 17  1  0     0  0
  4  5  1  0     0  0
 17  8  1  0     0  0
  7 13  1  0     0  0
 20 19  1  0     0  0
M  END