
  SciTegic01181116592D

 22 23  0  0  0  0            999 V2000
   -2.6848   -1.3166    0.0000 C   0  0
   -2.6859   -2.1440    0.0000 C   0  0
   -1.9711   -2.5569    0.0000 C   0  0
   -1.2547   -2.1435    0.0000 C   0  0
   -1.2575   -1.3130    0.0000 C   0  0
   -1.9729   -0.9039    0.0000 C   0  0
   -1.9754   -0.0789    0.0000 C   0  0
   -1.9833    0.7500    0.0000 C   0  0
   -1.1504   -0.0737    0.0000 O   0  0
   -2.8003   -0.0880    0.0000 C   0  0
   -3.2189    0.6236    0.0000 C   0  0
   -4.0431    0.6149    0.0000 C   0  0
   -4.4485   -0.1046    0.0000 C   0  0
   -4.0236   -0.8168    0.0000 C   0  0
   -3.2009   -0.8046    0.0000 C   0  0
   -1.9713   -3.3819    0.0000 Cl  0  0
   -5.2734   -0.1149    0.0000 Cl  0  0
   -1.2729    1.1693    0.0000 C   0  0
   -1.2808    1.9943    0.0000 C   0  0
   -0.5703    2.4136    0.0000 N   0  0
   -0.5782    3.2364    0.0000 C   0  0
    0.1481    2.0080    0.0000 C   0  0
 10 11  2  0
  5  6  2  0
 11 12  1  0
  6  1  1  0
 12 13  2  0
  1  2  2  0
 13 14  1  0
  6  7  1  0
 14 15  2  0
 15 10  1  0
  3  4  2  0
  3 16  1  0
  7  8  1  0
 13 17  1  0
  8 18  1  0
  9  7  1  0
 18 19  1  0
  4  5  1  0
 19 20  1  0
  7 10  1  0
 20 21  1  0
  2  3  1  0
 20 22  1  0
M  END