
  SciTegic01161211212D

 13 12  0  0  0  0            999 V2000
    1.4667   -0.0625    0.0000 P   0  0
    4.5792   -0.0625    0.0000 P   0  0
    1.4542    0.6250    0.0000 O   0  0
    4.5167    0.5958    0.0000 O   0  0
    4.5750   -0.8625    0.0000 O   0  0
    1.4542   -0.8750    0.0000 O   0  0
    0.8375   -0.0542    0.0000 O   0  0
    5.2292   -0.0250    0.0000 O   0  0
    1.9875   -0.3625    0.0000 C   0  0
    4.0667   -0.3625    0.0000 C   0  0
    3.5417   -0.0625    0.0000 C   0  0
    2.5042   -0.0625    0.0000 C   0  0
    3.0250   -0.3625    0.0000 C   0  0
  2 10  1  0
  3  1  1  0
  4  2  1  0
  5  2  1  0
  6  1  1  0
  7  1  2  0
  8  2  2  0
  9  1  1  0
 10 11  1  0
 11 13  1  0
 12  9  1  0
 13 12  1  0
M  END