
  SciTegic06281210282D

 35 38  0  0  0  0            999 V2000
    7.1750    3.2167    0.0000 O   0  0
    7.1792    2.3917    0.0000 S   0  0
    7.8916    2.8078    0.0000 O   0  0
    3.9070    1.1773    0.0000 C   0  0
    3.9070    0.3523    0.0000 C   0  0
    4.6214   -0.0602    0.0000 C   0  0
    5.3359    0.3523    0.0000 C   0  0
    5.3359    1.1773    0.0000 C   0  0
    4.6214    1.5898    0.0000 C   0  0
    6.1195    0.0963    0.0000 N   0  0
    6.6054    0.7648    0.0000 N   0  0
    6.1205    1.4322    0.0000 C   0  0
    4.6214    2.4148    0.0000 O   0  0
    3.9070    2.8273    0.0000 C   0  0
    6.1208   -0.7287    0.0000 C   0  0
    5.4069   -1.1423    0.0000 C   0  0
    4.6918   -0.7309    0.0000 C   0  0
    3.9779   -1.1445    0.0000 C   0  0
    3.9792   -1.9695    0.0000 C   0  0
    4.6943   -2.3809    0.0000 C   0  0
    5.4082   -1.9673    0.0000 C   0  0
    6.3755    2.2168    0.0000 N   0  0
    7.7344    1.7752    0.0000 C   0  0
    7.5629    0.9696    0.0000 C   0  0
    8.2774    0.5570    0.0000 C   0  0
    8.8905    1.1091    0.0000 C   0  0
    8.5549    1.8627    0.0000 S   0  0
    9.6975    0.9376    0.0000 Cl  0  0
    4.6955   -3.2059    0.0000 C   0  0
    3.9816   -3.6194    0.0000 N   0  0
    3.2665   -3.2080    0.0000 C   0  0
    2.5527   -3.6215    0.0000 C   0  0
    3.2653   -2.3830    0.0000 O   0  0
    1.8376   -3.2101    0.0000 O   0  0
    2.5539   -4.4465    0.0000 C   0  0
 13 14  1  0
 10 15  1  0
 15 16  1  0
 16 17  2  0
 17 18  1  0
 18 19  2  0
 19 20  1  0
 20 21  2  0
 21 16  1  0
 12 22  1  0
 22  2  1  0
  2  1  2  0
  2 23  1  0
 23 24  2  0
  3  2  2  0
  4  5  2  0
  5  6  1  0
  6  7  2  0
 24 25  1  0
 25 26  2  0
 26 27  1  0
 27 23  1  0
  7  8  1  0
 26 28  1  0
  8  9  2  0
 20 29  1  0
  9  4  1  0
 29 30  1  0
  7 10  1  0
 30 31  1  0
 10 11  1  0
 31 32  1  0
 11 12  2  0
 31 33  2  0
 12  8  1  0
 32 34  1  0
  9 13  1  0
 32 35  1  0
M  END