
  CDK    9/16/09,9:46

 30 33  0  0  0  0  0  0  0  0999 V2000
    3.5524   -5.1829    0.0000 C   0  0  0  0  0  0  0  0  0  0  0  0
    3.5513   -6.0103    0.0000 C   0  0  0  0  0  0  0  0  0  0  0  0
    4.2661   -6.4230    0.0000 C   0  0  0  0  0  0  0  0  0  0  0  0
    4.9824   -6.0098    0.0000 C   0  0  0  0  0  0  0  0  0  0  0  0
    4.9796   -5.1793    0.0000 C   0  0  0  0  0  0  0  0  0  0  0  0
    4.2643   -4.7701    0.0000 C   0  0  0  0  0  0  0  0  0  0  0  0
    2.8366   -6.4221    0.0000 S   0  0  0  0  0  0  0  0  0  0  0  0
    2.1165   -6.8287    0.0000 N   0  0  0  0  0  0  0  0  0  0  0  0
    3.2454   -7.1387    0.0000 O   0  0  0  0  0  0  0  0  0  0  0  0
    2.4295   -5.7046    0.0000 O   0  0  0  0  0  0  0  0  0  0  0  0
    5.6927   -4.7639    0.0000 C   0  0  0  0  0  0  0  0  0  0  0  0
    6.4754   -5.0200    0.0000 N   0  0  0  0  0  0  0  0  0  0  0  0
    6.9634   -4.3549    0.0000 N   0  0  0  0  0  0  0  0  0  0  0  0
    6.4815   -3.6852    0.0000 N   0  0  0  0  0  0  0  0  0  0  0  0
    5.6959   -3.9366    0.0000 C   0  0  0  0  0  0  0  0  0  0  0  0
    6.7400   -2.9019    0.0000 C   0  0  0  0  0  0  0  0  0  0  0  0
    7.5477   -2.7340    0.0000 C   0  0  0  0  0  0  0  0  0  0  0  0
    7.8062   -1.9507    0.0000 N   0  0  0  0  0  0  0  0  0  0  0  0
    8.0969   -3.3496    0.0000 O   0  0  0  0  0  0  0  0  0  0  0  0
    6.1908   -2.2863    0.0000 C   0  0  0  0  0  0  0  0  0  0  0  0
    6.4493   -1.5029    0.0000 C   0  0  0  0  0  0  0  0  0  0  0  0
    5.3832   -2.4541    0.0000 C   0  0  0  0  0  0  0  0  0  0  0  0
    8.1379   -0.3955    0.0000 C   0  0  0  0  0  0  0  0  0  0  0  0
    8.7613    0.1352    0.0000 C   0  0  0  0  0  0  0  0  0  0  0  0
    8.3514   -1.2602    0.0000 C   0  0  0  0  0  0  0  0  0  0  0  0
    7.3579   -0.0492    0.0000 C   0  0  0  0  0  0  0  0  0  0  0  0
    8.0168    0.0115    0.0000 C   0  0  0  0  0  0  0  0  0  0  0  0
    6.5918   -0.4223    0.0000 C   0  0  0  0  0  0  0  0  0  0  0  0
    7.2644   -0.6251    0.0000 C   0  0  0  0  0  0  0  0  0  0  0  0
    7.7827   -1.2323    0.0000 C   0  0  0  0  0  0  0  0  0  0  0  0
 14 15  1  0  0  0  0 
 15 11  2  0  0  0  0 
  3  4  2  0  0  0  0 
 14 16  1  0  0  0  0 
  7  8  1  0  0  0  0 
 16 17  1  0  0  0  0 
 17 18  1  0  0  0  0 
  7  9  2  0  0  0  0 
 17 19  2  0  0  0  0 
  4  5  1  0  0  0  0 
 16 20  1  1  0  0  0 
  7 10  2  0  0  0  0 
 20 21  1  0  0  0  0 
  2  3  1  0  0  0  0 
 20 22  1  0  0  0  0 
  5 11  1  0  0  0  0 
 11 12  1  0  0  0  0 
  5  6  2  0  0  0  0 
  6  1  1  0  0  0  0 
  1  2  2  0  0  0  0 
  2  7  1  0  0  0  0 
 12 13  2  0  0  0  0 
 13 14  1  0  0  0  0 
 23 24  1  0  0  0  0 
 23 25  1  0  0  0  0 
 23 26  1  0  0  0  0 
 24 27  1  0  0  0  0 
 25 18  1  0  0  0  0 
 26 28  1  0  0  0  0 
 27 29  1  0  0  0  0 
 18 30  1  0  0  0  0 
 28 29  1  0  0  0  0 
 29 30  1  0  0  0  0 
M  END