
          11280714452D 1   1.00000     0.00000     0

 28 31  0     0  0            999 V2000
    6.1167   -5.1417    0.0000 C   0  0  3  0  0  0           0  0  0
    6.6417   -6.0417    0.0000 N   0  0  3  0  0  0           0  0  0
    6.6417   -5.4542    0.0000 C   0  0  0  0  0  0           0  0  0
    6.4250   -4.6167    0.0000 C   0  0  0  0  0  0           0  0  0
    6.1167   -6.3417    0.0000 C   0  0  0  0  0  0           0  0  0
    5.6000   -5.4417    0.0000 C   0  0  0  0  0  0           0  0  0
    6.0167   -4.1792    0.0000 N   0  0  0  0  0  0           0  0  0
    5.6000   -6.0417    0.0000 C   0  0  0  0  0  0           0  0  0
    7.1750   -6.3292    0.0000 C   0  0  0  0  0  0           0  0  0
    5.4750   -4.4167    0.0000 C   0  0  0  0  0  0           0  0  0
    7.1875   -6.9292    0.0000 C   0  0  0  0  0  0           0  0  0
    5.5292   -5.0167    0.0000 C   0  0  0  0  0  0           0  0  0
    7.7042   -7.2292    0.0000 C   0  0  0  0  0  0           0  0  0
    5.0875   -6.3417    0.0000 C   0  0  0  0  0  0           0  0  0
    7.1792   -5.1667    0.0000 O   0  0  0  0  0  0           0  0  0
    7.7125   -7.8292    0.0000 C   0  0  0  0  0  0           0  0  0
    5.0875   -5.1417    0.0000 C   0  0  0  0  0  0           0  0  0
    7.0250   -4.5542    0.0000 O   0  0  0  0  0  0           0  0  0
    6.1125   -6.9417    0.0000 O   0  0  0  0  0  0           0  0  0
    4.9500   -4.1167    0.0000 O   0  0  0  0  0  0           0  0  0
    6.6625   -7.2417    0.0000 C   0  0  0  0  0  0           0  0  0
    7.2000   -8.1292    0.0000 C   0  0  0  0  0  0           0  0  0
    4.5625   -5.4542    0.0000 C   0  0  0  0  0  0           0  0  0
    8.2250   -6.9167    0.0000 F   0  0  0  0  0  0           0  0  0
    4.5625   -6.0417    0.0000 C   0  0  0  0  0  0           0  0  0
    6.6750   -7.8417    0.0000 C   0  0  0  0  0  0           0  0  0
    7.2167   -8.7292    0.0000 Br  0  0  0  0  0  0           0  0  0
    4.0250   -5.1667    0.0000 F   0  0  0  0  0  0           0  0  0
  2  3  1  0     0  0
  3  1  1  0     0  0
  4  1  1  0     0  0
  5  8  1  0     0  0
  6  1  1  0     0  0
  7  4  1  0     0  0
  8  6  1  0     0  0
  9  2  1  0     0  0
 10 12  1  0     0  0
 11  9  1  0     0  0
 12  1  1  0     0  0
 13 11  1  0     0  0
 14  8  2  0     0  0
 15  3  2  0     0  0
 16 13  2  0     0  0
 17  6  2  0     0  0
 18  4  2  0     0  0
 19  5  2  0     0  0
 20 10  2  0     0  0
 21 11  2  0     0  0
 22 26  2  0     0  0
 23 17  1  0     0  0
 24 13  1  0     0  0
 25 23  2  0     0  0
 26 21  1  0     0  0
 27 22  1  0     0  0
 28 23  1  0     0  0
  7 10  1  0     0  0
  5  2  1  0     0  0
 14 25  1  0     0  0
 16 22  1  0     0  0
M  END