
          11280715352D 1   1.00000     0.00000     0

 32 35  0     1  0            999 V2000
    6.0917   -4.8042    0.0000 C   0  0  2  0  0  0           0  0  0
    5.3042   -4.5417    0.0000 C   0  0  2  0  0  0           0  0  0
    4.5917   -3.3167    0.0000 C   0  0  2  0  0  0           0  0  0
    5.3042   -3.7167    0.0000 C   0  0  1  0  0  0           0  0  0
    6.5750   -4.1292    0.0000 O   0  0  0  0  0  0           0  0  0
    6.0917   -3.4667    0.0000 C   0  0  1  0  0  0           0  0  0
    4.5917   -2.4917    0.0000 C   0  0  0  0  0  0           0  0  0
    6.0167   -0.8417    0.0000 N   0  0  3  0  0  0           0  0  0
    4.5875   -4.9542    0.0000 C   0  0  0  0  0  0           0  0  0
    3.8792   -3.7167    0.0000 C   0  0  2  0  0  0           0  0  0
    6.5000   -5.5167    0.0000 O   0  0  0  0  0  0           0  0  0
    3.8750   -4.5417    0.0000 C   0  0  2  0  0  0           0  0  0
    5.3042   -2.0792    0.0000 C   0  0  0  0  0  0           0  0  0
    7.3250   -5.5167    0.0000 C   0  0  0  0  0  0           0  0  0
    5.3042   -1.2542    0.0000 C   0  0  1  0  0  0           0  0  0
    6.0167   -0.0167    0.0000 C   0  0  2  0  0  0           0  0  0
    7.7375   -4.8042    0.0000 O   0  0  0  0  0  0           0  0  0
    6.7375   -1.2542    0.0000 C   0  0  0  0  0  0           0  0  0
    6.3500   -2.6792    0.0000 C   0  0  0  0  0  0           0  0  0
    3.1750   -3.3167    0.0000 C   0  0  0  0  0  0           0  0  0
    3.1667   -4.9542    0.0000 C   0  0  0  0  0  0           0  0  0
    4.6000   -0.0167    0.0000 C   0  0  0  0  0  0           0  0  0
    7.7292   -6.2292    0.0000 C   0  0  0  0  0  0           0  0  0
    4.6000   -0.8417    0.0000 C   0  0  0  0  0  0           0  0  0
    5.3042    0.3958    0.0000 C   0  0  0  0  0  0           0  0  0
    6.7375    0.3958    0.0000 C   0  0  0  0  0  0           0  0  0
    2.4625   -3.7167    0.0000 C   0  0  0  0  0  0           0  0  0
    2.4542   -4.5417    0.0000 C   0  0  0  0  0  0           0  0  0
    3.8667   -5.3667    0.0000 H   0  0  0  0  0  0           0  0  0
    5.3042   -5.3667    0.0000 H   0  0  0  0  0  0           0  0  0
    5.3042   -2.8917    0.0000 H   0  0  0  0  0  0           0  0  0
    3.8750   -2.8917    0.0000 H   0  0  0  0  0  0           0  0  0
  2  1  1  0     0  0
  3  4  1  0     0  0
  4  2  1  0     0  0
  5  1  1  0     0  0
  6  5  1  0     0  0
  3  7  1  1     0  0
  8 15  1  0     0  0
  9  2  1  0     0  0
 10 12  1  0     0  0
  1 11  1  6     0  0
 12  9  1  0     0  0
 13  7  2  0     0  0
 14 11  1  0     0  0
 15 13  1  1     0  0
 16  8  1  0     0  0
 17 14  2  0     0  0
 18  8  1  0     0  0
  6 19  1  6     0  0
 20 10  1  0     0  0
 21 12  1  0     0  0
 22 24  1  0     0  0
 23 14  1  0     0  0
 24 15  1  0     0  0
 25 22  1  0     0  0
 16 26  1  6     0  0
 27 28  1  0     0  0
 28 21  1  0     0  0
 12 29  1  6     0  0
  2 30  1  6     0  0
  4 31  1  6     0  0
 10 32  1  1     0  0
  4  6  1  0     0  0
 10  3  1  0     0  0
 27 20  1  0     0  0
 25 16  1  0     0  0
M  END