
  CDK    9/16/09,10:9

 36 40  0  0  0  0  0  0  0  0999 V2000
   10.4090    0.2429    0.0000 N   0  0  0  0  0  0  0  0  0  0  0  0
   10.4090   -0.5866    0.0000 C   0  0  0  0  0  0  0  0  0  0  0  0
   11.1234   -0.9992    0.0000 N   0  0  0  0  0  0  0  0  0  0  0  0
   11.1234    0.6600    0.0000 C   0  0  0  0  0  0  0  0  0  0  0  0
   11.8425    0.2429    0.0000 C   0  0  0  0  0  0  0  0  0  0  0  0
   11.8470   -0.5831    0.0000 C   0  0  0  0  0  0  0  0  0  0  0  0
   12.6341   -0.8340    0.0000 N   0  0  0  0  0  0  0  0  0  0  0  0
   13.1160   -0.1631    0.0000 C   0  0  0  0  0  0  0  0  0  0  0  0
   12.6267    0.5024    0.0000 N   0  0  0  0  0  0  0  0  0  0  0  0
    9.6945   -0.9992    0.0000 O   0  0  0  0  0  0  0  0  0  0  0  0
   11.1223    1.4850    0.0000 O   0  0  0  0  0  0  0  0  0  0  0  0
   13.9409   -0.1585    0.0000 C   0  0  0  0  0  0  0  0  0  0  0  0
   14.3521   -0.8722    0.0000 C   0  0  0  0  0  0  0  0  0  0  0  0
   15.1764   -0.8680    0.0000 C   0  0  0  0  0  0  0  0  0  0  0  0
   15.5858   -0.1507    0.0000 C   0  0  0  0  0  0  0  0  0  0  0  0
   15.1649    0.5639    0.0000 C   0  0  0  0  0  0  0  0  0  0  0  0
   14.3420    0.5561    0.0000 C   0  0  0  0  0  0  0  0  0  0  0  0
   16.4108   -0.1451    0.0000 S   0  0  0  0  0  0  0  0  0  0  0  0
   17.2337   -0.1421    0.0000 N   0  0  0  0  0  0  0  0  0  0  0  0
   16.4064    0.6799    0.0000 O   0  0  0  0  0  0  0  0  0  0  0  0
   16.4172   -0.9700    0.0000 O   0  0  0  0  0  0  0  0  0  0  0  0
   17.6465   -0.8550    0.0000 C   0  0  0  0  0  0  0  0  0  0  0  0
   18.4659   -0.8541    0.0000 C   0  0  0  0  0  0  0  0  0  0  0  0
   18.8786   -0.1418    0.0000 N   0  0  0  0  0  0  0  0  0  0  0  0
   18.4658    0.5712    0.0000 C   0  0  0  0  0  0  0  0  0  0  0  0
   17.6402    0.5719    0.0000 C   0  0  0  0  0  0  0  0  0  0  0  0
    9.6935    0.6537    0.0000 C   0  0  0  0  0  0  0  0  0  0  0  0
    9.6915    1.4788    0.0000 C   0  0  0  0  0  0  0  0  0  0  0  0
    8.9761    1.8895    0.0000 C   0  0  0  0  0  0  0  0  0  0  0  0
   19.7008   -0.1388    0.0000 C   0  0  0  0  0  0  0  0  0  0  0  0
   20.1126   -0.8550    0.0000 C   0  0  0  0  0  0  0  0  0  0  0  0
   20.9369   -0.8556    0.0000 C   0  0  0  0  0  0  0  0  0  0  0  0
   21.3503   -0.1406    0.0000 C   0  0  0  0  0  0  0  0  0  0  0  0
   20.9335    0.5763    0.0000 C   0  0  0  0  0  0  0  0  0  0  0  0
   20.1105    0.5733    0.0000 C   0  0  0  0  0  0  0  0  0  0  0  0
   22.1753   -0.1397    0.0000 Cl  0  0  0  0  0  0  0  0  0  0  0  0
 17 12  1  0  0  0  0 
  7  8  2  0  0  0  0 
 15 18  1  0  0  0  0 
  8  9  1  0  0  0  0 
 18 19  1  0  0  0  0 
  9  5  1  0  0  0  0 
 18 20  2  0  0  0  0 
  5  4  1  0  0  0  0 
 18 21  2  0  0  0  0 
 19 22  1  0  0  0  0 
  2 10  2  0  0  0  0 
  5  6  2  0  0  0  0 
  4 11  2  0  0  0  0 
  8 12  1  0  0  0  0 
 19 26  1  0  0  0  0 
 22 23  1  0  0  0  0 
 23 24  1  0  0  0  0 
 24 25  1  0  0  0  0 
 25 26  1  0  0  0  0 
  1  2  1  0  0  0  0 
  1 27  1  0  0  0  0 
 12 13  2  0  0  0  0 
 27 28  1  0  0  0  0 
  1  4  1  0  0  0  0 
 28 29  1  0  0  0  0 
 13 14  1  0  0  0  0 
  2  3  1  0  0  0  0 
 30 31  2  0  0  0  0 
 14 15  2  0  0  0  0 
 31 32  1  0  0  0  0 
  3  6  1  0  0  0  0 
 32 33  2  0  0  0  0 
 15 16  1  0  0  0  0 
 33 34  1  0  0  0  0 
  6  7  1  0  0  0  0 
 34 35  2  0  0  0  0 
 35 30  1  0  0  0  0 
 24 30  1  0  0  0  0 
 16 17  2  0  0  0  0 
 33 36  1  0  0  0  0 
M  END