
          11280715362D 1   1.00000     0.00000     0

 35 37  0     0  0            999 V2000
    6.1917    2.8958    0.0000 S   0  0  3  0  0  0           0  0  0
    2.6167    0.8125    0.0000 C   0  0  0  0  0  0           0  0  0
    2.6167    1.6375    0.0000 C   0  0  0  0  0  0           0  0  0
    7.0167    2.8958    0.0000 C   0  0  0  0  0  0           0  0  0
    6.1917    2.0708    0.0000 O   0  0  0  0  0  0           0  0  0
    6.1917    3.7208    0.0000 O   0  0  0  0  0  0           0  0  0
    1.9042    0.4000    0.0000 C   0  0  0  0  0  0           0  0  0
    5.4792    3.3000    0.0000 N   0  0  0  0  0  0           0  0  0
    3.3375    0.4000    0.0000 N   0  0  0  0  0  0           0  0  0
    7.6250    0.4000    0.0000 C   0  0  0  0  0  0           0  0  0
    3.3375    2.0500    0.0000 C   0  0  0  0  0  0           0  0  0
    1.2000   -0.8292    0.0000 N   0  0  0  0  0  0           0  0  0
    7.6250   -0.4250    0.0000 O   0  0  0  0  0  0           0  0  0
    7.4292    2.1833    0.0000 C   0  0  0  0  0  0           0  0  0
    7.4250    3.6083    0.0000 C   0  0  0  0  0  0           0  0  0
    8.6667    2.8958    0.0000 C   0  0  0  0  0  0           0  0  0
    8.3375    0.8083    0.0000 O   0  0  0  0  0  0           0  0  0
    3.3375    2.8833    0.0000 C   0  0  0  0  0  0           0  0  0
    8.2542    2.1833    0.0000 C   0  0  0  0  0  0           0  0  0
    8.2417    3.6125    0.0000 C   0  0  0  0  0  0           0  0  0
    4.0500    0.8125    0.0000 O   0  0  0  0  0  0           0  0  0
    1.9125   -0.4167    0.0000 C   0  0  0  0  0  0           0  0  0
    9.4917    2.9000    0.0000 I   0  0  0  0  0  0           0  0  0
    4.7667    2.8958    0.0000 C   0  0  0  0  0  0           0  0  0
    1.9042    2.0500    0.0000 C   0  0  0  0  0  0           0  0  0
    1.9042    2.8750    0.0000 C   0  0  0  0  0  0           0  0  0
    1.1917    0.8208    0.0000 C   0  0  0  0  0  0           0  0  0
    6.9042    0.8125    0.0000 C   0  0  0  0  0  0           0  0  0
    0.4792   -0.4167    0.0000 C   0  0  0  0  0  0           0  0  0
    4.0500    3.2958    0.0000 C   0  0  0  0  0  0           0  0  0
    2.6167    3.2958    0.0000 C   0  0  0  0  0  0           0  0  0
    4.7667    0.4000    0.0000 C   0  0  0  0  0  0           0  0  0
    6.1917    0.4000    0.0000 C   0  0  0  0  0  0           0  0  0
    5.4792    0.8125    0.0000 C   0  0  0  0  0  0           0  0  0
    0.4792    0.4083    0.0000 C   0  0  0  0  0  0           0  0  0
  2  3  1  0     0  0
  3 11  2  0     0  0
  4  1  1  0     0  0
  5  1  2  0     0  0
  6  1  2  0     0  0
  7  2  1  0     0  0
  8  1  1  0     0  0
  9  2  2  0     0  0
 10 28  1  0     0  0
 11 18  1  0     0  0
 12 22  2  0     0  0
 13 10  2  0     0  0
 14  4  2  0     0  0
 15  4  1  0     0  0
 16 20  1  0     0  0
 17 10  1  0     0  0
 18 30  1  0     0  0
 19 14  1  0     0  0
 20 15  2  0     0  0
  9 21  1  0     0  0
 22  7  1  0     0  0
 23 16  1  0     0  0
 24  8  1  0     0  0
 25 26  2  0     0  0
 26 31  1  0     0  0
 27  7  2  0     0  0
 28 33  1  0     0  0
 29 35  2  0     0  0
 30 24  1  0     0  0
 31 18  2  0     0  0
 32 21  1  0     0  0
 33 34  1  0     0  0
 34 32  1  0     0  0
 35 27  1  0     0  0
 16 19  2  0     0  0
 25  3  1  0     0  0
 12 29  1  0     0  0
M  END