
  SciTegic11201309402D

 79 83  0  0  1  0            999 V2000
    8.7377   -6.4702    0.0000 N   0  0
    8.3722   -5.7310    0.0000 C   0  0
    3.4801   -3.3431    0.0000 N   0  0
    7.5416   -5.6853    0.0000 C   0  0  1  0  0  0
    5.0499   -2.9195    0.0000 C   0  0
    7.4544   -4.8713    0.0000 N   0  0
    5.8597   -3.0939    0.0000 N   0  0
    2.2841   -5.4112    0.0000 N   0  0
    2.8697   -3.8913    0.0000 C   0  0
    7.1263   -4.1155    0.0000 C   0  0
    2.3713   -6.2335    0.0000 C   0  0
   10.1413   -6.0092    0.0000 C   0  0
    4.2277   -3.0067    0.0000 C   0  0  2  0  0  0
    6.5699   -3.5051    0.0000 C   0  0  2  0  0  0
    3.2559   -7.5997    0.0000 N   0  0
    9.5599   -6.5948    0.0000 C   0  0  2  0  0  0
    2.4543   -4.6097    0.0000 C   0  0  2  0  0  0
    3.9660   -8.0109    0.0000 C   0  0
    2.7077   -6.9810    0.0000 C   0  0  1  0  0  0
    9.9212   -5.2119    0.0000 N   0  0
    7.0931   -2.8655    0.0000 C   0  0
   10.2950   -3.8414    0.0000 C   0  0
   14.0575   -4.1113    0.0000 C   0  0
    4.7758   -8.1770    0.0000 C   0  0
    6.9644   -7.2135    0.0000 S   0  0
    6.3456   -7.7617    0.0000 S   0  0
    7.0889   -2.0432    0.0000 C   0  0
   10.8805   -3.2559    0.0000 N   0  0
    5.5939   -8.0981    0.0000 C   0  0
   10.5068   -4.6346    0.0000 C   0  0  2  0  0  0
   11.2501   -1.8730    0.0000 C   0  0
   14.6430   -3.5258    0.0000 N   0  0
    8.8207   -5.0375    0.0000 O   0  0
    5.0998   -2.0972    0.0000 O   0  0
    7.3755   -6.4951    0.0000 C   0  0
   10.9304   -6.2293    0.0000 O   0  0
    2.2301   -3.3763    0.0000 O   0  0
    7.8157   -3.6670    0.0000 O   0  0
    1.5740   -6.4453    0.0000 O   0  0
    2.0100   -7.4378    0.0000 C   0  0
    1.6861   -4.3024    0.0000 C   0  0
    3.6753   -8.7750    0.0000 O   0  0
    9.4976   -3.6255    0.0000 O   0  0
    6.3705   -1.6363    0.0000 O   0  0
   12.0475   -2.0848    0.0000 O   0  0
   13.2684   -3.8913    0.0000 N   0  0
   10.6646   -2.4585    0.0000 C   0  0
   14.2776   -4.9087    0.0000 N   0  0
    4.0159   -2.2094    0.0000 C   0  0
    8.3722   -7.2011    0.0000 C   0  0
    7.7908   -1.6238    0.0000 N   0  0
    1.1878   -7.4378    0.0000 C   0  0
   11.0300   -1.0756    0.0000 N   0  0
   -0.4610   -7.4295    0.0000 C   0  0
    1.2708   -3.5923    0.0000 C   0  0
    0.7766   -6.7152    0.0000 C   0  0
    0.7766   -8.1479    0.0000 C   0  0
   -0.0456   -8.1479    0.0000 C   0  0
   -0.0456   -6.7152    0.0000 C   0  0
    9.6845   -7.4046    0.0000 C   0  0
   -1.2832   -7.4295    0.0000 O   0  0
    8.9495   -7.7866    0.0000 C   0  0
    6.2958   -8.5009    0.0000 C   0  0
    4.8755   -8.5009    0.0000 C   0  0
   11.3041   -4.8464    0.0000 C   0  0
   12.6870   -4.4768    0.0000 C   0  0
    3.2185   -1.9976    0.0000 C   0  0
    4.5972   -1.6321    0.0000 C   0  0
   -1.6944   -8.1397    0.0000 C   0  0
    0.4402   -3.6005    0.0000 C   0  0
    1.6861   -2.8697    0.0000 C   0  0
   11.8897   -4.2650    0.0000 C   0  0
   -2.5166   -8.1397    0.0000 C   0  0
    6.2958   -9.3315    0.0000 C   0  0
    4.8713   -9.3190    0.0000 C   0  0
    0.0249   -2.8821    0.0000 C   0  0
    1.2625   -2.1595    0.0000 C   0  0
    5.5815   -9.7344    0.0000 C   0  0
    0.4361   -2.1595    0.0000 C   0  0
  2  1  1  0
  3 13  1  0
  4  2  1  6
  5  7  1  0
  6  4  1  0
  7 14  1  0
  8 11  1  0
  9  3  1  0
 10  6  1  0
 11 19  1  0
 16 12  1  6
 13  5  1  0
 14 10  1  0
 15 18  1  0
 16  1  1  0
 17  9  1  0
 18 24  1  0
 19 15  1  0
 20 12  1  0
 14 21  1  1
 22 30  1  0
 23 46  2  0
 24 29  1  0
 25 35  1  0
 26 25  1  0
 27 21  1  0
 28 22  1  0
 29 26  1  0
 30 20  1  6
 31 47  1  0
 32 23  1  0
 33  2  2  0
 34  5  2  0
  4 35  1  0
 36 12  2  0
 37  9  2  0
 38 10  2  0
 39 11  2  0
 19 40  1  1
 17 41  1  1
 42 18  2  0
 43 22  2  0
 44 27  2  0
 45 31  2  0
 46 66  1  0
 47 28  1  0
 48 23  1  0
 13 49  1  1
 50  1  1  0
 51 27  1  0
 52 40  1  0
 53 31  1  0
 54 58  1  0
 55 41  1  0
 56 52  2  0
 57 52  1  0
 58 57  2  0
 59 56  1  0
 16 60  1  0
 61 54  1  0
 62 50  1  0
 63 29  1  0
 64 29  1  0
 30 65  1  0
 66 72  1  0
 67 49  1  0
 68 49  1  0
 69 61  1  0
 70 55  1  0
 71 55  2  0
 72 65  1  0
 73 69  1  0
 74 63  1  0
 75 64  1  0
 76 70  2  0
 77 71  1  0
 78 75  1  0
 79 77  2  0
 60 62  1  0
 78 74  1  0
 17  8  1  0
 54 59  2  0
 79 76  1  0
M  END