
  SciTegic06051313552D

 24 26  0  0  0  0            999 V2000
    5.8392   -3.3672    0.0000 C   0  0  1  0  0  0
    6.9209   -4.1788    0.0000 C   0  0  2  0  0  0
    6.3996   -3.7443    0.0000 C   0  0
    5.4152   -3.7443    0.0000 C   0  0  2  0  0  0
    5.2734   -2.9235    0.0000 N   0  0
    6.7833   -3.3481    0.0000 C   0  0
    4.8866   -4.4661    0.0000 C   0  0
    5.5155   -4.0882    0.0000 C   0  0  2  0  0  0
    4.7945   -3.6730    0.0000 O   0  0
    4.0819   -4.0874    0.0000 C   0  0
    4.0837   -4.9090    0.0000 O   0  0
    3.3675   -3.6760    0.0000 C   0  0
    4.8479   -2.2157    0.0000 C   0  0
    6.7018   -4.9724    0.0000 O   0  0
    7.2833   -5.5604    0.0000 C   0  0
    7.0630   -6.3543    0.0000 O   0  0
    8.0811   -5.3502    0.0000 C   0  0
    8.6588   -5.9377    0.0000 C   0  0
    9.4557   -5.7283    0.0000 C   0  0
    9.6771   -4.9332    0.0000 C   0  0
    9.0882   -4.3435    0.0000 C   0  0
    8.2947   -4.5533    0.0000 C   0  0
    6.0472   -2.5661    0.0000 H   0  0
    4.8286   -3.1567    0.0000 H   0  0
  2  3  1  0
  3  4  1  0
  4  5  1  0
  5  1  1  0
  1  6  1  0
  6  2  1  0
  4  7  1  0
  1  8  1  0
  7  8  1  0
  8  9  1  1
  9 10  1  0
 10 11  2  0
 10 12  1  0
  5 13  1  0
  2 14  1  6
 14 15  1  0
 15 16  2  0
 15 17  1  0
 17 18  2  0
 18 19  1  0
 19 20  2  0
 20 21  1  0
 21 22  2  0
 22 17  1  0
  1 23  1  6
  4 24  1  6
M  END