
  Mrv0541 04051115152D          

 17 18  0  0  0  0            999 V2000
   -0.6552    0.5893    0.0000 C   0  0  0  0  0  0  0  0  0  0  0  0
   -0.9102    1.3739    0.0000 N   0  0  0  0  0  0  0  0  0  0  0  0
    1.2093    1.6289    0.0000 O   0  0  0  0  0  0  0  0  0  0  0  0
    0.4247    1.3739    0.0000 C   0  0  0  0  0  0  0  0  0  0  0  0
    0.1698    0.5893    0.0000 N   0  0  0  0  0  0  0  0  0  0  0  0
   -0.2427    1.8588    0.0000 C   0  0  0  0  0  0  0  0  0  0  0  0
   -1.1401   -0.0781    0.0000 N   0  0  0  0  0  0  0  0  0  0  0  0
   -0.6477    2.5776    0.0000 C   0  0  0  0  0  0  0  0  0  0  0  0
    0.1623    2.5776    0.0000 C   0  0  0  0  0  0  0  0  0  0  0  0
    0.6547   -0.0781    0.0000 C   0  0  0  0  0  0  0  0  0  0  0  0
    0.3191   -0.8318    0.0000 C   0  0  0  0  0  0  0  0  0  0  0  0
    0.8041   -1.4993    0.0000 C   0  0  0  0  0  0  0  0  0  0  0  0
    0.4685   -2.2529    0.0000 C   0  0  0  0  0  0  0  0  0  0  0  0
   -0.3520   -2.3392    0.0000 C   0  0  0  0  0  0  0  0  0  0  0  0
   -0.8369   -1.6717    0.0000 C   0  0  0  0  0  0  0  0  0  0  0  0
   -0.5013   -0.9181    0.0000 C   0  0  0  0  0  0  0  0  0  0  0  0
   -1.6574   -1.7580    0.0000 Cl  0  0  0  0  0  0  0  0  0  0  0  0
  1  2  1  0  0  0  0
  1  5  1  0  0  0  0
  1  7  2  0  0  0  0
  6  2  1  0  0  0  0
  4  3  2  0  0  0  0
  4  5  1  0  0  0  0
  4  6  1  0  0  0  0
 10  5  1  0  0  0  0
  6  8  1  0  0  0  0
  6  9  1  0  0  0  0
 10 11  1  0  0  0  0
 11 12  2  0  0  0  0
 16 11  1  0  0  0  0
 12 13  1  0  0  0  0
 14 13  2  0  0  0  0
 14 15  1  0  0  0  0
 15 16  2  0  0  0  0
 15 17  1  0  0  0  0
M  END