
  SciTegic11301210262D

 20 22  0  0  0  0            999 V2000
   -1.3000   -1.6417    0.0000 N   0  0
   -2.6208   -0.6542    0.0000 N   0  0
   -2.3458   -1.6417    0.0000 C   0  0
   -0.9458   -0.6917    0.0000 C   0  0
   -1.7500   -0.0792    0.0000 C   0  0
    3.2500    1.4750    0.0000 C   0  0
    0.0292   -0.3875    0.0000 C   0  0
   -3.6208   -0.4167    0.0000 C   0  0
    2.9875    0.4958    0.0000 C   0  0
   -3.0333   -2.3750    0.0000 C   0  0
    2.0042    0.2083    0.0000 C   0  0
    2.5042    2.2208    0.0000 O   0  0
   -4.3458   -1.1542    0.0000 C   0  0
   -4.0708   -2.1542    0.0000 C   0  0
    0.2542    0.5750    0.0000 C   0  0
    0.7500   -1.0625    0.0000 C   0  0
    1.2542    0.8708    0.0000 C   0  0
    1.7667   -0.7667    0.0000 C   0  0
    4.2292    1.6750    0.0000 O   0  0
    3.7167   -0.1875    0.0000 C   0  0
  2  3  1  0
  3  1  2  0
  4  1  1  0
  5  4  2  0
  6  9  1  0
  7  4  1  0
  8  2  1  0
  9 11  1  0
 10  3  1  0
 11 18  2  0
 12  6  2  0
 13 14  1  0
 14 10  2  0
 15  7  1  0
 16  7  2  0
 17 15  2  0
 18 16  1  0
 19  6  1  0
 20  9  1  0
  5  2  1  0
 17 11  1  0
  8 13  2  0
M  END