
  SciTegic04091416462D

 33 36  0  0  0  0            999 V2000
   22.7006   -4.5022    0.0000 C   0  0
   23.4097   -4.0936    0.0000 C   0  0
   24.1188   -4.5022    0.0000 C   0  0
   24.1188   -5.3194    0.0000 C   0  0
   23.4097   -5.7280    0.0000 C   0  0
   22.7006   -5.3194    0.0000 N   0  0
   21.9915   -4.0936    0.0000 O   0  0
   23.4097   -3.2764    0.0000 C   0  0
   24.1188   -2.8678    0.0000 O   0  0
   22.7006   -2.8678    0.0000 N   0  0
   21.9915   -5.7280    0.0000 C   0  0
   21.2866   -5.3194    0.0000 C   0  0
   20.5775   -5.7280    0.0000 C   0  0
   19.8725   -5.3194    0.0000 C   0  0
   19.8725   -4.5022    0.0000 C   0  0
   20.5775   -4.0936    0.0000 C   0  0
   21.2866   -4.5022    0.0000 C   0  0
   19.1634   -4.0936    0.0000 F   0  0
   24.8238   -5.7280    0.0000 C   0  0
   25.5328   -5.3194    0.0000 C   0  0
   26.2378   -5.7280    0.0000 C   0  0
   26.2378   -6.5451    0.0000 C   0  0
   25.5328   -6.9537    0.0000 C   0  0
   24.8238   -6.5452    0.0000 C   0  0
   26.9469   -6.9537    0.0000 O   0  0
   27.6560   -6.5451    0.0000 C   0  0
   22.7006   -2.0506    0.0000 C   0  0
   21.9648   -1.6950    0.0000 C   0  0
   21.7842   -0.8964    0.0000 C   0  0
   22.2920   -0.2586    0.0000 C   0  0
   23.1092   -0.2586    0.0000 C   0  0
   23.6212   -0.8964    0.0000 C   0  0
   23.4365   -1.6950    0.0000 C   0  0
  1  2  1  0
  2  3  2  0
  3  4  1  0
  4  5  2  0
  5  6  1  0
  1  6  1  0
  1  7  2  0
  8  9  2  0
  8 10  1  0
  2  8  1  0
 11 12  1  0
 12 13  1  0
 13 14  2  0
 14 15  1  0
 15 16  2  0
 16 17  1  0
 12 17  2  0
 15 18  1  0
  6 11  1  0
 19 20  1  0
 20 21  2  0
 21 22  1  0
 22 23  2  0
 23 24  1  0
 19 24  2  0
 25 26  1  0
 22 25  1  0
  4 19  1  0
 27 28  1  0
 28 29  1  0
 29 30  1  0
 30 31  1  0
 31 32  1  0
 32 33  1  0
 27 33  1  0
 10 27  1  0
M  END