
  SciTegic12231509382D

 34 38  0  0  0  0            999 V2000
    1.8079   -1.6500    0.0000 C   0  0
    1.4723   -2.4037    0.0000 N   0  0
    0.6518   -2.4899    0.0000 C   0  0
    1.9572   -3.0711    0.0000 C   0  0
    1.6217   -3.8248    0.0000 C   0  0
    2.1066   -4.4922    0.0000 O   0  0
    1.7711   -5.2459    0.0000 C   0  0
    2.2560   -5.9133    0.0000 C   0  0
    1.9204   -6.6670    0.0000 C   0  0
    1.0999   -6.7533    0.0000 C   0  0
    0.6150   -6.0858    0.0000 C   0  0
    0.9506   -5.3321    0.0000 C   0  0
    0.7644   -7.5069    0.0000 C   0  0
    1.1769   -8.2214    0.0000 N   0  0
    0.6248   -8.8345    0.0000 C   0  0
   -0.1288   -8.4989    0.0000 C   0  0
   -0.0426   -7.6785    0.0000 N   0  0
   -0.8433   -8.9114    0.0000 C   0  0
   -0.8433   -9.7364    0.0000 C   0  0
   -1.5578  -10.1489    0.0000 C   0  0
   -2.2722   -9.7364    0.0000 C   0  0
   -2.2722   -8.9114    0.0000 C   0  0
   -3.0569   -8.6565    0.0000 C   0  0
   -3.5418   -9.3239    0.0000 C   0  0
   -3.0569   -9.9914    0.0000 C   0  0
   -3.3118  -10.7760    0.0000 N   0  0
   -4.1188  -10.9475    0.0000 O   0  0
   -1.5578   -8.4989    0.0000 C   0  0
    0.7964   -9.6415    0.0000 C   0  0
    1.5810   -9.8964    0.0000 C   0  0
    1.7525  -10.7034    0.0000 C   0  0
    1.1394  -11.2554    0.0000 N   0  0
    0.3548  -11.0005    0.0000 C   0  0
    0.1833  -10.1935    0.0000 C   0  0
  1  2  1  0
  2  3  1  0
  2  4  1  0
  4  5  1  0
  5  6  1  0
  6  7  1  0
  7  8  2  0
  8  9  1  0
  9 10  2  0
 10 11  1  0
 11 12  2  0
  7 12  1  0
 10 13  1  0
 13 14  2  0
 14 15  1  0
 15 16  2  0
 16 17  1  0
 13 17  1  0
 16 18  1  0
 18 19  2  0
 19 20  1  0
 20 21  2  0
 21 22  1  0
 22 23  1  0
 23 24  1  0
 24 25  1  0
 21 25  1  0
 25 26  2  0
 26 27  1  0
 22 28  2  0
 18 28  1  0
 15 29  1  0
 29 30  2  0
 30 31  1  0
 31 32  2  0
 32 33  1  0
 33 34  2  0
 29 34  1  0
M  END