
  SciTegic03041510302D

109112  0  0  0  0            999 V2000
   20.2830  -14.7987    0.0000 C   0  0
   20.2863  -15.6158    0.0000 N   0  0
   19.5803  -16.0273    0.0000 C   0  0
   19.5836  -16.8445    0.0000 C   0  0  2  0  0  0
   18.8709  -15.6216    0.0000 O   0  0
   20.2467  -17.3271    0.0000 N   0  0
   19.9973  -18.1054    0.0000 C   0  0
   19.1801  -18.1087    0.0000 C   0  0
   18.9245  -17.3325    0.0000 C   0  0  1  0  0  0
   18.1457  -17.0850    0.0000 C   0  0
   18.8678  -13.1627    0.0000 C   0  0
   20.2840  -12.3467    0.0000 N   0  0
   20.9930  -11.9381    0.0000 C   0  0  2  0  0  0
   21.7021  -13.1680    0.0000 O   0  0
   21.7021  -12.3467    0.0000 C   0  0
   20.9930  -11.1168    0.0000 C   0  0  1  0  0  0
   21.7021  -10.7082    0.0000 C   0  0
   20.2840  -10.7082    0.0000 C   0  0
   20.2840   -9.8869    0.0000 C   0  0
   22.4154  -11.9381    0.0000 N   0  0
   23.1244  -12.3467    0.0000 C   0  0  2  0  0  0
   23.8335  -11.1168    0.0000 O   0  0
   23.8335  -11.9381    0.0000 C   0  0
   23.1244  -13.1680    0.0000 C   0  0
   23.8335  -14.3969    0.0000 C   0  0
   23.8335  -13.5766    0.0000 C   0  0
   24.5417  -13.1686    0.0000 C   0  0
   25.2540  -13.5766    0.0000 C   0  0
   25.2540  -14.3969    0.0000 C   0  0
   24.5417  -14.8050    0.0000 C   0  0
   24.5426  -12.3467    0.0000 N   0  0
   25.2558  -11.9381    0.0000 C   0  0  2  0  0  0
   25.9649  -13.1680    0.0000 O   0  0
   25.9649  -12.3467    0.0000 C   0  0
   25.2558  -11.1168    0.0000 C   0  0
   25.9649  -10.7082    0.0000 C   0  0
   25.9649   -9.8869    0.0000 C   0  0
   26.6740   -9.4783    0.0000 O   0  0
   25.2558   -9.4783    0.0000 O   0  0
   26.6740  -11.9381    0.0000 O   0  0
   19.5766  -11.9375    0.0000 C   0  0
   18.8685  -12.3455    0.0000 C   0  0  1  0  0  0
   19.5773  -11.1203    0.0000 O   0  0
   18.1612  -11.9363    0.0000 N   0  0
   17.4531  -12.3443    0.0000 C   0  0
    7.5137  -12.3443    0.0000 N   0  0
    8.2226  -11.9357    0.0000 C   0  0  2  0  0  0
    8.9317  -13.1656    0.0000 O   0  0
    8.9317  -12.3443    0.0000 C   0  0
    8.2226  -11.1144    0.0000 C   0  0  1  0  0  0
    8.9317  -10.7058    0.0000 C   0  0
    7.5137  -10.7058    0.0000 C   0  0
    7.5137   -9.8845    0.0000 C   0  0
    9.6408  -11.9357    0.0000 N   0  0
   10.3540  -12.3443    0.0000 C   0  0  2  0  0  0
   11.0631  -11.1144    0.0000 O   0  0
   11.0631  -11.9357    0.0000 C   0  0
   10.3540  -13.1656    0.0000 C   0  0
   11.0631  -13.5742    0.0000 C   0  0
   11.0631  -14.3956    0.0000 C   0  0
   11.7722  -13.1656    0.0000 C   0  0
   11.7722  -12.3443    0.0000 N   0  0
   12.4812  -11.9357    0.0000 C   0  0  2  0  0  0
   13.1945  -13.1656    0.0000 O   0  0
   13.1945  -12.3443    0.0000 C   0  0
   12.4812  -11.1144    0.0000 C   0  0
   13.1945  -10.7058    0.0000 C   0  0
   13.1945   -9.8845    0.0000 C   0  0
   13.9035   -9.4759    0.0000 O   0  0
   12.4812   -9.4759    0.0000 O   0  0
   13.9035  -11.9357    0.0000 N   0  0
   14.6126  -12.3443    0.0000 C   0  0  2  0  0  0
   15.3217  -11.1144    0.0000 O   0  0
   15.3217  -11.9357    0.0000 C   0  0
   14.6126  -13.1656    0.0000 C   0  0  1  0  0  0
   15.3217  -13.5742    0.0000 C   0  0
   13.9035  -13.5742    0.0000 C   0  0
   13.9035  -14.3956    0.0000 C   0  0
   16.0308  -12.3443    0.0000 N   0  0
   16.7440  -11.9357    0.0000 C   0  0  1  0  0  0
   17.4531  -13.1656    0.0000 O   0  0
   16.7440  -11.1144    0.0000 C   0  0
   17.4531   -9.8855    0.0000 C   0  0
   17.4531  -10.7058    0.0000 C   0  0
   18.1613  -11.1139    0.0000 C   0  0
   18.8736  -10.7058    0.0000 C   0  0
   18.8736   -9.8855    0.0000 C   0  0
   18.1613   -9.4775    0.0000 C   0  0
    6.8063  -11.9352    0.0000 C   0  0
    6.0983  -12.3433    0.0000 C   0  0  2  0  0  0
    6.8069  -11.1180    0.0000 O   0  0
    5.3909  -11.9343    0.0000 C   0  0
    6.0978  -13.1605    0.0000 N   0  0
    4.6829  -12.3424    0.0000 C   0  0
    3.9755  -11.9333    0.0000 C   0  0
    3.2675  -12.3414    0.0000 C   0  0
    2.5601  -11.9323    0.0000 N   0  0
    1.8521  -12.3404    0.0000 C   0  0
    1.1447  -11.9314    0.0000 C   0  0  2  0  0  0
    1.8515  -13.1576    0.0000 O   0  0
    1.0555  -11.1161    0.0000 N   0  0
    0.2563  -10.9456    0.0000 C   0  0
   -0.1608  -11.6531    0.0000 C   0  0
    0.3936  -12.2607    0.0000 C   0  0  1  0  0  0
    0.2212  -13.0595    0.0000 C   0  0
   16.7453   -9.4752    0.0000 Cl  0  0
   18.1617   -8.6606    0.0000 Cl  0  0
   19.5752  -13.5719    0.0000 C   0  0
   19.5745  -14.3891    0.0000 C   0  0
  1  2  1  0
  2  3  1  0
  4  3  1  6
  3  5  2  0
  4  6  1  0
  6  7  2  0
  7  8  1  0
  8  9  1  0
  9  4  1  0
  9 10  1  1
 15 20  1  0
 23 31  1  0
 34 40  1  0
 13 12  1  1
 13 15  1  0
 15 14  2  0
 13 16  1  0
 16 17  1  6
 16 18  1  0
 18 19  1  0
 20 21  1  0
 21 23  1  0
 23 22  2  0
 21 24  1  6
 24 26  1  0
 25 26  2  0
 26 27  1  0
 27 28  2  0
 28 29  1  0
 29 30  2  0
 30 25  1  0
 31 32  1  0
 32 34  1  0
 34 33  2  0
 32 35  1  1
 35 36  1  0
 36 37  1  0
 37 38  2  0
 37 39  1  0
 12 41  1  0
 41 42  1  0
 41 43  2  0
 42 11  1  0
 42 44  1  6
 44 45  1  0
 49 54  1  0
 57 62  1  0
 65 71  1  0
 74 79  1  0
 47 46  1  1
 47 49  1  0
 49 48  2  0
 47 50  1  0
 50 51  1  6
 50 52  1  0
 52 53  1  0
 55 54  1  6
 55 57  1  0
 57 56  2  0
 55 58  1  0
 58 59  1  0
 59 60  1  0
 59 61  1  0
 62 63  1  0
 63 65  1  0
 65 64  2  0
 63 66  1  1
 66 67  1  0
 67 68  1  0
 68 69  2  0
 68 70  1  0
 72 71  1  6
 72 74  1  0
 74 73  2  0
 72 75  1  0
 75 76  1  1
 75 77  1  0
 77 78  1  0
 79 80  1  0
 80 45  1  0
 45 81  2  0
 80 82  1  1
 82 84  1  0
 83 84  2  0
 84 85  1  0
 85 86  2  0
 86 87  1  0
 87 88  2  0
 88 83  1  0
 46 89  1  0
 89 90  1  0
 89 91  2  0
 90 92  1  0
 90 93  1  1
 92 94  1  0
 94 95  1  0
 95 96  1  0
 96 97  1  0
 97 98  1  0
 99 98  1  1
 98100  2  0
 99101  1  0
101102  2  0
102103  1  0
103104  1  0
104 99  1  0
104105  1  6
 83106  1  0
 88107  1  0
 11108  1  0
108109  1  0
109  1  1  0
M  END