
          11280715572D 1   1.00000     0.00000     0

 75 80  0     1  0            999 V2000
   10.6167   -5.3417    0.0000 N   0  0  3  0  0  0           0  0  0
   10.1042   -5.0417    0.0000 C   0  0  0  0  0  0           0  0  0
    6.9917   -6.2542    0.0000 C   0  0  0  0  0  0           0  0  0
    3.8542   -5.0792    0.0000 C   0  0  0  0  0  0           0  0  0
    6.9792   -5.0542    0.0000 C   0  0  0  0  0  0           0  0  0
    5.4250   -5.3667    0.0000 C   0  0  0  0  0  0           0  0  0
    8.5417   -5.3417    0.0000 C   0  0  0  0  0  0           0  0  0
   11.1792   -5.5625    0.0000 C   0  0  3  0  0  0           0  0  0
    7.9417   -6.4542    0.0000 N   0  0  0  0  0  0           0  0  0
    4.3792   -5.3792    0.0000 N   0  0  0  0  0  0           0  0  0
    5.9417   -5.0667    0.0000 N   0  0  0  0  0  0           0  0  0
    3.3417   -5.3917    0.0000 C   0  0  1  0  0  0           0  0  0
    7.5042   -5.3542    0.0000 N   0  0  0  0  0  0           0  0  0
    9.0625   -5.0375    0.0000 N   0  0  0  0  0  0           0  0  0
    7.5417   -6.0125    0.0000 C   0  0  0  0  0  0           0  0  0
    6.4667   -5.3625    0.0000 C   0  0  2  0  0  0           0  0  0
    4.8917   -5.0750    0.0000 C   0  0  1  0  0  0           0  0  0
    8.0250   -5.0500    0.0000 C   0  0  1  0  0  0           0  0  0
   11.3375   -6.1417    0.0000 C   0  0  0  0  0  0           0  0  0
    9.5875   -5.3417    0.0000 C   0  0  1  0  0  0           0  0  0
   10.5917   -7.7542    0.0000 C   0  0  0  0  0  0           0  0  0
    2.8167   -5.0917    0.0000 N   0  0  0  0  0  0           0  0  0
    7.0542   -6.8542    0.0000 C   0  0  0  0  0  0           0  0  0
    6.4667   -5.9625    0.0000 C   0  0  0  0  0  0           0  0  0
    2.2917   -5.3917    0.0000 C   0  0  0  0  0  0           0  0  0
    7.6500   -6.9750    0.0000 C   0  0  0  0  0  0           0  0  0
   10.0750   -8.0500    0.0000 N   0  0  0  0  0  0           0  0  0
   10.1125   -4.4417    0.0000 O   0  0  0  0  0  0           0  0  0
    1.2417   -3.6042    0.0000 C   0  0  0  0  0  0           0  0  0
    3.8542   -4.4792    0.0000 O   0  0  0  0  0  0           0  0  0
    6.9792   -4.4542    0.0000 O   0  0  0  0  0  0           0  0  0
    8.5542   -5.9417    0.0000 O   0  0  0  0  0  0           0  0  0
    5.4292   -5.9667    0.0000 O   0  0  0  0  0  0           0  0  0
    1.2500   -4.2042    0.0000 C   0  0  0  0  0  0           0  0  0
    1.7667   -4.5000    0.0000 O   0  0  0  0  0  0           0  0  0
    4.8917   -4.4667    0.0000 C   0  0  0  0  0  0           0  0  0
   10.9042   -6.5667    0.0000 O   0  0  0  0  0  0           0  0  0
    8.0167   -4.4417    0.0000 C   0  0  0  0  0  0           0  0  0
    2.3042   -6.0000    0.0000 O   0  0  0  0  0  0           0  0  0
   10.6042   -7.1542    0.0000 N   0  0  0  0  0  0           0  0  0
   11.9167   -6.3000    0.0000 N   0  0  0  0  0  0           0  0  0
   11.1125   -8.0625    0.0000 N   0  0  0  0  0  0           0  0  0
    1.7750   -5.1000    0.0000 C   0  0  0  0  0  0           0  0  0
   10.6542   -4.7417    0.0000 C   0  0  0  0  0  0           0  0  0
    0.7250   -3.3125    0.0000 C   0  0  0  0  0  0           0  0  0
    5.4125   -4.1667    0.0000 C   0  0  0  0  0  0           0  0  0
    6.4500   -3.5542    0.0000 C   0  0  0  0  0  0           0  0  0
    3.3417   -5.9875    0.0000 C   0  0  0  0  0  0           0  0  0
    5.4042   -3.5667    0.0000 C   0  0  0  0  0  0           0  0  0
    5.9375   -4.4625    0.0000 C   0  0  0  0  0  0           0  0  0
    5.9292   -3.2625    0.0000 C   0  0  0  0  0  0           0  0  0
    6.4542   -4.1542    0.0000 C   0  0  0  0  0  0           0  0  0
   11.5625   -5.1000    0.0000 C   0  0  0  0  0  0           0  0  0
    6.9667   -3.2542    0.0000 O   0  0  0  0  0  0           0  0  0
    3.8667   -6.2792    0.0000 O   0  0  0  0  0  0           0  0  0
   11.2375   -4.5917    0.0000 C   0  0  0  0  0  0           0  0  0
    9.5792   -5.9417    0.0000 C   0  0  0  0  0  0           0  0  0
    6.6625   -7.3042    0.0000 C   0  0  0  0  0  0           0  0  0
    0.2167   -4.2167    0.0000 C   0  0  0  0  0  0           0  0  0
    8.5292   -4.1417    0.0000 C   0  0  3  0  0  0           0  0  0
    0.7375   -4.5042    0.0000 C   0  0  0  0  0  0           0  0  0
    1.7542   -3.3042    0.0000 C   0  0  0  0  0  0           0  0  0
    7.8417   -7.5500    0.0000 C   0  0  0  0  0  0           0  0  0
    0.2125   -3.6167    0.0000 C   0  0  0  0  0  0           0  0  0
   12.0667   -6.8792    0.0000 C   0  0  0  0  0  0           0  0  0
   10.0792   -6.8500    0.0000 C   0  0  0  0  0  0           0  0  0
    0.7167   -2.7250    0.0000 C   0  0  0  0  0  0           0  0  0
   10.0917   -6.2542    0.0000 C   0  0  0  0  0  0           0  0  0
    9.0542   -4.4375    0.0000 C   0  0  0  0  0  0           0  0  0
    8.5292   -3.5417    0.0000 C   0  0  0  0  0  0           0  0  0
   12.6417   -7.0375    0.0000 C   0  0  0  0  0  0           0  0  0
    6.8500   -7.8792    0.0000 C   0  0  0  0  0  0           0  0  0
    1.7500   -2.7125    0.0000 C   0  0  0  0  0  0           0  0  0
    7.4417   -7.9917    0.0000 C   0  0  0  0  0  0           0  0  0
    1.2292   -2.4167    0.0000 C   0  0  0  0  0  0           0  0  0
  2  1  1  0     0  0
  3 24  1  0     0  0
  4 10  1  0     0  0
  5 13  1  0     0  0
  6 11  1  0     0  0
  7 14  1  0     0  0
  8  1  1  0     0  0
  9 15  1  0     0  0
 10 17  1  0     0  0
 11 16  1  0     0  0
 12  4  1  0     0  0
 13 18  1  0     0  0
 14 20  1  0     0  0
 15  3  2  0     0  0
 16  5  1  0     0  0
 17  6  1  0     0  0
 18  7  1  0     0  0
 19  8  1  0     0  0
 20  2  1  0     0  0
 21 40  2  0     0  0
 22 12  1  0     0  0
 23  3  1  0     0  0
 16 24  1  1     0  0
 25 22  1  0     0  0
 26 23  2  0     0  0
 27 21  1  0     0  0
 28  2  2  0     0  0
 29 34  2  0     0  0
 30  4  2  0     0  0
 31  5  2  0     0  0
 32  7  2  0     0  0
 33  6  2  0     0  0
 34 35  1  0     0  0
 35 43  1  0     0  0
 17 36  1  1     0  0
 37 19  2  0     0  0
 18 38  1  1     0  0
 39 25  2  0     0  0
 40 66  1  0     0  0
 41 19  1  0     0  0
 42 21  1  0     0  0
 43 25  1  0     0  0
 44  1  1  0     0  0
 45 29  1  0     0  0
 46 36  1  0     0  0
 47 52  2  0     0  0
 12 48  1  6     0  0
 49 46  1  0     0  0
 50 46  2  0     0  0
 51 49  2  0     0  0
 52 50  1  0     0  0
 53  8  1  0     0  0
 54 47  1  0     0  0
 55 48  1  0     0  0
 56 44  1  0     0  0
 20 57  1  6     0  0
 58 23  1  0     0  0
 59 61  2  0     0  0
 60 38  1  0     0  0
 61 34  1  0     0  0
 62 29  1  0     0  0
 63 26  1  0     0  0
 64 59  1  0     0  0
 65 41  1  0     0  0
 66 68  1  0     0  0
 67 45  1  0     0  0
 68 57  1  0     0  0
 69 60  1  0     0  0
 70 60  1  0     0  0
 71 65  1  0     0  0
 72 58  2  0     0  0
 73 62  2  0     0  0
 74 72  1  0     0  0
 75 73  1  0     0  0
 56 53  1  0     0  0
 26  9  1  0     0  0
 63 74  2  0     0  0
 51 47  1  0     0  0
 45 64  2  0     0  0
 75 67  2  0     0  0
M  END