
  SciTegic10191216002D

 26 29  0  0  0  0            999 V2000
    0.9204    1.8313    0.0000 C   0  0
    0.9192    1.0029    0.0000 C   0  0
    1.6349    0.5897    0.0000 C   0  0
    2.3521    1.0034    0.0000 C   0  0
    2.3492    1.8349    0.0000 C   0  0
    1.6331    2.2445    0.0000 C   0  0
    1.6375   -0.2353    0.0000 C   0  0
    1.6315   -1.8861    0.0000 C   0  0
    2.3486   -1.4746    0.0000 N   0  0
    2.3525   -0.6460    0.0000 C   0  0
    0.9181   -1.4691    0.0000 C   0  0
    0.9213   -0.6489    0.0000 C   0  0
    0.2137   -0.2379    0.0000 C   0  0
   -0.4976   -0.6458    0.0000 N   0  0
   -0.4968   -1.4692    0.0000 C   0  0
    0.2114   -1.8766    0.0000 C   0  0
   -1.9274   -1.4711    0.0000 C   0  0
   -2.6421   -1.8849    0.0000 C   0  0
   -3.3579   -1.4729    0.0000 C   0  0
   -4.0699   -1.8867    0.0000 N   0  0
   -4.7845   -1.4782    0.0000 C   0  0
   -5.4943   -1.8885    0.0000 C   0  0
   -5.4961   -2.7123    0.0000 C   0  0
   -4.7819   -3.1242    0.0000 C   0  0
   -4.0658   -2.7121    0.0000 C   0  0
   -1.2116   -1.8831    0.0000 O   0  0
  6  1  1  0
 12 13  1  0
  7 12  1  0
 13 14  2  0
  1  2  2  0
 14 15  1  0
  3  4  2  0
 15 16  2  0
 16 11  1  0
 15 26  1  0
  4  5  1  0
 26 17  1  0
  7 10  1  0
 17 18  1  0
 11  8  1  0
 18 19  1  0
  8  9  1  0
 19 20  1  0
 20 21  1  0
  9 10  1  0
  7  3  1  0
  2  3  1  0
  5  6  2  0
 11 12  2  0
 20 25  1  0
 21 22  1  0
 22 23  1  0
 23 24  1  0
 24 25  1  0
M  END