
          11280715482D 1   1.00000     0.00000     0

 37 42  0     0  0            999 V2000
    4.5500   -0.9667    0.0000 C   0  0  0  0  0  0           0  0  0
    3.7917   -0.6250    0.0000 N   0  0  0  0  0  0           0  0  0
    3.2417   -1.2375    0.0000 C   0  0  0  0  0  0           0  0  0
    4.4542   -1.7875    0.0000 C   0  0  0  0  0  0           0  0  0
    3.6417   -1.9542    0.0000 N   0  0  0  0  0  0           0  0  0
    5.2667   -0.5542    0.0000 C   0  0  0  0  0  0           0  0  0
    2.4167   -1.1417    0.0000 C   0  0  0  0  0  0           0  0  0
    5.4917   -3.7042    0.0000 C   0  0  3  0  0  0           0  0  0
    5.9792   -0.9750    0.0000 N   0  0  0  0  0  0           0  0  0
    8.8292   -1.0000    0.0000 C   0  0  0  0  0  0           0  0  0
    1.9375   -1.8042    0.0000 C   0  0  0  0  0  0           0  0  0
    8.1167   -0.5792    0.0000 C   0  0  0  0  0  0           0  0  0
    2.0917   -0.3875    0.0000 C   0  0  0  0  0  0           0  0  0
    6.1000   -5.1917    0.0000 C   0  0  3  0  0  0           0  0  0
    6.8042   -4.0417    0.0000 C   0  0  3  0  0  0           0  0  0
    5.6750   -4.9625    0.0000 C   0  0  3  0  0  0           0  0  0
    5.2667    0.2708    0.0000 O   0  0  0  0  0  0           0  0  0
    5.0625   -2.3417    0.0000 C   0  0  0  0  0  0           0  0  0
    6.6917   -0.5667    0.0000 C   0  0  0  0  0  0           0  0  0
    7.4042   -0.9917    0.0000 C   0  0  0  0  0  0           0  0  0
    1.1167   -1.7167    0.0000 C   0  0  0  0  0  0           0  0  0
    6.2542   -3.4292    0.0000 C   0  0  0  0  0  0           0  0  0
    5.5250   -4.5667    0.0000 C   0  0  0  0  0  0           0  0  0
    5.1292   -4.3792    0.0000 C   0  0  0  0  0  0           0  0  0
    8.8250   -1.8250    0.0000 O   0  0  0  0  0  0           0  0  0
    4.8875   -3.1500    0.0000 C   0  0  0  0  0  0           0  0  0
    5.6542   -5.9000    0.0000 C   0  0  0  0  0  0           0  0  0
    6.3750   -4.6792    0.0000 C   0  0  0  0  0  0           0  0  0
    6.8625   -4.9125    0.0000 C   0  0  0  0  0  0           0  0  0
    9.5500   -0.5917    0.0000 O   0  0  0  0  0  0           0  0  0
    1.2667   -0.2917    0.0000 C   0  0  0  0  0  0           0  0  0
    0.7792   -0.9625    0.0000 C   0  0  0  0  0  0           0  0  0
    2.2667   -2.5625    0.0000 C   0  0  0  0  0  0           0  0  0
    8.1250    0.2458    0.0000 C   0  0  0  0  0  0           0  0  0
    7.4042    0.6583    0.0000 C   0  0  0  0  0  0           0  0  0
    6.6917    0.2500    0.0000 C   0  0  0  0  0  0           0  0  0
   -0.0375   -0.8750    0.0000 C   0  0  0  0  0  0           0  0  0
  2  1  1  0     0  0
  3  2  2  0     0  0
  4  1  2  0     0  0
  5  4  1  0     0  0
  6  1  1  0     0  0
  7  3  1  0     0  0
  8 26  1  0     0  0
  9  6  1  0     0  0
 10 12  1  0     0  0
 11  7  1  0     0  0
 12 20  1  0     0  0
 13  7  2  0     0  0
 14 23  1  0     0  0
 15 22  1  0     0  0
 16 24  1  0     0  0
 17  6  2  0     0  0
 18  4  1  0     0  0
 19  9  1  0     0  0
 20 19  2  0     0  0
 21 11  2  0     0  0
 22  8  1  0     0  0
 23  8  1  0     0  0
 24  8  1  0     0  0
 25 10  2  0     0  0
 26 18  1  0     0  0
 27 16  1  0     0  0
 28 16  1  0     0  0
 29 14  1  0     0  0
 30 10  1  0     0  0
 31 13  1  0     0  0
 32 31  2  0     0  0
 33 11  1  0     0  0
 34 35  1  0     0  0
 35 36  2  0     0  0
 36 19  1  0     0  0
 37 32  1  0     0  0
  3  5  1  0     0  0
 12 34  2  0     0  0
 21 32  1  0     0  0
 28 15  1  0     0  0
 14 27  1  0     0  0
 29 15  1  0     0  0
M  END