
  SciTegic02011310422D

 28 30  0  0  0  0            999 V2000
   11.3943  -23.0492    0.0000 N   0  0
   12.0989  -22.6207    0.0000 C   0  0  1  0  0  0
   12.8229  -23.0161    0.0000 C   0  0
   12.8444  -23.8363    0.0000 O   0  0
   13.5693  -22.6609    0.0000 N   0  0
   14.2947  -23.0526    0.0000 C   0  0  1  0  0  0
   14.8927  -22.4851    0.0000 C   0  0
   14.5408  -21.7407    0.0000 C   0  0
   13.7209  -21.8455    0.0000 C   0  0
   14.3064  -23.8780    0.0000 C   0  0
   13.5977  -24.3004    0.0000 O   0  0
   15.0265  -24.2806    0.0000 N   0  0
   15.7352  -23.8582    0.0000 C   0  0
   16.4553  -24.2608    0.0000 C   0  0
   16.4619  -25.0868    0.0000 C   0  0
   17.1812  -25.4893    0.0000 C   0  0
   17.8909  -25.0668    0.0000 C   0  0
   17.8767  -24.2377    0.0000 C   0  0
   17.1569  -23.8389    0.0000 C   0  0
   12.0797  -21.7959    0.0000 C   0  0
   11.3558  -21.4002    0.0000 C   0  0
   11.3410  -20.5744    0.0000 C   0  0
   10.6179  -20.1787    0.0000 C   0  0
    9.9123  -20.6078    0.0000 C   0  0
    9.9342  -21.4368    0.0000 C   0  0
   10.6577  -21.8287    0.0000 C   0  0
   17.1423  -23.0141    0.0000 Cl  0  0
   17.1922  -26.3142    0.0000 Cl  0  0
 13 14  1  0
  5  6  1  0
 14 15  2  0
  6  7  1  0
 15 16  1  0
  7  8  1  0
 16 17  2  0
  8  9  1  0
 17 18  1  0
  9  5  1  0
 18 19  2  0
 19 14  1  0
  2 20  1  6
  6 10  1  1
 20 21  1  0
  1  2  1  0
 21 22  2  0
 10 11  2  0
 22 23  1  0
  2  3  1  0
 23 24  2  0
 10 12  1  0
 24 25  1  0
  3  4  2  0
 25 26  2  0
 26 21  1  0
 12 13  1  0
 19 27  1  0
  3  5  1  0
 16 28  1  0
M  END