
  Mrv0541 04051115152D          

 25 27  0  0  0  0            999 V2000
   -2.9530   -1.4024    0.0000 N   0  0  0  0  0  0  0  0  0  0  0  0
   -2.1993   -1.7379    0.0000 C   0  0  0  0  0  0  0  0  0  0  0  0
   -1.5319   -1.2530    0.0000 N   0  0  0  0  0  0  0  0  0  0  0  0
   -3.0392   -0.5819    0.0000 C   0  0  0  0  0  0  0  0  0  0  0  0
   -1.0661    0.1806    0.0000 N   0  0  0  0  0  0  0  0  0  0  0  0
   -1.4786    0.8950    0.0000 C   0  0  0  0  0  0  0  0  0  0  0  0
   -2.2855    0.7235    0.0000 N   0  0  0  0  0  0  0  0  0  0  0  0
   -2.3718   -0.0970    0.0000 C   0  0  0  0  0  0  0  0  0  0  0  0
   -1.6181   -0.4325    0.0000 C   0  0  0  0  0  0  0  0  0  0  0  0
   -3.7929   -0.2463    0.0000 N   0  0  0  0  0  0  0  0  0  0  0  0
   -0.2456    0.0943    0.0000 C   0  0  2  0  0  0  0  0  0  0  0  0
    0.3064    0.7074    0.0000 O   0  0  0  0  0  0  0  0  0  0  0  0
    1.0601    0.3719    0.0000 C   0  0  1  0  0  0  0  0  0  0  0  0
    0.9739   -0.4486    0.0000 C   0  0  2  0  0  0  0  0  0  0  0  0
    0.1669   -0.6202    0.0000 C   0  0  1  0  0  0  0  0  0  0  0  0
    1.7746    0.7844    0.0000 C   0  0  0  0  0  0  0  0  0  0  0  0
    2.4891    0.3719    0.0000 O   0  0  0  0  0  0  0  0  0  0  0  0
   -0.1686   -1.3738    0.0000 O   0  0  0  0  0  0  0  0  0  0  0  0
    1.5870   -1.0007    0.0000 O   0  0  0  0  0  0  0  0  0  0  0  0
   -1.1430    1.6487    0.0000 N   0  0  0  0  0  0  0  0  0  0  0  0
   -1.6279    2.3161    0.0000 C   0  0  0  0  0  0  0  0  0  0  0  0
    3.2035    0.7844    0.0000 C   0  0  0  0  0  0  0  0  0  0  0  0
    3.9180    0.3719    0.0000 C   0  0  0  0  0  0  0  0  0  0  0  0
    4.6325    0.7844    0.0000 O   0  0  0  0  0  0  0  0  0  0  0  0
    3.9180   -0.4531    0.0000 N   0  0  0  0  0  0  0  0  0  0  0  0
  2  1  2  0  0  0  0
  4  1  1  0  0  0  0
  2  3  1  0  0  0  0
  9  3  2  0  0  0  0
  4  8  2  0  0  0  0
  4 10  1  0  0  0  0
  6  5  1  0  0  0  0
  9  5  1  0  0  0  0
 11  5  1  6  0  0  0
  6  7  2  0  0  0  0
  6 20  1  0  0  0  0
  8  7  1  0  0  0  0
  8  9  1  0  0  0  0
 11 12  1  0  0  0  0
 11 15  1  0  0  0  0
 13 12  1  0  0  0  0
 13 14  1  0  0  0  0
 13 16  1  6  0  0  0
 14 15  1  0  0  0  0
 14 19  1  1  0  0  0
 15 18  1  1  0  0  0
 16 17  1  0  0  0  0
 22 17  1  0  0  0  0
 21 20  1  0  0  0  0
 22 23  1  0  0  0  0
 23 24  2  0  0  0  0
 23 25  1  0  0  0  0
M  END