
  SciTegic08101216542D

 44 47  0  0  0  0            999 V2000
   10.9489   -1.8419    0.0000 C   0  0
   11.7464   -1.5901    0.0000 C   0  0
   12.3297   -2.1735    0.0000 N   0  0
   12.1554   -2.9662    0.0000 C   0  0
   11.3580   -3.2178    0.0000 C   0  0
   10.7747   -2.6346    0.0000 N   0  0
    9.9653   -2.9030    0.0000 C   0  0
    9.3861   -2.3199    0.0000 C   0  0  2  0  0  0
    8.5758   -2.5432    0.0000 C   0  0
    7.9924   -1.9600    0.0000 O   0  0
    7.1983   -2.1750    0.0000 C   0  0
    6.6150   -1.5916    0.0000 C   0  0
    5.8208   -1.8024    0.0000 C   0  0
    5.6058   -2.6007    0.0000 C   0  0
    6.1892   -3.1841    0.0000 C   0  0
    6.9876   -2.9691    0.0000 C   0  0
    7.5666   -3.5523    0.0000 C   0  0
    7.3558   -4.3465    0.0000 C   0  0
    6.5576   -4.5614    0.0000 C   0  0
    5.9742   -3.9781    0.0000 N   0  0
    9.5891   -1.5342    0.0000 O   0  0
   13.1186   -1.9296    0.0000 C   0  0  1  0  0  0
   13.2508   -1.1032    0.0000 C   0  0
   12.5356   -0.6912    0.0000 C   0  0
   12.5356    0.1331    0.0000 C   0  0
   13.2508    0.5452    0.0000 C   0  0
   13.9658    0.1331    0.0000 C   0  0
   13.9658   -0.6912    0.0000 C   0  0
   14.7329   -0.9933    0.0000 C   0  0  1  0  0  0
   14.9635   -1.7709    0.0000 C   0  0  2  0  0  0
   15.5468   -1.1875    0.0000 C   0  0
   15.8568   -0.4160    0.0000 F   0  0
   16.2294   -1.6240    0.0000 F   0  0
   14.5099   -2.4607    0.0000 C   0  0
   14.9761   -3.1429    0.0000 C   0  0
   14.6174   -3.8851    0.0000 C   0  0
   13.7967   -3.9452    0.0000 C   0  0
   13.3306   -3.2672    0.0000 C   0  0
   13.7019   -2.5129    0.0000 C   0  0
   15.3755   -2.4818    0.0000 H   0  0
   15.1450   -0.2781    0.0000 H   0  0
   10.1357   -4.7143    0.0000 Cl  0  0
   11.5795   -4.7143    0.0000 Cl  0  0
   11.3732   -5.6277    0.0000 Cl  0  0
  1  2  1  0
  2  3  1  0
  3  4  1  0
  4  5  1  0
  5  6  1  0
  1  6  1  0
  6  7  1  0
  7  8  1  0
  8  9  1  0
  9 10  1  0
 10 11  1  0
 11 12  2  0
 12 13  1  0
 13 14  2  0
 14 15  1  0
 15 16  2  0
 11 16  1  0
 16 17  1  0
 17 18  2  0
 18 19  1  0
 19 20  2  0
 15 20  1  0
  8 21  1  6
 22  3  1  1
 22 23  1  0
 23 24  2  0
 24 25  1  0
 25 26  2  0
 26 27  1  0
 27 28  2  0
 23 28  1  0
 28 29  1  0
 29 30  1  0
 30 31  1  0
 29 31  1  0
 31 32  1  0
 31 33  1  0
 30 34  1  0
 34 35  2  0
 35 36  1  0
 36 37  2  0
 37 38  1  0
 38 39  2  0
 22 39  1  0
 34 39  1  0
 30 40  1  1
 29 41  1  1
M  END