
  SciTegic09081514172D

 52 57  0  0  0  0            999 V2000
    1.8372   -5.2877    0.0000 C   0  0
    1.3786   -3.8595    0.0000 C   0  0
    2.5951   -3.0039    0.0000 C   0  0
    3.8056   -3.8679    0.0000 N   0  0
    3.3372   -5.2929    0.0000 C   0  0
    1.1285   -6.2561    0.0000 Cl  0  0
    4.0391   -6.2662    0.0000 Cl  0  0
    2.5973   -1.5031    0.0000 C   0  0
    1.2990   -0.7500    0.0000 C   0  0
    3.6375   -0.9049    0.0000 O   0  0
    1.2990    0.7500    0.0000 C   0  0
    0.0000    1.5000    0.0000 C   0  0
   -1.2990    0.7500    0.0000 C   0  0
   -1.2990   -0.7500    0.0000 C   0  0
    0.0000   -1.5000    0.0000 C   0  0
    5.2318   -3.4007    0.0000 C   0  0
    5.7843   -2.0252    0.0000 C   0  0
    7.2795   -2.1454    0.0000 C   0  0
    7.6272   -3.6045    0.0000 N   0  0
    6.3470   -4.3862    0.0000 C   0  0
    8.0603   -1.2342    0.0000 Cl  0  0
    5.1526   -1.0049    0.0000 Cl  0  0
    6.2164   -5.8786    0.0000 C   0  0
    7.4452   -6.7403    0.0000 C   0  0
    5.1286   -6.3853    0.0000 O   0  0
    8.8039   -6.1046    0.0000 C   0  0
   10.0337   -6.9633    0.0000 C   0  0
    9.9050   -8.4578    0.0000 C   0  0
    8.5464   -9.0935    0.0000 C   0  0
    7.3165   -8.2348    0.0000 C   0  0
    6.2297   -8.7435    0.0000 O   0  0
    2.3383    1.3500    0.0000 O   0  0
   11.1206   -6.4547    0.0000 Cl  0  0
   -2.3383   -1.3500    0.0000 Cl  0  0
   11.1355   -9.3169    0.0000 C   0  0
   12.5360   -8.8164    0.0000 C   0  0
   13.4385  -10.0145    0.0000 N   0  0
   12.5778  -11.2430    0.0000 N   0  0
   11.1435  -10.8041    0.0000 N   0  0
   -2.5987    1.5004    0.0000 C   0  0
   -2.7390    2.9810    0.0000 C   0  0
   -4.2067    3.2905    0.0000 N   0  0
   -4.9546    1.9903    0.0000 N   0  0
   -3.9492    0.8772    0.0000 N   0  0
   14.9366   -9.9918    0.0000 C   0  0
   15.7074  -11.2796    0.0000 C   0  0
   15.1235  -12.3280    0.0000 O   0  0
   16.9072  -11.2614    0.0000 O   0  0
   -4.8211    4.6570    0.0000 C   0  0
   -6.3142    4.8094    0.0000 C   0  0
   -7.0163    3.8362    0.0000 O   0  0
   -6.8063    5.9038    0.0000 O   0  0
  1  2  1  0
  2  3  2  0
  3  4  1  0
  4  5  1  0
  5  1  2  0
  1  6  1  0
  5  7  1  0
  3  8  1  0
  8  9  1  0
  8 10  2  0
  9 11  2  0
 11 12  1  0
 12 13  2  0
 13 14  1  0
 14 15  2  0
 15  9  1  0
 16 17  1  0
 17 18  2  0
 18 19  1  0
 19 20  1  0
 20 16  2  0
  4 16  1  0
 18 21  1  0
 17 22  1  0
 20 23  1  0
 23 24  1  0
 23 25  2  0
 24 26  2  0
 26 27  1  0
 27 28  2  0
 28 29  1  0
 29 30  2  0
 30 24  1  0
 30 31  1  0
 11 32  1  0
 27 33  1  0
 14 34  1  0
 28 35  1  0
 35 36  2  0
 36 37  1  0
 37 38  1  0
 38 39  2  0
 39 35  1  0
 40 41  2  0
 41 42  1  0
 42 43  1  0
 43 44  2  0
 44 40  1  0
 13 40  1  0
 37 45  1  0
 45 46  1  0
 46 47  1  0
 46 48  2  0
 42 49  1  0
 49 50  1  0
 50 51  1  0
 50 52  2  0
M  END