
          11280715382D 1   1.00000     0.00000     0

 32 33  0     1  0            999 V2000
    5.3542   -7.1917    0.0000 N   0  0  3  0  0  0           0  0  0
    6.1542   -7.0542    0.0000 C   0  0  0  0  0  0           0  0  0
    4.8542   -5.8750    0.0000 C   0  0  0  0  0  0           0  0  0
    4.8542   -6.7042    0.0000 C   0  0  0  0  0  0           0  0  0
    4.1292   -4.6292    0.0000 C   0  0  3  0  0  0           0  0  0
    6.5292   -6.3000    0.0000 C   0  0  1  0  0  0           0  0  0
    6.1667   -5.5250    0.0000 C   0  0  1  0  0  0           0  0  0
    4.1292   -5.4625    0.0000 C   0  0  0  0  0  0           0  0  0
    5.3667   -5.3750    0.0000 C   0  0  0  0  0  0           0  0  0
    5.1042   -7.9792    0.0000 C   0  0  0  0  0  0           0  0  0
    6.6667   -4.8667    0.0000 C   0  0  0  0  0  0           0  0  0
    6.6417   -7.7167    0.0000 O   0  0  0  0  0  0           0  0  0
    4.0417   -8.9417    0.0000 N   0  3  3  0  0  0           0  0  0
    6.7750   -9.1167    0.0000 I   0  5  0  0  0  0           0  0  0
    4.7917   -4.0875    0.0000 F   0  0  0  0  0  0           0  0  0
    3.4542   -4.0917    0.0000 F   0  0  0  0  0  0           0  0  0
    4.1292   -3.8792    0.0000 F   0  0  0  0  0  0           0  0  0
    4.2917   -8.1542    0.0000 C   0  0  0  0  0  0           0  0  0
    7.4917   -4.9875    0.0000 C   0  0  0  0  0  0           0  0  0
    6.3542   -4.1167    0.0000 C   0  0  0  0  0  0           0  0  0
    7.6792   -3.5667    0.0000 C   0  0  0  0  0  0           0  0  0
    4.1292   -7.1167    0.0000 C   0  0  0  0  0  0           0  0  0
    6.8542   -3.4625    0.0000 C   0  0  0  0  0  0           0  0  0
    7.9917   -4.3292    0.0000 C   0  0  0  0  0  0           0  0  0
    3.4167   -5.8750    0.0000 C   0  0  0  0  0  0           0  0  0
    7.3542   -6.3167    0.0000 C   0  0  0  0  0  0           0  0  0
    8.1792   -2.9167    0.0000 O   0  0  0  0  0  0           0  0  0
    3.4167   -6.7042    0.0000 C   0  0  0  0  0  0           0  0  0
    4.6042   -9.5500    0.0000 C   0  0  0  0  0  0           0  0  0
    3.8292   -9.7375    0.0000 C   0  0  0  0  0  0           0  0  0
    3.2417   -9.1167    0.0000 C   0  0  0  0  0  0           0  0  0
    9.0042   -3.0250    0.0000 C   0  0  0  0  0  0           0  0  0
  2  1  1  0     0  0
  3  4  1  0     0  0
  4  1  1  0     0  0
  5  8  1  0     0  0
  6  2  1  0     0  0
  7  6  1  0     0  0
  8  3  2  0     0  0
  9  3  1  0     0  0
 10  1  1  0     0  0
  7 11  1  1     0  0
 12  2  2  0     0  0
 13 18  1  0     0  0
 15  5  1  0     0  0
 16  5  1  0     0  0
 17  5  1  0     0  0
 18 10  1  0     0  0
 19 11  2  0     0  0
 20 11  1  0     0  0
 21 24  2  0     0  0
 22  4  2  0     0  0
 23 20  2  0     0  0
 24 19  1  0     0  0
 25 28  2  0     0  0
  6 26  1  1     0  0
 27 21  1  0     0  0
 28 22  1  0     0  0
 29 13  1  0     0  0
 30 13  1  0     0  0
 31 13  1  0     0  0
 32 27  1  0     0  0
  7  9  1  0     0  0
  8 25  1  0     0  0
 23 21  1  0     0  0
M  CHG  2  13   1  14  -1
M  END