
  SciTegic11201309402D

 70 77  0  0  1  0            999 V2000
    4.0792   -2.1250    0.0000 C   0  0
    5.8667   -3.2542    0.0000 C   0  0  1  0  0  0
    5.2917   -2.6667    0.0000 C   0  0
    4.4875   -2.8375    0.0000 S   0  0
    3.3125   -2.4292    0.0000 C   0  0
    4.6292   -1.5167    0.0000 N   0  0
    6.6417   -2.9500    0.0000 C   0  0
    6.4042   -4.5917    0.0000 C   0  0
   -0.0875   -3.7417    0.0000 C   0  0
    2.6625   -1.9167    0.0000 C   0  0  1  0  0  0
    5.7542   -4.0792    0.0000 C   0  0
    1.2292   -2.0042    0.0000 C   0  0
    8.7167   -3.6667    0.0000 C   0  0
    1.9750   -2.3667    0.0000 N   0  0
    7.2917   -3.4625    0.0000 N   0  0
    5.3792   -1.8542    0.0000 C   0  0
   -0.8833   -2.5542    0.0000 C   0  0
    7.6667   -5.0542    0.0000 N   0  0
    0.1042   -5.0750    0.0000 N   0  0
   -0.1958   -2.0917    0.0000 N   0  0
    9.4917   -3.3542    0.0000 N   0  0
    7.2042   -4.3667    0.0000 C   0  0
    0.4917   -4.3417    0.0000 C   0  0
    0.5500   -2.4625    0.0000 C   0  0  2  0  0  0
    8.0667   -3.1542    0.0000 C   0  0  1  0  0  0
   10.1417   -3.8750    0.0000 C   0  0  2  0  0  0
   10.9125   -3.5625    0.0000 C   0  0
    6.3750   -5.4167    0.0000 C   0  0
   -0.8208   -4.1042    0.0000 C   0  0
    0.6042   -3.2917    0.0000 C   0  0
    7.1542   -5.7042    0.0000 C   0  0
   -0.7083   -4.9167    0.0000 C   0  0
   -2.1000   -2.7250    0.0000 N   0  0
    3.1917   -3.2542    0.0000 O   0  0
   -1.5708   -2.2125    0.0000 C   0  0  1  0  0  0
    6.7625   -2.1250    0.0000 O   0  0
    2.7792   -1.0917    0.0000 C   0  0
    8.6000   -4.4875    0.0000 O   0  0
    1.1792   -1.1792    0.0000 O   0  0
   -0.8333   -3.3792    0.0000 O   0  0
   10.0167   -4.6917    0.0000 C   0  0
   11.0292   -2.7417    0.0000 O   0  0
    8.1792   -2.3292    0.0000 C   0  0
   11.6917   -3.8292    0.0000 N   0  0
    3.5500   -0.7875    0.0000 C   0  0
   10.6750   -5.2042    0.0000 C   0  0
   -1.5833   -3.7917    0.0000 C   0  0
    5.7292   -5.9500    0.0000 C   0  0
   -2.7625   -2.2167    0.0000 C   0  0
    8.9542   -2.0250    0.0000 C   0  0
   -1.3583   -5.4167    0.0000 C   0  0
    7.2917   -6.5250    0.0000 C   0  0
   -1.6708   -1.4542    0.0000 C   0  0
    4.2000   -1.3000    0.0000 C   0  0
   10.5542   -6.0292    0.0000 C   0  0
   11.4417   -4.9000    0.0000 C   0  0
    3.6667    0.0333    0.0000 C   0  0
    9.0750   -1.2000    0.0000 C   0  0
    9.6042   -2.5417    0.0000 C   0  0
   -2.4958   -1.4417    0.0000 C   0  0
   -2.2333   -4.2917    0.0000 C   0  0
    5.8750   -6.7667    0.0000 C   0  0
   -2.1208   -5.1125    0.0000 C   0  0
    6.6542   -7.0542    0.0000 C   0  0
    4.9667   -0.9917    0.0000 C   0  0
    4.4375    0.3458    0.0000 C   0  0
   12.0917   -5.4167    0.0000 C   0  0
   11.2042   -6.5417    0.0000 C   0  0
   11.9792   -6.2417    0.0000 C   0  0
    5.0917   -0.1667    0.0000 C   0  0
  2  3  1  0
  3  4  1  0
  4  1  1  0
  5  1  1  0
  6  1  2  0
  7  2  1  0
  8 11  1  0
  9 30  1  0
 10  5  1  0
  2 11  1  1
 12 14  1  0
 13 25  1  0
 10 14  1  1
 15  7  1  0
 16  6  1  0
 17 20  1  0
 18 22  1  0
 19 23  1  0
 24 20  1  1
 21 13  1  0
 22  8  2  0
 23  9  2  0
 24 12  1  0
 25 15  1  1
 26 21  1  6
 27 26  1  0
 28  8  1  0
 29  9  1  0
 24 30  1  0
 31 28  2  0
 32 29  2  0
 33 35  1  0
 34  5  2  0
 35 17  1  1
 36  7  2  0
 10 37  1  0
 38 13  2  0
 39 12  2  0
 40 17  2  0
 26 41  1  0
 42 27  2  0
 25 43  1  0
 44 27  1  0
 45 37  1  0
 46 41  1  0
 47 29  1  0
 48 28  1  0
 49 33  1  0
 50 43  1  0
 51 32  1  0
 52 31  1  0
 35 53  1  0
 54 45  2  0
 55 46  2  0
 56 46  1  0
 57 45  1  0
 58 50  1  0
 59 50  1  0
 60 53  1  0
 61 47  2  0
 62 48  2  0
 63 61  1  0
 64 62  1  0
 65 54  1  0
 66 57  2  0
 67 56  2  0
 68 55  1  0
 69 67  1  0
 70 66  1  0
 16  3  2  0
 70 65  2  0
 18 31  1  0
 19 32  1  0
 64 52  2  0
 60 49  1  0
 51 63  2  0
 68 69  2  0
M  END