
  SciTegic03291108582D

 23 26  0  0  0  0            999 V2000
   -1.0778    2.0378    0.0000 S   0  0
    0.4213   -0.2796    0.0000 S   0  0
    1.1358    0.9579    0.0000 N   0  0
    0.4213    2.1954    0.0000 N   0  0
    1.8895   -0.3565    0.0000 N   0  0
    1.2220   -1.5126    0.0000 N   0  0
    2.4415   -0.9696    0.0000 N   0  0
    2.0290   -1.6841    0.0000 N   0  0
   -0.2932    0.9579    0.0000 C   0  0
   -1.0778    0.7030    0.0000 C   0  0
   -0.2932    1.7829    0.0000 C   0  0
    0.4213    0.5454    0.0000 C   0  0
   -1.3327   -0.0817    0.0000 C   0  0
   -1.5627    1.3704    0.0000 C   0  0
    1.1358   -0.6921    0.0000 C   0  0
    1.1358    1.7829    0.0000 C   0  0
   -0.7807   -0.6947    0.0000 C   0  0
   -2.1397   -0.2532    0.0000 C   0  0
   -1.0356   -1.4794    0.0000 C   0  0
   -2.3946   -1.0378    0.0000 C   0  0
   -1.8426   -1.6509    0.0000 C   0  0
    2.0610    0.4504    0.0000 C   0  0
   -0.4836   -2.0925    0.0000 C   0  0
  1 11  1  0
  1 14  1  0
  2 12  1  0
  2 15  1  0
  3 12  1  0
  3 16  2  0
  4 11  2  0
  4 16  1  0
  5  7  1  0
  5 15  1  0
  5 22  1  0
  6  8  1  0
  6 15  2  0
  7  8  2  0
  9 10  1  0
  9 11  1  0
  9 12  2  0
 10 13  1  0
 10 14  2  0
 13 17  2  0
 13 18  1  0
 17 19  1  0
 18 20  2  0
 19 21  2  0
 19 23  1  0
 20 21  1  0
M  END