
  SciTegic12231509382D

 33 40  0  0  0  0            999 V2000
    9.0875   -9.8163    0.0000 C   0  0  2  0  0  0
   10.5118   -9.8163    0.0000 C   0  0
    9.0875   -8.9876    0.0000 C   0  0  2  0  0  0
   10.5160   -8.9917    0.0000 C   0  0
    9.7913  -10.2287    0.0000 C   0  0  2  0  0  0
    9.0750  -10.6285    0.0000 C   0  0
   11.2906  -10.0787    0.0000 N   0  0
    9.7872  -11.0490    0.0000 C   0  0
   10.4993  -10.6410    0.0000 O   0  0
    8.3754   -8.5669    0.0000 C   0  0  2  0  0  0
    7.6631   -8.9876    0.0000 N   0  0
    9.7997   -8.5753    0.0000 C   0  0
    8.3628  -11.0366    0.0000 C   0  0
   11.3031   -8.7419    0.0000 C   0  0
   11.7863   -9.4165    0.0000 C   0  0
    7.6506  -10.6159    0.0000 C   0  0
    8.3754  -10.2244    0.0000 C   0  0
    6.9426   -8.5753    0.0000 C   0  0
    9.7747  -11.8654    0.0000 C   0  0
    7.6631   -9.8163    0.0000 C   0  0
    6.2304   -8.9917    0.0000 C   0  0
    5.4017   -8.9917    0.0000 C   0  0
    5.8265   -9.7038    0.0000 C   0  0
    8.3503  -11.8612    0.0000 C   0  0
    9.0750   -8.1546    0.0000 O   0  0
    9.0624  -12.2777    0.0000 C   0  0
   10.4869  -12.2860    0.0000 O   0  0
   11.6405   -7.9922    0.0000 C   0  0
   12.5984   -9.3416    0.0000 C   0  0
   12.4610   -7.9130    0.0000 C   0  0
   12.9483   -8.5919    0.0000 C   0  0
    9.5373  -10.5993    0.0000 H   0  0
    8.3754   -7.7423    0.0000 H   0  0
  2  5  1  0
  3  1  1  0
  4  2  2  0
  5  1  1  0
  1  6  1  6
  7  2  1  0
  8  6  1  0
  9  5  1  0
 10  3  1  0
 11 20  1  0
 12  3  1  0
 13  6  2  0
 14  4  1  0
 15  7  1  0
 16 13  1  0
 17  1  1  0
 18 11  1  0
 19  8  2  0
 20 17  1  0
 21 18  1  0
 22 21  1  0
 23 21  1  0
 24 13  1  0
  3 25  1  1
 26 24  2  0
 27 19  1  0
 28 14  1  0
 29 15  1  0
 30 28  2  0
 31 29  2  0
  5 32  1  1
 10 33  1  6
  9  8  1  0
 12  4  1  0
 11 10  1  0
 16 10  1  0
 26 19  1  0
 15 14  2  0
 22 23  1  0
 30 31  1  0
M  END