
          11280715112D 1   1.00000     0.00000     0

 28 31  0     0  0            999 V2000
   -1.3958    0.7958    0.0000 C   0  0  0  0  0  0           0  0  0
   -2.1500    0.4583    0.0000 N   0  0  3  0  0  0           0  0  0
   -2.7000    1.0750    0.0000 N   0  0  0  0  0  0           0  0  0
   -1.4833    1.6208    0.0000 C   0  0  0  0  0  0           0  0  0
   -2.2875    1.7875    0.0000 C   0  0  0  0  0  0           0  0  0
   -0.6833    0.3833    0.0000 N   0  0  0  0  0  0           0  0  0
    0.0292    0.7958    0.0000 C   0  0  0  0  0  0           0  0  0
   -2.6250    2.5458    0.0000 C   0  0  3  0  0  0           0  0  0
    0.7417    0.3833    0.0000 N   0  0  0  0  0  0           0  0  0
   -2.3833   -0.3292    0.0000 C   0  0  0  0  0  0           0  0  0
    0.0292    1.6208    0.0000 O   0  0  0  0  0  0           0  0  0
    1.4625    0.7958    0.0000 C   0  0  0  0  0  0           0  0  0
   -1.8000    2.5458    0.0000 C   0  0  0  0  0  0           0  0  0
   -3.4458    2.6333    0.0000 C   0  0  0  0  0  0           0  0  0
   -2.1375    3.2125    0.0000 C   0  0  0  0  0  0           0  0  0
   -3.1833   -0.5167    0.0000 C   0  0  0  0  0  0           0  0  0
   -1.8208   -0.9167    0.0000 C   0  0  0  0  0  0           0  0  0
    1.4542    1.6125    0.0000 C   0  0  0  0  0  0           0  0  0
    2.1750    0.3750    0.0000 C   0  0  0  0  0  0           0  0  0
   -2.4708    3.9625    0.0000 C   0  0  0  0  0  0           0  0  0
   -3.7833    3.3958    0.0000 C   0  0  0  0  0  0           0  0  0
   -2.0458   -1.7125    0.0000 C   0  0  0  0  0  0           0  0  0
   -3.4208   -1.3042    0.0000 C   0  0  0  0  0  0           0  0  0
    2.8875    0.7875    0.0000 C   0  0  0  0  0  0           0  0  0
    2.1667    2.0250    0.0000 C   0  0  0  0  0  0           0  0  0
   -2.8583   -1.9042    0.0000 C   0  0  0  0  0  0           0  0  0
    2.8917    1.6125    0.0000 C   0  0  0  0  0  0           0  0  0
   -3.2958    4.0417    0.0000 C   0  0  0  0  0  0           0  0  0
  2  1  1  0     0  0
  3  2  1  0     0  0
  4  1  2  0     0  0
  5  4  1  0     0  0
  6  1  1  0     0  0
  7  6  1  0     0  0
  8  5  1  0     0  0
  9  7  1  0     0  0
 10  2  1  0     0  0
 11  7  2  0     0  0
 12  9  1  0     0  0
 13  8  1  0     0  0
 14  8  1  0     0  0
 15  8  1  0     0  0
 16 10  2  0     0  0
 17 10  1  0     0  0
 18 12  1  0     0  0
 19 12  2  0     0  0
 20 15  1  0     0  0
 21 14  1  0     0  0
 22 17  2  0     0  0
 23 16  1  0     0  0
 24 19  1  0     0  0
 25 18  2  0     0  0
 26 22  1  0     0  0
 27 24  2  0     0  0
 28 20  1  0     0  0
  3  5  2  0     0  0
 26 23  2  0     0  0
 28 21  1  0     0  0
 27 25  1  0     0  0
M  END