
  SciTegic01161211252D

 19 19  0  0  0  0            999 V2000
    5.0980  -11.0145    0.0000 C   0  0
    5.8120  -10.6011    0.0000 C   0  0
    6.5260  -11.0145    0.0000 C   0  0
    7.2400  -10.6011    0.0000 C   0  0
    7.9540  -11.0145    0.0000 C   0  0
    8.6679  -10.6011    0.0000 C   0  0
    9.3819  -11.0145    0.0000 C   0  0
   10.0984  -10.6019    0.0000 O   0  0
   10.8138  -11.0162    0.0000 C   0  0
   10.8103  -11.8422    0.0000 C   0  0
   11.5248  -12.2563    0.0000 C   0  0
   12.2423  -11.8438    0.0000 C   0  0
   12.2406  -11.0128    0.0000 C   0  0
   11.5254  -10.6024    0.0000 C   0  0
   11.5231   -9.7757    0.0000 O   0  0
   12.2379   -9.3604    0.0000 C   0  0
   12.9583  -12.2571    0.0000 C   0  0
   12.9584  -13.0838    0.0000 O   0  0
   13.6742  -11.8436    0.0000 O   0  0
  9 10  2  0
  2  3  1  0
 10 11  1  0
  5  6  1  0
 11 12  2  0
  1  2  1  0
 12 13  1  0
  6  7  1  0
 13 14  2  0
 14  9  1  0
  3  4  1  0
 14 15  1  0
  7  8  1  0
 15 16  1  0
 12 17  1  0
  8  9  1  0
 17 18  2  0
  4  5  1  0
 17 19  1  0
M  END