
          11280715352D 1   1.00000     0.00000     0

 36 40  0     0  0            999 V2000
    0.6417    1.9125    0.0000 C   0  0  0  0  0  0           0  0  0
   -0.0708    0.6708    0.0000 N   0  0  3  0  0  0           0  0  0
    0.6417    1.0833    0.0000 C   0  0  0  0  0  0           0  0  0
   -0.7833    1.9083    0.0000 C   0  0  0  0  0  0           0  0  0
   -0.7833    1.0833    0.0000 C   0  0  0  0  0  0           0  0  0
   -0.0708    2.3333    0.0000 C   0  0  0  0  0  0           0  0  0
   -1.5708    2.1625    0.0000 O   0  0  0  0  0  0           0  0  0
   -1.5708    0.8333    0.0000 C   0  0  0  0  0  0           0  0  0
   -0.0708   -0.1542    0.0000 C   0  0  0  0  0  0           0  0  0
    1.3542    2.3333    0.0000 C   0  0  0  0  0  0           0  0  0
   -2.0500    1.4958    0.0000 C   0  0  0  0  0  0           0  0  0
    0.6417   -0.5667    0.0000 C   0  0  0  0  0  0           0  0  0
   -0.0750    3.1458    0.0000 C   0  0  0  0  0  0           0  0  0
    1.3625    0.6708    0.0000 O   0  0  0  0  0  0           0  0  0
    0.6417   -1.3917    0.0000 C   0  0  0  0  0  0           0  0  0
    1.3542   -0.1542    0.0000 C   0  0  0  0  0  0           0  0  0
    1.3542    3.1583    0.0000 O   0  0  0  0  0  0           0  0  0
   -0.7958    3.5500    0.0000 C   0  0  0  0  0  0           0  0  0
    0.6375    3.5583    0.0000 C   0  0  0  0  0  0           0  0  0
    1.3542   -1.8042    0.0000 C   0  0  0  0  0  0           0  0  0
    2.0667   -0.5625    0.0000 C   0  0  0  0  0  0           0  0  0
    2.0667    1.9208    0.0000 O   0  0  0  0  0  0           0  0  0
   -0.0833    4.7917    0.0000 C   0  0  0  0  0  0           0  0  0
    2.0667   -1.3917    0.0000 C   0  0  0  0  0  0           0  0  0
   -0.7958    4.3667    0.0000 C   0  0  0  0  0  0           0  0  0
    0.6292    4.3792    0.0000 C   0  0  0  0  0  0           0  0  0
   -1.9083    0.0833    0.0000 C   0  0  0  0  0  0           0  0  0
   -0.0708   -1.8000    0.0000 O   0  0  0  0  0  0           0  0  0
    2.7792   -0.1500    0.0000 O   0  0  0  0  0  0           0  0  0
   -2.8625    1.4125    0.0000 C   0  0  0  0  0  0           0  0  0
   -0.0833    5.6167    0.0000 O   0  0  0  0  0  0           0  0  0
   -0.0750   -2.6250    0.0000 C   0  0  0  0  0  0           0  0  0
   -0.7958    6.0250    0.0000 C   0  0  0  0  0  0           0  0  0
    2.7750    0.6750    0.0000 C   0  0  0  0  0  0           0  0  0
   -2.7208   -0.0042    0.0000 C   0  0  0  0  0  0           0  0  0
   -3.2000    0.6708    0.0000 C   0  0  0  0  0  0           0  0  0
  2  3  1  0     0  0
  3  1  1  0     0  0
  4  6  1  0     0  0
  5  4  2  0     0  0
  6  1  2  0     0  0
  7  4  1  0     0  0
  8  5  1  0     0  0
  9  2  1  0     0  0
 10  1  1  0     0  0
 11  7  1  0     0  0
 12  9  1  0     0  0
 13  6  1  0     0  0
 14  3  2  0     0  0
 15 12  2  0     0  0
 16 12  1  0     0  0
 17 10  2  0     0  0
 18 13  1  0     0  0
 19 13  2  0     0  0
 20 15  1  0     0  0
 21 16  2  0     0  0
 22 10  1  0     0  0
 23 26  2  0     0  0
 24 21  1  0     0  0
 25 18  2  0     0  0
 26 19  1  0     0  0
 27  8  1  0     0  0
 28 15  1  0     0  0
 29 21  1  0     0  0
 30 11  1  0     0  0
 31 23  1  0     0  0
 32 28  1  0     0  0
 33 31  1  0     0  0
 34 29  1  0     0  0
 35 27  2  0     0  0
 36 30  2  0     0  0
  2  5  1  0     0  0
 25 23  1  0     0  0
  8 11  2  0     0  0
 36 35  1  0     0  0
 20 24  2  0     0  0
M  END