
          08180812492D 1   1.00000     0.00000     0

 20 22  0     0  0            999 V2000
    1.4672  -14.5276    0.0000 C   0  0  0  0  0  0           0  0  0
    2.1852  -14.9390    0.0000 C   0  0  0  0  0  0           0  0  0
    2.8991  -14.5276    0.0000 C   0  0  0  0  0  0           0  0  0
    2.8991  -13.7007    0.0000 C   0  0  0  0  0  0           0  0  0
    2.1852  -13.2894    0.0000 C   0  0  0  0  0  0           0  0  0
    1.4672  -13.7007    0.0000 C   0  0  0  0  0  0           0  0  0
   -1.2265  -14.1452    0.0000 C   0  0  0  0  0  0           0  0  0
   -2.0516  -14.1897    0.0000 C   0  0  0  0  0  0           0  0  0
   -2.5019  -13.4974    0.0000 C   0  0  0  0  0  0           0  0  0
   -3.3271  -13.5378    0.0000 C   0  0  0  0  0  0           0  0  0
   -3.7019  -14.2744    0.0000 N   0  0  0  0  0  0           0  0  0
   -3.2515  -14.9667    0.0000 C   0  0  0  0  0  0           0  0  0
   -2.4305  -14.9222    0.0000 C   0  0  0  0  0  0           0  0  0
   -0.7079  -14.7857    0.0000 C   0  0  0  0  0  0           0  0  0
    0.0611  -14.4927    0.0000 N   0  0  3  0  0  0           0  0  0
    0.0167  -13.6675    0.0000 N   0  0  0  0  0  0           0  0  0
   -0.7802  -13.4530    0.0000 C   0  0  0  0  0  0           0  0  0
    0.7533  -14.9390    0.0000 C   0  0  0  0  0  0           0  0  0
    0.7554  -13.2882    0.0000 Cl  0  0  0  0  0  0           0  0  0
    3.6114  -13.2891    0.0000 Cl  0  0  0  0  0  0           0  0  0
  2  3  1  0     0  0
  3  4  2  0     0  0
  4  5  1  0     0  0
  5  6  2  0     0  0
  6  1  1  0     0  0
  8  9  2  0     0  0
  9 10  1  0     0  0
 10 11  2  0     0  0
 11 12  1  0     0  0
 12 13  2  0     0  0
 13  8  1  0     0  0
  7  8  1  0     0  0
  7 14  2  0     0  0
 14 15  1  0     0  0
 15 16  1  0     0  0
 16 17  2  0     0  0
 17  7  1  0     0  0
 15 18  1  0     0  0
 18  1  1  0     0  0
  6 19  1  0     0  0
  1  2  2  0     0  0
  4 20  1  0     0  0
M  END