
  SciTegic09081514162D

 28 29  0  0  0  0            999 V2000
    1.2990   -0.7500    0.0000 C   0  0
    1.2990    0.7500    0.0000 C   0  0
    0.0000    1.5000    0.0000 C   0  0
   -1.2990    0.7500    0.0000 C   0  0
   -1.2990   -0.7500    0.0000 C   0  0
    0.0000   -1.5000    0.0000 C   0  0
   -2.6003    1.4977    0.0000 C   0  0
   -3.8990    0.7455    0.0000 O   0  0
   -2.6024    2.6977    0.0000 O   0  0
   -4.9395    1.3433    0.0000 C   0  0
   -2.3383   -1.3500    0.0000 O   0  0
    2.3383   -1.3500    0.0000 O   0  0
    2.3383    1.3500    0.0000 Cl  0  0
   -0.0031    3.0008    0.0000 C   0  0
   -1.3039    3.7494    0.0000 C   0  0
   -1.3070    5.2502    0.0000 C   0  0
   -0.2688    5.8520    0.0000 O   0  0
   -2.6078    5.9988    0.0000 N   0  0
   -2.6109    7.4996    0.0000 C   0  0
   -1.3119    8.2497    0.0000 C   0  0
   -1.3120    9.7497    0.0000 C   0  0
   -2.6110   10.4997    0.0000 C   0  0
   -3.9100    9.7496    0.0000 C   0  0
   -3.9100    8.2496    0.0000 C   0  0
   -4.9492    7.6496    0.0000 O   0  0
   -0.2727   10.3498    0.0000 O   0  0
   -2.6142   12.0005    0.0000 O   0  0
   -3.6543   12.5990    0.0000 C   0  0
  1  2  2  0
  2  3  1  0
  3  4  2  0
  4  5  1  0
  5  6  2  0
  6  1  1  0
  4  7  1  0
  7  8  1  0
  7  9  2  0
  8 10  1  0
  5 11  1  0
  1 12  1  0
  2 13  1  0
  3 14  1  0
 14 15  1  0
 15 16  1  0
 16 17  2  0
 16 18  1  0
 18 19  1  0
 19 20  2  0
 19 24  1  0
 20 21  1  0
 21 22  1  0
 22 23  2  0
 23 24  1  0
 24 25  2  0
 21 26  2  0
 22 27  1  0
 27 28  1  0
M  END