
  SciTegic04021211102D

 39 43  0  0  0  0            999 V2000
   15.9611   -2.4750    0.0000 C   0  0
   15.9599   -3.3023    0.0000 C   0  0
   16.6747   -3.7152    0.0000 C   0  0
   17.3912   -3.3019    0.0000 C   0  0
   17.3883   -2.4713    0.0000 C   0  0
   16.6729   -2.0622    0.0000 C   0  0
   16.6705   -1.2372    0.0000 N   0  0
   17.3368   -0.7516    0.0000 C   0  0
   17.0796    0.0340    0.0000 C   0  0
   16.2531    0.0299    0.0000 C   0  0
   16.0031   -0.7569    0.0000 N   0  0
   18.0525   -1.1618    0.0000 N   0  0
   18.7657   -0.7471    0.0000 C   0  0
   19.4815   -1.1574    0.0000 N   0  0
   18.7631    0.0779    0.0000 O   0  0
   20.1866    0.0806    0.0000 N   0  0
   20.1947   -0.7426    0.0000 C   0  0
   20.9801   -0.9894    0.0000 S   0  0
   21.4576   -0.3186    0.0000 C   0  0
   20.9680    0.3429    0.0000 C   0  0
   20.9718    1.1679    0.0000 C   0  0
   21.6882    1.5771    0.0000 C   0  0
   21.6919    2.4021    0.0000 O   0  0
   22.4083    2.8113    0.0000 C   0  0
   23.1209    2.3955    0.0000 C   0  0
   23.1134    1.5723    0.0000 C   0  0
   23.8251    1.1566    0.0000 C   0  0
   24.5425    1.5659    0.0000 C   0  0
   24.5436    2.3951    0.0000 C   0  0
   23.8313    2.8071    0.0000 C   0  0
   16.6745   -4.5402    0.0000 C   0  0
   15.9600   -4.9525    0.0000 C   0  0
   15.9597   -5.7775    0.0000 O   0  0
   15.2456   -4.5399    0.0000 O   0  0
   15.7668    0.6915    0.0000 C   0  0
   16.0172    1.4776    0.0000 C   0  0
   15.3470    1.9587    0.0000 C   0  0
   14.6823    1.4699    0.0000 C   0  0
   14.9418    0.6868    0.0000 C   0  0
 17 18  1  0
 18 19  1  0
 19 20  2  0
 20 16  1  0
  7  8  1  0
 20 21  1  0
  9 10  1  0
 21 22  1  0
 10 11  2  0
 22 23  1  0
 11  7  1  0
 23 24  1  0
  5  6  2  0
 24 25  1  0
  8 12  1  0
 25 26  2  0
  6  1  1  0
 26 27  1  0
 12 13  1  0
 27 28  2  0
  1  2  2  0
 28 29  1  0
 13 14  1  0
 29 30  2  0
 30 25  1  0
  6  7  1  0
  3 31  1  0
 13 15  2  0
 31 32  1  0
 14 17  1  0
 32 33  1  0
 16 17  2  0
 32 34  2  0
 35 36  1  0
  8  9  2  0
  3  4  2  0
  4  5  1  0
  2  3  1  0
 36 37  1  0
 37 38  1  0
 38 39  1  0
 39 35  1  0
 10 35  1  0
M  END