
  CDK    9/16/09,9:47

 43 46  0  0  0  0  0  0  0  0999 V2000
    1.5232   -0.5253    0.0000 C   0  0  0  0  0  0  0  0  0  0  0  0
    1.1116    0.1896    0.0000 N   0  0  0  0  0  0  0  0  0  0  0  0
    0.3043    0.0169    0.0000 C   0  0  0  0  0  0  0  0  0  0  0  0
    1.4499    0.9457    0.0000 C   0  0  0  0  0  0  0  0  0  0  0  0
    2.3481   -0.5121    0.0000 C   0  0  0  0  0  0  0  0  0  0  0  0
    2.7715   -1.2197    0.0000 C   0  0  0  0  0  0  0  0  0  0  0  0
    3.5967   -1.2109    0.0000 C   0  0  0  0  0  0  0  0  0  0  0  0
    4.0201   -1.9185    0.0000 C   0  0  0  0  0  0  0  0  0  0  0  0
    4.8447   -1.9056    0.0000 C   0  0  0  0  0  0  0  0  0  0  0  0
    5.2723   -2.6127    0.0000 C   0  0  0  0  0  0  0  0  0  0  0  0
    6.0974   -2.6039    0.0000 C   0  0  0  0  0  0  0  0  0  0  0  0
    6.5208   -3.3115    0.0000 O   0  0  0  0  0  0  0  0  0  0  0  0
    6.4987   -1.8834    0.0000 O   0  0  0  0  0  0  0  0  0  0  0  0
    4.0016   -0.4857    0.0000 O   0  0  0  0  0  0  0  0  0  0  0  0
    5.2502   -1.1845    0.0000 O   0  0  0  0  0  0  0  0  0  0  0  0
   -0.3079    0.5713    0.0000 C   0  0  0  0  0  0  0  0  0  0  0  0
   -1.0943    0.3128    0.0000 N   0  0  0  0  0  0  0  0  0  0  0  0
   -0.1380    1.3800    0.0000 O   0  0  0  0  0  0  0  0  0  0  0  0
   -1.8080    0.7299    0.0000 C   0  0  0  0  0  0  0  0  0  0  0  0
    0.9783   -1.1300    0.0000 C   0  0  0  0  0  0  0  0  0  0  0  0
    0.2209   -0.7938    0.0000 C   0  0  0  0  0  0  0  0  0  0  0  0
   -0.4934   -1.2053    0.0000 C   0  0  0  0  0  0  0  0  0  0  0  0
   -1.2057   -0.7943    0.0000 C   0  0  0  0  0  0  0  0  0  0  0  0
   -1.9305   -1.2134    0.0000 C   0  0  0  0  0  0  0  0  0  0  0  0
   -1.9259   -2.0373    0.0000 C   0  0  0  0  0  0  0  0  0  0  0  0
   -1.2061   -2.4522    0.0000 C   0  0  0  0  0  0  0  0  0  0  0  0
   -0.4921   -2.0361    0.0000 C   0  0  0  0  0  0  0  0  0  0  0  0
   -1.8076    1.5573    0.0000 C   0  0  0  0  0  0  0  0  0  0  0  0
   -2.5165    1.9701    0.0000 C   0  0  0  0  0  0  0  0  0  0  0  0
   -3.2409    1.5439    0.0000 C   0  0  0  0  0  0  0  0  0  0  0  0
   -3.2395    0.7329    0.0000 C   0  0  0  0  0  0  0  0  0  0  0  0
   -2.5232    0.3139    0.0000 C   0  0  0  0  0  0  0  0  0  0  0  0
   -3.9543    1.9562    0.0000 S   0  0  0  0  0  0  0  0  0  0  0  0
   -3.5404    2.6722    0.0000 O   0  0  0  0  0  0  0  0  0  0  0  0
   -4.3677    1.2405    0.0000 O   0  0  0  0  0  0  0  0  0  0  0  0
   -4.6686    2.3723    0.0000 N   0  0  0  0  0  0  0  0  0  0  0  0
    0.9825   -1.9533    0.0000 C   0  0  0  0  0  0  0  0  0  0  0  0
    0.2704   -2.3641    0.0000 C   0  0  0  0  0  0  0  0  0  0  0  0
    0.2749   -3.1864    0.0000 C   0  0  0  0  0  0  0  0  0  0  0  0
    0.9907   -3.5945    0.0000 C   0  0  0  0  0  0  0  0  0  0  0  0
    1.7034   -3.1744    0.0000 C   0  0  0  0  0  0  0  0  0  0  0  0
    1.6954   -2.3534    0.0000 C   0  0  0  0  0  0  0  0  0  0  0  0
    0.9967   -4.4176    0.0000 F   0  0  0  0  0  0  0  0  0  0  0  0
  5  6  1  0  0  0  0 
  6  7  1  0  0  0  0 
  7  8  1  0  0  0  0 
  8  9  1  0  0  0  0 
  9 10  1  0  0  0  0 
 10 11  1  0  0  0  0 
 11 12  1  0  0  0  0 
 11 13  2  0  0  0  0 
  7 14  1  1  0  0  0 
  9 15  1  1  0  0  0 
  3 16  1  0  0  0  0 
 16 17  1  0  0  0  0 
 16 18  2  0  0  0  0 
 17 19  1  0  0  0  0 
 20 21  1  0  0  0  0 
 21 22  1  0  0  0  0 
 22 23  2  0  0  0  0 
 23 24  1  0  0  0  0 
 24 25  2  0  0  0  0 
 25 26  1  0  0  0  0 
 26 27  2  0  0  0  0 
 27 22  1  0  0  0  0 
 19 28  2  0  0  0  0 
 28 29  1  0  0  0  0 
 29 30  2  0  0  0  0 
 30 31  1  0  0  0  0 
 31 32  2  0  0  0  0 
 32 19  1  0  0  0  0 
 30 33  1  0  0  0  0 
 33 34  2  0  0  0  0 
 33 35  2  0  0  0  0 
 33 36  1  0  0  0  0 
 20 37  1  0  0  0  0 
 20  1  2  0  0  0  0 
 37 38  2  0  0  0  0 
  1  2  1  0  0  0  0 
 38 39  1  0  0  0  0 
  2  3  1  0  0  0  0 
 39 40  2  0  0  0  0 
  3 21  2  0  0  0  0 
 40 41  1  0  0  0  0 
  2  4  1  0  0  0  0 
 41 42  2  0  0  0  0 
 42 37  1  0  0  0  0 
  1  5  1  0  0  0  0 
 40 43  1  0  0  0  0 
M  END