
  SciTegic01161211252D

 26 29  0  0  0  0            999 V2000
   10.8324  -11.1125    0.0000 N   0  0
   11.5462  -11.5260    0.0000 C   0  0
   11.5450  -12.3510    0.0000 O   0  0
   12.2613  -11.1146    0.0000 C   0  0
   12.9735  -11.5290    0.0000 C   0  0
   13.6881  -11.1182    0.0000 N   0  0
   13.6897  -10.2923    0.0000 C   0  0
   12.9709   -9.8790    0.0000 C   0  0
   12.2592  -10.2921    0.0000 C   0  0
   14.4043   -9.8799    0.0000 O   0  0
   15.1187  -10.2925    0.0000 C   0  0
   15.1138  -11.1177    0.0000 C   0  0
   15.8274  -11.5303    0.0000 C   0  0
   16.5429  -11.1178    0.0000 C   0  0
   16.5403  -10.2885    0.0000 C   0  0
   15.8262   -9.8797    0.0000 C   0  0
   10.1494  -11.5754    0.0000 C   0  0
    9.3591  -11.3322    0.0000 C   0  0
   10.8912  -10.2900    0.0000 C   0  0
    9.0547  -10.5667    0.0000 N   0  0
   10.2849   -9.7284    0.0000 C   0  0
    9.4686   -9.8544    0.0000 C   0  0
    8.2338  -10.5600    0.0000 C   0  0
    7.5223  -10.1424    0.0000 C   0  0
    7.5164  -10.9674    0.0000 C   0  0
   17.2534   -9.8736    0.0000 Cl  0  0
 12 13  1  0
  6  7  2  0
 13 14  2  0
  2  4  1  0
 14 15  1  0
  7  8  1  0
 15 16  2  0
 16 11  1  0
  1 17  1  0
  8  9  2  0
 17 18  1  0
  9  4  1  0
  1 19  1  0
  4  5  2  0
 18 20  1  0
  7 10  1  0
 19 21  1  0
  2  3  2  0
 20 22  1  0
 21 22  1  0
 24 23  1  0
 25 24  1  0
 23 25  1  0
 10 11  1  0
  5  6  1  0
 11 12  2  0
 20 23  1  0
  1  2  1  0
 15 26  1  0
M  END