
  SciTegic01161211252D

 42 43  0  0  0  0            999 V2000
    0.8582   -6.1813    0.0000 C   0  0  1  0  0  0
    0.8582   -7.0105    0.0000 C   0  0  2  0  0  0
    1.5704   -7.4208    0.0000 C   0  0  2  0  0  0
    2.2867   -7.0105    0.0000 C   0  0
    2.2867   -6.1813    0.0000 C   0  0  2  0  0  0
    1.5704   -5.7625    0.0000 O   0  0
    2.9989   -6.5980    0.0000 O   0  0
    2.6922   -5.4663    0.0000 C   0  0
    3.5213   -5.4549    0.0000 O   0  0
    2.2741   -4.7520    0.0000 O   0  5
    0.1406   -5.7720    0.0000 C   0  0  2  0  0  0
   -0.5776   -6.1877    0.0000 C   0  0  2  0  0  0
   -2.0031   -7.0208    0.0000 C   0  0
   -2.7213   -7.4365    0.0000 C   0  0
   -2.0068   -6.1916    0.0000 O   0  0
   -3.4339   -7.0215    0.0000 C   0  0
   -4.1514   -7.4361    0.0000 C   0  0
   -4.1484   -8.2666    0.0000 C   0  0
   -3.4231   -8.6757    0.0000 C   0  0
   -2.7143   -8.2575    0.0000 C   0  0
    0.1391   -7.4246    0.0000 N   0  0
   -0.5777   -7.0136    0.0000 C   0  0
    0.8369   -5.3567    0.0000 H   0  0
    2.9942   -7.4230    0.0000 C   0  0
    3.7062   -7.8396    0.0000 C   0  0
    3.6969   -8.6633    0.0000 C   0  0
    4.4082   -9.0799    0.0000 C   0  0
    4.4163   -7.4294    0.0000 C   0  0
   -4.8600   -8.6840    0.0000 Cl  0  0
    5.1281   -7.8422    0.0000 C   0  0
    5.1227   -8.6688    0.0000 C   0  0
    4.4170   -6.6044    0.0000 F   0  0
    5.8443   -7.4327    0.0000 F   0  0
    0.1382   -8.2496    0.0000 C   0  0
   -0.5768   -8.6612    0.0000 C   0  0
    0.8521   -8.6629    0.0000 O   0  0
   -0.5778   -9.4862    0.0000 Cl  0  0
    6.0458   -5.4333    0.0000 Na  0  3
    0.1369   -4.9428    0.0000 O   0  0
   -1.2956   -5.7744    0.0000 O   0  0
   -1.2883   -7.4327    0.0000 N   0  0
    1.5704   -8.2458    0.0000 O   0  0
 13 14  1  0
 13 15  2  0
 14 16  2  0
 16 17  1  0
 17 18  2  0
 18 19  1  0
 19 20  2  0
 20 14  1  0
  2 21  1  1
  1 23  1  1
  7 24  1  0
 24 25  1  0
  1  2  1  0
 25 26  2  0
  1  6  1  0
 26 27  1  0
 27 31  2  0
  2  3  1  0
 30 28  2  0
 28 25  1  0
  3  4  1  0
 18 29  1  0
  4  5  1  0
  5  6  1  0
 30 31  1  0
  5  7  1  0
 28 32  1  0
  5  8  1  1
 30 33  1  0
  8  9  2  0
 21 34  1  0
  8 10  1  0
 34 35  1  0
  1 11  1  0
 34 36  2  0
 35 37  1  0
 11 12  1  0
 12 22  1  0
 12 40  1  1
 22 41  1  0
 41 13  1  0
 11 39  1  6
  3 42  1  6
M  CHG  2  10  -1  38   1
M  END