
  Mrv0541 04051115152D          

 29 30  0  0  0  0            999 V2000
   -1.8923   -0.9624    0.0000 C   0  0  0  0  0  0  0  0  0  0  0  0
   -2.2887   -2.3353    0.0000 C   0  0  0  0  0  0  0  0  0  0  0  0
   -2.8831   -2.9073    0.0000 C   0  0  0  0  0  0  0  0  0  0  0  0
   -3.8739   -1.8777    0.0000 C   0  0  0  0  0  0  0  0  0  0  0  0
   -3.2794   -1.3056    0.0000 C   0  0  0  0  0  0  0  0  0  0  0  0
   -1.0997   -1.1912    0.0000 O   0  0  0  0  0  0  0  0  0  0  0  0
   -3.6758   -2.6785    0.0000 O   0  0  0  0  0  0  0  0  0  0  0  0
   -2.4868   -1.5344    0.0000 N   0  0  0  0  0  0  0  0  0  0  0  0
   -2.0905   -0.1616    0.0000 N   0  0  0  0  0  0  0  0  0  0  0  0
   -1.4960    0.4105    0.0000 C   0  0  1  0  0  0  0  0  0  0  0  0
   -1.6942    1.2113    0.0000 C   0  0  0  0  0  0  0  0  0  0  0  0
   -2.4868    1.4401    0.0000 C   0  0  0  0  0  0  0  0  0  0  0  0
   -3.0813    0.8681    0.0000 C   0  0  0  0  0  0  0  0  0  0  0  0
   -2.6850    2.2410    0.0000 C   0  0  0  0  0  0  0  0  0  0  0  0
   -0.7034    0.1817    0.0000 C   0  0  0  0  0  0  0  0  0  0  0  0
   -0.5052   -0.6192    0.0000 O   0  0  0  0  0  0  0  0  0  0  0  0
    1.2782    1.0969    0.0000 C   0  0  0  0  0  0  0  0  0  0  0  0
   -0.1089    0.7537    0.0000 N   0  0  0  0  0  0  0  0  0  0  0  0
    2.0708    0.8681    0.0000 O   0  0  0  0  0  0  0  0  0  0  0  0
    2.6653    1.4401    0.0000 C   0  0  0  0  0  0  0  0  0  0  0  0
    3.4579    1.2113    0.0000 C   0  0  0  0  0  0  0  0  0  0  0  0
    4.0524    1.7834    0.0000 C   0  0  0  0  0  0  0  0  0  0  0  0
    4.8451    1.5545    0.0000 C   0  0  0  0  0  0  0  0  0  0  0  0
    5.0432    0.7537    0.0000 C   0  0  0  0  0  0  0  0  0  0  0  0
    4.4487    0.1817    0.0000 C   0  0  0  0  0  0  0  0  0  0  0  0
    3.6561    0.4105    0.0000 C   0  0  0  0  0  0  0  0  0  0  0  0
    0.8819   -0.2760    0.0000 C   0  0  0  0  0  0  0  0  0  0  0  0
    1.0800   -1.0768    0.0000 N   0  0  0  0  0  0  0  0  0  0  0  0
    0.6837    0.5249    0.0000 C   0  0  2  0  0  0  0  0  0  0  0  0
  1  6  2  0  0  0  0
  1  8  1  0  0  0  0
  1  9  1  0  0  0  0
  2  3  1  0  0  0  0
  2  8  1  0  0  0  0
  3  7  1  0  0  0  0
  4  5  1  0  0  0  0
  4  7  1  0  0  0  0
  5  8  1  0  0  0  0
 10  9  1  1  0  0  0
 10 11  1  0  0  0  0
 15 10  1  0  0  0  0
 11 12  1  0  0  0  0
 13 12  1  0  0  0  0
 14 12  1  0  0  0  0
 15 16  2  0  0  0  0
 15 18  1  0  0  0  0
 17 19  1  0  0  0  0
 29 17  1  0  0  0  0
 29 18  1  1  0  0  0
 20 19  1  0  0  0  0
 21 20  1  0  0  0  0
 21 22  2  0  0  0  0
 21 26  1  0  0  0  0
 22 23  1  0  0  0  0
 23 24  2  0  0  0  0
 24 25  1  0  0  0  0
 25 26  2  0  0  0  0
 27 28  3  0  0  0  0
 27 29  1  0  0  0  0
M  END