
  SciTegic09081514182D

 33 36  0  0  0  0            999 V2000
   -2.3155    0.7475    0.0000 C   0  0
   -1.0028    1.5132    0.0000 N   0  0
   -1.0028   -1.5132    0.0000 C   0  0
   -2.3155   -0.7475    0.0000 C   0  0
    0.2917   -0.7475    0.0000 C   0  0
    0.2917    0.7475    0.0000 C   0  0
    1.7138    1.2033    0.0000 N   0  0
    2.5889    0.0182    0.0000 C   0  0
    1.7138   -1.2033    0.0000 C   0  0
   -3.6168   -1.4950    0.0000 C   0  0
   -4.9144   -0.7421    0.0000 C   0  0
   -6.2151   -1.4892    0.0000 C   0  0
   -6.2185   -2.9892    0.0000 C   0  0
   -4.9211   -3.7421    0.0000 C   0  0
   -3.6204   -2.9950    0.0000 C   0  0
   -7.2590   -3.5868    0.0000 Cl  0  0
    2.1855   -2.6254    0.0000 C   0  0
    3.6552   -2.9294    0.0000 C   0  0
    1.3877   -3.5218    0.0000 O   0  0
    4.1295   -4.3524    0.0000 C   0  0
    5.5991   -4.6533    0.0000 C   0  0
    6.5944   -3.5310    0.0000 C   0  0
    6.1201   -2.1080    0.0000 C   0  0
    4.6506   -1.8071    0.0000 C   0  0
    4.2712   -0.6687    0.0000 F   0  0
    3.3333   -5.2502    0.0000 F   0  0
    8.0653   -3.8290    0.0000 N   0  0
    9.0596   -2.7047    0.0000 S   0  0
   10.5305   -3.0027    0.0000 C   0  0
   11.5247   -1.8785    0.0000 C   0  0
   12.7008   -2.1167    0.0000 C   0  0
    8.6782   -1.5670    0.0000 O   0  0
    7.8836   -2.4659    0.0000 O   0  0
  1  2  2  0
  2  6  1  0
  5  3  1  0
  3  4  2  0
  4  1  1  0
  5  6  2  0
  6  7  1  0
  7  8  1  0
  8  9  2  0
  9  5  1  0
 10 11  2  0
 11 12  1  0
 12 13  2  0
 13 14  1  0
 14 15  2  0
 15 10  1  0
  4 10  1  0
 13 16  1  0
  9 17  1  0
 17 18  1  0
 17 19  2  0
 18 20  2  0
 20 21  1  0
 21 22  2  0
 22 23  1  0
 23 24  2  0
 24 18  1  0
 24 25  1  0
 20 26  1  0
 22 27  1  0
 27 28  1  0
 28 29  1  0
 29 30  1  0
 30 31  1  0
 28 32  2  0
 28 33  2  0
M  END