
          05270816392D 1   1.00000     0.00000     0

 34 39  0     1  0            999 V2000
   -4.7086  -22.9623    0.0000 C   0  0  0  0  0  0           0  0  0
   -4.7099  -23.7853    0.0000 C   0  0  0  0  0  0           0  0  0
   -3.2853  -22.9582    0.0000 C   0  0  0  0  0  0           0  0  0
   -3.9943  -22.5495    0.0000 C   0  0  0  0  0  0           0  0  0
   -3.2822  -23.7848    0.0000 C   0  0  0  0  0  0           0  0  0
   -3.9936  -24.1992    0.0000 C   0  0  0  0  0  0           0  0  0
   -3.9949  -25.0214    0.0000 C   0  0  0  0  0  0           0  0  0
   -3.2819  -25.4353    0.0000 C   0  0  0  0  0  0           0  0  0
   -5.3258  -24.3373    0.0000 N   0  0  0  0  0  0           0  0  0
   -4.7793  -25.2759    0.0000 C   0  0  0  0  0  0           0  0  0
   -2.5675  -24.1969    0.0000 C   0  0  2  0  0  0           0  0  0
   -2.5666  -25.0248    0.0000 C   0  0  2  0  0  0           0  0  0
   -1.8533  -25.4356    0.0000 N   0  0  3  0  0  0           0  0  0
   -1.1362  -25.0232    0.0000 C   0  0  0  0  0  0           0  0  0
   -1.1371  -24.1955    0.0000 C   0  0  1  0  0  0           0  0  0
   -1.8550  -23.7800    0.0000 C   0  0  0  0  0  0           0  0  0
   -2.5758  -25.8451    0.0000 H   0  0  0  0  0  0           0  0  0
   -2.5758  -23.3702    0.0000 H   0  0  0  0  0  0           0  0  0
   -0.4226  -23.7829    0.0000 C   0  0  0  0  0  0           0  0  0
   -0.4226  -22.9579    0.0000 O   0  0  0  0  0  0           0  0  0
    0.2919  -24.1954    0.0000 N   0  0  3  0  0  0           0  0  0
    0.2868  -25.0257    0.0000 C   0  0  0  0  0  0           0  0  0
    0.9971  -25.4380    0.0000 C   0  0  0  0  0  0           0  0  0
    1.7140  -25.0291    0.0000 N   0  0  3  0  0  0           0  0  0
    1.7160  -24.2032    0.0000 C   0  0  0  0  0  0           0  0  0
    1.0011  -23.7862    0.0000 C   0  0  0  0  0  0           0  0  0
    2.4269  -25.4443    0.0000 C   0  0  0  0  0  0           0  0  0
    2.4189  -26.2681    0.0000 C   0  0  0  0  0  0           0  0  0
    3.1310  -26.6832    0.0000 C   0  0  0  0  0  0           0  0  0
    3.8480  -26.2734    0.0000 C   0  0  0  0  0  0           0  0  0
    3.8484  -25.4441    0.0000 C   0  0  0  0  0  0           0  0  0
    3.1357  -25.0327    0.0000 C   0  0  0  0  0  0           0  0  0
   -1.8536  -26.2606    0.0000 C   0  0  0  0  0  0           0  0  0
    4.5614  -26.6876    0.0000 Cl  0  0  0  0  0  0           0  0  0
 14 15  1  0     0  0
 15 16  1  0     0  0
  6  7  1  0     0  0
 12 17  1  1     0  0
  7  8  1  0     0  0
 11 18  1  6     0  0
  8 12  1  0     0  0
 15 19  1  1     0  0
  3  4  2  0     0  0
 19 20  2  0     0  0
  2  9  1  0     0  0
 19 21  1  0     0  0
 21 22  1  0     0  0
  4  1  1  0     0  0
  7 10  2  0     0  0
  9 10  1  0     0  0
 11 12  1  0     0  0
  5  6  2  0     0  0
 21 26  1  0     0  0
 22 23  1  0     0  0
 23 24  1  0     0  0
 24 25  1  0     0  0
 25 26  1  0     0  0
  2  6  1  0     0  0
 24 27  1  0     0  0
 27 28  2  0     0  0
  5  3  1  0     0  0
 28 29  1  0     0  0
  1  2  2  0     0  0
 29 30  2  0     0  0
  5 11  1  0     0  0
 30 31  1  0     0  0
 11 16  1  0     0  0
 31 32  2  0     0  0
 32 27  1  0     0  0
 12 13  1  0     0  0
 13 33  1  0     0  0
 13 14  1  0     0  0
 30 34  1  0     0  0
M  END