
  SciTegic10301317112D

 35 36  0  0  0  0            999 V2000
   -3.4583   -0.1500    0.0000 S   0  0
    8.6375   -2.0542    0.0000 N   0  3
   -0.1708   -0.1375    0.0000 C   0  0
    4.9292   -2.7917    0.0000 C   0  0  1  0  0  0
    5.3500   -3.5042    0.0000 C   0  0
    4.1042   -2.7917    0.0000 N   0  0
   -2.6375   -0.1500    0.0000 C   0  0
    7.8125   -2.0542    0.0000 C   0  0
    3.6250   -2.1292    0.0000 C   0  0
    0.2500   -0.8500    0.0000 N   0  0
   -3.4625   -0.9750    0.0000 O   0  0
   -3.4583    0.6750    0.0000 O   0  0
    9.0542   -2.7625    0.0000 O   0  5
    1.4917   -1.5542    0.0000 C   0  0
    9.0500   -1.3292    0.0000 O   0  0
   -0.9958   -0.1417    0.0000 C   0  0
   -4.2875   -0.1417    0.0000 N   0  0
    2.3167   -1.5500    0.0000 N   0  0
    5.3417   -2.0750    0.0000 C   0  0
    0.2417    0.5833    0.0000 O   0  0
    4.9417   -4.2167    0.0000 O   0  0
    3.9542   -1.3750    0.0000 O   0  0
    1.0792   -2.2667    0.0000 O   0  0
   -2.2333    0.5625    0.0000 C   0  0
   -2.2208   -0.8625    0.0000 C   0  0
   -1.4000   -0.8542    0.0000 C   0  0
   -1.4125    0.5708    0.0000 C   0  0
    7.3917   -1.3417    0.0000 C   0  0
    7.4042   -2.7792    0.0000 C   0  0
    1.0750   -0.8417    0.0000 C   0  0
    2.8042   -2.2167    0.0000 C   0  0
    6.1667   -2.0667    0.0000 C   0  0
    6.1750   -3.4917    0.0000 O   0  0
    6.5667   -1.3542    0.0000 C   0  0
    6.5792   -2.7792    0.0000 C   0  0
  2  8  1  0
  3 16  1  0
  4  6  1  0
  5  4  1  0
  6  9  1  0
  7  1  1  0
  8 29  2  0
  9 31  1  0
 10  3  1  0
 11  1  2  0
 12  1  2  0
 13  2  1  0
 14 30  1  0
 15  2  2  0
 16 26  2  0
 17  1  1  0
 18 14  1  0
  4 19  1  1
 20  3  2  0
 21  5  2  0
 22  9  2  0
 23 14  2  0
 24  7  1  0
 25  7  2  0
 26 25  1  0
 27 24  2  0
 28 34  2  0
 29 35  1  0
 30 10  1  0
 31 18  1  0
 32 19  1  0
 33  5  1  0
 34 32  1  0
 35 32  2  0
 16 27  1  0
  8 28  1  0
M  CHG  2   2   1  13  -1
M  END