
  CDK    6/4/10,11:42

 29 28  0  0  0  0  0  0  0  0999 V2000
    0.2130  -20.7153    0.0000 C   0  0  0  0  0  0  0  0  0  0  0  0
    0.9291  -21.1249    0.0000 C   0  0  0  0  0  0  0  0  0  0  0  0
    0.9315  -21.9514    0.0000 C   0  0  0  0  0  0  0  0  0  0  0  0
    1.6476  -22.3609    0.0000 C   0  0  0  0  0  0  0  0  0  0  0  0
    1.6522  -23.1837    0.0000 C   0  0  0  0  0  0  0  0  0  0  0  0
    2.3683  -23.5934    0.0000 C   0  0  0  0  0  0  0  0  0  0  0  0
    2.3707  -24.4198    0.0000 C   0  0  0  0  0  0  0  0  0  0  0  0
    3.0868  -24.8294    0.0000 C   0  0  0  0  0  0  0  0  0  0  0  0
    3.0893  -25.6558    0.0000 C   0  0  0  0  0  0  0  0  0  0  0  0
    3.8090  -26.0676    0.0000 C   0  0  0  0  0  0  0  0  0  0  0  0
    4.5226  -25.6507    0.0000 C   0  0  0  0  0  0  0  0  0  0  0  0
    5.2387  -26.0603    0.0000 C   0  0  0  0  0  0  0  0  0  0  0  0
    5.9523  -25.6435    0.0000 C   0  0  0  0  0  0  0  0  0  0  0  0
    6.6684  -26.0530    0.0000 C   0  0  0  0  0  0  0  0  0  0  0  0
    7.3800  -25.6399    0.0000 C   0  0  0  0  0  0  0  0  0  0  0  0
    8.0960  -26.0494    0.0000 C   0  0  0  0  0  0  0  0  0  0  0  0
    8.8097  -25.6326    0.0000 C   0  0  0  0  0  0  0  0  0  0  0  0
    9.5257  -26.0423    0.0000 C   0  0  0  0  0  0  0  0  0  0  0  0
    0.2105  -19.8888    0.0000 O   0  0  0  0  0  0  0  0  0  0  0  0
   -2.6505  -20.7137    0.0000 C   0  0  0  0  0  0  0  0  0  0  0  0
   -1.9346  -21.1247    0.0000 C   0  0  0  0  0  0  0  0  0  0  0  0
   -1.2187  -20.7137    0.0000 C   0  0  0  0  0  0  0  0  0  0  0  0
   -1.9346  -21.9507    0.0000 O   0  0  0  0  0  0  0  0  0  0  0  0
   -0.5027  -21.1247    0.0000 O   0  0  0  0  0  0  0  0  0  0  0  0
   -3.3613  -21.1265    0.0000 O   0  0  0  0  0  0  0  0  0  0  0  0
   -4.0742  -20.7173    0.0000 P   0  0  0  0  0  0  0  0  0  0  0  0
   -4.7849  -21.1301    0.0000 O   0  0  0  0  0  0  0  0  0  0  0  0
   -3.6695  -19.9997    0.0000 O   0  0  0  0  0  0  0  0  0  0  0  0
   -4.4914  -19.9997    0.0000 O   0  0  0  0  0  0  0  0  0  0  0  0
 10 11  1  0  0  0  0 
 11 12  1  0  0  0  0 
 12 13  1  0  0  0  0 
 13 14  1  0  0  0  0 
 14 15  1  0  0  0  0 
 15 16  1  0  0  0  0 
 16 17  1  0  0  0  0 
 17 18  1  0  0  0  0 
  1 19  2  0  0  0  0 
  1  2  1  0  0  0  0 
 20 21  1  0  0  0  0 
  2  3  1  0  0  0  0 
 21 22  1  0  0  0  0 
  3  4  1  0  0  0  0 
 21 23  1  1  0  0  0 
  4  5  1  0  0  0  0 
 22 24  1  0  0  0  0 
 24  1  1  0  0  0  0 
  5  6  1  0  0  0  0 
 20 25  1  0  0  0  0 
  6  7  1  0  0  0  0 
 25 26  1  0  0  0  0 
  7  8  1  0  0  0  0 
 26 27  1  0  0  0  0 
  8  9  1  0  0  0  0 
 26 28  1  0  0  0  0 
  9 10  2  0  0  0  0 
 26 29  2  0  0  0  0 
M  END