
  SciTegic01161211242D

 41 46  0  0  0  0            999 V2000
   13.2091  -15.8130    0.0000 C   0  0
   13.8951  -15.3550    0.0000 C   0  0
   14.6666  -15.6440    0.0000 N   0  0
   13.9255  -14.5338    0.0000 C   0  0
   14.7195  -14.3101    0.0000 N   0  0
   15.1723  -14.9957    0.0000 C   0  0
   15.9643  -14.7770    0.0000 S   0  0
   15.2317  -13.6677    0.0000 C   0  0
   16.0018  -13.9604    0.0000 C   0  0
   16.6382  -13.4402    0.0000 C   0  0
   16.5058  -12.6274    0.0000 C   0  0
   15.7314  -12.3373    0.0000 C   0  0
   15.0982  -12.8593    0.0000 C   0  0
   11.7819  -15.8166    0.0000 C   0  0
   11.7807  -16.6440    0.0000 C   0  0
   12.4956  -17.0569    0.0000 C   0  0
   13.2120  -16.6435    0.0000 C   0  0
   12.4937  -15.4039    0.0000 C   0  0
   11.0660  -17.0559    0.0000 N   0  0
   10.3518  -16.6429    0.0000 C   0  0
    9.6370  -17.0548    0.0000 N   0  0
   10.3525  -15.8179    0.0000 O   0  0
    8.9229  -16.6417    0.0000 C   0  0
    8.8415  -15.8184    0.0000 C   0  0
    8.0347  -15.6463    0.0000 C   0  0
    7.6216  -16.3605    0.0000 O   0  0
    8.1732  -16.9739    0.0000 N   0  0
    7.6997  -14.8923    0.0000 C   0  0
    8.1852  -14.2253    0.0000 C   0  0
    6.8708  -14.8917    0.0000 C   0  0
    7.2792  -14.1750    0.0000 C   0  0
   17.1436  -12.1042    0.0000 O   0  0
   17.9157  -12.3950    0.0000 C   0  0
   18.6018  -11.9377    0.0000 C   0  0
   19.3413  -12.3035    0.0000 C   0  0
   20.0278  -11.8460    0.0000 N   0  0
   20.7658  -12.2166    0.0000 C   0  0
   21.4504  -11.7627    0.0000 C   0  0
   21.4016  -10.9388    0.0000 O   0  0
   20.6622  -10.5709    0.0000 C   0  0
   19.9714  -11.0268    0.0000 C   0  0
 15 19  1  0
  8  9  2  0
 19 20  1  0
  4  2  2  0
 20 21  1  0
  9 10  1  0
 20 22  2  0
  5  6  1  0
 21 23  1  0
 23 24  1  0
 10 11  2  0
  2  3  1  0
 11 12  1  0
 24 25  2  0
 25 26  1  0
 26 27  1  0
 27 23  2  0
 12 13  2  0
 25 28  1  0
 13  8  1  0
 28 29  1  0
  1  2  1  0
 28 30  1  0
  6  7  1  0
 28 31  1  0
 14 15  2  0
 11 32  1  0
  7  9  1  0
 32 33  1  0
 15 16  1  0
 33 34  1  0
  8  5  1  0
 34 35  1  0
 16 17  2  0
 35 36  1  0
 36 37  1  0
 17  1  1  0
  3  6  2  0
  1 18  2  0
 18 14  1  0
  5  4  1  0
 36 41  1  0
 37 38  1  0
 38 39  1  0
 39 40  1  0
 40 41  1  0
M  END