
  CDK    8/10/10,12:22

 18 19  0  0  0  0  0  0  0  0999 V2000
    5.7089    3.7365    0.0000 C   0  0  0  0  0  0  0  0  0  0  0  0
    5.6920    2.0846    0.0000 N   0  0  0  0  0  0  0  0  0  0  0  0
    6.4138    2.4955    0.0000 C   0  0  0  0  0  0  0  0  0  0  0  0
    6.4183    3.3196    0.0000 C   0  0  0  0  0  0  0  0  0  0  0  0
    4.9798    2.5053    0.0000 C   0  0  0  0  0  0  0  0  0  0  0  0
    4.9879    3.3307    0.0000 C   0  0  0  0  0  0  0  0  0  0  0  0
    4.2782    3.7486    0.0000 C   0  0  0  0  0  0  0  0  0  0  0  0
    3.5599    3.3422    0.0000 C   0  0  0  0  0  0  0  0  0  0  0  0
    3.5558    2.5136    0.0000 C   0  0  0  0  0  0  0  0  0  0  0  0
    4.2661    2.0994    0.0000 C   0  0  0  0  0  0  0  0  0  0  0  0
    7.1258    2.0788    0.0000 C   0  0  0  0  0  0  0  0  0  0  0  0
    7.8427    2.4872    0.0000 N   0  0  0  0  0  0  0  0  0  0  0  0
    8.5547    2.0705    0.0000 N   0  0  0  0  0  0  0  0  0  0  0  0
    9.2716    2.4788    0.0000 C   0  0  0  0  0  0  0  0  0  0  0  0
    9.9837    2.0622    0.0000 N   0  0  0  0  0  0  0  0  0  0  0  0
    9.2764    3.3038    0.0000 S   0  0  0  0  0  0  0  0  0  0  0  0
    9.9789    1.2372    0.0000 C   0  0  0  0  0  0  0  0  0  0  0  0
   10.7005    2.4705    0.0000 C   0  0  0  0  0  0  0  0  0  0  0  0
  8  9  1  0  0  0  0 
  4  1  1  0  0  0  0 
  9 10  2  0  0  0  0 
 10  5  1  0  0  0  0 
  5  2  2  0  0  0  0 
  3 11  1  0  0  0  0 
  1  6  2  0  0  0  0 
 11 12  2  0  0  0  0 
  5  6  1  0  0  0  0 
 12 13  1  0  0  0  0 
  2  3  1  0  0  0  0 
 13 14  1  0  0  0  0 
  6  7  1  0  0  0  0 
 14 15  1  0  0  0  0 
 14 16  2  0  0  0  0 
  7  8  2  0  0  0  0 
 15 17  1  0  0  0  0 
  3  4  2  0  0  0  0 
 15 18  1  0  0  0  0 
M  END