
  SciTegic01161211242D

 39 41  0  0  0  0            999 V2000
    9.4444   -8.2708    0.0000 C   0  0
    9.4432   -9.0982    0.0000 C   0  0
   10.1581   -9.5110    0.0000 C   0  0
   10.8745   -9.0977    0.0000 C   0  0
   10.8716   -8.2672    0.0000 C   0  0
   10.1563   -7.8580    0.0000 C   0  0
    8.7298   -7.8585    0.0000 C   0  0
    8.7296   -7.0335    0.0000 F   0  0
    8.0155   -8.2711    0.0000 F   0  0
    8.0125   -7.4458    0.0000 F   0  0
    8.7284   -9.5101    0.0000 F   0  0
   11.5846   -7.8520    0.0000 C   0  0
   12.3006   -8.2618    0.0000 N   0  0
   13.0135   -7.8466    0.0000 C   0  0
   12.3037   -9.0868    0.0000 C   0  0
   13.7295   -8.2564    0.0000 C   0  0
   13.0104   -7.0216    0.0000 O   0  0
   13.7326   -9.0814    0.0000 C   0  0
   14.4424   -7.8412    0.0000 C   0  0
   13.7250   -7.4292    0.0000 C   0  0
   15.1584   -8.2510    0.0000 C   0  0
   15.8714   -7.8358    0.0000 N   0  0
   16.5846   -8.2470    0.0000 C   0  0
   17.2954   -7.8353    0.0000 C   0  0
   17.2965   -7.0099    0.0000 C   0  0
   16.5806   -6.5979    0.0000 C   0  0
   15.8636   -7.0113    0.0000 C   0  0
   18.0110   -6.5974    0.0000 N   0  0
   18.6792   -7.0762    0.0000 C   0  0
   19.3441   -6.5879    0.0000 C   0  0
   18.6843   -7.9012    0.0000 O   0  0
   13.0197   -9.4942    0.0000 C   0  0
   13.0224  -10.3184    0.0000 C   0  0
   13.7390  -10.7291    0.0000 C   0  0
   14.4542  -10.3094    0.0000 C   0  0
   14.4480   -9.4866    0.0000 C   0  0
   12.3093  -10.7333    0.0000 Cl  0  0
   13.7432  -11.5541    0.0000 Cl  0  0
   17.9669   -5.7736    0.0000 C   0  0
  4  5  1  0
 16 20  1  0
  7 10  1  0
 19 21  1  0
  2  3  1  0
 21 22  1  0
 22 23  1  0
  2 11  1  0
  5  6  2  0
  5 12  1  0
  6  1  1  0
 12 13  1  0
 22 27  1  0
 23 24  1  0
 24 25  1  0
 25 26  1  0
 26 27  1  0
  1  2  2  0
 25 28  1  0
 28 29  1  0
 13 14  1  0
  1  7  1  0
 29 30  1  0
 13 15  1  0
 29 31  2  0
  3  4  2  0
 18 32  2  0
 14 16  1  0
 32 33  1  0
  7  8  1  0
 33 34  2  0
 14 17  2  0
 34 35  1  0
 35 36  2  0
 36 18  1  0
 16 18  1  0
 33 37  1  0
  7  9  1  0
 34 38  1  0
 16 19  1  0
 28 39  1  0
M  END