
  SciTegic12231509382D

 40 45  0  0  0  0            999 V2000
    6.3982   -3.5373    0.0000 C   0  0
    6.3970   -4.3645    0.0000 C   0  0
    7.1118   -4.7774    0.0000 C   0  0
    7.8282   -4.3640    0.0000 C   0  0
    7.8254   -3.5335    0.0000 C   0  0
    7.1099   -3.1245    0.0000 C   0  0
    5.6822   -4.7765    0.0000 N   0  0
    4.9681   -4.3634    0.0000 C   0  0
    4.2533   -4.7756    0.0000 N   0  0
    4.9688   -3.5385    0.0000 O   0  0
    3.5764   -4.3042    0.0000 C   0  0
    3.5644   -3.4770    0.0000 N   0  0
    2.7750   -3.2377    0.0000 O   0  0
    2.3035   -3.9147    0.0000 C   0  0
    2.8015   -4.5722    0.0000 C   0  0
    1.4786   -3.9312    0.0000 C   0  0
    1.0520   -3.2251    0.0000 C   0  0
    1.0806   -4.6538    0.0000 C   0  0
    0.6499   -3.9289    0.0000 C   0  0
    8.5038   -3.0692    0.0000 C   0  0
    9.2810   -3.3456    0.0000 N   0  0
    8.5266   -2.2445    0.0000 C   0  0
    9.3178   -2.0113    0.0000 N   0  0
    9.7797   -2.6929    0.0000 C   0  0
   10.5708   -2.4643    0.0000 S   0  0
    9.8235   -1.3614    0.0000 C   0  0
   10.5999   -1.6431    0.0000 C   0  0
   11.2300   -1.1120    0.0000 C   0  0
   11.0847   -0.3013    0.0000 C   0  0
   10.3041   -0.0216    0.0000 C   0  0
    9.6700   -0.5504    0.0000 C   0  0
   11.7907    0.1326    0.0000 O   0  0
   12.5132   -0.2723    0.0000 C   0  0
   13.2192    0.1619    0.0000 C   0  0
   13.9419   -0.2432    0.0000 N   0  0
   13.9543   -1.0718    0.0000 C   0  0
   14.6729   -1.4696    0.0000 C   0  0
   15.3812   -1.0461    0.0000 O   0  0
   15.3664   -0.2204    0.0000 C   0  0
   14.6432    0.1847    0.0000 C   0  0
  1  2  2  0
  2  3  1  0
  3  4  2  0
  4  5  1  0
  5  6  2  0
  6  1  1  0
  2  7  1  0
  7  8  1  0
  8  9  1  0
  8 10  2  0
  9 11  1  0
 11 12  2  0
 12 13  1  0
 13 14  1  0
 14 15  2  0
 15 11  1  0
 14 16  1  0
 16 17  1  0
 16 18  1  0
 16 19  1  0
 20 21  1  0
 21 24  2  0
 23 22  1  0
 22 20  2  0
  5 20  1  0
 23 24  1  0
 24 25  1  0
 25 27  1  0
 26 23  1  0
 26 27  2  0
 27 28  1  0
 28 29  2  0
 29 30  1  0
 30 31  2  0
 31 26  1  0
 29 32  1  0
 32 33  1  0
 33 34  1  0
 34 35  1  0
 35 36  1  0
 35 40  1  0
 36 37  1  0
 37 38  1  0
 38 39  1  0
 39 40  1  0
M  END