
  SciTegic06051315212D

 28 30  0  0  0  0            999 V2000
   34.4444  -23.9255    0.0000 C   0  0
   34.4433  -24.7450    0.0000 C   0  0
   35.1513  -25.1540    0.0000 C   0  0
   35.8610  -24.7446    0.0000 C   0  0
   35.8582  -23.9219    0.0000 C   0  0
   35.1495  -23.5166    0.0000 C   0  0
   35.1478  -25.9685    0.0000 N   0  0
   34.4382  -26.3757    0.0000 C   0  0
   34.4360  -27.1893    0.0000 C   0  0
   35.1418  -27.6019    0.0000 N   0  0
   35.8514  -27.1947    0.0000 C   0  0
   35.8552  -26.3749    0.0000 C   0  0
   35.1385  -28.4191    0.0000 C   0  0
   35.1433  -22.6977    0.0000 N   0  3
   34.4344  -22.2912    0.0000 O   0  0
   35.8498  -22.2870    0.0000 O   0  5
   36.5693  -25.1521    0.0000 N   0  0
   37.2764  -24.7423    0.0000 C   0  0
   37.9848  -25.1498    0.0000 C   0  0
   37.2751  -23.9252    0.0000 O   0  0
   37.9814  -25.9655    0.0000 C   0  0
   38.6889  -26.3729    0.0000 C   0  0
   39.3970  -25.9631    0.0000 C   0  0
   39.3931  -25.1417    0.0000 C   0  0
   38.6850  -24.7380    0.0000 C   0  0
   40.1059  -26.3697    0.0000 F   0  0
   40.0987  -24.7295    0.0000 O   0  0
   40.8085  -25.1345    0.0000 C   0  0
  1  2  2  0
  2  3  1  0
  3  4  2  0
  4  5  1  0
  5  6  2  0
  6  1  1  0
  7  8  1  0
  7 12  1  0
  8  9  1  0
  9 10  1  0
 10 11  1  0
 11 12  1  0
  3  7  1  0
 10 13  1  0
 14 15  2  0
 14 16  1  0
  6 14  1  0
  4 17  1  0
 17 18  1  0
 18 19  1  0
 18 20  2  0
 19 21  2  0
 21 22  1  0
 22 23  2  0
 23 24  1  0
 24 25  2  0
 25 19  1  0
 23 26  1  0
 24 27  1  0
 27 28  1  0
M  CHG  2  14   1  16  -1
M  END