
          11280715312D 1   1.00000     0.00000     0

 24 26  0     0  0            999 V2000
    0.3792   -1.9667    0.0000 C   0  0  0  0  0  0           0  0  0
    2.8792   -1.4625    0.0000 C   0  0  0  0  0  0           0  0  0
    1.9292   -1.6667    0.0000 C   0  0  0  0  0  0           0  0  0
    0.3792   -2.5667    0.0000 C   0  0  0  0  0  0           0  0  0
    2.5792   -0.9417    0.0000 N   0  0  0  0  0  0           0  0  0
    2.4792   -1.9042    0.0000 C   0  0  0  0  0  0           0  0  0
   -0.1458   -1.6667    0.0000 C   0  0  3  0  0  0           0  0  0
    1.4125   -1.9667    0.0000 C   0  0  0  0  0  0           0  0  0
   -0.1458   -2.8667    0.0000 C   0  0  3  0  0  0           0  0  0
    1.9917   -1.0667    0.0000 O   0  0  0  0  0  0           0  0  0
    0.8917   -1.6667    0.0000 C   0  0  0  0  0  0           0  0  0
    0.8917   -2.8667    0.0000 C   0  0  0  0  0  0           0  0  0
    3.4750   -1.5250    0.0000 C   0  0  0  0  0  0           0  0  0
    1.4167   -2.5667    0.0000 C   0  0  0  0  0  0           0  0  0
   -0.6583   -1.9667    0.0000 C   0  0  3  0  0  0           0  0  0
   -0.6583   -2.5667    0.0000 C   0  0  0  0  0  0           0  0  0
    3.8292   -1.0375    0.0000 O   0  0  0  0  0  0           0  0  0
    3.7167   -2.0667    0.0000 O   0  0  0  0  0  0           0  0  0
    0.2792   -1.2417    0.0000 C   0  0  0  0  0  0           0  0  0
   -0.6625   -1.3667    0.0000 C   0  0  0  0  0  0           0  0  0
    0.2792   -3.2917    0.0000 C   0  0  0  0  0  0           0  0  0
   -0.6625   -3.1667    0.0000 C   0  0  0  0  0  0           0  0  0
    1.8375   -2.9875    0.0000 C   0  0  0  0  0  0           0  0  0
   -1.1750   -1.6667    0.0000 C   0  0  0  0  0  0           0  0  0
  2  6  1  0     0  0
  3  8  1  0     0  0
  4  1  2  0     0  0
  5 10  1  0     0  0
  6  3  2  0     0  0
  7  1  1  0     0  0
  8 11  2  0     0  0
  9  4  1  0     0  0
 10  3  1  0     0  0
 11  1  1  0     0  0
 12  4  1  0     0  0
 13  2  1  0     0  0
 14  8  1  0     0  0
 15  7  1  0     0  0
 16 15  1  0     0  0
 17 13  2  0     0  0
 18 13  1  0     0  0
 19  7  1  0     0  0
 20  7  1  0     0  0
 21  9  1  0     0  0
 22  9  1  0     0  0
 23 14  1  0     0  0
 24 15  1  0     0  0
 12 14  2  0     0  0
 16  9  1  0     0  0
  2  5  2  0     0  0
M  END