
          11280715202D 1   1.00000     0.00000     0

 29 32  0     1  0            999 V2000
    6.9875   -6.0417    0.0000 C   0  0  2  0  0  0           0  0  0
    4.8792   -7.2125    0.0000 C   0  0  2  0  0  0           0  0  0
    7.7167   -5.6292    0.0000 C   0  0  1  0  0  0           0  0  0
    5.5542   -6.7750    0.0000 C   0  0  2  0  0  0           0  0  0
    6.2750   -7.2125    0.0000 C   0  0  2  0  0  0           0  0  0
    6.9875   -6.7750    0.0000 C   0  0  2  0  0  0           0  0  0
    5.5542   -6.0417    0.0000 C   0  0  0  0  0  0           0  0  0
    4.8875   -7.9792    0.0000 C   0  0  0  0  0  0           0  0  0
    6.2750   -5.6292    0.0000 C   0  0  0  0  0  0           0  0  0
    4.1667   -8.4542    0.0000 C   0  0  0  0  0  0           0  0  0
    7.6917   -4.8792    0.0000 C   0  0  0  0  0  0           0  0  0
    8.4375   -6.0417    0.0000 C   0  0  0  0  0  0           0  0  0
    8.4375   -6.7750    0.0000 C   0  0  0  0  0  0           0  0  0
    6.2750   -8.0292    0.0000 C   0  0  0  0  0  0           0  0  0
    4.1667   -6.7750    0.0000 C   0  0  0  0  0  0           0  0  0
    5.5542   -8.4542    0.0000 C   0  0  0  0  0  0           0  0  0
    5.0750   -5.6750    0.0000 O   0  0  0  0  0  0           0  0  0
    7.1417   -4.4917    0.0000 O   0  0  0  0  0  0           0  0  0
    8.7292   -5.4542    0.0000 O   0  0  0  0  0  0           0  0  0
    3.4292   -8.0292    0.0000 C   0  0  1  0  0  0           0  0  0
    6.7917   -5.2292    0.0000 C   0  0  0  0  0  0           0  0  0
    3.4292   -7.2125    0.0000 C   0  0  0  0  0  0           0  0  0
    4.6542   -6.3375    0.0000 C   0  0  0  0  0  0           0  0  0
    8.3000   -4.3667    0.0000 C   0  0  0  0  0  0           0  0  0
    2.8250   -8.4167    0.0000 O   0  0  0  0  0  0           0  0  0
    9.1167   -4.5750    0.0000 O   0  0  0  0  0  0           0  0  0
    6.9792   -7.5792    0.0000 H   0  0  0  0  0  0           0  0  0
    6.2667   -6.4042    0.0000 H   0  0  0  0  0  0           0  0  0
    5.5542   -7.5792    0.0000 H   0  0  0  0  0  0           0  0  0
  2  4  1  0     0  0
  3  1  1  0     0  0
  4  7  1  0     0  0
  5  6  1  0     0  0
  6  1  1  0     0  0
  7  9  1  0     0  0
  8  2  1  0     0  0
  9  1  1  0     0  0
 10  8  2  0     0  0
 11  3  1  0     0  0
 12  3  1  0     0  0
 13  6  1  0     0  0
 14  5  1  0     0  0
 15  2  1  0     0  0
 16 14  1  0     0  0
 17  7  2  0     0  0
 18 11  2  0     0  0
  3 19  1  6     0  0
 20 22  1  0     0  0
  1 21  1  1     0  0
 22 15  1  0     0  0
  2 23  1  1     0  0
 24 11  1  0     0  0
 20 25  1  6     0  0
 26 24  1  0     0  0
  6 27  1  6     0  0
  5 28  1  1     0  0
  4 29  1  6     0  0
 13 12  1  0     0  0
  5  4  1  0     0  0
 16  8  1  0     0  0
 20 10  1  0     0  0
M  END