
  SciTegic01161211252D

 41 47  0  0  0  0            999 V2000
    5.6788   -1.0662    0.0000 C   0  0
    4.9900   -1.5123    0.0000 C   0  0
    5.0355   -2.3326    0.0000 N   0  0
    5.7700   -2.7042    0.0000 C   0  0
    6.4086   -1.4269    0.0000 C   0  0
    6.4604   -2.2481    0.0000 C   0  0
    7.1963   -2.6122    0.0000 N   0  0
    7.8809   -2.1560    0.0000 C   0  0
    7.8249   -1.3319    0.0000 C   0  0
    7.0886   -0.9717    0.0000 N   0  0
    0.0327   -0.1233    0.0000 N   0  0
    1.4591   -0.1304    0.0000 C   0  0
    0.7478    0.2869    0.0000 C   0  0
   -1.3412    1.5699    0.0000 C   0  0
   -0.6404    1.1339    0.0000 C   0  0
   -0.6641    0.3071    0.0000 C   0  0
    2.1941    0.2254    0.0000 C   0  0
    2.8949   -0.2065    0.0000 N   0  0
    2.2135    1.0522    0.0000 O   0  0
    2.8669   -1.0297    0.0000 C   0  0
    3.5635   -1.4653    0.0000 C   0  0
    4.2901   -1.0739    0.0000 N   0  0
    4.3198   -0.2461    0.0000 C   0  0
    3.6147    0.1902    0.0000 C   0  0
    0.0838    1.5290    0.0000 C   0  0
   -2.0655    1.1748    0.0000 C   0  0
   -2.7668    1.6130    0.0000 C   0  0
   -2.8089   -0.0409    0.0000 C   0  0
   -2.0839    0.3517    0.0000 C   0  0
    0.0285   -0.9506    0.0000 C   0  0
    1.4549   -0.9578    0.0000 C   0  0
    0.7368   -1.3689    0.0000 C   0  0
    0.7323   -2.1905    0.0000 C   0  0
    1.4442   -2.6070    0.0000 C   0  0
    2.1626   -2.2000    0.0000 C   0  0
    2.1687   -1.3722    0.0000 C   0  0
   -3.5118    0.3847    0.0000 C   0  0
   -3.4914    1.2167    0.0000 C   0  0
   -4.2764    1.4933    0.0000 O   0  0
   -4.7820    0.8321    0.0000 C   0  0
   -4.3093    0.1471    0.0000 O   0  0
  4  6  1  0
  8  9  1  0
  5  1  1  0
  9 10  2  0
 10  5  1  0
  2  3  1  0
 18 20  1  0
 15 25  1  0
 14 26  1  0
 14 15  1  0
 26 27  2  0
 27 38  1  0
 11 13  1  0
 37 28  1  0
 15 16  1  0
 28 29  2  0
 29 26  1  0
 16 11  1  0
 18 24  1  0
 32 30  1  0
 20 21  1  0
 21 22  1  0
 31 32  1  0
 22 23  1  0
 23 24  1  0
 31 12  1  0
 12 17  1  0
 12 13  1  0
 31 36  1  0
 32 33  1  0
 33 34  1  0
 34 35  1  0
 35 36  1  0
 17 18  1  0
 11 30  1  0
 17 19  2  0
 37 38  2  0
  5  6  2  0
  1  2  2  0
  6  7  1  0
  3  4  2  0
  7  8  2  0
 38 39  1  0
 39 40  1  0
 40 41  1  0
 41 37  1  0
 22  2  1  0
M  END