
  SciTegic01111613442D

 16 17  0  0  0  0            999 V2000
    0.2917   -0.7475    0.0000 C   0  0
    0.2917    0.7475    0.0000 C   0  0
   -1.0028   -1.5132    0.0000 N   0  0
   -2.3155    0.7475    0.0000 N   0  0
   -1.0028    1.5132    0.0000 C   0  0
    1.7138   -1.2033    0.0000 N   0  0
    1.7138    1.2033    0.0000 N   0  0
   -2.3155   -0.7475    0.0000 C   0  0
    2.5889    0.0182    0.0000 C   0  0
   -0.9991    2.7132    0.0000 O   0  0
    2.1855   -2.6254    0.0000 C   0  0
   -3.3560   -1.3452    0.0000 N   0  0
    3.6552   -2.9294    0.0000 O   0  0
    5.9752   -5.7969    0.0000 O   0  0
    5.5974   -4.6579    0.0000 C   0  0
    4.1277   -4.3539    0.0000 C   0  0
  2  1  2  0
  3  1  1  0
  4  8  1  0
  5  2  1  0
  6  1  1  0
  7  2  1  0
  8  3  2  0
  9  6  1  0
 10  5  1  0
 11  6  1  0
 12  8  1  0
 13 11  1  0
 14 15  1  0
 15 16  1  0
 16 13  1  0
  9  7  2  0
  4  5  2  0
M  END