
  CDK    9/16/09,10:2

 80 85  0  0  0  0  0  0  0  0999 V2000
    9.3481   -6.8179    0.0000 C   0  0  0  0  0  0  0  0  0  0  0  0
   10.0626   -8.0570    0.0000 O   0  0  0  0  0  0  0  0  0  0  0  0
   10.0631   -7.2328    0.0000 C   0  0  0  0  0  0  0  0  0  0  0  0
    9.3485   -5.9922    0.0000 C   0  0  0  0  0  0  0  0  0  0  0  0
   10.0648   -5.5776    0.0000 C   0  0  0  0  0  0  0  0  0  0  0  0
   10.0652   -4.7546    0.0000 C   0  0  0  0  0  0  0  0  0  0  0  0
   10.7774   -4.3422    0.0000 O   0  0  0  0  0  0  0  0  0  0  0  0
   11.4896   -7.2313    0.0000 C   0  0  0  0  0  0  0  0  0  0  0  0
   12.1982   -5.9980    0.0000 O   0  0  0  0  0  0  0  0  0  0  0  0
   12.1987   -6.8208    0.0000 C   0  0  0  0  0  0  0  0  0  0  0  0
   13.6290   -6.8188    0.0000 C   0  0  0  0  0  0  0  0  0  0  0  0
   14.3432   -8.0611    0.0000 O   0  0  0  0  0  0  0  0  0  0  0  0
   14.3476   -7.2327    0.0000 C   0  0  0  0  0  0  0  0  0  0  0  0
   13.5486   -6.0000    0.0000 C   0  0  0  0  0  0  0  0  0  0  0  0
   14.2245   -5.5163    0.0000 C   0  0  0  0  0  0  0  0  0  0  0  0
   14.1453   -4.6976    0.0000 C   0  0  0  0  0  0  0  0  0  0  0  0
   14.9727   -5.8642    0.0000 C   0  0  0  0  0  0  0  0  0  0  0  0
   15.7732   -7.2349    0.0000 C   0  0  0  0  0  0  0  0  0  0  0  0
   16.4723   -6.0031    0.0000 O   0  0  0  0  0  0  0  0  0  0  0  0
   16.4825   -6.8243    0.0000 C   0  0  0  0  0  0  0  0  0  0  0  0
   15.7761   -8.0592    0.0000 C   0  0  0  0  0  0  0  0  0  0  0  0
    7.2049   -7.2274    0.0000 C   0  0  0  0  0  0  0  0  0  0  0  0
    7.9187   -6.8142    0.0000 C   0  0  0  0  0  0  0  0  0  0  0  0
    7.9192   -5.9881    0.0000 O   0  0  0  0  0  0  0  0  0  0  0  0
    7.2044   -8.0547    0.0000 C   0  0  0  0  0  0  0  0  0  0  0  0
    7.9178   -8.4643    0.0000 C   0  0  0  0  0  0  0  0  0  0  0  0
    7.9098   -9.2921    0.0000 C   0  0  0  0  0  0  0  0  0  0  0  0
    8.6327   -9.7053    0.0000 C   0  0  0  0  0  0  0  0  0  0  0  0
    9.3463   -9.2917    0.0000 C   0  0  0  0  0  0  0  0  0  0  0  0
    9.3419   -8.4612    0.0000 C   0  0  0  0  0  0  0  0  0  0  0  0
    8.6258   -8.0526    0.0000 C   0  0  0  0  0  0  0  0  0  0  0  0
   10.0611   -9.7024    0.0000 O   0  0  0  0  0  0  0  0  0  0  0  0
   10.0607  -10.5287    0.0000 P   0  0  0  0  0  0  0  0  0  0  0  0
    9.2385  -10.5283    0.0000 O   0  0  0  0  0  0  0  0  0  0  0  0
    8.6323   -7.2287    0.0000 N   0  0  0  0  0  0  0  0  0  0  0  0
    9.3522   -4.3402    0.0000 N   0  0  0  0  0  0  0  0  0  0  0  0
   10.7760   -6.8168    0.0000 N   0  0  0  0  0  0  0  0  0  0  0  0
   12.9147   -7.2322    0.0000 N   0  0  0  0  0  0  0  0  0  0  0  0
   15.0619   -6.8192    0.0000 N   0  0  0  0  0  0  0  0  0  0  0  0
   16.4950   -8.4764    0.0000 O   0  0  0  0  0  0  0  0  0  0  0  0
   17.2042   -7.2374    0.0000 N   0  0  0  0  0  0  0  0  0  0  0  0
    6.4912   -6.8128    0.0000 N   0  0  0  0  0  0  0  0  0  0  0  0
   10.0606  -11.3531    0.0000 O   0  0  0  0  0  0  0  0  0  0  0  0
   10.8922  -10.5290    0.0000 O   0  0  0  0  0  0  0  0  0  0  0  0
    6.4899   -5.9898    0.0000 C   0  0  0  0  0  0  0  0  0  0  0  0
    7.2058   -5.5793    0.0000 O   0  0  0  0  0  0  0  0  0  0  0  0
    6.3168   -2.5647    0.0000 C   0  0  0  0  0  0  0  0  0  0  0  0
    6.2021   -1.7485    0.0000 C   0  0  0  0  0  0  0  0  0  0  0  0
    5.4373   -1.4400    0.0000 C   0  0  0  0  0  0  0  0  0  0  0  0
    4.7845   -1.9413    0.0000 C   0  0  0  0  0  0  0  0  0  0  0  0
    4.0202   -1.6329    0.0000 C   0  0  0  0  0  0  0  0  0  0  0  0
    5.3347   -0.6146    0.0000 O   0  0  0  0  0  0  0  0  0  0  0  0
    4.5637   -0.3031    0.0000 C   0  0  0  0  0  0  0  0  0  0  0  0
    3.9118   -0.8073    0.0000 C   0  0  0  0  0  0  0  0  0  0  0  0
    3.1497   -0.4978    0.0000 C   0  0  0  0  0  0  0  0  0  0  0  0
    3.0387    0.3217    0.0000 C   0  0  0  0  0  0  0  0  0  0  0  0
    3.6931    0.8241    0.0000 C   0  0  0  0  0  0  0  0  0  0  0  0
    4.4550    0.5087    0.0000 C   0  0  0  0  0  0  0  0  0  0  0  0
    7.0780   -2.8765    0.0000 O   0  0  0  0  0  0  0  0  0  0  0  0
    3.0692   -2.1340    0.0000 C   0  0  0  0  0  0  0  0  0  0  0  0
    3.0371   -2.9645    0.0000 C   0  0  0  0  0  0  0  0  0  0  0  0
    1.6104   -2.8996    0.0000 C   0  0  0  0  0  0  0  0  0  0  0  0
    1.6454   -2.0743    0.0000 C   0  0  0  0  0  0  0  0  0  0  0  0
    2.3738   -1.6909    0.0000 C   0  0  0  0  0  0  0  0  0  0  0  0
    0.8785   -3.2833    0.0000 N   0  0  0  0  0  0  0  0  0  0  0  0
    0.1503   -3.6692    0.0000 C   0  0  0  0  0  0  0  0  0  0  0  0
   -0.5816   -4.0529    0.0000 S   0  0  0  0  0  0  0  0  0  0  0  0
    3.7367   -3.4057    0.0000 C   0  0  0  0  0  0  0  0  0  0  0  0
    4.8984   -2.7635    0.0000 C   0  0  0  0  0  0  0  0  0  0  0  0
    4.4665   -3.0190    0.0000 O   0  0  0  0  0  0  0  0  0  0  0  0
    5.6568   -3.0738    0.0000 C   0  0  0  0  0  0  0  0  0  0  0  0
    2.3121   -3.3422    0.0000 C   0  0  0  0  0  0  0  0  0  0  0  0
    3.5852    1.6451    0.0000 O   0  0  0  0  0  0  0  0  0  0  0  0
    3.7055   -4.2273    0.0000 N   0  0  0  0  0  0  0  0  0  0  0  0
    4.4041   -4.6668    0.0000 C   0  0  0  0  0  0  0  0  0  0  0  0
    4.3662   -5.4899    0.0000 C   0  0  0  0  0  0  0  0  0  0  0  0
    5.0607   -5.9293    0.0000 C   0  0  0  0  0  0  0  0  0  0  0  0
    5.7929   -5.5476    0.0000 C   0  0  0  0  0  0  0  0  0  0  0  0
    5.8264   -4.7220    0.0000 C   0  0  0  0  0  0  0  0  0  0  0  0
    5.1276   -4.2780    0.0000 C   0  0  0  0  0  0  0  0  0  0  0  0
 31 26  1  0  0  0  0 
 29 32  1  0  0  0  0 
 32 33  1  0  0  0  0 
 33 34  2  0  0  0  0 
  1  3  1  0  0  0  0 
  3  2  2  0  0  0  0 
  1  4  1  1  0  0  0 
  4  5  1  0  0  0  0 
  5  6  1  0  0  0  0 
 23 35  1  0  0  0  0 
 45 42  1  0  0  0  0 
 35  1  1  0  0  0  0 
 45 46  2  0  0  0  0 
 21 40  1  0  0  0  0 
 37  8  1  0  0  0  0 
  3 37  1  0  0  0  0 
 20 41  1  0  0  0  0 
 42 22  1  0  0  0  0 
 38 11  1  0  0  0  0 
 10 38  1  0  0  0  0 
 33 43  1  0  0  0  0 
  6 36  1  0  0  0  0 
 33 44  1  0  0  0  0 
 39 18  1  0  0  0  0 
 13 39  1  0  0  0  0 
  6  7  2  0  0  0  0 
  8 10  1  0  0  0  0 
 10  9  2  0  0  0  0 
 11 13  1  0  0  0  0 
 13 12  2  0  0  0  0 
 11 14  1  1  0  0  0 
 14 15  1  0  0  0  0 
 15 16  1  0  0  0  0 
 15 17  1  0  0  0  0 
 18 20  1  0  0  0  0 
 20 19  2  0  0  0  0 
 18 21  1  6  0  0  0 
 22 23  1  0  0  0  0 
 23 24  2  0  0  0  0 
 22 25  1  6  0  0  0 
 47 71  1  0  0  0  0 
 71 69  2  0  0  0  0 
 69 50  1  0  0  0  0 
 49 48  2  0  0  0  0 
 48 47  1  0  0  0  0 
 49 50  1  0  0  0  0 
 49 52  1  0  0  0  0 
 50 51  2  0  0  0  0 
 51 54  1  0  0  0  0 
 53 52  1  0  0  0  0 
 53 54  2  0  0  0  0 
 54 55  1  0  0  0  0 
 55 56  2  0  0  0  0 
 56 57  1  0  0  0  0 
 57 58  2  0  0  0  0 
 58 53  1  0  0  0  0 
 47 59  2  0  0  0  0 
 60 61  2  0  0  0  0 
 61 72  1  0  0  0  0 
 72 62  2  0  0  0  0 
 62 63  1  0  0  0  0 
 63 64  2  0  0  0  0 
 64 60  1  0  0  0  0 
 51 60  1  0  0  0  0 
 62 65  1  0  0  0  0 
 65 66  2  0  0  0  0 
 66 67  2  0  0  0  0 
 61 68  1  0  0  0  0 
 68 70  2  0  0  0  0 
 57 73  1  0  0  0  0 
 68 74  1  0  0  0  0 
 25 26  1  0  0  0  0 
 75 74  1  1  0  0  0 
 75 76  1  0  0  0  0 
 26 27  2  0  0  0  0 
 27 28  1  0  0  0  0 
 28 29  2  0  0  0  0 
 29 30  1  0  0  0  0 
 30 31  2  0  0  0  0 
 75 80  1  0  0  0  0 
 76 77  1  0  0  0  0 
 77 78  1  0  0  0  0 
 78 79  1  0  0  0  0 
 79 80  1  0  0  0  0 
 78 45  1  6  0  0  0 
M  END