
          11280714562D 1   1.00000     0.00000     0

 35 39  0     0  0            999 V2000
   -0.1375  -14.8500    0.0000 C   0  0  0  0  0  0           0  0  0
   -0.8625  -14.4417    0.0000 N   0  0  0  0  0  0           0  0  0
   -1.1333  -15.7625    0.0000 N   0  0  3  0  0  0           0  0  0
   -0.3083  -15.6667    0.0000 C   0  0  0  0  0  0           0  0  0
   -1.4833  -15.0042    0.0000 C   0  0  0  0  0  0           0  0  0
   -1.0958  -20.0417    0.0000 C   0  0  0  0  0  0           0  0  0
   -2.3708  -19.6417    0.0000 N   0  0  0  0  0  0           0  0  0
   -1.5875  -19.3792    0.0000 N   0  0  0  0  0  0           0  0  0
   -2.3625  -20.4667    0.0000 N   0  0  0  0  0  0           0  0  0
    0.6042  -14.4875    0.0000 C   0  0  0  0  0  0           0  0  0
   -1.5750  -20.7167    0.0000 N   0  0  0  0  0  0           0  0  0
   -0.2708  -20.0375    0.0000 C   0  0  0  0  0  0           0  0  0
    0.5917  -13.6625    0.0000 C   0  0  0  0  0  0           0  0  0
    0.1375  -19.3167    0.0000 C   0  0  0  0  0  0           0  0  0
    1.3000  -13.2417    0.0000 C   0  0  0  0  0  0           0  0  0
   -1.5375  -16.4792    0.0000 C   0  0  0  0  0  0           0  0  0
   -0.2833  -18.6042    0.0000 C   0  0  0  0  0  0           0  0  0
    1.2917  -12.4167    0.0000 O   0  0  0  0  0  0           0  0  0
    0.1250  -17.8875    0.0000 C   0  0  0  0  0  0           0  0  0
   -1.1083  -18.6167    0.0000 C   0  0  0  0  0  0           0  0  0
   -1.1208  -17.1917    0.0000 C   0  0  0  0  0  0           0  0  0
    0.2250  -16.3000    0.0000 C   0  0  0  0  0  0           0  0  0
   -2.2875  -14.8417    0.0000 C   0  0  0  0  0  0           0  0  0
    2.0167  -13.6417    0.0000 O   0  0  0  0  0  0           0  0  0
   -1.5250  -17.9042    0.0000 C   0  0  0  0  0  0           0  0  0
   -0.2958  -17.1792    0.0000 C   0  0  0  0  0  0           0  0  0
    1.3500  -14.8292    0.0000 C   0  0  0  0  0  0           0  0  0
    0.1500  -20.7417    0.0000 C   0  0  0  0  0  0           0  0  0
    0.9542  -19.3042    0.0000 C   0  0  0  0  0  0           0  0  0
   -2.5500  -14.0542    0.0000 C   0  0  0  0  0  0           0  0  0
    1.0500  -16.2792    0.0000 C   0  0  0  0  0  0           0  0  0
    1.5500  -15.6292    0.0000 C   0  0  0  0  0  0           0  0  0
    0.9792  -20.7375    0.0000 C   0  0  0  0  0  0           0  0  0
    1.3792  -20.0167    0.0000 C   0  0  0  0  0  0           0  0  0
   -3.3583  -13.8917    0.0000 C   0  0  0  0  0  0           0  0  0
  2  1  1  0     0  0
  3  4  1  0     0  0
  4  1  2  0     0  0
  5  2  2  0     0  0
  6 12  1  0     0  0
  7  8  2  0     0  0
  8  6  1  0     0  0
  9 11  1  0     0  0
 10  1  1  0     0  0
 11  6  2  0     0  0
 12 14  2  0     0  0
 13 10  2  0     0  0
 14 17  1  0     0  0
 15 13  1  0     0  0
 16  3  1  0     0  0
 17 19  2  0     0  0
 18 15  2  0     0  0
 19 26  1  0     0  0
 20 25  2  0     0  0
 21 16  1  0     0  0
 22  4  1  0     0  0
 23  5  1  0     0  0
 24 15  1  0     0  0
 25 21  1  0     0  0
 26 21  2  0     0  0
 27 10  1  0     0  0
 28 12  1  0     0  0
 29 14  1  0     0  0
 30 23  1  0     0  0
 31 22  1  0     0  0
 32 27  1  0     0  0
 33 34  1  0     0  0
 34 29  2  0     0  0
 35 30  1  0     0  0
  5  3  1  0     0  0
 32 31  1  0     0  0
 20 17  1  0     0  0
 28 33  2  0     0  0
  7  9  1  0     0  0
M  END