
  SciTegic07291412072D

 58 64  0  0  0  0            999 V2000
   -1.4886   -7.7074    0.0000 N   0  0
    3.2694   -3.2988    0.0000 N   0  0
   -0.6636   -7.7173    0.0000 C   0  0
   -1.4714   -6.2785    0.0000 C   0  0
    2.2667   -4.1800    0.0000 C   0  0
    3.0881   -4.1037    0.0000 C   0  0
   -0.6464   -6.2885    0.0000 N   0  0
   -0.2426   -7.0079    0.0000 C   0  0  1  0  0  0
   -1.8924   -6.9880    0.0000 C   0  0  2  0  0  0
    2.5599   -2.8777    0.0000 C   0  0
    4.4650   -7.1571    0.0000 C   0  0
    1.9402   -3.4223    0.0000 C   0  0
    3.0744   -5.6188    0.0000 C   0  0
    4.3032   -6.3481    0.0000 C   0  0  1  0  0  0
    4.0270   -2.9723    0.0000 C   0  0
    3.4783   -6.3382    0.0000 N   0  0
    0.5824   -7.0178    0.0000 C   0  0
    5.2465   -7.4214    0.0000 N   0  0
    1.0034   -6.3084    0.0000 C   0  0
    2.2495   -5.6088    0.0000 C   0  0  1  0  0  0
    1.8456   -4.8895    0.0000 C   0  0
    1.8284   -6.3183    0.0000 N   0  0
   -2.3076   -7.6088    0.0000 C   0  0
   -1.8752   -5.5592    0.0000 O   0  0
   -0.2598   -8.4367    0.0000 O   0  0
   -2.6746   -6.9411    0.0000 C   0  0
    4.9769   -1.0071    0.0000 C   0  0
    5.4083   -8.2304    0.0000 C   0  0
    4.9229   -5.8035    0.0000 C   0  0
    3.8453   -7.7017    0.0000 O   0  0
    3.4955   -4.9093    0.0000 O   0  0
    4.8085   -3.2367    0.0000 O   0  0
    0.5996   -5.5890    0.0000 O   0  0
    4.1231   -2.1530    0.0000 C   0  0
    5.7346   -0.6807    0.0000 O   0  0
   -2.4957   -6.5778    0.0000 C   0  0
   -2.9950   -8.2095    0.0000 C   0  0
   -3.3303   -7.5242    0.0000 C   0  0
   -2.9157   -6.0772    0.0000 C   0  0
    4.8808   -1.8265    0.0000 C   0  0
    4.3154   -0.5142    0.0000 O   0  0
    6.1898   -8.4948    0.0000 C   0  0
    4.7611   -4.9945    0.0000 C   0  0
    2.3981   -2.0687    0.0000 C   0  0
    1.1587   -3.1580    0.0000 C   0  0
    5.8662   -6.8768    0.0000 C   0  0
    6.3516   -9.3038    0.0000 C   0  0
    5.3808   -4.4499    0.0000 C   0  0
    3.9796   -4.7301    0.0000 C   0  0
    6.8095   -7.9502    0.0000 C   0  0
    1.6166   -1.8044    0.0000 C   0  0
    0.9969   -2.3490    0.0000 C   0  0
    5.2190   -3.6409    0.0000 C   0  0
    3.8178   -3.9212    0.0000 C   0  0
    7.1331   -9.5681    0.0000 C   0  0
    7.5910   -8.2146    0.0000 C   0  0
    4.4375   -3.3766    0.0000 C   0  0
    7.7528   -9.0235    0.0000 C   0  0
  2  6  1  0
  3  1  1  0
  9  4  1  1
  5 21  1  0
  6  5  2  0
  7  4  1  0
  8  3  1  0
  9  1  1  0
 10 12  2  0
 14 11  1  1
 12  5  1  0
 13 20  1  0
 14 16  1  0
 15  2  1  0
 16 13  1  0
  8 17  1  1
 18 11  1  0
 19 17  1  0
 20 22  1  0
 20 21  1  6
 22 19  1  0
 23  1  1  0
 24  4  2  0
 25  3  2  0
 26  9  1  0
 27 40  1  0
 28 18  1  0
 29 14  1  0
 30 11  2  0
 31 13  2  0
 32 15  2  0
 33 19  2  0
 34 15  1  0
 35 27  2  0
 36 23  1  0
 37 23  1  0
 38 37  1  0
 39 36  1  0
 40 34  1  0
 41 27  1  0
 42 28  1  0
 43 29  1  0
 44 10  1  0
 45 12  1  0
 46 18  1  0
 47 42  1  0
 48 43  2  0
 49 43  1  0
 50 42  2  0
 51 52  1  0
 52 45  2  0
 53 48  1  0
 54 49  2  0
 55 47  2  0
 56 50  1  0
 57 54  1  0
 58 56  2  0
  7  8  1  0
 38 26  1  0
 39 26  1  0
  2 10  1  0
 51 44  2  0
 57 53  2  0
 55 58  1  0
M  END