
  SciTegic01161211212D

 16 15  0  0  0  0            999 V2000
    3.7125   -3.0875    0.0000 C   0  0
    2.9917   -2.6750    0.0000 P   0  0
    7.2667   -2.6542    0.0000 P   0  0
    4.4250   -2.6625    0.0000 C   0  0
    2.0792   -2.2292    0.0000 O   0  0
    2.1667   -3.0875    0.0000 O   0  0
    6.5542   -3.0667    0.0000 C   0  0
    2.9917   -1.8417    0.0000 O   0  0
    7.8667   -3.2042    0.0000 O   0  0
    7.8667   -2.4792    0.0000 O   0  0
    7.2542   -1.8292    0.0000 O   0  0
    3.1292   -3.6625    0.0000 F   0  0
    4.1125   -3.7917    0.0000 F   0  0
    4.4167   -1.8375    0.0000 O   0  0
    5.1292   -3.0750    0.0000 N   0  0
    5.8417   -2.6542    0.0000 C   0  0
  2  1  1  0
  3  7  1  0
  4  1  1  0
  5  2  1  0
  6  2  1  0
  7 16  1  0
  8  2  2  0
  9  3  1  0
 10  3  1  0
 11  3  2  0
 12  1  1  0
 13  1  1  0
 14  4  2  0
 15  4  1  0
 16 15  1  0
M  END