
  SciTegic11201309402D

 68 71  0  0  1  0            999 V2000
    1.8042    3.9208    0.0000 N   0  0
    2.5625    2.6250    0.0000 C   0  0
    0.3458    4.0333    0.0000 C   0  0  2  0  0  0
    4.0625    2.6333    0.0000 C   0  0  2  0  0  0
    4.8042    3.9375    0.0000 N   0  0
    6.3042    3.9458    0.0000 C   0  0
    4.8167    1.3375    0.0000 C   0  0
    2.4167    5.2667    0.0000 C   0  0  1  0  0  0
    0.0125    5.4958    0.0000 C   0  0
   26.4875   15.7875    0.0000 C   0  0
    7.0458    5.2500    0.0000 C   0  0  1  0  0  0
   24.9875   15.7750    0.0000 N   0  0
   -0.6250    2.8958    0.0000 C   0  0
    1.3000    6.2583    0.0000 C   0  0  1  0  0  0
   33.2125   19.7333    0.0000 C   0  0
   29.5333   10.6167    0.0000 C   0  0
    8.5500    5.2583    0.0000 N   0  0
   22.7417   14.4583    0.0000 C   0  0
    6.3125    1.1833    0.0000 C   0  0
    4.2250   -0.0125    0.0000 C   0  0
    5.3292   -1.0167    0.0000 C   0  0
    6.6250   -0.2750    0.0000 C   0  0
    9.2875    6.5625    0.0000 C   0  0
    1.9667    1.5833    0.0000 O   0  0
   24.2458   14.4708    0.0000 C   0  0  2  0  0  0
   33.8083   20.7792    0.0000 N   0  0
   30.7333   10.6292    0.0000 N   0  0
    6.9125    2.9125    0.0000 O   0  0
   27.0958   14.7500    0.0000 O   0  0
   -0.2250    1.7667    0.0000 O   0  0
   22.1375   15.4958    0.0000 O   0  0
    8.6833    7.6000    0.0000 O   0  0
   27.2292   17.0917    0.0000 C   0  0  2  0  0  0
   31.7125   19.7250    0.0000 N   0  0
   28.7708   11.9125    0.0000 N   0  0
   22.0042   13.1542    0.0000 N   0  0
   28.9417    9.5750    0.0000 N   0  0
   33.8208   18.7000    0.0000 N   0  0
   -1.8042    3.1125    0.0000 O   0  0
   26.6208   18.1250    0.0000 N   0  0
    6.2917    6.5458    0.0000 C   0  0
    3.8500    5.7250    0.0000 C   0  0
    6.8833    7.5875    0.0000 O   0  0
    1.5875    7.7333    0.0000 C   0  0
   10.7917    6.5750    0.0000 C   0  0
    5.3083   -2.5208    0.0000 C   0  0
    7.9333   -1.0167    0.0000 C   0  0
   25.0083   13.1792    0.0000 C   0  0
   27.2708   11.8958    0.0000 C   0  0
   30.9708   18.4167    0.0000 C   0  0
   20.5000   13.1417    0.0000 C   0  0
   28.7292   17.1042    0.0000 C   0  0
   26.5083   13.1917    0.0000 C   0  0
   11.5333    7.8792    0.0000 C   0  0
   29.4708   18.4083    0.0000 C   0  0
   19.7583   11.8375    0.0000 C   0  0
   17.5167   10.5208    0.0000 C   0  0
   16.0167   10.5125    0.0000 C   0  0
   15.2750    9.2083    0.0000 C   0  0
   13.7750    9.1958    0.0000 C   0  0
   13.0333    7.8917    0.0000 C   0  0
   18.2583   11.8292    0.0000 C   0  0
    4.1500    7.2167    0.0000 C   0  0
    3.0292    8.2083    0.0000 C   0  0
    7.9208   -2.5375    0.0000 C   0  0
    6.6250   -3.2792    0.0000 C   0  0
    0.4828    6.8347    0.0000 H   0  0
    3.0810    4.5193    0.0000 H   0  0
  2  1  1  0
  3  1  1  0
  4  2  1  0
  4  5  1  6
  6  5  1  0
  7  4  1  0
  8  1  1  0
  9  3  1  0
 10 12  1  0
 11  6  1  0
 25 12  1  1
  3 13  1  1
 14  8  1  0
 15 34  2  0
 16 35  2  0
 11 17  1  6
 18 36  1  0
 19  7  1  0
 20  7  1  0
 21 20  1  0
 22 19  1  0
 23 17  1  0
 24  2  2  0
 25 18  1  0
 26 15  1  0
 27 16  1  0
 28  6  2  0
 29 10  2  0
 30 13  2  0
 31 18  2  0
 32 23  2  0
 33 10  1  0
 34 50  1  0
 35 49  1  0
 36 51  1  0
 37 16  1  0
 38 15  1  0
 39 13  1  0
 33 40  1  6
 41 11  1  0
  8 42  1  0
 43 41  1  0
 14 44  1  0
 45 23  1  0
 46 21  2  0
 47 22  2  0
 48 25  1  0
 49 53  1  0
 50 55  1  0
 51 56  1  0
 52 33  1  0
 53 48  1  0
 54 45  1  0
 55 52  1  0
 56 62  1  0
 57 58  1  0
 58 59  1  0
 59 60  1  0
 60 61  1  0
 61 54  1  0
 62 57  1  0
 63 42  1  0
 64 44  1  0
 65 47  1  0
 66 46  1  0
  9 14  1  0
 64 63  1  0
 21 22  1  0
 65 66  2  0
 14 67  1  6
  8 68  1  6
M  END