
          11280715062D 1   1.00000     0.00000     0

 23 25  0     0  0            999 V2000
    2.3375   -0.5250    0.0000 C   0  0  0  0  0  0           0  0  0
    2.3542   -1.3417    0.0000 C   0  0  0  0  0  0           0  0  0
    1.6125   -0.1292    0.0000 C   0  0  0  0  0  0           0  0  0
    0.9042   -0.5542    0.0000 C   0  0  0  0  0  0           0  0  0
    1.6542   -1.7792    0.0000 C   0  0  0  0  0  0           0  0  0
    0.9292   -1.3792    0.0000 C   0  0  0  0  0  0           0  0  0
    3.0417   -0.0917    0.0000 C   0  0  0  0  0  0           0  0  0
    3.7625   -0.4917    0.0000 C   0  0  0  0  0  0           0  0  0
    5.1917   -0.4542    0.0000 C   0  0  0  0  0  0           0  0  0
    0.1417   -1.6542    0.0000 O   0  0  0  0  0  0           0  0  0
    4.4667   -0.0625    0.0000 C   0  0  0  0  0  0           0  0  0
    5.9375   -0.0917    0.0000 S   0  0  0  0  0  0           0  0  0
    0.1167   -0.3167    0.0000 C   0  0  0  0  0  0           0  0  0
   -0.3583   -1.0000    0.0000 C   0  0  0  0  0  0           0  0  0
    6.5042   -0.6917    0.0000 C   0  0  0  0  0  0           0  0  0
    5.3000   -1.2667    0.0000 C   0  0  0  0  0  0           0  0  0
    6.1042   -1.4167    0.0000 C   0  0  0  0  0  0           0  0  0
    3.0167    0.7333    0.0000 O   0  0  0  0  0  0           0  0  0
    3.0792   -1.7375    0.0000 O   0  0  0  0  0  0           0  0  0
    1.6000    0.6958    0.0000 O   0  0  0  0  0  0           0  0  0
    1.6792   -2.6000    0.0000 O   0  0  0  0  0  0           0  0  0
    0.8750    1.0958    0.0000 C   0  0  0  0  0  0           0  0  0
    2.4042   -2.9917    0.0000 C   0  0  0  0  0  0           0  0  0
  2  1  1  0     0  0
  3  1  2  0     0  0
  4  3  1  0     0  0
  5  2  2  0     0  0
  6  4  2  0     0  0
  7  1  1  0     0  0
  8  7  1  0     0  0
  9 11  1  0     0  0
 10  6  1  0     0  0
 11  8  2  0     0  0
 12  9  1  0     0  0
 13  4  1  0     0  0
 14 13  2  0     0  0
 15 12  1  0     0  0
 16  9  2  0     0  0
 17 16  1  0     0  0
 18  7  2  0     0  0
 19  2  1  0     0  0
 20  3  1  0     0  0
 21  5  1  0     0  0
 22 20  1  0     0  0
 23 21  1  0     0  0
  6  5  1  0     0  0
 10 14  1  0     0  0
 15 17  2  0     0  0
M  END