
  SciTegic01111613442D

 11 11  0  0  0  0            999 V2000
    2.5951   -3.0039    0.0000 C   0  0
    2.5973   -1.5031    0.0000 N   0  0
    3.6331   -3.6060    0.0000 O   0  0
    1.2990   -0.7500    0.0000 C   0  0
   -1.2990    0.7500    0.0000 C   0  0
    1.2990    0.7500    0.0000 C   0  0
    0.0000   -1.5000    0.0000 C   0  0
    0.0000    1.5000    0.0000 C   0  0
   -1.2990   -0.7500    0.0000 C   0  0
   -2.3383    1.3500    0.0000 O   0  0
    1.5548   -3.6021    0.0000 C   0  0
  2  1  1  0
  3  1  2  0
  4  2  1  0
  5  9  2  0
  6  4  1  0
  7  4  2  0
  8  6  2  0
  9  7  1  0
 10  5  1  0
 11  1  1  0
  8  5  1  0
M  END