
  SciTegic01061111512D

 45 48  0  0  0  0            999 V2000
   13.5325  -20.6284    0.0000 S   0  0
   12.8181  -21.0401    0.0000 C   0  0  1  0  0  0
   12.8181  -21.8676    0.0000 C   0  0  2  0  0  0
   13.5325  -22.2793    0.0000 O   0  0
   12.1037  -22.2793    0.0000 C   0  0  2  0  0  0
   11.3892  -21.8676    0.0000 C   0  0  1  0  0  0
   10.6707  -22.2793    0.0000 O   0  0
   11.3892  -21.0401    0.0000 C   0  0  2  0  0  0
   12.1037  -20.6284    0.0000 O   0  0
   10.6707  -20.6284    0.0000 C   0  0
   10.6707  -19.8010    0.0000 O   0  0
   12.1037  -23.1068    0.0000 N   0  0
   12.7719  -23.5905    0.0000 N   0  0
   12.5153  -24.3777    0.0000 N   0  0
   11.6920  -24.3777    0.0000 C   0  0
   11.4354  -23.5905    0.0000 C   0  0
   11.2041  -25.0460    0.0000 C   0  0
   10.3835  -24.9571    0.0000 O   0  0
   11.5410  -25.7989    0.0000 N   0  0
   11.0531  -26.4672    0.0000 C   0  0
   10.2325  -26.3825    0.0000 C   0  0
    9.7487  -27.0507    0.0000 O   0  0
    8.9238  -26.9661    0.0000 C   0  0
   13.5325  -19.8010    0.0000 C   0  0  1  0  0  0
   12.8181  -19.3893    0.0000 C   0  0  2  0  0  0
   12.1037  -19.8010    0.0000 O   0  0
   12.8181  -18.5618    0.0000 C   0  0  2  0  0  0
   13.5325  -18.1501    0.0000 C   0  0  1  0  0  0
   13.5325  -17.3226    0.0000 O   0  0
   14.2511  -18.5618    0.0000 C   0  0  2  0  0  0
   14.2511  -19.3893    0.0000 O   0  0
   14.9655  -18.1501    0.0000 C   0  0
   14.9655  -17.3226    0.0000 O   0  0
   12.1037  -18.1501    0.0000 N   0  0
   11.3508  -18.4871    0.0000 N   0  0
   10.7946  -17.8719    0.0000 N   0  0
   11.2105  -17.1533    0.0000 C   0  0
   12.0149  -17.3253    0.0000 C   0  0
   10.8736  -16.4004    0.0000 C   0  0
   11.3573  -15.7321    0.0000 O   0  0
   10.0529  -16.3157    0.0000 N   0  0
    9.7160  -15.5587    0.0000 C   0  0
   10.1997  -14.8904    0.0000 C   0  0
    9.8670  -14.1386    0.0000 O   0  0
   10.3507  -13.4720    0.0000 C   0  0
  2  3  1  0
  3  4  1  6
  3  5  1  0
  5  6  1  0
  6  7  1  1
  6  8  1  0
  8  9  1  0
  8 10  1  1
 10 11  1  0
  2  9  1  0
 12 13  1  0
 13 14  2  0
 14 15  1  0
 15 16  2  0
 12 16  1  0
 17 18  2  0
 20 21  1  0
 22 23  1  0
 21 22  1  0
 19 20  1  0
 17 19  1  0
 15 17  1  0
  5 12  1  1
  2  1  1  1
 24 25  1  0
 25 26  1  6
 25 27  1  0
 27 28  1  0
 28 29  1  1
 28 30  1  0
 30 31  1  0
 30 32  1  1
 32 33  1  0
 24 31  1  0
 34 35  1  0
 35 36  2  0
 36 37  1  0
 37 38  2  0
 34 38  1  0
 39 40  2  0
 42 43  1  0
 44 45  1  0
 43 44  1  0
 41 42  1  0
 39 41  1  0
 37 39  1  0
 27 34  1  1
 24  1  1  1
M  END