
  SciTegic01161211252D

 44 46  0  0  0  0            999 V2000
    0.8124    0.4312    0.0000 C   0  0  1  0  0  0
    0.8124   -0.3980    0.0000 C   0  0  2  0  0  0
    1.5246   -0.8083    0.0000 C   0  0  2  0  0  0
    2.2409   -0.3980    0.0000 C   0  0
    2.2409    0.4312    0.0000 C   0  0  2  0  0  0
    1.5246    0.8500    0.0000 O   0  0
    2.9531    0.0145    0.0000 O   0  0
    2.6464    1.1462    0.0000 C   0  0
    3.4755    1.1576    0.0000 O   0  0
    2.2282    1.8605    0.0000 O   0  5
    0.0947    0.8405    0.0000 C   0  0  2  0  0  0
   -0.6235    0.4248    0.0000 C   0  0  2  0  0  0
   -2.0489   -0.4083    0.0000 C   0  0
   -2.7671   -0.8240    0.0000 C   0  0
   -2.0526    0.4209    0.0000 O   0  0
   -3.4798   -0.4090    0.0000 C   0  0
   -4.1972   -0.8236    0.0000 C   0  0
   -4.1942   -1.6541    0.0000 C   0  0
   -3.4689   -2.0632    0.0000 C   0  0
   -2.7601   -1.6450    0.0000 C   0  0
    0.0933   -0.8121    0.0000 N   0  0
   -0.6235   -0.4011    0.0000 C   0  0
    0.7911    1.2558    0.0000 H   0  0
    2.9483   -0.8105    0.0000 C   0  0
    3.6604   -1.2271    0.0000 C   0  0
    3.6511   -2.0508    0.0000 C   0  0
    4.3624   -2.4674    0.0000 C   0  0
    4.3705   -0.8169    0.0000 C   0  0
   -4.9059   -2.0715    0.0000 Cl  0  0
    5.0823   -1.2297    0.0000 C   0  0
    5.0769   -2.0563    0.0000 C   0  0
    4.3711    0.0081    0.0000 F   0  0
    5.7985   -0.8202    0.0000 F   0  0
    0.0923   -1.6371    0.0000 C   0  0
   -0.6226   -2.0487    0.0000 C   0  0
    0.8063   -2.0504    0.0000 O   0  0
   -0.6236   -2.8737    0.0000 C   0  0
   -1.0334   -3.5884    0.0000 C   0  0
   -0.2084   -3.5893    0.0000 C   0  0
    2.8000   -3.6500    0.0000 Na  0  3
    0.0911    1.6697    0.0000 O   0  0
   -1.3415    0.8381    0.0000 O   0  0
   -1.3341   -0.8202    0.0000 N   0  0
    1.5246   -1.6333    0.0000 O   0  0
 14 16  2  0
 16 17  1  0
 17 18  2  0
 18 19  1  0
 19 20  2  0
 20 14  1  0
  2 21  1  1
  1 23  1  1
  7 24  1  0
 24 25  1  0
  1  2  1  0
 25 26  2  0
  1  6  1  0
 26 27  1  0
 27 31  2  0
  2  3  1  0
 30 28  2  0
 28 25  1  0
  3  4  1  0
 18 29  1  0
  4  5  1  0
  5  6  1  0
 30 31  1  0
  5  7  1  0
 28 32  1  0
  5  8  1  1
 30 33  1  0
  8  9  2  0
 21 34  1  0
  8 10  1  0
 34 35  1  0
  1 11  1  0
 34 36  2  0
 35 37  1  0
 38 37  1  0
 39 38  1  0
 37 39  1  0
 11 12  1  0
 12 22  1  0
 13 14  1  0
 13 15  2  0
 12 42  1  1
 22 43  1  0
 43 13  1  0
 11 41  1  6
  3 44  1  6
M  CHG  2  10  -1  40   1
M  END