
  Mrv0541 04051115152D          

 63 65  0  0  0  0            999 V2000
   -8.4120   -3.4390    0.0000 N   0  0  0  0  0  0  0  0  0  0  0  0
   -7.8599   -2.8260    0.0000 C   0  0  0  0  0  0  0  0  0  0  0  0
   -8.1149   -2.0413    0.0000 N   0  0  0  0  0  0  0  0  0  0  0  0
   -8.9218   -1.8698    0.0000 C   0  0  0  0  0  0  0  0  0  0  0  0
   -9.4739   -2.4829    0.0000 C   0  0  0  0  0  0  0  0  0  0  0  0
   -9.2189   -3.2675    0.0000 C   0  0  0  0  0  0  0  0  0  0  0  0
   -9.7710   -3.8806    0.0000 N   0  0  0  0  0  0  0  0  0  0  0  0
  -10.2276   -2.1473    0.0000 N   0  0  0  0  0  0  0  0  0  0  0  0
  -10.1413   -1.3269    0.0000 C   0  0  0  0  0  0  0  0  0  0  0  0
   -9.3343   -1.1553    0.0000 N   0  0  0  0  0  0  0  0  0  0  0  0
   -7.3911    1.8279    0.0000 O   0  0  0  0  0  0  0  0  0  0  0  0
   -9.0308    1.7329    0.0000 O   0  0  0  0  0  0  0  0  0  0  0  0
  -10.2318    0.3991    0.0000 O   0  0  0  0  0  0  0  0  0  0  0  0
   -8.1918   -0.2301    0.0000 O   0  0  0  0  0  0  0  0  0  0  0  0
   -7.3911    1.0029    0.0000 C   0  0  0  0  0  0  0  0  0  0  0  0
   -8.8593    0.9259    0.0000 C   0  0  1  0  0  0  0  0  0  0  0  0
   -9.4113    0.3128    0.0000 C   0  0  2  0  0  0  0  0  0  0  0  0
   -8.1056    0.5904    0.0000 C   0  0  2  0  0  0  0  0  0  0  0  0
   -8.9988   -0.4017    0.0000 C   0  0  2  0  0  0  0  0  0  0  0  0
   -2.3898    0.5904    0.0000 C   0  0  0  0  0  0  0  0  0  0  0  0
   -2.3898   -0.2346    0.0000 O   0  0  0  0  0  0  0  0  0  0  0  0
   -3.1043    1.0029    0.0000 C   0  0  0  0  0  0  0  0  0  0  0  0
   -3.8188    0.5904    0.0000 C   0  0  0  0  0  0  0  0  0  0  0  0
   -4.5332    1.0029    0.0000 C   0  0  0  0  0  0  0  0  0  0  0  0
   -5.2477    0.5904    0.0000 C   0  0  0  0  0  0  0  0  0  0  0  0
   -5.9622    1.0029    0.0000 C   0  0  0  0  0  0  0  0  0  0  0  0
   -6.6766    0.5904    0.0000 N   0  0  0  0  0  0  0  0  0  0  0  0
   -1.6753    1.0029    0.0000 N   0  0  0  0  0  0  0  0  0  0  0  0
   -0.9609    0.5904    0.0000 C   0  0  2  0  0  0  0  0  0  0  0  0
   -0.9609   -0.2346    0.0000 C   0  0  0  0  0  0  0  0  0  0  0  0
   -0.2464    1.0029    0.0000 C   0  0  0  0  0  0  0  0  0  0  0  0
   -0.2464    1.8279    0.0000 O   0  0  0  0  0  0  0  0  0  0  0  0
    4.7549    0.5904    0.0000 C   0  0  0  0  0  0  0  0  0  0  0  0
    4.7549   -0.2346    0.0000 O   0  0  0  0  0  0  0  0  0  0  0  0
    4.0404    1.0029    0.0000 C   0  0  0  0  0  0  0  0  0  0  0  0
    3.3260    0.5904    0.0000 C   0  0  0  0  0  0  0  0  0  0  0  0
    2.6115    1.0029    0.0000 C   0  0  0  0  0  0  0  0  0  0  0  0
    1.8970    0.5904    0.0000 C   0  0  0  0  0  0  0  0  0  0  0  0
    1.1825    1.0029    0.0000 C   0  0  0  0  0  0  0  0  0  0  0  0
    0.4681    0.5904    0.0000 N   0  0  0  0  0  0  0  0  0  0  0  0
    5.4694    1.0029    0.0000 N   0  0  0  0  0  0  0  0  0  0  0  0
    6.1838    0.5904    0.0000 C   0  0  2  0  0  0  0  0  0  0  0  0
    6.1838   -0.2346    0.0000 C   0  0  0  0  0  0  0  0  0  0  0  0
    5.4694   -0.6471    0.0000 C   0  0  0  0  0  0  0  0  0  0  0  0
    5.4694   -1.4721    0.0000 C   0  0  0  0  0  0  0  0  0  0  0  0
    4.7549   -1.8846    0.0000 N   0  0  0  0  0  0  0  0  0  0  0  0
    4.7549   -2.7096    0.0000 C   0  0  0  0  0  0  0  0  0  0  0  0
    5.4694   -3.1221    0.0000 N   0  0  0  0  0  0  0  0  0  0  0  0
    4.0404   -3.1221    0.0000 N   0  0  0  0  0  0  0  0  0  0  0  0
    6.8983    1.0029    0.0000 C   0  0  0  0  0  0  0  0  0  0  0  0
    6.8983    1.8279    0.0000 O   0  0  0  0  0  0  0  0  0  0  0  0
    7.6128    0.5904    0.0000 N   0  0  0  0  0  0  0  0  0  0  0  0
    8.3272    1.0029    0.0000 C   0  0  2  0  0  0  0  0  0  0  0  0
    9.0417    0.5904    0.0000 C   0  0  0  0  0  0  0  0  0  0  0  0
    9.7562    1.0029    0.0000 C   0  0  0  0  0  0  0  0  0  0  0  0
   10.4707    0.5904    0.0000 C   0  0  0  0  0  0  0  0  0  0  0  0
   11.1851    1.0029    0.0000 N   0  0  0  0  0  0  0  0  0  0  0  0
   11.8996    0.5904    0.0000 C   0  0  0  0  0  0  0  0  0  0  0  0
   12.6141    1.0029    0.0000 N   0  0  0  0  0  0  0  0  0  0  0  0
   11.8996   -0.2346    0.0000 N   0  0  0  0  0  0  0  0  0  0  0  0
    8.3272    1.8279    0.0000 C   0  0  0  0  0  0  0  0  0  0  0  0
    9.0417    2.2404    0.0000 O   0  0  0  0  0  0  0  0  0  0  0  0
    7.6128    2.2404    0.0000 N   0  0  0  0  0  0  0  0  0  0  0  0
  2  1  2  0  0  0  0
  6  1  1  0  0  0  0
  2  3  1  0  0  0  0
  4  3  2  0  0  0  0
  4  5  1  0  0  0  0
  4 10  1  0  0  0  0
  5  6  2  0  0  0  0
  5  8  1  0  0  0  0
  6  7  1  0  0  0  0
  9  8  2  0  0  0  0
  9 10  1  0  0  0  0
 19 10  1  1  0  0  0
 15 11  2  0  0  0  0
 16 12  1  6  0  0  0
 17 13  1  6  0  0  0
 18 14  1  0  0  0  0
 19 14  1  0  0  0  0
 18 15  1  1  0  0  0
 16 17  1  0  0  0  0
 16 18  1  0  0  0  0
 17 19  1  0  0  0  0
 20 21  2  0  0  0  0
 22 20  1  0  0  0  0
 23 22  1  0  0  0  0
 24 23  1  0  0  0  0
 24 25  1  0  0  0  0
 25 26  1  0  0  0  0
 26 27  1  0  0  0  0
 29 28  1  0  0  0  0
 29 30  1  1  0  0  0
 31 29  1  0  0  0  0
 31 32  2  0  0  0  0
 33 34  2  0  0  0  0
 35 33  1  0  0  0  0
 36 35  1  0  0  0  0
 37 36  1  0  0  0  0
 37 38  1  0  0  0  0
 38 39  1  0  0  0  0
 39 40  1  0  0  0  0
 42 41  1  1  0  0  0
 43 42  1  0  0  0  0
 50 42  1  0  0  0  0
 44 43  1  0  0  0  0
 44 45  1  0  0  0  0
 45 46  1  0  0  0  0
 47 46  1  0  0  0  0
 47 48  1  0  0  0  0
 47 49  2  0  0  0  0
 50 51  2  0  0  0  0
 53 52  1  1  0  0  0
 54 53  1  0  0  0  0
 61 53  1  0  0  0  0
 55 54  1  0  0  0  0
 55 56  1  0  0  0  0
 56 57  1  0  0  0  0
 58 57  1  0  0  0  0
 58 59  1  0  0  0  0
 58 60  2  0  0  0  0
 61 62  2  0  0  0  0
 15 27  1  0  0  0  0
 20 28  1  0  0  0  0
 31 40  1  0  0  0  0
 33 41  1  0  0  0  0
 50 52  1  0  0  0  0
 61 63  1  0  0  0  0
M  END