
          11280715512D 1   1.00000     0.00000     0

 21 22  0     1  0            999 V2000
    1.0902   -6.5245    0.0000 C   0  0  0  0  0  0           0  0  0
    0.6797   -5.8121    0.0000 N   0  0  3  0  0  0           0  0  0
    1.0902   -5.0999    0.0000 C   0  0  0  0  0  0           0  0  0
    1.9152   -5.0999    0.0000 C   0  0  0  0  0  0           0  0  0
    2.3298   -5.8121    0.0000 C   0  0  0  0  0  0           0  0  0
    1.9152   -6.5245    0.0000 N   0  0  3  0  0  0           0  0  0
    0.6797   -7.2409    0.0000 O   0  0  0  0  0  0           0  0  0
    0.6797   -4.3833    0.0000 O   0  0  0  0  0  0           0  0  0
   -0.1454   -5.8121    0.0000 C   0  0  0  0  0  0           0  0  0
   -0.5600   -6.5245    0.0000 C   0  0  0  0  0  0           0  0  0
   -1.8674   -7.1949    0.0000 N   0  0  0  0  0  0           0  0  0
   -2.6523   -6.9391    0.0000 N   0  0  0  0  0  0           0  0  0
   -2.6523   -6.1140    0.0000 N   0  0  0  0  0  0           0  0  0
   -1.8674   -5.8624    0.0000 N   0  0  0  0  0  0           0  0  0
   -1.3850   -6.5245    0.0000 C   0  0  0  0  0  0           0  0  0
    2.3298   -7.2409    0.0000 C   0  0  0  0  0  0           0  0  0
    3.1549   -7.2409    0.0000 C   0  0  1  0  0  0           0  0  0
    3.5654   -6.5245    0.0000 C   0  0  0  0  0  0           0  0  0
    4.3904   -6.5245    0.0000 O   0  0  0  0  0  0           0  0  0
    3.1549   -5.8121    0.0000 O   0  0  0  0  0  0           0  0  0
    3.5654   -7.9575    0.0000 N   0  0  0  0  0  0           0  0  0
  1  2  1  0     0  0
  2  3  1  0     0  0
  3  4  1  0     0  0
  4  5  2  0     0  0
  5  6  1  0     0  0
  1  6  1  0     0  0
  1  7  2  0     0  0
  3  8  2  0     0  0
  9 10  1  0     0  0
 11 12  1  0     0  0
 12 13  1  0     0  0
 13 14  2  0     0  0
 14 15  1  0     0  0
 11 15  2  0     0  0
 10 15  1  0     0  0
  2  9  1  0     0  0
 16 17  1  0     0  0
 18 19  2  0     0  0
 18 20  1  0     0  0
 17 18  1  0     0  0
 17 21  1  1     0  0
  6 16  1  0     0  0
M  END