
  SciTegic02271514372D

 23 24  0  0  0  0            999 V2000
    5.5627   -4.7075    0.0000 C   0  0
    6.2772   -5.1200    0.0000 C   0  0
    6.9917   -4.7075    0.0000 C   0  0
    7.7061   -5.1200    0.0000 C   0  0
    7.7061   -5.9450    0.0000 C   0  0
    6.9917   -6.3575    0.0000 C   0  0
    6.2772   -5.9450    0.0000 C   0  0
    5.5627   -3.8825    0.0000 O   0  0
    4.8483   -5.1200    0.0000 O   0  0
    6.9917   -3.8825    0.0000 C   0  0
    7.7061   -3.4700    0.0000 C   0  0
    7.7061   -2.6450    0.0000 C   0  0
    6.9917   -2.2325    0.0000 N   0  0
    7.6591   -0.9226    0.0000 S   0  0
    6.9917   -1.4075    0.0000 C   0  0
    6.3242   -0.9226    0.0000 N   0  0
    6.5792   -0.1380    0.0000 C   0  0
    7.4042   -0.1380    0.0000 C   0  0
    8.4206   -2.2325    0.0000 O   0  0
    5.5627   -6.3575    0.0000 O   0  0
    8.4206   -6.3575    0.0000 O   0  0
    8.4206   -4.7075    0.0000 Cl  0  0
    4.8483   -5.9450    0.0000 C   0  0
  1  2  1  0
  2  3  1  0
  3  4  2  0
  4  5  1  0
  5  6  2  0
  6  7  1  0
  2  7  2  0
  1  8  2  0
  1  9  1  0
 10 11  1  0
 11 12  1  0
 14 15  1  0
 15 16  2  0
 16 17  1  0
 17 18  2  0
 14 18  1  0
 13 15  1  0
 12 13  1  0
 12 19  2  0
  3 10  1  0
  7 20  1  0
  5 21  1  0
  4 22  1  0
  9 23  1  0
M  END