
  SciTegic12231509382D

 26 29  0  0  1  0            999 V2000
    9.4023  -15.8036    0.0000 S   0  0
    6.5406  -14.1635    0.0000 S   0  3
    6.5380  -13.3390    0.0000 O   0  5
    7.9767  -16.6327    0.0000 N   0  0
    5.1204  -16.6419    0.0000 N   0  0
    7.9741  -15.8082    0.0000 C   0  0
    8.6922  -17.0427    0.0000 C   0  0
    8.6869  -15.3936    0.0000 C   0  0
    9.4050  -16.6282    0.0000 C   0  0
    7.2587  -15.3982    0.0000 C   0  0
    7.2561  -14.5736    0.0000 C   0  0
    8.6843  -14.5690    0.0000 C   0  0
    7.2639  -17.0473    0.0000 C   0  0
    8.6948  -17.8673    0.0000 C   0  0
   10.1204  -17.0382    0.0000 C   0  0
    7.9689  -14.1590    0.0000 C   0  0
    9.4102  -18.2773    0.0000 C   0  0
   10.1230  -17.8627    0.0000 C   0  0
    6.5486  -16.6373    0.0000 C   0  0
    5.8358  -17.0519    0.0000 C   0  0  1  0  0  0
    5.8384  -17.8764    0.0000 C   0  0
    5.8279  -14.5781    0.0000 C   0  0
    4.4076  -17.0564    0.0000 C   0  0
    5.1256  -18.2910    0.0000 C   0  0
    4.4102  -17.8810    0.0000 C   0  0
    5.1177  -15.8173    0.0000 C   0  0
  1  8  1  0
  1  9  1  0
  2  3  1  0
  2 11  1  0
  2 22  1  0
  4  6  1  0
  4  7  1  0
  4 13  1  0
  5 20  1  0
  5 23  1  0
  5 26  1  0
  6  8  2  0
  6 10  1  0
  7  9  2  0
  7 14  1  0
  8 12  1  0
  9 15  1  0
 10 11  2  0
 11 16  1  0
 12 16  2  0
 13 19  1  0
 14 17  2  0
 15 18  2  0
 17 18  1  0
 20 19  1  1
 20 21  1  0
 21 24  1  0
 23 25  1  0
 24 25  1  0
M  CHG  2   2   1   3  -1
M  END