
  Mrv0541 04051115152D          

 24 26  0  0  0  0            999 V2000
    0.4523    2.4116    0.0000 C   0  0  0  0  0  0  0  0  0  0  0  0
    1.1668    2.8241    0.0000 C   0  0  0  0  0  0  0  0  0  0  0  0
    1.1668    3.6491    0.0000 Cl  0  0  0  0  0  0  0  0  0  0  0  0
    1.8812    2.4116    0.0000 C   0  0  0  0  0  0  0  0  0  0  0  0
    1.8812    1.5866    0.0000 C   0  0  0  0  0  0  0  0  0  0  0  0
    1.1668    1.1741    0.0000 C   0  0  0  0  0  0  0  0  0  0  0  0
    0.4523    1.5866    0.0000 C   0  0  0  0  0  0  0  0  0  0  0  0
   -0.2622    1.1741    0.0000 N   0  0  0  0  0  0  0  0  0  0  0  0
   -0.2622    0.3491    0.0000 C   0  0  0  0  0  0  0  0  0  0  0  0
    0.4523   -0.0634    0.0000 N   0  0  0  0  0  0  0  0  0  0  0  0
   -0.9766   -0.0634    0.0000 C   0  0  0  0  0  0  0  0  0  0  0  0
   -1.7613    0.1916    0.0000 N   0  0  0  0  0  0  0  0  0  0  0  0
   -2.2462   -0.4759    0.0000 C   0  0  0  0  0  0  0  0  0  0  0  0
   -1.7613   -1.1433    0.0000 N   0  0  0  0  0  0  0  0  0  0  0  0
   -2.0162   -1.9279    0.0000 C   0  0  0  0  0  0  0  0  0  0  0  0
   -1.4642   -2.5410    0.0000 C   0  0  0  0  0  0  0  0  0  0  0  0
   -2.8232   -2.0995    0.0000 C   0  0  0  0  0  0  0  0  0  0  0  0
   -0.9766   -0.8884    0.0000 C   0  0  0  0  0  0  0  0  0  0  0  0
   -0.2622   -1.3009    0.0000 N   0  0  0  0  0  0  0  0  0  0  0  0
    0.4523   -0.8884    0.0000 C   0  0  0  0  0  0  0  0  0  0  0  0
    1.1668   -1.3009    0.0000 N   0  0  0  0  0  0  0  0  0  0  0  0
    1.8812   -0.8884    0.0000 C   0  0  0  0  0  0  0  0  0  0  0  0
    2.5957   -1.3009    0.0000 C   0  0  0  0  0  0  0  0  0  0  0  0
    3.3102   -0.8884    0.0000 O   0  0  0  0  0  0  0  0  0  0  0  0
  1  2  2  0  0  0  0
  1  7  1  0  0  0  0
  2  3  1  0  0  0  0
  4  2  1  0  0  0  0
  5  4  2  0  0  0  0
  5  6  1  0  0  0  0
  6  7  2  0  0  0  0
  7  8  1  0  0  0  0
  9  8  2  0  0  0  0
  9 10  1  0  0  0  0
 11  9  1  0  0  0  0
 20 10  2  0  0  0  0
 11 12  1  0  0  0  0
 18 11  2  0  0  0  0
 13 12  2  0  0  0  0
 13 14  1  0  0  0  0
 15 14  1  0  0  0  0
 18 14  1  0  0  0  0
 16 15  1  0  0  0  0
 17 15  1  0  0  0  0
 18 19  1  0  0  0  0
 20 19  1  0  0  0  0
 20 21  1  0  0  0  0
 22 21  1  0  0  0  0
 23 22  1  0  0  0  0
 23 24  1  0  0  0  0
M  END