
  CDK    9/16/09,10:2

 77 82  0  0  0  0  0  0  0  0999 V2000
    6.3474   -4.5955    0.0000 C   0  0  0  0  0  0  0  0  0  0  0  0
    7.7774   -4.5902    0.0000 O   0  0  0  0  0  0  0  0  0  0  0  0
    7.0623   -4.1808    0.0000 C   0  0  0  0  0  0  0  0  0  0  0  0
    5.6309   -4.1854    0.0000 C   0  0  0  0  0  0  0  0  0  0  0  0
    5.6265   -3.3580    0.0000 C   0  0  0  0  0  0  0  0  0  0  0  0
    4.9123   -2.9492    0.0000 C   0  0  0  0  0  0  0  0  0  0  0  0
    4.9078   -2.1264    0.0000 O   0  0  0  0  0  0  0  0  0  0  0  0
    7.7689   -2.9419    0.0000 C   0  0  0  0  0  0  0  0  0  0  0  0
    7.0500   -1.7148    0.0000 O   0  0  0  0  0  0  0  0  0  0  0  0
    7.7644   -2.1227    0.0000 C   0  0  0  0  0  0  0  0  0  0  0  0
    8.4725   -0.8802    0.0000 C   0  0  0  0  0  0  0  0  0  0  0  0
    9.9052   -0.8768    0.0000 O   0  0  0  0  0  0  0  0  0  0  0  0
    9.1884   -0.4619    0.0000 C   0  0  0  0  0  0  0  0  0  0  0  0
    7.7583   -0.4721    0.0000 C   0  0  0  0  0  0  0  0  0  0  0  0
    7.7538    0.3589    0.0000 C   0  0  0  0  0  0  0  0  0  0  0  0
    7.0397    0.7669    0.0000 C   0  0  0  0  0  0  0  0  0  0  0  0
    8.4698    0.7688    0.0000 C   0  0  0  0  0  0  0  0  0  0  0  0
    9.8977    0.7744    0.0000 C   0  0  0  0  0  0  0  0  0  0  0  0
    9.1754    1.9981    0.0000 O   0  0  0  0  0  0  0  0  0  0  0  0
    9.8932    1.5911    0.0000 C   0  0  0  0  0  0  0  0  0  0  0  0
   10.6145    0.3679    0.0000 C   0  0  0  0  0  0  0  0  0  0  0  0
    5.6393   -6.6589    0.0000 C   0  0  0  0  0  0  0  0  0  0  0  0
    5.6348   -5.8342    0.0000 C   0  0  0  0  0  0  0  0  0  0  0  0
    4.9180   -5.4240    0.0000 O   0  0  0  0  0  0  0  0  0  0  0  0
    6.3571   -7.0698    0.0000 C   0  0  0  0  0  0  0  0  0  0  0  0
    7.0666   -6.6539    0.0000 C   0  0  0  0  0  0  0  0  0  0  0  0
    7.7812   -7.0716    0.0000 C   0  0  0  0  0  0  0  0  0  0  0  0
    8.4986   -6.6492    0.0000 C   0  0  0  0  0  0  0  0  0  0  0  0
    8.4937   -5.8246    0.0000 C   0  0  0  0  0  0  0  0  0  0  0  0
    7.7706   -5.4163    0.0000 C   0  0  0  0  0  0  0  0  0  0  0  0
    7.0606   -5.8351    0.0000 C   0  0  0  0  0  0  0  0  0  0  0  0
    9.2048   -5.4079    0.0000 O   0  0  0  0  0  0  0  0  0  0  0  0
    9.9219   -5.8184    0.0000 P   0  0  0  0  0  0  0  0  0  0  0  0
    9.5135   -6.5319    0.0000 O   0  0  0  0  0  0  0  0  0  0  0  0
    6.3488   -5.4207    0.0000 N   0  0  0  0  0  0  0  0  0  0  0  0
    4.1989   -3.3624    0.0000 N   0  0  0  0  0  0  0  0  0  0  0  0
    7.0549   -3.3556    0.0000 N   0  0  0  0  0  0  0  0  0  0  0  0
    8.4769   -1.7054    0.0000 N   0  0  0  0  0  0  0  0  0  0  0  0
    9.1838    0.3633    0.0000 N   0  0  0  0  0  0  0  0  0  0  0  0
   11.3334    0.7849    0.0000 O   0  0  0  0  0  0  0  0  0  0  0  0
   10.6099    2.0125    0.0000 N   0  0  0  0  0  0  0  0  0  0  0  0
    4.9252   -7.0726    0.0000 N   0  0  0  0  0  0  0  0  0  0  0  0
   10.6374   -6.2275    0.0000 O   0  0  0  0  0  0  0  0  0  0  0  0
   10.3347   -5.0969    0.0000 O   0  0  0  0  0  0  0  0  0  0  0  0
    4.2103   -6.6654    0.0000 C   0  0  0  0  0  0  0  0  0  0  0  0
    4.2092   -5.8402    0.0000 O   0  0  0  0  0  0  0  0  0  0  0  0
   -0.8097   -6.6267    0.0000 C   0  0  0  0  0  0  0  0  0  0  0  0
   -1.3362   -7.2605    0.0000 C   0  0  0  0  0  0  0  0  0  0  0  0
   -1.0499   -8.0338    0.0000 C   0  0  0  0  0  0  0  0  0  0  0  0
   -0.2401   -8.1794    0.0000 C   0  0  0  0  0  0  0  0  0  0  0  0
    0.0460   -8.9523    0.0000 C   0  0  0  0  0  0  0  0  0  0  0  0
   -1.5916   -8.6649    0.0000 O   0  0  0  0  0  0  0  0  0  0  0  0
   -1.3032   -9.4447    0.0000 C   0  0  0  0  0  0  0  0  0  0  0  0
   -0.4918   -9.5877    0.0000 C   0  0  0  0  0  0  0  0  0  0  0  0
   -0.2080  -10.3596    0.0000 C   0  0  0  0  0  0  0  0  0  0  0  0
   -0.7396  -10.9930    0.0000 C   0  0  0  0  0  0  0  0  0  0  0  0
   -1.5514  -10.8470    0.0000 C   0  0  0  0  0  0  0  0  0  0  0  0
   -1.8306  -10.0712    0.0000 C   0  0  0  0  0  0  0  0  0  0  0  0
   -1.0911   -5.8539    0.0000 O   0  0  0  0  0  0  0  0  0  0  0  0
    1.0563   -9.3185    0.0000 C   0  0  0  0  0  0  0  0  0  0  0  0
    1.7757   -8.9035    0.0000 C   0  0  0  0  0  0  0  0  0  0  0  0
    2.4817  -10.1446    0.0000 C   0  0  0  0  0  0  0  0  0  0  0  0
    1.7650  -10.5551    0.0000 C   0  0  0  0  0  0  0  0  0  0  0  0
    1.0523  -10.1435    0.0000 C   0  0  0  0  0  0  0  0  0  0  0  0
    3.1964  -10.5589    0.0000 N   0  0  0  0  0  0  0  0  0  0  0  0
    3.9112  -10.9690    0.0000 C   0  0  0  0  0  0  0  0  0  0  0  0
    4.6260  -11.3833    0.0000 S   0  0  0  0  0  0  0  0  0  0  0  0
    1.7757   -8.0765    0.0000 C   0  0  0  0  0  0  0  0  0  0  0  0
    0.2915   -7.5421    0.0000 C   0  0  0  0  0  0  0  0  0  0  0  0
    1.0594   -7.6656    0.0000 O   0  0  0  0  0  0  0  0  0  0  0  0
    0.0109   -6.7724    0.0000 C   0  0  0  0  0  0  0  0  0  0  0  0
    2.4818   -9.3151    0.0000 C   0  0  0  0  0  0  0  0  0  0  0  0
   -2.0861  -11.4789    0.0000 O   0  0  0  0  0  0  0  0  0  0  0  0
    2.4898   -7.6629    0.0000 N   0  0  0  0  0  0  0  0  0  0  0  0
    3.2838   -7.8764    0.0000 C   0  0  0  0  0  0  0  0  0  0  0  0
    3.4962   -7.0790    0.0000 C   0  0  0  0  0  0  0  0  0  0  0  0
    2.6988   -6.8666    0.0000 C   0  0  0  0  0  0  0  0  0  0  0  0
 28 29  2  0  0  0  0 
 29 30  1  0  0  0  0 
 30 31  2  0  0  0  0 
 31 26  1  0  0  0  0 
 29 32  1  0  0  0  0 
 32 33  1  0  0  0  0 
 33 34  2  0  0  0  0 
  1  3  1  0  0  0  0 
  3  2  2  0  0  0  0 
  1  4  1  1  0  0  0 
  4  5  1  0  0  0  0 
  5  6  1  0  0  0  0 
 23 35  1  0  0  0  0 
 45 42  1  0  0  0  0 
 35  1  1  0  0  0  0 
 45 46  2  0  0  0  0 
 21 40  1  0  0  0  0 
 37  8  1  0  0  0  0 
  3 37  1  0  0  0  0 
 20 41  1  0  0  0  0 
 42 22  1  0  0  0  0 
 38 11  1  0  0  0  0 
 10 38  1  0  0  0  0 
 33 43  1  0  0  0  0 
  6 36  1  0  0  0  0 
 33 44  1  0  0  0  0 
 39 18  1  0  0  0  0 
 13 39  1  0  0  0  0 
  6  7  2  0  0  0  0 
  8 10  1  0  0  0  0 
 10  9  2  0  0  0  0 
 11 13  1  0  0  0  0 
 13 12  2  0  0  0  0 
 11 14  1  1  0  0  0 
 14 15  1  0  0  0  0 
 15 16  1  0  0  0  0 
 15 17  1  0  0  0  0 
 18 20  1  0  0  0  0 
 20 19  2  0  0  0  0 
 18 21  1  6  0  0  0 
 22 23  1  0  0  0  0 
 23 24  2  0  0  0  0 
 22 25  1  6  0  0  0 
 47 71  1  0  0  0  0 
 71 69  2  0  0  0  0 
 69 50  1  0  0  0  0 
 49 48  2  0  0  0  0 
 48 47  1  0  0  0  0 
 49 50  1  0  0  0  0 
 49 52  1  0  0  0  0 
 50 51  2  0  0  0  0 
 51 54  1  0  0  0  0 
 53 52  1  0  0  0  0 
 53 54  2  0  0  0  0 
 54 55  1  0  0  0  0 
 55 56  2  0  0  0  0 
 56 57  1  0  0  0  0 
 57 58  2  0  0  0  0 
 58 53  1  0  0  0  0 
 47 59  2  0  0  0  0 
 60 61  2  0  0  0  0 
 61 72  1  0  0  0  0 
 72 62  2  0  0  0  0 
 62 63  1  0  0  0  0 
 63 64  2  0  0  0  0 
 64 60  1  0  0  0  0 
 51 60  1  0  0  0  0 
 62 65  1  0  0  0  0 
 65 66  2  0  0  0  0 
 66 67  2  0  0  0  0 
 61 68  1  0  0  0  0 
 68 70  2  0  0  0  0 
 57 73  1  0  0  0  0 
 68 74  1  0  0  0  0 
 74 75  1  0  0  0  0 
 25 26  1  0  0  0  0 
 26 27  2  0  0  0  0 
 27 28  1  0  0  0  0 
 75 76  1  0  0  0  0 
 76 77  1  0  0  0  0 
 77 74  1  0  0  0  0 
 76 45  1  0  0  0  0 
M  END