
  SciTegic04091416292D

 24 26  0  0  0  0            999 V2000
    2.2166   -9.3624    0.0000 N   0  0
    3.0415   -9.3624    0.0000 C   0  0  1  0  0  0
    3.2984   -8.5783    0.0000 C   0  0
    2.6290   -8.0916    0.0000 C   0  0  2  0  0  0
    1.9641   -8.5783    0.0000 C   0  0
    1.7868  -10.0662    0.0000 C   0  0
    0.9620  -10.0460    0.0000 C   0  0
    2.1816  -10.7906    0.0000 O   0  0
    2.6278   -7.2666    0.0000 O   0  0
    3.4505  -10.0794    0.0000 C   0  0
    3.0345  -10.7918    0.0000 O   0  0
    4.2755  -10.0834    0.0000 N   0  0
    4.6915   -9.3710    0.0000 C   0  0
    5.5165   -9.3751    0.0000 C   0  0
    5.9230  -10.0913    0.0000 C   0  0
    6.7473  -10.0957    0.0000 C   0  0
    7.1641   -9.3828    0.0000 C   0  0
    6.7507   -8.6639    0.0000 C   0  0
    5.9278   -8.6630    0.0000 C   0  0
    7.9890   -9.3857    0.0000 C   0  0
    8.4727  -10.0518    0.0000 C   0  0
    9.2583   -9.7996    0.0000 N   0  0
    9.2612   -8.9746    0.0000 C   0  0
    8.4775   -8.7170    0.0000 O   0  0
  1  2  1  0
  2  3  1  0
  3  4  1  0
  4  5  1  0
  5  1  1  0
  1  6  1  0
  6  7  1  0
  6  8  2  0
  4  9  1  6
  2 10  1  1
 10 11  2  0
 10 12  1  0
 12 13  1  0
 13 14  1  0
 14 15  2  0
 15 16  1  0
 16 17  2  0
 17 18  1  0
 18 19  2  0
 19 14  1  0
 17 20  1  0
 20 21  2  0
 21 22  1  0
 22 23  2  0
 23 24  1  0
 24 20  1  0
M  END