
          11280715572D 1   1.00000     0.00000     0

 81 87  0     1  0            999 V2000
    8.6042   -2.8042    0.0000 N   0  0  3  0  0  0           0  0  0
    8.0917   -2.5042    0.0000 C   0  0  0  0  0  0           0  0  0
    4.9792   -3.7167    0.0000 C   0  0  0  0  0  0           0  0  0
    1.8417   -2.5417    0.0000 C   0  0  0  0  0  0           0  0  0
    4.9667   -2.5167    0.0000 C   0  0  0  0  0  0           0  0  0
    3.4125   -2.8292    0.0000 C   0  0  0  0  0  0           0  0  0
    6.5292   -2.8042    0.0000 C   0  0  0  0  0  0           0  0  0
    9.1667   -3.0250    0.0000 C   0  0  3  0  0  0           0  0  0
    5.9292   -3.9167    0.0000 N   0  0  0  0  0  0           0  0  0
    1.3292   -2.8542    0.0000 C   0  0  1  0  0  0           0  0  0
    2.3667   -2.8417    0.0000 N   0  0  0  0  0  0           0  0  0
    3.9292   -2.5292    0.0000 N   0  0  0  0  0  0           0  0  0
    5.4917   -2.8167    0.0000 N   0  0  0  0  0  0           0  0  0
    7.0500   -2.5000    0.0000 N   0  0  0  0  0  0           0  0  0
    5.5292   -3.4750    0.0000 C   0  0  0  0  0  0           0  0  0
    4.4542   -2.8250    0.0000 C   0  0  2  0  0  0           0  0  0
    2.8792   -2.5375    0.0000 C   0  0  1  0  0  0           0  0  0
    6.0125   -2.5125    0.0000 C   0  0  1  0  0  0           0  0  0
    0.8042   -2.5542    0.0000 N   0  0  0  0  0  0           0  0  0
    0.2792   -2.8542    0.0000 C   0  0  0  0  0  0           0  0  0
    9.3250   -3.6042    0.0000 C   0  0  0  0  0  0           0  0  0
    7.5750   -2.8042    0.0000 C   0  0  1  0  0  0           0  0  0
    8.5792   -5.2167    0.0000 C   0  0  0  0  0  0           0  0  0
    5.0417   -4.3167    0.0000 C   0  0  0  0  0  0           0  0  0
    4.4542   -3.4250    0.0000 C   0  0  0  0  0  0           0  0  0
   -0.7583   -2.8667    0.0000 C   0  0  0  0  0  0           0  0  0
    5.6375   -4.4375    0.0000 C   0  0  0  0  0  0           0  0  0
   -0.2375   -2.5625    0.0000 C   0  0  0  0  0  0           0  0  0
   -1.2750   -2.5667    0.0000 C   0  0  0  0  0  0           0  0  0
    8.0625   -5.5125    0.0000 N   0  0  0  0  0  0           0  0  0
    8.1000   -1.9042    0.0000 O   0  0  0  0  0  0           0  0  0
    1.8417   -1.9417    0.0000 O   0  0  0  0  0  0           0  0  0
    4.9667   -1.9167    0.0000 O   0  0  0  0  0  0           0  0  0
    6.5417   -3.4042    0.0000 O   0  0  0  0  0  0           0  0  0
    3.4167   -3.4292    0.0000 O   0  0  0  0  0  0           0  0  0
    2.8792   -1.9292    0.0000 C   0  0  0  0  0  0           0  0  0
    8.8917   -4.0292    0.0000 O   0  0  0  0  0  0           0  0  0
    0.2917   -3.4625    0.0000 O   0  0  0  0  0  0           0  0  0
    6.0042   -1.9125    0.0000 C   0  0  0  0  0  0           0  0  0
    8.5917   -4.6167    0.0000 N   0  0  0  0  0  0           0  0  0
    9.9042   -3.7625    0.0000 N   0  0  0  0  0  0           0  0  0
    9.1000   -5.5250    0.0000 N   0  0  0  0  0  0           0  0  0
    8.6417   -2.2042    0.0000 C   0  0  0  0  0  0           0  0  0
   -1.7958   -2.8667    0.0000 C   0  0  0  0  0  0           0  0  0
    3.4000   -1.6292    0.0000 C   0  0  0  0  0  0           0  0  0
    4.4375   -1.0167    0.0000 C   0  0  0  0  0  0           0  0  0
    1.8542   -3.7417    0.0000 O   0  0  0  0  0  0           0  0  0
    1.3292   -3.4500    0.0000 C   0  0  0  0  0  0           0  0  0
    3.3917   -1.0292    0.0000 C   0  0  0  0  0  0           0  0  0
    3.9250   -1.9250    0.0000 C   0  0  0  0  0  0           0  0  0
    3.9167   -0.7250    0.0000 C   0  0  0  0  0  0           0  0  0
    4.4417   -1.6167    0.0000 C   0  0  0  0  0  0           0  0  0
    9.5500   -2.5625    0.0000 C   0  0  0  0  0  0           0  0  0
    4.9542   -0.7167    0.0000 O   0  0  0  0  0  0           0  0  0
   -0.7500   -3.4625    0.0000 C   0  0  0  0  0  0           0  0  0
    2.3792   -4.6417    0.0000 C   0  0  0  0  0  0           0  0  0
    9.2250   -2.0542    0.0000 C   0  0  0  0  0  0           0  0  0
    7.5667   -3.4042    0.0000 C   0  0  0  0  0  0           0  0  0
    4.6500   -4.7667    0.0000 C   0  0  0  0  0  0           0  0  0
   -1.2708   -3.7625    0.0000 C   0  0  0  0  0  0           0  0  0
    6.5167   -1.6042    0.0000 C   0  0  3  0  0  0           0  0  0
   -1.2833   -1.9667    0.0000 C   0  0  0  0  0  0           0  0  0
    1.8542   -4.3417    0.0000 C   0  0  0  0  0  0           0  0  0
    5.8292   -5.0125    0.0000 C   0  0  0  0  0  0           0  0  0
   -1.7958   -3.4667    0.0000 C   0  0  0  0  0  0           0  0  0
   10.0542   -4.3417    0.0000 C   0  0  0  0  0  0           0  0  0
    8.0750   -4.3167    0.0000 C   0  0  0  0  0  0           0  0  0
   -2.3083   -2.5667    0.0000 C   0  0  0  0  0  0           0  0  0
    2.3792   -5.2417    0.0000 C   0  0  0  0  0  0           0  0  0
    2.8917   -4.3417    0.0000 C   0  0  0  0  0  0           0  0  0
    8.0792   -3.7167    0.0000 C   0  0  0  0  0  0           0  0  0
    7.0417   -1.9000    0.0000 C   0  0  0  0  0  0           0  0  0
    6.5167   -1.0042    0.0000 C   0  0  0  0  0  0           0  0  0
   10.6292   -4.5000    0.0000 C   0  0  0  0  0  0           0  0  0
    4.8375   -5.3417    0.0000 C   0  0  0  0  0  0           0  0  0
   -1.7958   -1.6667    0.0000 C   0  0  0  0  0  0           0  0  0
    5.4292   -5.4542    0.0000 C   0  0  0  0  0  0           0  0  0
   -2.3208   -1.9750    0.0000 C   0  0  0  0  0  0           0  0  0
    3.4125   -4.6375    0.0000 C   0  0  0  0  0  0           0  0  0
    2.9000   -5.5417    0.0000 C   0  0  0  0  0  0           0  0  0
    3.4167   -5.2417    0.0000 C   0  0  0  0  0  0           0  0  0
  2  1  1  0     0  0
  3 25  1  0     0  0
  4 11  1  0     0  0
  5 13  1  0     0  0
  6 12  1  0     0  0
  7 14  1  0     0  0
  8  1  1  0     0  0
  9 15  1  0     0  0
 10  4  1  0     0  0
 11 17  1  0     0  0
 12 16  1  0     0  0
 13 18  1  0     0  0
 14 22  1  0     0  0
 15  3  2  0     0  0
 16  5  1  0     0  0
 17  6  1  0     0  0
 18  7  1  0     0  0
 19 10  1  0     0  0
 20 19  1  0     0  0
 21  8  1  0     0  0
 22  2  1  0     0  0
 23 40  2  0     0  0
 24  3  1  0     0  0
 16 25  1  1     0  0
 26 28  1  0     0  0
 27 24  2  0     0  0
 28 20  1  0     0  0
 29 26  2  0     0  0
 30 23  1  0     0  0
 31  2  2  0     0  0
 32  4  2  0     0  0
 33  5  2  0     0  0
 34  7  2  0     0  0
 35  6  2  0     0  0
 17 36  1  1     0  0
 37 21  2  0     0  0
 38 20  2  0     0  0
 18 39  1  1     0  0
 40 67  1  0     0  0
 41 21  1  0     0  0
 42 23  1  0     0  0
 43  1  1  0     0  0
 44 29  1  0     0  0
 45 36  1  0     0  0
 46 52  2  0     0  0
 47 48  1  0     0  0
 10 48  1  6     0  0
 49 45  1  0     0  0
 50 45  2  0     0  0
 51 49  2  0     0  0
 52 50  1  0     0  0
 53  8  1  0     0  0
 54 46  1  0     0  0
 55 26  1  0     0  0
 56 63  1  0     0  0
 57 43  1  0     0  0
 22 58  1  6     0  0
 59 24  1  0     0  0
 60 55  2  0     0  0
 61 39  1  0     0  0
 62 29  1  0     0  0
 63 47  1  0     0  0
 64 27  1  0     0  0
 65 60  1  0     0  0
 66 41  1  0     0  0
 67 71  1  0     0  0
 68 44  1  0     0  0
 69 56  2  0     0  0
 70 56  1  0     0  0
 71 58  1  0     0  0
 72 61  1  0     0  0
 73 61  1  0     0  0
 74 66  1  0     0  0
 75 59  2  0     0  0
 76 62  2  0     0  0
 77 75  1  0     0  0
 78 76  1  0     0  0
 79 70  2  0     0  0
 80 69  1  0     0  0
 81 79  1  0     0  0
 57 53  1  0     0  0
 27  9  1  0     0  0
 64 77  2  0     0  0
 51 46  1  0     0  0
 80 81  2  0     0  0
 44 65  2  0     0  0
 78 68  2  0     0  0
M  END