
          11280715342D 1   1.00000     0.00000     0

 29 30  0     0  0            999 V2000
    0.2417   -0.3875    0.0000 S   0  0  3  0  0  0           0  0  0
    3.5375   -0.3667    0.0000 C   0  0  0  0  0  0           0  0  0
    6.4125   -2.5042    0.0000 C   0  0  3  0  0  0           0  0  0
    7.2375   -2.5292    0.0000 C   0  0  0  0  0  0           0  0  0
    6.0167   -1.7792    0.0000 N   0  0  0  0  0  0           0  0  0
    1.0667   -0.3792    0.0000 C   0  0  0  0  0  0           0  0  0
    5.1917   -1.7875    0.0000 C   0  0  0  0  0  0           0  0  0
    3.9542   -1.0792    0.0000 N   0  0  0  0  0  0           0  0  0
    0.2417   -1.2042    0.0000 O   0  0  0  0  0  0           0  0  0
    0.2417    0.4375    0.0000 O   0  0  0  0  0  0           0  0  0
    2.7125   -0.3750    0.0000 C   0  0  0  0  0  0           0  0  0
   -0.5833   -0.3792    0.0000 N   0  0  0  0  0  0           0  0  0
    5.9792   -3.2125    0.0000 C   0  0  0  0  0  0           0  0  0
    3.9417    0.3458    0.0000 O   0  0  0  0  0  0           0  0  0
    7.6667   -1.8292    0.0000 O   0  0  0  0  0  0           0  0  0
    4.7875   -2.5042    0.0000 O   0  0  0  0  0  0           0  0  0
    1.4667    0.3333    0.0000 C   0  0  0  0  0  0           0  0  0
    1.4792   -1.0917    0.0000 C   0  0  0  0  0  0           0  0  0
    2.3042   -1.0917    0.0000 C   0  0  0  0  0  0           0  0  0
    2.2917    0.3375    0.0000 C   0  0  0  0  0  0           0  0  0
    4.7792   -1.0750    0.0000 C   0  0  0  0  0  0           0  0  0
    6.3667   -3.9375    0.0000 C   0  0  0  0  0  0           0  0  0
    7.6292   -3.2542    0.0000 O   0  0  0  0  0  0           0  0  0
    7.1500   -5.3792    0.0000 C   0  0  0  0  0  0           0  0  0
    7.5417   -6.1125    0.0000 Cl  0  0  0  0  0  0           0  0  0
    5.9375   -4.6292    0.0000 C   0  0  0  0  0  0           0  0  0
    7.1917   -3.9542    0.0000 C   0  0  0  0  0  0           0  0  0
    7.5875   -4.6792    0.0000 C   0  0  0  0  0  0           0  0  0
    6.3250   -5.3542    0.0000 C   0  0  0  0  0  0           0  0  0
  2 11  1  0     0  0
  3  5  1  0     0  0
  4  3  1  0     0  0
  5  7  1  0     0  0
  6  1  1  0     0  0
  7 21  1  0     0  0
  8  2  1  0     0  0
  9  1  2  0     0  0
 10  1  2  0     0  0
 11 19  2  0     0  0
 12  1  1  0     0  0
 13  3  1  0     0  0
 14  2  2  0     0  0
 15  4  2  0     0  0
 16  7  2  0     0  0
 17  6  1  0     0  0
 18  6  2  0     0  0
 19 18  1  0     0  0
 20 17  2  0     0  0
 21  8  1  0     0  0
 22 13  1  0     0  0
 23  4  1  0     0  0
 24 28  2  0     0  0
 25 24  1  0     0  0
 26 22  1  0     0  0
 27 22  2  0     0  0
 28 27  1  0     0  0
 29 26  2  0     0  0
 11 20  1  0     0  0
 24 29  1  0     0  0
M  END