
  SciTegic02011310422D

 35 38  0  0  0  0            999 V2000
    4.1111  -10.4833    0.0000 C   0  0
    4.1099  -11.3107    0.0000 C   0  0
    4.8247  -11.7236    0.0000 C   0  0
    4.8229  -10.0706    0.0000 C   0  0
    5.5383  -10.4797    0.0000 C   0  0
    5.5371  -11.3128    0.0000 C   0  0
    6.2540  -11.7280    0.0000 N   0  0
    6.9767  -11.3148    0.0000 C   0  0
    6.9779  -10.4818    0.0000 C   0  0
    6.2564  -10.0619    0.0000 C   0  0
    6.2528  -12.5488    0.0000 C   0  0
    5.5355  -12.9587    0.0000 C   0  0
    5.5328  -13.7829    0.0000 C   0  0
    6.2467  -14.1983    0.0000 C   0  0
    6.9647  -13.7834    0.0000 C   0  0
    6.9638  -12.9605    0.0000 C   0  0
    6.2564   -9.2369    0.0000 O   0  0
    7.6933  -10.0710    0.0000 C   0  0
    7.6856   -9.2443    0.0000 C   0  0
    8.3993   -8.8322    0.0000 C   0  0
    8.3943   -8.0080    0.0000 C   0  0
    7.6766   -7.5994    0.0000 C   0  0
    6.9625   -8.0210    0.0000 C   0  0
    6.9711   -8.8438    0.0000 C   0  0
    7.6701   -6.7744    0.0000 C   0  0
    8.3814   -6.3563    0.0000 O   0  0
    6.9524   -6.3675    0.0000 N   0  0
    7.6900  -11.7294    0.0000 C   0  0
    7.6876  -12.5543    0.0000 O   0  0
    8.4010  -12.9689    0.0000 C   0  0
    3.3951  -11.7226    0.0000 Cl  0  0
    6.9460   -5.5426    0.0000 C   0  0
    6.2283   -5.1357    0.0000 C   0  0
    6.2218   -4.3107    0.0000 O   0  0
    8.4057  -11.3189    0.0000 O   0  0
  4  1  1  0
 10 17  2  0
  5 10  1  0
  9 18  1  0
  6  7  1  0
 18 19  1  0
  7  8  1  0
 19 20  2  0
  8  9  2  0
 20 21  1  0
  9 10  1  0
 21 22  2  0
  5  6  1  0
 22 23  1  0
 23 24  2  0
 24 19  1  0
 11 12  2  0
 22 25  1  0
  2  3  1  0
 25 26  2  0
 12 13  1  0
 25 27  1  0
  3  6  2  0
  8 28  1  0
 13 14  2  0
 28 29  1  0
  1  2  2  0
 29 30  1  0
 14 15  1  0
  5  4  2  0
  2 31  1  0
 15 16  2  0
 27 32  1  0
 16 11  1  0
 32 33  1  0
  7 11  1  0
 33 34  1  0
 28 35  2  0
M  END