
  SciTegic12231509382D

 24 27  0  0  0  0            999 V2000
   -1.3208   -5.6375    0.0000 C   0  0
   -1.0333   -6.9417    0.0000 C   0  0
   -0.4958   -5.7167    0.0000 N   0  0
   -1.6458   -6.3917    0.0000 O   0  0
    1.0917   -8.1917    0.0000 N   0  0
    0.3875   -9.4292    0.0000 C   0  0
    0.3875   -8.6042    0.0000 C   0  0
   -0.3208   -6.5250    0.0000 C   0  0
    1.8125   -9.4292    0.0000 C   0  0
   -1.0333   -8.5917    0.0000 N   0  0
   -0.3208   -7.3625    0.0000 C   0  0
   -1.7458   -7.3625    0.0000 C   0  0
    1.8125   -8.6042    0.0000 C   0  0
   -1.7333   -4.9250    0.0000 O   0  0
   -0.3333   -9.8375    0.0000 C   0  0
   -0.3208   -8.1875    0.0000 C   0  0
   -1.7458   -8.1875    0.0000 C   0  0
   -1.0375   -9.4167    0.0000 C   0  0
    2.5167   -9.8417    0.0000 C   0  0
    0.5042   -6.5250    0.0000 C   0  0
    2.5167   -8.1917    0.0000 C   0  0
    1.0875   -5.9375    0.0000 C   0  0
    3.2292   -9.4292    0.0000 C   0  0
    3.2292   -8.6042    0.0000 C   0  0
  2  4  1  0
  3  1  1  0
  4  1  1  0
  5  7  1  0
  6 15  1  0
  7  6  2  0
  8  3  1  0
  9  6  1  0
 10 17  1  0
 11  2  1  0
 12  2  1  0
 13  9  2  0
 14  1  2  0
 15 18  1  0
 16 11  1  0
 17 12  1  0
 18 10  1  0
 19  9  1  0
 20  8  1  0
 21 13  1  0
 22 20  1  0
 23 19  2  0
 24 23  1  0
  2  8  1  0
 10 16  1  0
 13  5  1  0
 24 21  2  0
M  END