
          11280714462D 1   1.00000     0.00000     0

 41 44  0     1  0            999 V2000
   -3.8375   -2.8417    0.0000 N   0  0  0  0  0  0           0  0  0
   -4.5500   -2.4292    0.0000 C   0  0  0  0  0  0           0  0  0
    1.8792   -1.1917    0.0000 C   0  0  0  0  0  0           0  0  0
    1.1667   -1.6042    0.0000 C   0  0  1  0  0  0           0  0  0
    2.6167   -4.9042    0.0000 C   0  0  0  0  0  0           0  0  0
   -5.2708   -2.8417    0.0000 C   0  0  0  0  0  0           0  0  0
    2.6167   -4.0792    0.0000 C   0  0  3  0  0  0           0  0  0
    0.4542   -2.8417    0.0000 S   0  0  0  0  0  0           0  0  0
   -2.4000   -2.8500    0.0000 C   0  0  0  0  0  0           0  0  0
   -2.4083   -3.6792    0.0000 C   0  0  0  0  0  0           0  0  0
   -0.2583   -4.0917    0.0000 C   0  0  0  0  0  0           0  0  0
    1.1667   -2.4292    0.0000 C   0  0  0  0  0  0           0  0  0
   -3.1208   -2.4292    0.0000 C   0  0  0  0  0  0           0  0  0
   -4.5500   -1.6042    0.0000 C   0  0  0  0  0  0           0  0  0
    1.9000   -5.3167    0.0000 C   0  0  0  0  0  0           0  0  0
    0.4625   -3.6667    0.0000 C   0  0  2  0  0  0           0  0  0
   -0.9750   -3.6792    0.0000 C   0  0  0  0  0  0           0  0  0
    1.8792   -0.3625    0.0000 O   0  0  0  0  0  0           0  0  0
    1.1875   -4.9042    0.0000 C   0  0  0  0  0  0           0  0  0
    1.1792   -4.0792    0.0000 C   0  0  0  0  0  0           0  0  0
   -5.9833   -2.4292    0.0000 C   0  0  0  0  0  0           0  0  0
   -3.8375   -1.1917    0.0000 C   0  0  0  0  0  0           0  0  0
   -5.2708   -1.1917    0.0000 C   0  0  0  0  0  0           0  0  0
   -1.6958   -4.0917    0.0000 C   0  0  0  0  0  0           0  0  0
    2.6000   -1.6042    0.0000 O   0  0  0  0  0  0           0  0  0
    1.9042   -3.6667    0.0000 O   0  0  0  0  0  0           0  0  0
   -3.1208   -1.6042    0.0000 C   0  0  0  0  0  0           0  0  0
   -5.9833   -1.6042    0.0000 C   0  0  0  0  0  0           0  0  0
   -6.7000   -2.8500    0.0000 Cl  0  0  0  0  0  0           0  0  0
    0.4542   -1.1917    0.0000 C   0  0  0  0  0  0           0  0  0
   -0.2583   -4.9167    0.0000 C   0  0  0  0  0  0           0  0  0
   -0.9833   -5.3292    0.0000 C   0  0  0  0  0  0           0  0  0
    3.3292   -5.3167    0.0000 C   0  0  0  0  0  0           0  0  0
    3.3292   -3.6667    0.0000 C   0  0  0  0  0  0           0  0  0
    3.4167   -4.2917    0.0000 C   0  0  0  0  0  0           0  0  0
    1.9000   -6.1500    0.0000 C   0  0  0  0  0  0           0  0  0
   -1.6958   -4.9167    0.0000 C   0  0  0  0  0  0           0  0  0
   -0.2583   -1.6042    0.0000 C   0  0  0  0  0  0           0  0  0
    3.3375   -6.1500    0.0000 C   0  0  0  0  0  0           0  0  0
   -0.9750   -1.1917    0.0000 C   0  0  0  0  0  0           0  0  0
    2.6125   -6.5625    0.0000 C   0  0  0  0  0  0           0  0  0
  2  1  1  0     0  0
  3  4  1  0     0  0
  4 12  1  0     0  0
  5 15  1  0     0  0
  6  2  2  0     0  0
  7  5  1  0     0  0
 16  8  1  1     0  0
  9 13  1  0     0  0
 10  9  2  0     0  0
 11 17  2  0     0  0
 12  8  1  0     0  0
 13  1  2  0     0  0
 14  2  1  0     0  0
 15 19  1  0     0  0
 16 11  1  0     0  0
 17 24  1  0     0  0
 18  3  2  0     0  0
 19 20  1  0     0  0
 20 16  1  0     0  0
 21  6  1  0     0  0
 22 27  2  0     0  0
 23 14  2  0     0  0
 24 10  1  0     0  0
 25  3  1  0     0  0
 26  7  1  0     0  0
 27 13  1  0     0  0
 28 23  1  0     0  0
 29 21  1  0     0  0
  4 30  1  1     0  0
 31 32  2  0     0  0
 32 37  1  0     0  0
 33  5  2  0     0  0
 34  7  1  0     0  0
 35  7  1  0     0  0
 36 15  2  0     0  0
 37 24  2  0     0  0
 38 30  1  0     0  0
 39 41  2  0     0  0
 40 38  1  0     0  0
 41 36  1  0     0  0
 22 14  1  0     0  0
 28 21  2  0     0  0
 11 31  1  0     0  0
 33 39  1  0     0  0
M  END