
          11280715362D 1   1.00000     0.00000     0

 38 41  0     1  0            999 V2000
    3.7125   -5.7042    0.0000 N   0  0  3  0  0  0           0  0  0
    4.7250   -5.1292    0.0000 C   0  0  0  0  0  0           0  0  0
    4.2250   -4.8292    0.0000 C   0  0  0  0  0  0           0  0  0
    4.7250   -5.7167    0.0000 C   0  0  0  0  0  0           0  0  0
    3.7167   -5.1167    0.0000 C   0  0  0  0  0  0           0  0  0
    4.7292   -3.9542    0.0000 C   0  0  2  0  0  0           0  0  0
    4.2250   -4.2417    0.0000 C   0  0  0  0  0  0           0  0  0
    5.2375   -4.2542    0.0000 C   0  0  2  0  0  0           0  0  0
    5.7500   -3.9667    0.0000 N   0  0  3  0  0  0           0  0  0
    5.2375   -4.8417    0.0000 C   0  0  0  0  0  0           0  0  0
    6.2792   -2.5042    0.0000 C   0  0  0  0  0  0           0  0  0
    5.7625   -3.3792    0.0000 C   0  0  0  0  0  0           0  0  0
    4.7375   -3.3667    0.0000 C   0  0  0  0  0  0           0  0  0
    7.4167   -5.2917    0.0000 C   0  0  0  0  0  0           0  0  0
    8.6250   -5.3042    0.0000 C   0  0  0  0  0  0           0  0  0
    7.7250   -4.7792    0.0000 C   0  0  0  0  0  0           0  0  0
    8.3250   -4.7792    0.0000 C   0  0  0  0  0  0           0  0  0
    5.2500   -3.0792    0.0000 C   0  0  1  0  0  0           0  0  0
    5.7750   -2.1917    0.0000 O   0  0  0  0  0  0           0  0  0
    3.2750   -6.1167    0.0000 C   0  0  3  0  0  0           0  0  0
    6.2750   -3.0917    0.0000 O   0  0  0  0  0  0           0  0  0
    7.7250   -5.8167    0.0000 O   0  0  0  0  0  0           0  0  0
    9.2250   -5.3042    0.0000 O   0  0  0  0  0  0           0  0  0
    6.7917   -2.2167    0.0000 C   0  0  3  0  0  0           0  0  0
    5.2542   -2.4792    0.0000 C   0  0  0  0  0  0           0  0  0
    3.2125   -4.8292    0.0000 C   0  0  0  0  0  0           0  0  0
    3.7125   -3.9417    0.0000 C   0  0  0  0  0  0           0  0  0
    6.2625   -4.2667    0.0000 C   0  0  0  0  0  0           0  0  0
    8.3250   -5.8167    0.0000 O   0  0  0  0  0  0           0  0  0
    6.8167   -5.2917    0.0000 O   0  0  0  0  0  0           0  0  0
    3.2125   -4.2417    0.0000 C   0  0  0  0  0  0           0  0  0
    7.5250   -1.8167    0.0000 C   0  0  0  0  0  0           0  0  0
    6.9542   -1.6542    0.0000 C   0  0  0  0  0  0           0  0  0
    7.3625   -2.3792    0.0000 C   0  0  0  0  0  0           0  0  0
    2.7000   -5.9542    0.0000 C   0  0  0  0  0  0           0  0  0
    3.4250   -6.7042    0.0000 C   0  0  0  0  0  0           0  0  0
    4.0125   -3.4042    0.0000 H   0  0  0  0  0  0           0  0  0
    5.7500   -4.5417    0.0000 H   0  0  0  0  0  0           0  0  0
  2  4  2  0     0  0
  3  5  1  0     0  0
  4  1  1  0     0  0
  5  1  1  0     0  0
  6  7  1  0     0  0
  7  3  2  0     0  0
  8 10  1  0     0  0
  9  8  1  0     0  0
 10  2  1  0     0  0
 11 19  1  0     0  0
 12  9  1  0     0  0
 13  6  1  0     0  0
 15 17  1  0     0  0
 16 14  1  0     0  0
 17 16  2  0     0  0
 18 13  1  0     0  0
 19 25  1  0     0  0
 20  1  1  0     0  0
 21 11  2  0     0  0
 22 14  2  0     0  0
 23 15  2  0     0  0
 24 11  1  0     0  0
 18 25  1  1     0  0
 26  5  2  0     0  0
 27  7  1  0     0  0
 28  9  1  0     0  0
 29 15  1  0     0  0
 30 14  1  0     0  0
 31 26  1  0     0  0
 32 34  1  0     0  0
 33 24  1  0     0  0
 34 24  1  0     0  0
 35 20  1  0     0  0
 36 20  1  0     0  0
  6 37  1  6     0  0
  8 38  1  1     0  0
  3  2  1  0     0  0
 31 27  2  0     0  0
  8  6  1  0     0  0
 12 18  1  0     0  0
 32 33  1  0     0  0
M  END