
          11280715322D 1   1.00000     0.00000     0

 35 39  0     0  0            999 V2000
    7.7542   -1.3417    0.0000 S   0  0  3  0  0  0           0  0  0
    8.4750   -0.9250    0.0000 C   0  0  0  0  0  0           0  0  0
    8.4667   -0.0917    0.0000 C   0  0  0  0  0  0           0  0  0
    4.8875   -3.0042    0.0000 C   0  0  0  0  0  0           0  0  0
    4.8875   -3.8292    0.0000 N   0  0  0  0  0  0           0  0  0
    3.4542   -3.8292    0.0000 C   0  0  0  0  0  0           0  0  0
    9.2542   -1.1792    0.0000 N   0  0  0  0  0  0           0  0  0
    7.0292   -1.7667    0.0000 N   0  0  3  0  0  0           0  0  0
    4.1667   -4.2417    0.0000 C   0  0  0  0  0  0           0  0  0
    4.1667   -2.5917    0.0000 N   0  0  0  0  0  0           0  0  0
    3.4542   -3.0042    0.0000 C   0  0  0  0  0  0           0  0  0
    5.6042   -2.5917    0.0000 N   0  0  3  0  0  0           0  0  0
    9.2542    0.1583    0.0000 N   0  0  0  0  0  0           0  0  0
    9.7417   -0.5042    0.0000 O   0  0  0  0  0  0           0  0  0
    2.7417   -4.2417    0.0000 C   0  0  0  0  0  0           0  0  0
    2.7417   -2.5917    0.0000 C   0  0  0  0  0  0           0  0  0
    7.3292   -0.6250    0.0000 O   0  0  0  0  0  0           0  0  0
    8.1750   -2.0667    0.0000 O   0  0  0  0  0  0           0  0  0
    2.0292   -3.8292    0.0000 C   0  0  0  0  0  0           0  0  0
    2.0292   -3.0125    0.0000 C   0  0  0  0  0  0           0  0  0
    7.0292   -2.5917    0.0000 C   0  0  0  0  0  0           0  0  0
    6.3167   -1.3542    0.0000 C   0  0  0  0  0  0           0  0  0
    7.8292    0.4125    0.0000 C   0  0  0  0  0  0           0  0  0
    5.6042   -1.7667    0.0000 C   0  0  0  0  0  0           0  0  0
    6.3167   -3.0042    0.0000 C   0  0  0  0  0  0           0  0  0
    4.1667   -5.0667    0.0000 N   0  0  0  0  0  0           0  0  0
    1.3042   -4.2542    0.0000 O   0  0  0  0  0  0           0  0  0
    1.3042   -2.5917    0.0000 O   0  0  0  0  0  0           0  0  0
    7.9542    1.2333    0.0000 C   0  0  0  0  0  0           0  0  0
    7.0625    0.1208    0.0000 C   0  0  0  0  0  0           0  0  0
    0.5917   -3.0125    0.0000 C   0  0  0  0  0  0           0  0  0
    0.5875   -3.8417    0.0000 C   0  0  0  0  0  0           0  0  0
    6.4167    0.6333    0.0000 C   0  0  0  0  0  0           0  0  0
    7.3125    1.7458    0.0000 C   0  0  0  0  0  0           0  0  0
    6.5500    1.4500    0.0000 C   0  0  0  0  0  0           0  0  0
  2  1  1  0     0  0
  3  2  1  0     0  0
  4 12  1  0     0  0
  5  4  1  0     0  0
  6 11  2  0     0  0
  7  2  2  0     0  0
  8  1  1  0     0  0
  9  5  2  0     0  0
 10  4  2  0     0  0
 11 10  1  0     0  0
 12 24  1  0     0  0
 13  3  2  0     0  0
 14  7  1  0     0  0
 15  6  1  0     0  0
 16 11  1  0     0  0
 17  1  2  0     0  0
 18  1  2  0     0  0
 19 20  1  0     0  0
 20 16  2  0     0  0
 21  8  1  0     0  0
 22  8  1  0     0  0
 23  3  1  0     0  0
 24 22  1  0     0  0
 25 21  1  0     0  0
 26  9  1  0     0  0
 27 19  1  0     0  0
 28 20  1  0     0  0
 29 23  2  0     0  0
 30 23  1  0     0  0
 31 28  1  0     0  0
 32 27  1  0     0  0
 33 30  2  0     0  0
 34 29  1  0     0  0
 35 33  1  0     0  0
 25 12  1  0     0  0
 13 14  1  0     0  0
 35 34  2  0     0  0
  9  6  1  0     0  0
 15 19  2  0     0  0
M  END