
          11280714452D 1   1.00000     0.00000     0

 31 34  0     0  0            999 V2000
    8.7000   -3.8792    0.0000 C   0  0  0  0  0  0           0  0  0
    1.5667   -3.0625    0.0000 N   0  0  0  0  0  0           0  0  0
    7.9792   -4.2917    0.0000 C   0  0  0  0  0  0           0  0  0
    9.4042   -0.9875    0.0000 N   0  0  0  0  0  0           0  0  0
    7.2667   -3.8792    0.0000 C   0  0  0  0  0  0           0  0  0
    9.4042   -1.8125    0.0000 C   0  0  0  0  0  0           0  0  0
    0.8542   -2.6542    0.0000 C   0  0  0  0  0  0           0  0  0
    6.5542   -4.2917    0.0000 C   0  0  0  0  0  0           0  0  0
    9.4125   -4.2917    0.0000 C   0  0  0  0  0  0           0  0  0
    8.7000   -3.0542    0.0000 C   0  0  0  0  0  0           0  0  0
    2.2750   -2.6417    0.0000 C   0  0  0  0  0  0           0  0  0
    7.9792   -5.1167    0.0000 O   0  0  0  0  0  0           0  0  0
    9.4125   -2.6375    0.0000 C   0  0  0  0  0  0           0  0  0
    0.8500   -1.8250    0.0000 C   0  0  0  0  0  0           0  0  0
   10.1292   -3.8792    0.0000 C   0  0  0  0  0  0           0  0  0
    1.5667   -1.4125    0.0000 C   0  0  0  0  0  0           0  0  0
    5.8417   -3.8792    0.0000 C   0  0  0  0  0  0           0  0  0
    3.7042   -2.6417    0.0000 O   0  0  0  0  0  0           0  0  0
    4.4167   -3.0542    0.0000 C   0  0  0  0  0  0           0  0  0
    2.9917   -3.0542    0.0000 C   0  0  0  0  0  0           0  0  0
    2.2792   -1.8167    0.0000 C   0  0  0  0  0  0           0  0  0
   10.1292   -3.0500    0.0000 C   0  0  0  0  0  0           0  0  0
    9.4125   -5.1167    0.0000 O   0  0  0  0  0  0           0  0  0
    5.1292   -4.2875    0.0000 C   0  0  0  0  0  0           0  0  0
    5.8417   -3.0500    0.0000 C   0  0  0  0  0  0           0  0  0
    5.1292   -2.6375    0.0000 C   0  0  0  0  0  0           0  0  0
    4.4167   -3.8792    0.0000 C   0  0  0  0  0  0           0  0  0
    0.1417   -3.0667    0.0000 C   0  0  0  0  0  0           0  0  0
    0.1292   -1.4167    0.0000 C   0  0  0  0  0  0           0  0  0
   -0.5750   -2.6667    0.0000 C   0  0  0  0  0  0           0  0  0
   -0.5833   -1.8375    0.0000 C   0  0  0  0  0  0           0  0  0
  2 11  1  0     0  0
  3  1  1  0     0  0
  4  6  3  0     0  0
  5  3  1  0     0  0
  6 13  1  0     0  0
  7  2  2  0     0  0
  8  5  2  0     0  0
  9  1  1  0     0  0
 10  1  2  0     0  0
 11 20  1  0     0  0
 12  3  2  0     0  0
 13 10  1  0     0  0
 14 16  2  0     0  0
 15  9  2  0     0  0
 16 21  1  0     0  0
 17  8  1  0     0  0
 18 19  1  0     0  0
 19 26  2  0     0  0
 20 18  1  0     0  0
 21 11  2  0     0  0
 22 13  2  0     0  0
 23  9  1  0     0  0
 24 17  1  0     0  0
 25 17  2  0     0  0
 26 25  1  0     0  0
 27 24  2  0     0  0
 28  7  1  0     0  0
 29 14  1  0     0  0
 30 28  2  0     0  0
 31 29  2  0     0  0
 22 15  1  0     0  0
 19 27  1  0     0  0
 14  7  1  0     0  0
 31 30  1  0     0  0
M  END