
          11280715272D 1   1.00000     0.00000     0

 18 19  0     0  0            999 V2000
    4.5167   -2.0292    0.0000 C   0  0  0  0  0  0           0  0  0
    4.5167   -1.2042    0.0000 C   0  0  0  0  0  0           0  0  0
    3.8042   -2.4417    0.0000 N   0  0  0  0  0  0           0  0  0
    3.8042   -0.7917    0.0000 C   0  0  0  0  0  0           0  0  0
    3.1000   -1.2042    0.0000 N   0  0  0  0  0  0           0  0  0
    3.1000   -2.0292    0.0000 C   0  0  3  0  0  0           0  0  0
    5.2292   -2.4417    0.0000 N   0  0  3  0  0  0           0  0  0
    5.2292   -0.7917    0.0000 C   0  0  0  0  0  0           0  0  0
    5.9417   -2.0375    0.0000 C   0  0  0  0  0  0           0  0  0
    5.9417   -1.2125    0.0000 C   0  0  0  0  0  0           0  0  0
    3.8042    0.0333    0.0000 O   0  0  0  0  0  0           0  0  0
    5.2167   -3.2667    0.0000 C   0  0  0  0  0  0           0  0  0
    2.3792   -2.4417    0.0000 N   0  0  0  0  0  0           0  0  0
    4.5042   -3.6792    0.0000 C   0  0  0  0  0  0           0  0  0
    5.2375    0.0333    0.0000 C   0  0  0  0  0  0           0  0  0
    4.5042   -4.5000    0.0000 C   0  0  3  0  0  0           0  0  0
    3.7875   -4.9042    0.0000 C   0  0  0  0  0  0           0  0  0
    5.2167   -4.9125    0.0000 C   0  0  0  0  0  0           0  0  0
  2  1  1  0     0  0
  3  1  2  0     0  0
  4  2  1  0     0  0
  5  6  1  0     0  0
  6  3  1  0     0  0
  7  1  1  0     0  0
  8  2  2  0     0  0
  9  7  1  0     0  0
 10  9  2  0     0  0
 11  4  2  0     0  0
 12  7  1  0     0  0
 13  6  1  0     0  0
 14 12  1  0     0  0
 15  8  1  0     0  0
 16 14  1  0     0  0
 17 16  1  0     0  0
 18 16  1  0     0  0
  8 10  1  0     0  0
  4  5  1  0     0  0
M  END