
  Mrv0541 04051115152D          

 18 19  0  0  0  0            999 V2000
   -0.6117   -0.2629    0.0000 C   0  0  0  0  0  0  0  0  0  0  0  0
    0.1028   -0.6754    0.0000 C   0  0  0  0  0  0  0  0  0  0  0  0
    0.1028   -1.5004    0.0000 C   0  0  0  0  0  0  0  0  0  0  0  0
   -0.6117   -1.9129    0.0000 C   0  0  0  0  0  0  0  0  0  0  0  0
   -1.3262   -1.5004    0.0000 C   0  0  0  0  0  0  0  0  0  0  0  0
   -1.3262   -0.6754    0.0000 C   0  0  0  0  0  0  0  0  0  0  0  0
   -0.6117    0.5621    0.0000 O   0  0  0  0  0  0  0  0  0  0  0  0
    0.1028    0.9746    0.0000 C   0  0  0  0  0  0  0  0  0  0  0  0
    0.1028    1.7996    0.0000 C   0  0  0  0  0  0  0  0  0  0  0  0
    0.8172    2.2121    0.0000 C   0  0  0  0  0  0  0  0  0  0  0  0
    1.5317    1.7996    0.0000 C   0  0  0  0  0  0  0  0  0  0  0  0
    1.5317    0.9746    0.0000 C   0  0  0  0  0  0  0  0  0  0  0  0
    0.8172    0.5621    0.0000 C   0  0  0  0  0  0  0  0  0  0  0  0
   -0.6117   -2.7379    0.0000 C   0  0  0  0  0  0  0  0  0  0  0  0
   -1.3262   -3.1504    0.0000 Cl  0  0  0  0  0  0  0  0  0  0  0  0
    2.2462    2.2121    0.0000 Cl  0  0  0  0  0  0  0  0  0  0  0  0
   -0.6117    2.2121    0.0000 Cl  0  0  0  0  0  0  0  0  0  0  0  0
    0.8172   -0.2629    0.0000 O   0  0  0  0  0  0  0  0  0  0  0  0
  1  2  2  0  0  0  0
  1  6  1  0  0  0  0
  1  7  1  0  0  0  0
  2  3  1  0  0  0  0
  2 18  1  0  0  0  0
  3  4  2  0  0  0  0
  4  5  1  0  0  0  0
 14  4  1  0  0  0  0
  5  6  2  0  0  0  0
  8  7  1  0  0  0  0
  8  9  2  0  0  0  0
 13  8  1  0  0  0  0
 10  9  1  0  0  0  0
  9 17  1  0  0  0  0
 10 11  2  0  0  0  0
 11 12  1  0  0  0  0
 11 16  1  0  0  0  0
 12 13  2  0  0  0  0
 14 15  1  0  0  0  0
M  END