
          11280715092D 1   1.00000     0.00000     0

 36 39  0     0  0            999 V2000
   -0.3083    0.3958    0.0000 C   0  0  0  0  0  0           0  0  0
    3.7875    0.4250    0.0000 C   0  0  0  0  0  0           0  0  0
   -0.3083   -0.2042    0.0000 C   0  0  0  0  0  0           0  0  0
    3.7875   -0.1750    0.0000 C   0  0  0  0  0  0           0  0  0
   -0.8250    0.6958    0.0000 C   0  0  0  0  0  0           0  0  0
    4.3042    0.7333    0.0000 C   0  0  0  0  0  0           0  0  0
    4.8292   -0.1667    0.0000 C   0  0  0  0  0  0           0  0  0
   -1.3458   -0.2042    0.0000 C   0  0  0  0  0  0           0  0  0
    4.8250    0.4333    0.0000 C   0  0  0  0  0  0           0  0  0
   -1.3458    0.3958    0.0000 C   0  0  0  0  0  0           0  0  0
    2.7500    0.4250    0.0000 C   0  0  0  0  0  0           0  0  0
    0.7292    0.4083    0.0000 C   0  0  0  0  0  0           0  0  0
    4.3042   -0.4750    0.0000 C   0  0  0  0  0  0           0  0  0
   -0.8250   -0.5042    0.0000 C   0  0  0  0  0  0           0  0  0
    0.2125    0.7000    0.0000 C   0  0  0  0  0  0           0  0  0
    3.2667    0.7250    0.0000 C   0  0  0  0  0  0           0  0  0
    3.2667   -0.4792    0.0000 C   0  0  0  0  0  0           0  0  0
    0.2167   -0.5042    0.0000 C   0  0  0  0  0  0           0  0  0
    0.7375   -0.2000    0.0000 C   0  0  0  0  0  0           0  0  0
    2.7500   -0.1792    0.0000 C   0  0  0  0  0  0           0  0  0
   -0.8333    1.2958    0.0000 C   0  0  0  0  0  0           0  0  0
    4.3000    1.3333    0.0000 C   0  0  0  0  0  0           0  0  0
   -1.8625   -0.5042    0.0000 O   0  0  0  0  0  0           0  0  0
    5.3542   -0.4750    0.0000 O   0  0  0  0  0  0           0  0  0
   -0.8208   -1.1042    0.0000 C   0  0  3  0  0  0           0  0  0
    4.3125   -1.0750    0.0000 C   0  0  3  0  0  0           0  0  0
   -1.3500    1.5958    0.0000 O   0  0  0  0  0  0           0  0  0
    4.8167    1.6333    0.0000 O   0  0  0  0  0  0           0  0  0
   -1.8625    0.6958    0.0000 O   0  0  0  0  0  0           0  0  0
    5.3417    0.7333    0.0000 O   0  0  0  0  0  0           0  0  0
    1.2542   -0.5000    0.0000 C   0  0  0  0  0  0           0  0  0
    2.2292   -0.4792    0.0000 C   0  0  0  0  0  0           0  0  0
   -0.3000   -1.4042    0.0000 C   0  0  0  0  0  0           0  0  0
    3.7917   -1.3750    0.0000 C   0  0  0  0  0  0           0  0  0
    4.8292   -1.3750    0.0000 C   0  0  0  0  0  0           0  0  0
   -1.3458   -1.4042    0.0000 C   0  0  0  0  0  0           0  0  0
  2 16  2  0     0  0
  3  1  1  0     0  0
  4 17  2  0     0  0
  5  1  2  0     0  0
  6  2  1  0     0  0
  7 13  2  0     0  0
  8 10  2  0     0  0
  9  6  2  0     0  0
 10  5  1  0     0  0
 11 12  1  0     0  0
 12 15  2  0     0  0
 13  4  1  0     0  0
 14  3  2  0     0  0
 15  1  1  0     0  0
 16 11  1  0     0  0
 17 20  1  0     0  0
 18  3  1  0     0  0
 19 12  1  0     0  0
 20 11  2  0     0  0
 21  5  1  0     0  0
 22  6  1  0     0  0
 23  8  1  0     0  0
 24  7  1  0     0  0
 25 14  1  0     0  0
 26 13  1  0     0  0
 27 21  2  0     0  0
 28 22  2  0     0  0
 29 10  1  0     0  0
 30  9  1  0     0  0
 31 19  1  0     0  0
 32 20  1  0     0  0
 33 25  1  0     0  0
 34 26  1  0     0  0
 35 26  1  0     0  0
 36 25  1  0     0  0
 14  8  1  0     0  0
 19 18  2  0     0  0
  4  2  1  0     0  0
  7  9  1  0     0  0
M  END