
          11280715112D 1   1.00000     0.00000     0

 22 24  0     0  0            999 V2000
   -0.1083   -2.8292    0.0000 N   0  0  0  0  0  0           0  0  0
   -0.4000   -2.3167    0.0000 C   0  0  0  0  0  0           0  0  0
    0.4792   -2.7125    0.0000 C   0  0  0  0  0  0           0  0  0
    0.0000   -1.8750    0.0000 N   0  0  0  0  0  0           0  0  0
    0.5417   -2.1167    0.0000 C   0  0  0  0  0  0           0  0  0
   -2.3708   -3.1292    0.0000 N   0  0  0  0  0  0           0  0  0
    2.4667   -2.8125    0.0000 C   0  0  0  0  0  0           0  0  0
    0.9167   -3.1167    0.0000 C   0  0  0  0  0  0           0  0  0
   -2.5500   -2.5542    0.0000 C   0  0  0  0  0  0           0  0  0
    1.9542   -3.1167    0.0000 C   0  0  0  0  0  0           0  0  0
   -3.3375   -3.1167    0.0000 N   0  0  0  0  0  0           0  0  0
    1.4375   -2.8167    0.0000 C   0  0  0  0  0  0           0  0  0
   -2.8583   -3.4792    0.0000 C   0  0  0  0  0  0           0  0  0
   -3.1500   -2.5542    0.0000 C   0  0  0  0  0  0           0  0  0
    2.4667   -2.2125    0.0000 O   0  0  0  0  0  0           0  0  0
   -0.9958   -2.2542    0.0000 S   0  0  0  0  0  0           0  0  0
    2.9917   -3.1042    0.0000 N   0  0  0  0  0  0           0  0  0
   -2.0333   -2.2542    0.0000 C   0  0  0  0  0  0           0  0  0
   -1.5125   -2.5542    0.0000 C   0  0  0  0  0  0           0  0  0
    0.9167   -3.7167    0.0000 C   0  0  0  0  0  0           0  0  0
    1.9500   -3.7250    0.0000 C   0  0  0  0  0  0           0  0  0
    1.4292   -4.0167    0.0000 C   0  0  0  0  0  0           0  0  0
  2  1  2  0     0  0
  3  1  1  0     0  0
  4  2  1  0     0  0
  5  3  2  0     0  0
  6  9  1  0     0  0
  7 10  1  0     0  0
  8  3  1  0     0  0
  9 18  1  0     0  0
 10 12  1  0     0  0
 11 14  1  0     0  0
 12  8  2  0     0  0
 13  6  2  0     0  0
 14  9  2  0     0  0
 15  7  2  0     0  0
 16  2  1  0     0  0
 17  7  1  0     0  0
 18 19  1  0     0  0
 19 16  1  0     0  0
 20  8  1  0     0  0
 21 22  1  0     0  0
 22 20  2  0     0  0
  4  5  1  0     0  0
 10 21  2  0     0  0
 13 11  1  0     0  0
M  END