
  SciTegic02271514512D

 23 25  0  0  0  0            999 V2000
   11.6099   -1.3207    0.0000 C   0  0
   11.6099   -2.1379    0.0000 C   0  0
   12.3152   -2.5424    0.0000 C   0  0
   13.0205   -2.1379    0.0000 C   0  0
   13.0205   -1.3207    0.0000 C   0  0
   12.3152   -0.9080    0.0000 C   0  0
   10.9037   -2.5480    0.0000 C   0  0
   10.1951   -2.1387    0.0000 C   0  0
    9.4885   -2.5477    0.0000 C   0  0
    9.4893   -3.3657    0.0000 C   0  0
   10.2025   -3.7731    0.0000 C   0  0
   10.9062   -3.3618    0.0000 C   0  0
   12.3152   -0.0908    0.0000 O   0  0
   13.7294   -0.9142    0.0000 S   0  0
   14.4359   -1.3249    0.0000 C   0  0
   13.7276   -2.5475    0.0000 O   0  0
   14.4319   -2.1431    0.0000 C   0  0
   15.1376   -2.5537    0.0000 C   0  0
   15.8474   -2.1471    0.0000 C   0  0
   15.8472   -1.3257    0.0000 C   0  0
   15.1410   -0.9188    0.0000 C   0  0
   15.1410   -0.1016    0.0000 Cl  0  0
    8.7851   -2.1398    0.0000 Cl  0  0
  1  2  1  0
  1  6  1  0
  2  3  1  0
  3  4  1  0
  4  5  1  0
  5  6  2  0
  7  8  2  0
  8  9  1  0
  9 10  2  0
 10 11  1  0
 11 12  2  0
 12  7  1  0
  2  7  1  0
  6 13  1  0
  5 14  1  0
 14 15  1  0
  4 16  2  0
 15 17  2  0
 17 18  1  0
 18 19  2  0
 19 20  1  0
 20 21  2  0
 21 15  1  0
 21 22  1  0
  9 23  1  0
M  END