
  CDK    9/16/09,9:58

 20 23  0  0  0  0  0  0  0  0999 V2000
   10.5766  -16.1056    0.0000 C   0  0  0  0  0  0  0  0  0  0  0  0
   10.5754  -16.9333    0.0000 C   0  0  0  0  0  0  0  0  0  0  0  0
   11.2883  -17.3462    0.0000 C   0  0  0  0  0  0  0  0  0  0  0  0
   11.2864  -15.6929    0.0000 C   0  0  0  0  0  0  0  0  0  0  0  0
   12.0045  -16.1017    0.0000 C   0  0  0  0  0  0  0  0  0  0  0  0
   12.0051  -16.9287    0.0000 C   0  0  0  0  0  0  0  0  0  0  0  0
   12.7918  -17.1837    0.0000 N   0  0  0  0  0  0  0  0  0  0  0  0
   13.2776  -16.5143    0.0000 C   0  0  0  0  0  0  0  0  0  0  0  0
   12.7909  -15.8457    0.0000 N   0  0  0  0  0  0  0  0  0  0  0  0
   14.1026  -16.5137    0.0000 N   0  0  0  0  0  0  0  0  0  0  0  0
   14.5155  -17.2280    0.0000 C   0  0  0  0  0  0  0  0  0  0  0  0
   14.1031  -17.9391    0.0000 C   0  0  0  0  0  0  0  0  0  0  0  0
   14.5125  -18.6511    0.0000 C   0  0  0  0  0  0  0  0  0  0  0  0
   15.3380  -18.6548    0.0000 C   0  0  0  0  0  0  0  0  0  0  0  0
   15.3409  -17.2219    0.0000 C   0  0  0  0  0  0  0  0  0  0  0  0
   15.7490  -17.9387    0.0000 C   0  0  0  0  0  0  0  0  0  0  0  0
   16.5718  -17.9426    0.0000 C   0  0  0  0  0  0  0  0  0  0  0  0
   16.9876  -17.2307    0.0000 C   0  0  0  0  0  0  0  0  0  0  0  0
   16.5746  -16.5132    0.0000 C   0  0  0  0  0  0  0  0  0  0  0  0
   15.7531  -16.5128    0.0000 C   0  0  0  0  0  0  0  0  0  0  0  0
  4  1  1  0  0  0  0 
  8 10  1  0  0  0  0 
  5  6  1  0  0  0  0 
 10 11  1  0  0  0  0 
 11 12  1  0  0  0  0 
  2  3  1  0  0  0  0 
  3  6  2  0  0  0  0 
 11 15  1  0  0  0  0 
 12 13  1  0  0  0  0 
 13 14  1  0  0  0  0 
 14 16  1  0  0  0  0 
  1  2  2  0  0  0  0 
  5  4  2  0  0  0  0 
 15 16  2  0  0  0  0 
  6  7  1  0  0  0  0 
 16 17  1  0  0  0  0 
  7  8  1  0  0  0  0 
 17 18  2  0  0  0  0 
  8  9  2  0  0  0  0 
 18 19  1  0  0  0  0 
  9  5  1  0  0  0  0 
 19 20  2  0  0  0  0 
 20 15  1  0  0  0  0 
M  END