
          08180812482D 1   1.00000     0.00000     0

 20 21  0     0  0            999 V2000
    9.0783  -22.6904    0.0000 N   0  0  0  0  0  0           0  0  0
    9.0793  -23.5178    0.0000 C   0  0  0  0  0  0           0  0  0
    9.7953  -23.9288    0.0000 C   0  0  0  0  0  0           0  0  0
    9.7890  -22.2758    0.0000 C   0  0  0  0  0  0           0  0  0
   10.5055  -22.6829    0.0000 C   0  0  0  0  0  0           0  0  0
   10.5080  -23.5139    0.0000 C   0  0  0  0  0  0           0  0  0
   11.2609  -22.3515    0.0000 C   0  0  0  0  0  0           0  0  0
   11.9257  -22.8400    0.0000 N   0  3  0  0  0  0           0  0  0
   11.9184  -23.6643    0.0000 C   0  0  0  0  0  0           0  0  0
   12.7016  -23.9235    0.0000 C   0  0  0  0  0  0           0  0  0
   13.1901  -23.2586    0.0000 S   0  0  0  0  0  0           0  0  0
   12.7087  -22.5887    0.0000 C   0  0  0  0  0  0           0  0  0
    8.3656  -23.9316    0.0000 C   0  0  0  0  0  0           0  0  0
    9.7843  -21.4508    0.0000 N   0  0  0  0  0  0           0  0  0
   12.9523  -24.7095    0.0000 C   0  0  0  0  0  0           0  0  0
   13.7584  -24.8853    0.0000 C   0  0  0  0  0  0           0  0  0
   14.0091  -25.6713    0.0000 O   0  0  0  0  0  0           0  0  0
   11.2475  -24.1445    0.0000 C   0  0  0  0  0  0           0  0  0
   12.9671  -21.8052    0.0000 C   0  0  0  0  0  0           0  0  0
   13.7748  -21.6372    0.0000 C   0  0  0  0  0  0           0  0  0
 11 12  1  0     0  0
 12  8  2  0     0  0
  2  3  1  0     0  0
  3  6  2  0     0  0
  5  7  1  0     0  0
  1  2  2  0     0  0
  7  8  1  0     0  0
  2 13  1  0     0  0
  8  9  1  0     0  0
  4 14  1  0     0  0
 10 15  1  0     0  0
  5  4  2  0     0  0
 15 16  1  0     0  0
  4  1  1  0     0  0
 16 17  1  0     0  0
  5  6  1  0     0  0
  9 18  1  0     0  0
  9 10  2  0     0  0
 12 19  1  0     0  0
 10 11  1  0     0  0
 19 20  1  0     0  0
M  CHG  1   8   1
M  END