
          11280715122D 1   1.00000     0.00000     0

 30 32  0     0  0            999 V2000
    8.7292   -6.0417    0.0000 C   0  0  0  0  0  0           0  0  0
    8.7292   -6.8750    0.0000 C   0  0  0  0  0  0           0  0  0
    8.0167   -5.6292    0.0000 C   0  0  0  0  0  0           0  0  0
    8.0167   -7.2875    0.0000 N   0  0  3  0  0  0           0  0  0
    9.4500   -7.2875    0.0000 N   0  0  0  0  0  0           0  0  0
    8.0167   -4.8042    0.0000 N   0  0  3  0  0  0           0  0  0
    7.3042   -6.0500    0.0000 O   0  0  0  0  0  0           0  0  0
    7.3042   -6.8667    0.0000 C   0  0  0  0  0  0           0  0  0
    8.0167   -8.1125    0.0000 C   0  0  0  0  0  0           0  0  0
    2.9042   -6.9417    0.0000 C   0  0  0  0  0  0           0  0  0
    2.9042   -7.7667    0.0000 C   0  0  0  0  0  0           0  0  0
    6.5917   -7.2875    0.0000 C   0  0  0  0  0  0           0  0  0
    7.3042   -8.5167    0.0000 C   0  0  0  0  0  0           0  0  0
    6.5917   -8.1125    0.0000 C   0  0  3  0  0  0           0  0  0
    9.4417   -5.6292    0.0000 C   0  0  0  0  0  0           0  0  0
    5.8000   -8.3292    0.0000 N   0  0  0  0  0  0           0  0  0
    3.6167   -6.5250    0.0000 O   0  0  0  0  0  0           0  0  0
    3.6250   -8.1792    0.0000 O   0  0  0  0  0  0           0  0  0
   10.1667   -6.8750    0.0000 C   0  0  0  0  0  0           0  0  0
    8.7292   -4.3917    0.0000 C   0  0  0  0  0  0           0  0  0
    7.3042   -4.4000    0.0000 C   0  0  0  0  0  0           0  0  0
    2.1917   -8.1792    0.0000 C   0  0  0  0  0  0           0  0  0
    2.1917   -6.5292    0.0000 C   0  0  0  0  0  0           0  0  0
    5.0042   -8.5417    0.0000 C   0  0  0  0  0  0           0  0  0
    4.4167   -7.9667    0.0000 C   0  0  0  0  0  0           0  0  0
    4.3375   -6.9292    0.0000 C   0  0  0  0  0  0           0  0  0
   10.1625   -6.0417    0.0000 C   0  0  0  0  0  0           0  0  0
    5.0500   -6.5167    0.0000 C   0  0  0  0  0  0           0  0  0
    1.4792   -6.9417    0.0000 C   0  0  0  0  0  0           0  0  0
    1.4792   -7.7667    0.0000 C   0  0  0  0  0  0           0  0  0
  2  1  2  0     0  0
  3  1  1  0     0  0
  4  2  1  0     0  0
  5  2  1  0     0  0
  6  3  1  0     0  0
  7  3  2  0     0  0
  8  4  1  0     0  0
  9  4  1  0     0  0
 10 11  1  0     0  0
 11 18  1  0     0  0
 12  8  1  0     0  0
 13  9  1  0     0  0
 14 13  1  0     0  0
 15  1  1  0     0  0
 16 14  1  0     0  0
 17 10  1  0     0  0
 18 25  1  0     0  0
 19 27  1  0     0  0
 20  6  1  0     0  0
 21  6  1  0     0  0
 22 11  2  0     0  0
 23 10  2  0     0  0
 24 16  1  0     0  0
 25 24  1  0     0  0
 26 17  1  0     0  0
 27 15  2  0     0  0
 28 26  1  0     0  0
 29 30  2  0     0  0
 30 22  1  0     0  0
 19  5  2  0     0  0
 14 12  1  0     0  0
 29 23  1  0     0  0
M  END