
  CDK    9/16/09,9:51

 27 30  0  0  0  0  0  0  0  0999 V2000
   -0.5430   -3.3982    0.0000 N   0  0  0  0  0  0  0  0  0  0  0  0
    0.1717   -3.8173    0.0000 C   0  0  0  0  0  0  0  0  0  0  0  0
    0.8846   -3.4093    0.0000 C   0  0  0  0  0  0  0  0  0  0  0  0
    0.8900   -2.5841    0.0000 C   0  0  0  0  0  0  0  0  0  0  0  0
    0.1762   -2.1684    0.0000 C   0  0  0  0  0  0  0  0  0  0  0  0
   -0.5428   -2.5780    0.0000 C   0  0  0  0  0  0  0  0  0  0  0  0
    1.6064   -2.1752    0.0000 C   0  0  0  0  0  0  0  0  0  0  0  0
    2.3188   -2.5914    0.0000 C   0  0  0  0  0  0  0  0  0  0  0  0
    1.6107   -1.3503    0.0000 O   0  0  0  0  0  0  0  0  0  0  0  0
    2.3118   -3.4157    0.0000 C   0  0  0  0  0  0  0  0  0  0  0  0
    3.0233   -3.8318    0.0000 C   0  0  0  0  0  0  0  0  0  0  0  0
    3.7409   -3.4230    0.0000 C   0  0  0  0  0  0  0  0  0  0  0  0
    3.7425   -2.5937    0.0000 C   0  0  0  0  0  0  0  0  0  0  0  0
    3.0304   -2.1815    0.0000 C   0  0  0  0  0  0  0  0  0  0  0  0
    4.4537   -3.8382    0.0000 F   0  0  0  0  0  0  0  0  0  0  0  0
   -3.4057   -5.0505    0.0000 C   0  0  0  0  0  0  0  0  0  0  0  0
   -2.6867   -4.6381    0.0000 C   0  0  0  0  0  0  0  0  0  0  0  0
   -2.6867   -3.8085    0.0000 C   0  0  0  0  0  0  0  0  0  0  0  0
   -3.4057   -3.3914    0.0000 C   0  0  0  0  0  0  0  0  0  0  0  0
   -3.4069   -2.5665    0.0000 O   0  0  0  0  0  0  0  0  0  0  0  0
   -4.1201   -4.6381    0.0000 C   0  0  0  0  0  0  0  0  0  0  0  0
   -4.1201   -3.8039    0.0000 C   0  0  0  0  0  0  0  0  0  0  0  0
   -4.9134   -3.5461    0.0000 C   0  0  0  0  0  0  0  0  0  0  0  0
   -5.4038   -4.2209    0.0000 C   0  0  0  0  0  0  0  0  0  0  0  0
   -4.9135   -4.8957    0.0000 O   0  0  0  0  0  0  0  0  0  0  0  0
   -1.9718   -3.3968    0.0000 C   0  0  0  0  0  0  0  0  0  0  0  0
   -1.2579   -3.8099    0.0000 C   0  0  0  0  0  0  0  0  0  0  0  0
  1  2  1  0  0  0  0 
 13 14  2  0  0  0  0 
 14  8  1  0  0  0  0 
  4  7  1  0  0  0  0 
 12 15  1  0  0  0  0 
  7  8  1  0  0  0  0 
  1  6  1  0  0  0  0 
  7  9  2  0  0  0  0 
 22 19  1  0  0  0  0 
 21 16  1  0  0  0  0 
 16 17  1  0  0  0  0 
 17 18  1  0  0  0  0 
 18 19  1  0  0  0  0 
  2  3  1  0  0  0  0 
 19 20  2  0  0  0  0 
 21 22  2  0  0  0  0 
  8 10  2  0  0  0  0 
  3  4  1  0  0  0  0 
 10 11  1  0  0  0  0 
  4  5  1  0  0  0  0 
 11 12  2  0  0  0  0 
 22 23  1  0  0  0  0 
 23 24  2  0  0  0  0 
 24 25  1  0  0  0  0 
 25 21  1  0  0  0  0 
  5  6  1  0  0  0  0 
 18 26  1  0  0  0  0 
 12 13  1  0  0  0  0 
 26 27  1  0  0  0  0 
 27  1  1  0  0  0  0 
M  END