
  SciTegic11111309142D

 50 54  0  0  1  0            999 V2000
   -1.9764    2.6714    0.0000 C   0  0
   -1.0674   -4.3397    0.0000 C   0  0
   -0.2810   -4.5909    0.0000 C   0  0
    0.2006   -3.9227    0.0000 C   0  0
   -0.2847   -3.2609    0.0000 C   0  0
   -1.0674   -3.5152    0.0000 C   0  0
   -3.0981   -0.0822    0.0000 O   0  0
   -3.5830   -0.7496    0.0000 C   0  0
   -3.2805   -1.5172    0.0000 C   0  0
   -3.7819   -2.1288    0.0000 C   0  0
   -3.5013   -2.8627    0.0000 C   0  0
   -2.7248   -2.9664    0.0000 C   0  0
   -2.2631   -2.3324    0.0000 C   0  0
   -2.5855   -1.6101    0.0000 C   0  0
   -4.5963   -1.9968    0.0000 Cl  0  0
   -2.0915   -0.9494    0.0000 Cl  0  0
   -1.4426   -2.4185    0.0000 S   0  0
   -1.3564   -1.5981    0.0000 O   0  0
   -1.5289   -3.2391    0.0000 O   0  0
    0.4298   -2.8484    0.0000 C   0  0
    1.1436   -3.2605    0.0000 N   0  0
    0.4298   -2.0225    0.0000 O   0  0
    1.1436   -4.0871    0.0000 C   0  0
    1.8534   -4.4969    0.0000 C   0  0
    2.5637   -4.0868    0.0000 N   0  0
    2.5637   -3.2650    0.0000 C   0  0
    1.8536   -2.8505    0.0000 C   0  0
    3.2747   -4.4973    0.0000 C   0  0
    3.2747   -5.3179    0.0000 O   0  0
    3.9930   -4.0826    0.0000 C   0  0  2  0  0  0
   -3.4346    0.6739    0.0000 C   0  0
   -4.1057    2.1813    0.0000 C   0  0
   -4.5925    1.5068    0.0000 C   0  0
   -4.2539    0.7540    0.0000 C   0  0
   -3.2819    2.0943    0.0000 C   0  0
   -2.9499    1.3377    0.0000 C   0  0
   -2.1304    1.2481    0.0000 N   0  0
   -1.6420    1.9143    0.0000 C   0  0
   -2.7975    2.7581    0.0000 C   0  0
   -0.8192    1.8258    0.0000 C   0  0
   -3.1333    3.5144    0.0000 C   0  0
    4.7096   -4.4964    0.0000 C   0  0
    5.4263   -4.0826    0.0000 C   0  0
    6.1430   -4.4964    0.0000 C   0  0
    6.8596   -4.0826    0.0000 N   0  3
    7.5763   -4.4964    0.0000 C   0  0
    6.8596   -3.2551    0.0000 C   0  0
    6.8516   -4.9098    0.0000 C   0  0
    3.9886   -3.2548    0.0000 N   0  0
   -0.6225   -2.5082    0.0000 N   0  0
  5 20  1  0
 20 21  1  0
 20 22  2  0
 21 23  1  0
 21 27  1  0
 23 24  1  0
 24 25  1  0
 25 26  1  0
 26 27  1  0
 25 28  1  0
 28 29  2  0
 28 30  1  0
  7 31  1  0
 31 36  2  0
  2  3  1  0
 35 32  2  0
  3  4  1  0
 32 33  1  0
  4  5  1  0
 33 34  2  0
 34 31  1  0
  5  6  1  0
  6  2  1  0
 35 36  1  0
  7  8  1  0
 36 37  1  0
  8  9  1  0
 37 38  2  0
 38  1  1  0
  9 10  2  0
  1 39  2  0
 39 35  1  0
 10 11  1  0
 38 40  1  0
 11 12  2  0
 39 41  1  0
 12 13  1  0
 30 42  1  0
 13 14  2  0
 42 43  1  0
 14  9  1  0
 43 44  1  0
 10 15  1  0
 44 45  1  0
 14 16  1  0
 45 46  1  0
 13 17  1  0
 45 47  1  0
 17 18  2  0
 45 48  1  0
 17 19  2  0
 30 49  1  1
 50  5  1  0
 17 50  1  0
M  CHG  1  45   1
M  END