
          11280715482D 1   1.00000     0.00000     0

 35 40  0     0  0            999 V2000
    4.1542   -0.7417    0.0000 C   0  0  0  0  0  0           0  0  0
    3.4875   -0.2542    0.0000 N   0  0  0  0  0  0           0  0  0
    2.8250   -0.7417    0.0000 C   0  0  0  0  0  0           0  0  0
    3.9000   -1.5292    0.0000 C   0  0  0  0  0  0           0  0  0
    3.0750   -1.5292    0.0000 N   0  0  0  0  0  0           0  0  0
    4.9417   -0.4875    0.0000 C   0  0  0  0  0  0           0  0  0
    4.5292   -3.6167    0.0000 C   0  0  3  0  0  0           0  0  0
    5.5542   -1.0417    0.0000 N   0  0  0  0  0  0           0  0  0
    8.3417   -1.6417    0.0000 C   0  0  0  0  0  0           0  0  0
    7.7292   -1.0917    0.0000 C   0  0  0  0  0  0           0  0  0
    5.1167   -5.1167    0.0000 C   0  0  3  0  0  0           0  0  0
    5.8375   -3.9750    0.0000 C   0  0  3  0  0  0           0  0  0
    4.6917   -4.8750    0.0000 C   0  0  3  0  0  0           0  0  0
    2.0417   -0.4875    0.0000 C   0  0  0  0  0  0           0  0  0
    5.1167    0.3208    0.0000 O   0  0  0  0  0  0           0  0  0
    4.3875   -2.1917    0.0000 C   0  0  0  0  0  0           0  0  0
    6.3417   -0.7875    0.0000 C   0  0  0  0  0  0           0  0  0
    6.9500   -1.3417    0.0000 C   0  0  0  0  0  0           0  0  0
    5.3000   -3.3542    0.0000 C   0  0  0  0  0  0           0  0  0
    4.5500   -4.4792    0.0000 C   0  0  0  0  0  0           0  0  0
    4.1625   -4.2875    0.0000 C   0  0  0  0  0  0           0  0  0
    8.1667   -2.4500    0.0000 O   0  0  0  0  0  0           0  0  0
    4.0500   -2.9500    0.0000 C   0  0  0  0  0  0           0  0  0
    4.6625   -5.8125    0.0000 C   0  0  0  0  0  0           0  0  0
    5.4000   -4.6042    0.0000 C   0  0  0  0  0  0           0  0  0
    5.8792   -4.8417    0.0000 C   0  0  0  0  0  0           0  0  0
    9.1292   -1.3917    0.0000 O   0  0  0  0  0  0           0  0  0
    7.9042   -0.2792    0.0000 C   0  0  0  0  0  0           0  0  0
    7.2917    0.2708    0.0000 C   0  0  0  0  0  0           0  0  0
    6.5042    0.0208    0.0000 C   0  0  0  0  0  0           0  0  0
    1.8667    0.3208    0.0000 C   0  0  0  0  0  0           0  0  0
    1.4292   -1.0417    0.0000 C   0  0  0  0  0  0           0  0  0
    0.6500   -0.7917    0.0000 C   0  0  0  0  0  0           0  0  0
    1.0875    0.5708    0.0000 C   0  0  0  0  0  0           0  0  0
    0.4750    0.0208    0.0000 C   0  0  0  0  0  0           0  0  0
  2  1  1  0     0  0
  3  2  1  0     0  0
  4  1  2  0     0  0
  5  4  1  0     0  0
  6  1  1  0     0  0
  7 23  1  0     0  0
  8  6  1  0     0  0
  9 10  1  0     0  0
 10 18  2  0     0  0
 11 20  1  0     0  0
 12 19  1  0     0  0
 13 21  1  0     0  0
 14  3  1  0     0  0
 15  6  2  0     0  0
 16  4  1  0     0  0
 17  8  1  0     0  0
 18 17  1  0     0  0
 19  7  1  0     0  0
 20  7  1  0     0  0
 21  7  1  0     0  0
 22  9  2  0     0  0
 23 16  1  0     0  0
 24 13  1  0     0  0
 25 13  1  0     0  0
 26 11  1  0     0  0
 27  9  1  0     0  0
 28 29  2  0     0  0
 29 30  1  0     0  0
 30 17  2  0     0  0
 31 14  2  0     0  0
 32 14  1  0     0  0
 33 32  2  0     0  0
 34 31  1  0     0  0
 35 33  1  0     0  0
  3  5  2  0     0  0
 10 28  1  0     0  0
 34 35  2  0     0  0
 25 12  1  0     0  0
 11 24  1  0     0  0
 26 12  1  0     0  0
M  END