
  Mrv0541 04051115152D          

 30 33  0  0  0  0            999 V2000
   -4.9723    0.8259    0.0000 O   0  0  0  0  0  0  0  0  0  0  0  0
   -4.2578    1.2384    0.0000 C   0  0  0  0  0  0  0  0  0  0  0  0
   -3.5434    0.8259    0.0000 C   0  0  1  0  0  0  0  0  0  0  0  0
   -2.8289    1.2384    0.0000 O   0  0  0  0  0  0  0  0  0  0  0  0
   -3.5434    0.0009    0.0000 C   0  0  1  0  0  0  0  0  0  0  0  0
   -4.2578   -0.4116    0.0000 O   0  0  0  0  0  0  0  0  0  0  0  0
   -2.8289   -0.4116    0.0000 C   0  0  2  0  0  0  0  0  0  0  0  0
   -2.8289   -1.2366    0.0000 O   0  0  0  0  0  0  0  0  0  0  0  0
   -2.1144    0.0009    0.0000 C   0  0  1  0  0  0  0  0  0  0  0  0
   -1.4000   -0.4116    0.0000 O   0  0  0  0  0  0  0  0  0  0  0  0
   -2.1144    0.8259    0.0000 C   0  0  2  0  0  0  0  0  0  0  0  0
   -1.4000    1.2384    0.0000 O   0  0  0  0  0  0  0  0  0  0  0  0
   -0.6855    0.8259    0.0000 C   0  0  0  0  0  0  0  0  0  0  0  0
   -0.6855    0.0009    0.0000 C   0  0  0  0  0  0  0  0  0  0  0  0
    0.0290   -0.4116    0.0000 C   0  0  0  0  0  0  0  0  0  0  0  0
    0.7435    0.0009    0.0000 C   0  0  0  0  0  0  0  0  0  0  0  0
    0.7435    0.8259    0.0000 C   0  0  0  0  0  0  0  0  0  0  0  0
    0.0290    1.2384    0.0000 C   0  0  0  0  0  0  0  0  0  0  0  0
    1.4579    1.2384    0.0000 O   0  0  0  0  0  0  0  0  0  0  0  0
    2.1724    0.8259    0.0000 C   0  0  0  0  0  0  0  0  0  0  0  0
    2.1724    0.0009    0.0000 C   0  0  0  0  0  0  0  0  0  0  0  0
    1.4579   -0.4116    0.0000 C   0  0  0  0  0  0  0  0  0  0  0  0
    1.4579   -1.2366    0.0000 O   0  0  0  0  0  0  0  0  0  0  0  0
    2.8869   -0.4116    0.0000 C   0  0  0  0  0  0  0  0  0  0  0  0
    3.6013    0.0009    0.0000 C   0  0  0  0  0  0  0  0  0  0  0  0
    4.3158   -0.4116    0.0000 C   0  0  0  0  0  0  0  0  0  0  0  0
    4.3158   -1.2366    0.0000 C   0  0  0  0  0  0  0  0  0  0  0  0
    5.0303   -1.6491    0.0000 O   0  0  0  0  0  0  0  0  0  0  0  0
    3.6013   -1.6491    0.0000 C   0  0  0  0  0  0  0  0  0  0  0  0
    2.8869   -1.2366    0.0000 C   0  0  0  0  0  0  0  0  0  0  0  0
  2  1  1  0  0  0  0
  3  2  1  1  0  0  0
  3  4  1  0  0  0  0
  5  3  1  0  0  0  0
 11  4  1  0  0  0  0
  5  6  1  6  0  0  0
  7  5  1  0  0  0  0
  7  8  1  1  0  0  0
  9  7  1  0  0  0  0
  9 10  1  6  0  0  0
 11  9  1  0  0  0  0
 11 12  1  1  0  0  0
 13 12  1  0  0  0  0
 13 14  2  0  0  0  0
 13 18  1  0  0  0  0
 14 15  1  0  0  0  0
 15 16  2  0  0  0  0
 16 17  1  0  0  0  0
 16 22  1  0  0  0  0
 17 18  2  0  0  0  0
 17 19  1  0  0  0  0
 20 19  1  0  0  0  0
 20 21  2  0  0  0  0
 21 22  1  0  0  0  0
 21 24  1  0  0  0  0
 22 23  2  0  0  0  0
 24 25  2  0  0  0  0
 24 30  1  0  0  0  0
 25 26  1  0  0  0  0
 26 27  2  0  0  0  0
 27 28  1  0  0  0  0
 27 29  1  0  0  0  0
 29 30  2  0  0  0  0
M  END