
  SciTegic10311316322D

 36 39  0  0  0  0            999 V2000
   38.3812  -16.6044    0.0000 C   0  0
   38.3571  -17.4283    0.0000 C   0  0
   39.1325  -17.7102    0.0000 O   0  0
   39.6402  -17.0599    0.0000 N   0  0
   39.1786  -16.3762    0.0000 C   0  0
   39.4607  -15.6008    0.0000 C   0  0
   37.6746  -17.8917    0.0000 C   0  0
   31.1901  -18.9087    0.0000 C   0  0
   31.9151  -18.5149    0.0000 C   0  0
   31.9307  -17.6932    0.0000 C   0  0
   32.6515  -17.2993    0.0000 C   0  0
   33.3576  -17.7267    0.0000 N   0  0
   33.3382  -18.5525    0.0000 C   0  0
   32.6126  -18.9508    0.0000 C   0  0
   34.0783  -17.3314    0.0000 C   0  0
   34.0952  -16.5055    0.0000 C   0  0
   34.8178  -16.1089    0.0000 C   0  0
   35.5240  -16.5373    0.0000 C   0  0
   35.5029  -17.3664    0.0000 C   0  0
   34.7799  -17.7591    0.0000 C   0  0
   33.3896  -16.0779    0.0000 F   0  0
   36.2480  -16.1417    0.0000 N   0  0
   36.9526  -16.5708    0.0000 C   0  0
   37.6766  -16.1753    0.0000 N   0  0
   36.9332  -17.3956    0.0000 O   0  0
   30.4867  -18.4778    0.0000 C   0  0
   30.5134  -17.6545    0.0000 C   0  0
   29.8106  -17.2236    0.0000 C   0  0
   29.0848  -17.6176    0.0000 C   0  0
   29.0659  -18.4466    0.0000 C   0  0
   29.7692  -18.8737    0.0000 C   0  0
   31.1688  -19.7334    0.0000 C   0  0
   30.4438  -20.1273    0.0000 O   0  0
   31.8723  -20.1643    0.0000 N   0  0
   31.8509  -20.9890    0.0000 C   0  0
   32.5545  -21.4199    0.0000 C   0  0
  1  2  2  0
  2  3  1  0
  3  4  1  0
  4  5  2  0
  5  1  1  0
  5  6  1  0
  2  7  1  0
  8  9  1  0
  9 10  1  0
  9 14  1  0
 10 11  1  0
 11 12  1  0
 12 13  1  0
 13 14  1  0
 15 16  2  0
 16 17  1  0
 17 18  2  0
 18 19  1  0
 19 20  2  0
 20 15  1  0
 12 15  1  0
 16 21  1  0
 18 22  1  0
 22 23  1  0
 23 24  1  0
 23 25  2  0
  8 26  1  0
 26 27  2  0
 27 28  1  0
 28 29  2  0
 29 30  1  0
 30 31  2  0
 31 26  1  0
  8 32  1  0
 32 33  2  0
 32 34  1  0
 34 35  1  0
 35 36  1  0
 24  1  1  0
M  END