
  SciTegic01111613442D

 25 28  0  0  0  0            999 V2000
    1.4541   -1.1395    0.0000 Cl  0  0
    0.2723   -0.9311    0.0000 C   0  0
   -0.2407    0.4784    0.0000 C   0  0
   -1.7180    0.7389    0.0000 C   0  0
   -2.6821   -0.4102    0.0000 C   0  0
   -2.1691   -1.8197    0.0000 C   0  0
   -0.6919   -2.0802    0.0000 C   0  0
   -0.1786   -3.4905    0.0000 C   0  0
    0.7865   -2.3412    0.0000 C   0  0
    0.2739   -0.9315    0.0000 C   0  0
    1.2384    0.2173    0.0000 C   0  0
    2.7155   -0.0436    0.0000 C   0  0
    3.2281   -1.4533    0.0000 C   0  0
    2.2636   -2.6021    0.0000 C   0  0
    1.2993   -3.7521    0.0000 N   0  0
    2.6510   -3.1318    0.0000 C   0  0
    3.6540   -4.2472    0.0000 N   0  0
    2.9032   -5.5457    0.0000 C   0  0
    1.4361   -5.2330    0.0000 C   0  0
   -1.1436   -4.6398    0.0000 C   0  0
   -0.6310   -6.0496    0.0000 C   0  0
   -1.5956   -7.1983    0.0000 C   0  0
   -3.0727   -6.9374    0.0000 C   0  0
   -3.5853   -5.5277    0.0000 C   0  0
   -2.6207   -4.3789    0.0000 C   0  0
  2  1  1  0
  3  2  1  0
  7  2  2  0
  4  3  2  0
  5  4  1  0
  5  6  2  0
  6  7  1  0
  8  7  1  0
 20  8  1  0
  9  8  1  0
  8 15  1  0
 14  9  2  0
  9 10  1  0
 10 11  2  0
 12 11  1  0
 13 12  2  0
 14 13  1  0
 19 15  1  0
 16 15  1  0
 16 17  2  0
 18 17  1  0
 19 18  2  0
 21 20  1  0
 25 20  2  0
 22 21  2  0
 23 22  1  0
 23 24  2  0
 24 25  1  0
M  END