
  SciTegic12201609492D

 44 48  0  0  0  0            999 V2000
    3.9511   -0.8815    0.0000 C   0  0
    2.5987   -1.5004    0.0000 N   0  0
    2.7343   -2.9815    0.0000 N   0  0
    4.2010   -3.2956    0.0000 C   0  0
    4.9531   -1.9978    0.0000 C   0  0
    4.8054   -4.6666    0.0000 C   0  0
    5.9984   -4.7960    0.0000 O   0  0
    4.0971   -5.6353    0.0000 O   0  0
    1.2990   -0.7500    0.0000 C   0  0
    4.2568    0.5878    0.0000 C   0  0
    1.2990    0.7500    0.0000 C   0  0
    0.0000    1.5000    0.0000 C   0  0
   -1.2990    0.7500    0.0000 C   0  0
   -1.2990   -0.7500    0.0000 C   0  0
    0.0000   -1.5000    0.0000 C   0  0
    3.2235    1.6679    0.0000 C   0  0
    3.6446    3.1076    0.0000 C   0  0
    5.1020    3.4627    0.0000 C   0  0
    6.1382    2.3782    0.0000 C   0  0
    5.7171    0.9385    0.0000 C   0  0
    6.4430   -1.8405    0.0000 N   0  0
    7.0537   -0.4695    0.0000 C   0  0
    8.5462   -0.3119    0.0000 C   0  0
    6.3481    0.5012    0.0000 O   0  0
    9.1585    1.0575    0.0000 C   0  0
   10.6505    1.2120    0.0000 C   0  0
   11.5303   -0.0029    0.0000 C   0  0
   10.9181   -1.3723    0.0000 C   0  0
    9.4261   -1.5268    0.0000 C   0  0
   -2.6003    1.4977    0.0000 O   0  0
   -3.8990    0.7455    0.0000 C   0  0
   -5.2007    1.4909    0.0000 C   0  0
   -6.4972    0.7364    0.0000 C   0  0
   -6.4920   -0.7636    0.0000 C   0  0
   -5.1903   -1.5091    0.0000 C   0  0
   -3.8939   -0.7546    0.0000 C   0  0
    5.5263    4.9023    0.0000 O   0  0
    6.9849    5.2556    0.0000 C   0  0
    7.3242    6.4066    0.0000 C   0  0
   13.0235    0.1486    0.0000 O   0  0
   13.9021   -1.0682    0.0000 C   0  0
   15.0959   -0.9471    0.0000 C   0  0
   13.4104   -2.1628    0.0000 C   0  0
    7.8124    4.3865    0.0000 C   0  0
  1  2  1  0
  2  3  1  0
  3  4  2  0
  4  5  1  0
  5  1  2  0
  6  7  1  0
  6  8  2  0
  4  6  1  0
  2  9  1  0
  1 10  1  0
  9 11  2  0
 11 12  1  0
 12 13  2  0
 13 14  1  0
 14 15  2  0
 15  9  1  0
 10 16  2  0
 16 17  1  0
 17 18  2  0
 18 19  1  0
 19 20  2  0
 20 10  1  0
  5 21  1  0
 21 22  1  0
 22 23  1  0
 22 24  2  0
 23 25  2  0
 25 26  1  0
 26 27  2  0
 27 28  1  0
 28 29  2  0
 29 23  1  0
 13 30  1  0
 30 31  1  0
 31 32  2  0
 32 33  1  0
 33 34  2  0
 34 35  1  0
 35 36  2  0
 36 31  1  0
 18 37  1  0
 37 38  1  0
 38 39  1  0
 27 40  1  0
 40 41  1  0
 41 42  1  0
 41 43  1  0
 38 44  1  0
M  END