
  SciTegic12231509382D

 31 33  0  0  0  0            999 V2000
    3.5163   -2.2164    0.0000 N   0  0
    2.8622   -2.7164    0.0000 C   0  0  1  0  0  0
   -1.7331   -1.8123    0.0000 P   0  0
    4.3162   -2.1914    0.0000 C   0  0
    4.3287   -1.3665    0.0000 C   0  0
    3.5538   -1.1541    0.0000 N   0  0
    2.8789   -3.5413    0.0000 C   0  0  1  0  0  0
    3.0746   -1.7248    0.0000 C   0  0
    2.0665   -2.4789    0.0000 O   0  0
   -2.9872   -1.1249    0.0000 P   0  0
   -0.4832   -2.4914    0.0000 P   0  0
   -2.1623   -1.1041    0.0000 O   0  0
   -0.9124   -1.7915    0.0000 O   0  0
    1.5915   -3.1621    0.0000 C   0  0  1  0  0  0
    2.0998   -3.8163    0.0000 C   0  0  1  0  0  0
    5.0411   -0.9749    0.0000 C   0  0
    5.0161   -2.6164    0.0000 N   0  0
    5.7493   -1.3915    0.0000 N   0  0
   -1.5456   -1.0041    0.0000 O   0  0
    0.7666   -3.1788    0.0000 C   0  0
   -2.1331   -2.5289    0.0000 O   0  0
    5.7410   -2.2164    0.0000 C   0  0
    0.3417   -2.4789    0.0000 O   0  0
   -2.7955   -0.3250    0.0000 O   0  0
   -3.4204   -0.4167    0.0000 O   0  0
   -0.2875   -1.6915    0.0000 O   0  0
   -3.3829   -1.8498    0.0000 O   0  0
   -0.8832   -3.2163    0.0000 O   0  0
    3.5496   -4.0037    0.0000 O   0  0
    5.0536   -0.1500    0.0000 N   0  0
    1.8665   -4.5912    0.0000 O   0  0
  2  1  1  1
  3 13  1  0
  4  1  1  0
  5  4  2  0
  6  8  2  0
  7  2  1  0
  8  1  1  0
  9  2  1  0
 10 12  1  0
 11 23  1  0
 12  3  1  0
 13 11  1  0
 14  9  1  0
 15  7  1  0
 16  5  1  0
 17  4  1  0
 18 22  1  0
 19  3  1  0
 14 20  1  1
 21  3  2  0
 22 17  2  0
 23 20  1  0
 24 10  1  0
 25 10  1  0
 26 11  1  0
 27 10  2  0
 28 11  2  0
  7 29  1  6
 30 16  1  0
 15 31  1  6
  6  5  1  0
 15 14  1  0
 16 18  2  0
M  END