
  SciTegic07291412072D

 57 61  0  0  0  0            999 V2000
   15.9221   -2.8716    0.0000 N   0  0
   14.7672   -4.7238    0.0000 N   0  0
   15.2805   -3.3902    0.0000 C   0  0
   15.4088   -4.2052    0.0000 C   0  0  2  0  0  0
   16.7188   -3.0859    0.0000 C   0  0  2  0  0  0
   13.9973   -4.4275    0.0000 C   0  0
   17.0138   -3.8563    0.0000 C   0  0
   13.3557   -4.9461    0.0000 C   0  0  1  0  0  0
   14.8955   -5.5388    0.0000 C   0  0
   15.8797   -2.0477    0.0000 C   0  0
   17.1688   -2.3944    0.0000 C   0  0
   16.1788   -4.5015    0.0000 C   0  0
   17.8285   -3.9861    0.0000 N   0  0
   16.6502   -1.7528    0.0000 C   0  0
   21.1576   -6.6869    0.0000 C   0  0
   12.5857   -4.6497    0.0000 N   0  0
   13.4840   -5.7610    0.0000 C   0  0
   17.6037   -5.3973    0.0000 C   0  0
   15.6655   -5.8351    0.0000 C   0  0
   12.8424   -6.2796    0.0000 C   0  0
   16.3071   -5.3165    0.0000 C   0  0
   12.0457   -6.0654    0.0000 S   0  0
   14.5106   -3.0939    0.0000 O   0  0
   11.9441   -5.1683    0.0000 C   0  0
   18.1235   -4.7566    0.0000 C   0  0  2  0  0  0
   21.6773   -6.0463    0.0000 N   0  0
   13.8690   -3.6125    0.0000 O   0  0
   16.4940   -4.4970    0.0000 O   0  0
   11.5957   -6.7569    0.0000 C   0  0
   12.8848   -7.1035    0.0000 C   0  0
   16.7890   -5.2675    0.0000 O   0  0
   12.1143   -7.3985    0.0000 C   0  0
   11.5689   -5.9031    0.0000 O   0  0
   20.3428   -6.5571    0.0000 N   0  0
   21.4525   -7.4574    0.0000 N   0  0
   17.8986   -6.1678    0.0000 O   0  0
    4.8864   -6.2796    0.0000 N   0  0
   15.2390   -1.5280    0.0000 C   0  0
   16.7799   -0.9380    0.0000 C   0  0
   15.7938   -6.6501    0.0000 C   0  0
   17.0770   -5.6129    0.0000 C   0  0
   11.1742   -4.8720    0.0000 C   0  0
   18.9382   -4.8864    0.0000 C   0  0
   20.0479   -5.7867    0.0000 C   0  0
    5.5280   -5.7610    0.0000 C   0  0
   19.2331   -5.6569    0.0000 C   0  0
   10.5326   -5.3906    0.0000 C   0  0
    6.2979   -6.0574    0.0000 C   0  0
    9.7626   -5.0942    0.0000 C   0  0
    6.9395   -5.5388    0.0000 C   0  0
    7.7095   -5.8351    0.0000 C   0  0
    8.3511   -5.3165    0.0000 C   0  0
    9.1210   -5.6129    0.0000 C   0  0
   15.3688   -0.7132    0.0000 C   0  0
   16.1393   -0.4183    0.0000 C   0  0
   16.5637   -6.9464    0.0000 C   0  0
   17.2053   -6.4278    0.0000 C   0  0
  2  4  1  0
  3  1  1  0
  4  3  1  6
  5  1  1  0
  6  2  1  0
  5  7  1  1
  8  6  1  0
  9  2  1  0
 10  1  1  0
 11  5  1  0
 12  4  1  0
 13  7  1  0
 14 10  1  0
 15 34  2  0
 16  8  1  0
  8 17  1  6
 18 25  1  0
 19 21  2  0
 20 17  1  0
 21 12  1  0
 22 20  1  0
 23  3  2  0
 24 16  1  0
 25 13  1  0
 26 15  1  0
 27  6  2  0
 28  7  2  0
 29 22  1  0
 30 20  2  0
 31 18  2  0
 32 30  1  0
 33 24  2  0
 34 44  1  0
 35 15  1  0
 36 18  1  0
 37 45  1  0
 38 10  1  0
 39 14  1  0
 40 19  1  0
 41 21  1  0
 42 24  1  0
 25 43  1  1
 44 46  1  0
 45 48  1  0
 46 43  1  0
 47 42  1  0
 48 50  1  0
 49 47  1  0
 50 51  1  0
 51 52  1  0
 52 53  1  0
 53 49  1  0
 54 38  1  0
 55 54  1  0
 56 57  1  0
 57 41  2  0
 14 11  1  0
 55 39  1  0
 19  9  1  0
 56 40  2  0
 32 29  2  0
M  END