
  SciTegic02271514512D

 30 33  0  0  0  0            999 V2000
    5.7320   -1.4171    0.0000 N   0  0
    3.9109   -2.5839    0.0000 C   0  0
    4.7057   -2.3925    0.0000 N   0  0
    4.9373   -1.6085    0.0000 C   0  0
    4.3742   -1.0159    0.0000 C   0  0
    3.5794   -1.2073    0.0000 C   0  0
    3.3478   -1.9913    0.0000 N   0  0
    4.6058   -0.2320    0.0000 F   0  0
    2.9309   -4.4585    0.0000 C   0  0
    2.9089   -3.6413    0.0000 C   0  0
    2.1902   -3.2517    0.0000 C   0  0
    1.4935   -3.6794    0.0000 C   0  0
    1.5155   -4.4965    0.0000 C   0  0
    2.2342   -4.8861    0.0000 N   0  0
    3.7149   -4.6901    0.0000 N   0  0
    3.6793   -3.3679    0.0000 C   0  0
    4.1774   -4.0160    0.0000 C   0  0
    0.7748   -3.2898    0.0000 Cl  0  0
    6.2950   -2.0095    0.0000 C   0  0  1  0  0  0
    6.0601   -2.7937    0.0000 C   0  0
    6.6192   -3.3849    0.0000 C   0  0
    7.4150   -3.1976    0.0000 C   0  0
    7.6487   -2.4135    0.0000 C   0  0  2  0  0  0
    7.0866   -1.8167    0.0000 C   0  0
    8.4438   -2.2249    0.0000 N   0  0
    9.0047   -2.8191    0.0000 C   0  0
    9.7998   -2.6305    0.0000 C   0  0
    8.7705   -3.6021    0.0000 O   0  0
   10.0340   -1.8476    0.0000 O   0  0
   10.3608   -3.2248    0.0000 C   0  0
  2  3  1  0
  3  4  2  0
  4  5  1  0
  5  6  2  0
  6  7  1  0
  2  7  2  0
  5  8  1  0
  9 10  1  0
 10 11  2  0
 11 12  1  0
 12 13  2  0
 13 14  1  0
  9 14  2  0
 16 17  2  0
 15 17  1  0
  9 15  1  0
 10 16  1  0
 12 18  1  0
  2 16  1  0
  1  4  1  0
 19  1  1  6
 19 20  1  0
 19 24  1  0
 20 21  1  0
 21 22  1  0
 22 23  1  0
 23 24  1  0
 23 25  1  6
 25 26  1  0
 26 27  1  0
 26 28  2  0
 27 29  1  0
 27 30  1  0
M  END