
  SciTegic01161211242D

 20 20  0  0  0  0            999 V2000
    2.5973   -1.5031    0.0000 C   0  0  1  0  0  0
    2.5951   -3.0039    0.0000 C   0  0  2  0  0  0
    3.8999   -0.7576    0.0000 C   0  0
    1.2990   -0.7500    0.0000 C   0  0
    1.2948   -3.7533    0.0000 C   0  0
    5.1972   -1.5121    0.0000 N   0  0
    3.6337   -3.6051    0.0000 O   0  0
    8.9998   -2.2535    0.0000 Cl  0  0
    1.2990    0.7500    0.0000 C   0  0
    0.0000   -1.5000    0.0000 C   0  0
    1.2905   -5.2533    0.0000 C   0  0
   -0.0022   -2.9997    0.0000 C   0  0
    6.2387   -0.9161    0.0000 C   0  0
    5.1931   -2.7121    0.0000 C   0  0
   -1.2990   -0.7500    0.0000 C   0  0
   -0.0107   -5.9996    0.0000 C   0  0
   -1.3034   -3.7460    0.0000 C   0  0
    0.0000    1.5000    0.0000 C   0  0
   -1.3076   -5.2460    0.0000 C   0  0
   -1.2990    0.7500    0.0000 C   0  0
  1  2  1  0
  1  3  1  0
  1  4  1  6
  2  5  1  0
  3  6  1  0
  2  7  1  1
  4  9  2  0
  4 10  1  0
  5 11  2  0
  5 12  1  0
  6 13  1  0
  6 14  1  0
 10 15  2  0
 11 16  1  0
 12 17  2  0
  9 18  1  0
 16 19  2  0
 17 19  1  0
 15 20  1  0
 18 20  2  0
M  END