
  SciTegic02131210002D

 32 34  0  0  0  0            999 V2000
   -2.4625  -13.3625    0.0000 O   0  0
   -2.0458  -14.0792    0.0000 S   0  0
   -1.6335  -13.3600    0.0000 O   0  0
   -4.1312  -15.3955    0.0000 C   0  0
   -4.1359  -14.5669    0.0000 N   0  0
   -3.4699  -14.0800    0.0000 C   0  0
   -3.7272  -13.2961    0.0000 C   0  0
   -4.5523  -13.2986    0.0000 C   0  0
   -4.8047  -14.0840    0.0000 N   0  0
   -2.7583  -14.4917    0.0000 N   0  0
   -1.3294  -14.4929    0.0000 C   0  0
   -1.3327  -15.3177    0.0000 C   0  0
   -0.6194  -15.7308    0.0000 C   0  0
    0.0964  -15.3189    0.0000 C   0  0
    0.0945  -14.4896    0.0000 C   0  0
   -0.6194  -14.0803    0.0000 C   0  0
   -3.2443  -12.6272    0.0000 C   0  0
   -2.4208  -12.6250    0.0000 O   0  0
   -3.6209  -11.8932    0.0000 N   0  0
   -3.1736  -11.2000    0.0000 C   0  0  2  0  0  0
   -2.3496  -11.2409    0.0000 C   0  0
   -1.9022  -10.5477    0.0000 C   0  0
   -3.5502  -10.4660    0.0000 C   0  0
    0.8111  -15.7311    0.0000 C   0  0
   -4.8466  -15.8082    0.0000 C   0  0
   -4.8423  -16.6361    0.0000 C   0  0
   -4.1218  -17.0472    0.0000 C   0  0
   -3.4042  -16.6244    0.0000 C   0  0
   -3.4120  -15.7979    0.0000 C   0  0
   -5.0392  -12.6326    0.0000 C   0  0
   -1.9729  -11.9749    0.0000 C   0  0
   -1.5250  -11.2375    0.0000 C   0  0
 15 16  2  0
 16 11  1  0
  9  5  1  0
  7 17  1  0
  4  5  1  0
 17 18  2  0
  3  2  2  0
 17 19  1  0
  6 10  1  0
 19 20  1  0
 10  2  1  0
 20 21  1  0
 21 22  1  0
  2 11  1  0
 20 23  1  1
  5  6  1  0
 14 24  1  0
 11 12  2  0
  4 25  2  0
  2  1  2  0
 25 26  1  0
 12 13  1  0
 26 27  2  0
  6  7  2  0
 27 28  1  0
 13 14  2  0
 28 29  2  0
 29  4  1  0
  7  8  1  0
  8 30  1  0
 14 15  1  0
 21 31  1  0
  8  9  2  0
 21 32  1  0
M  END