
  SciTegic09261414482D

 15 15  0  0  0  0            999 V2000
    5.6653   -5.1095    0.0000 C   0  0
    5.6641   -5.9290    0.0000 C   0  0
    6.3722   -6.3380    0.0000 C   0  0
    7.0818   -5.9285    0.0000 C   0  0
    7.0790   -5.1059    0.0000 C   0  0
    6.3704   -4.7006    0.0000 C   0  0
    7.7902   -6.3360    0.0000 C   0  0
    7.7915   -7.1532    0.0000 O   0  0
    8.4972   -5.9263    0.0000 C   0  0
    9.2056   -6.3338    0.0000 N   0  0
    9.9127   -5.9241    0.0000 C   0  0
   10.6210   -6.3316    0.0000 C   0  0
    9.9114   -5.1069    0.0000 C   0  0
    6.3720   -7.1552    0.0000 O   0  0
    5.6642   -7.5636    0.0000 C   0  0
  1  2  2  0
  2  3  1  0
  3  4  2  0
  4  5  1  0
  5  6  2  0
  6  1  1  0
  4  7  1  0
  7  8  1  0
  7  9  1  0
  9 10  1  0
 10 11  1  0
 11 12  1  0
 11 13  1  0
  3 14  1  0
 14 15  1  0
M  END