
          11280715492D 1   1.00000     0.00000     0

 25 26  0     1  0            999 V2000
   -4.0208    2.3542    0.0000 C   0  0  0  0  0  0           0  0  0
   -4.0208    1.5292    0.0000 C   0  0  0  0  0  0           0  0  0
   -3.3088    1.1208    0.0000 N   0  0  3  0  0  0           0  0  0
   -2.5968    1.5292    0.0000 C   0  0  0  0  0  0           0  0  0
   -2.5968    2.3542    0.0000 N   0  0  3  0  0  0           0  0  0
   -3.3088    2.7708    0.0000 C   0  0  0  0  0  0           0  0  0
   -3.3088    3.5958    0.0000 O   0  0  0  0  0  0           0  0  0
   -1.8829    1.1156    0.0000 O   0  0  0  0  0  0           0  0  0
   -1.8825    2.7696    0.0000 C   0  0  0  0  0  0           0  0  0
   -1.1667    2.3594    0.0000 C   0  0  0  0  0  0           0  0  0
   -1.1668    1.5364    0.0000 C   0  0  0  0  0  0           0  0  0
   -0.4519    1.1263    0.0000 C   0  0  0  0  0  0           0  0  0
    0.2623    1.5411    0.0000 C   0  0  0  0  0  0           0  0  0
    0.2570    2.3704    0.0000 C   0  0  0  0  0  0           0  0  0
   -0.4586    2.7768    0.0000 C   0  0  0  0  0  0           0  0  0
   -3.3088    0.2958    0.0000 C   0  0  0  0  0  0           0  0  0
   -4.0233   -0.1167    0.0000 C   0  0  1  0  0  0           0  0  0
   -4.0233   -0.9417    0.0000 C   0  0  0  0  0  0           0  0  0
   -4.7378    0.2958    0.0000 N   0  0  0  0  0  0           0  0  0
   -4.7378   -1.3542    0.0000 O   0  0  0  0  0  0           0  0  0
   -3.3088   -1.3542    0.0000 O   0  0  0  0  0  0           0  0  0
    0.9786    1.1319    0.0000 C   0  0  0  0  0  0           0  0  0
    0.9824    0.3069    0.0000 O   0  0  0  0  0  0           0  0  0
    1.6912    1.5476    0.0000 O   0  0  0  0  0  0           0  0  0
   -4.7365    2.7646    0.0000 I   0  0  0  0  0  0           0  0  0
  5  6  1  0     0  0
 12 13  2  0     0  0
 13 14  1  0     0  0
  6  7  2  0     0  0
 14 15  2  0     0  0
 15 10  1  0     0  0
  1  2  2  0     0  0
  3 16  1  0     0  0
  4  8  2  0     0  0
 16 17  1  0     0  0
  1  6  1  0     0  0
 17 18  1  0     0  0
  5  9  1  0     0  0
 17 19  1  1     0  0
  2  3  1  0     0  0
 18 20  1  0     0  0
  9 10  1  0     0  0
 18 21  2  0     0  0
  3  4  1  0     0  0
 13 22  1  0     0  0
 10 11  2  0     0  0
 22 23  2  0     0  0
  4  5  1  0     0  0
 22 24  1  0     0  0
 11 12  1  0     0  0
  1 25  1  0     0  0
M  END