
          11280715502D 1   1.00000     0.00000     0

 46 50  0     1  0            999 V2000
   -1.6107  -22.8345    0.0000 C   0  0  0  0  0  0           0  0  0
   -1.1909  -23.5475    0.0000 C   0  0  0  0  0  0           0  0  0
   -0.3655  -23.5395    0.0000 C   0  0  0  0  0  0           0  0  0
    0.0412  -22.8193    0.0000 C   0  0  0  0  0  0           0  0  0
   -0.3836  -22.1056    0.0000 C   0  0  0  0  0  0           0  0  0
   -1.2076  -22.1171    0.0000 C   0  0  0  0  0  0           0  0  0
    0.0191  -21.3856    0.0000 C   0  0  0  0  0  0           0  0  0
    0.8440  -21.3743    0.0000 N   0  0  3  0  0  0           0  0  0
   -0.4031  -20.6768    0.0000 O   0  0  0  0  0  0           0  0  0
    1.2649  -22.0859    0.0000 C   0  0  1  0  0  0           0  0  0
    2.0863  -22.0767    0.0000 C   0  0  0  0  0  0           0  0  0
    2.4928  -21.3584    0.0000 N   0  0  3  0  0  0           0  0  0
    2.0718  -20.6478    0.0000 C   0  0  0  0  0  0           0  0  0
    1.2442  -20.6554    0.0000 C   0  0  0  0  0  0           0  0  0
    0.8602  -22.8048    0.0000 C   0  0  0  0  0  0           0  0  0
    1.2721  -23.5177    0.0000 C   0  0  0  0  0  0           0  0  0
    0.9417  -24.2717    0.0000 C   0  0  0  0  0  0           0  0  0
    1.5537  -24.8224    0.0000 N   0  0  0  0  0  0           0  0  0
    2.0951  -23.6053    0.0000 C   0  0  0  0  0  0           0  0  0
    2.2656  -24.4093    0.0000 C   0  0  0  0  0  0           0  0  0
    3.0458  -24.6621    0.0000 C   0  0  0  0  0  0           0  0  0
    3.6560  -24.1118    0.0000 C   0  0  0  0  0  0           0  0  0
    3.4809  -23.3055    0.0000 C   0  0  0  0  0  0           0  0  0
    2.7010  -23.0565    0.0000 C   0  0  0  0  0  0           0  0  0
    0.0458  -24.2516    0.0000 C   0  0  3  0  0  0           0  0  0
    0.7561  -23.8321    0.0000 F   0  0  0  0  0  0           0  0  0
    0.4617  -24.9641    0.0000 F   0  0  0  0  0  0           0  0  0
   -0.6667  -24.6676    0.0000 F   0  0  0  0  0  0           0  0  0
   -2.4356  -22.8429    0.0000 C   0  0  3  0  0  0           0  0  0
   -2.4327  -23.6685    0.0000 F   0  0  0  0  0  0           0  0  0
   -2.4491  -22.0184    0.0000 F   0  0  0  0  0  0           0  0  0
   -3.2631  -22.8524    0.0000 F   0  0  0  0  0  0           0  0  0
    3.3178  -21.3503    0.0000 C   0  0  0  0  0  0           0  0  0
    3.7232  -20.6318    0.0000 C   0  0  0  0  0  0           0  0  0
    4.5482  -20.6236    0.0000 N   0  0  0  0  0  0           0  0  0
    3.3037  -19.9214    0.0000 C   0  0  0  0  0  0           0  0  0
    4.9677  -21.3340    0.0000 O   0  0  0  0  0  0           0  0  0
    5.7927  -21.3259    0.0000 C   0  0  0  0  0  0           0  0  0
    6.2122  -22.0362    0.0000 C   0  0  0  0  0  0           0  0  0
    7.0372  -22.0281    0.0000 N   0  0  3  0  0  0           0  0  0
    7.4502  -22.7395    0.0000 C   0  0  0  0  0  0           0  0  0
    8.2715  -22.7334    0.0000 C   0  0  0  0  0  0           0  0  0
    8.6808  -22.0167    0.0000 N   0  0  3  0  0  0           0  0  0
    8.2625  -21.3045    0.0000 C   0  0  0  0  0  0           0  0  0
    7.4349  -21.3090    0.0000 C   0  0  0  0  0  0           0  0  0
    9.5058  -22.0116    0.0000 C   0  0  0  0  0  0           0  0  0
 21 22  2  0     0  0
  5  6  2  0     0  0
 22 23  1  0     0  0
  6  1  1  0     0  0
 23 24  2  0     0  0
 24 19  1  0     0  0
  1  2  2  0     0  0
  3 25  1  0     0  0
  8 14  1  0     0  0
 25 26  1  0     0  0
 10 11  1  0     0  0
 25 27  1  0     0  0
 11 12  1  0     0  0
 25 28  1  0     0  0
 12 13  1  0     0  0
  1 29  1  0     0  0
 13 14  1  0     0  0
 29 30  1  0     0  0
  5  7  1  0     0  0
 29 31  1  0     0  0
 10 15  1  1     0  0
 29 32  1  0     0  0
  3  4  2  0     0  0
 12 33  1  0     0  0
 15 16  1  0     0  0
 33 34  1  0     0  0
 16 17  2  0     0  0
 34 35  2  0     0  0
  7  8  1  0     0  0
 34 36  1  0     0  0
 35 37  1  0     0  0
 17 18  1  0     0  0
 37 38  1  0     0  0
 18 20  1  0     0  0
 38 39  1  0     0  0
 19 16  1  0     0  0
 39 40  1  0     0  0
 40 41  1  0     0  0
  7  9  2  0     0  0
  8 10  1  0     0  0
 19 20  2  0     0  0
  4  5  1  0     0  0
 20 21  1  0     0  0
 40 45  1  0     0  0
 41 42  1  0     0  0
 42 43  1  0     0  0
 43 44  1  0     0  0
 44 45  1  0     0  0
  2  3  1  0     0  0
 43 46  1  0     0  0
M  END