
  SciTegic09261414482D

 27 27  0  0  0  0            999 V2000
   34.0015   -3.7290    0.0000 C   0  0
   34.0004   -4.5564    0.0000 C   0  0
   34.7151   -4.9692    0.0000 C   0  0
   34.7133   -3.3163    0.0000 C   0  0
   35.4286   -3.7253    0.0000 C   0  0
   35.4290   -4.5518    0.0000 C   0  0
   36.2150   -4.8069    0.0000 N   0  0
   36.7006   -4.1381    0.0000 C   0  0
   36.2146   -3.4698    0.0000 C   0  0
   36.4693   -2.6851    0.0000 C   0  0
   37.2761   -2.5133    0.0000 C   0  0
   37.5308   -1.7286    0.0000 N   0  0
   38.3377   -1.5569    0.0000 C   0  0
   36.9786   -1.1157    0.0000 C   0  0
   33.2870   -3.3167    0.0000 O   0  0
   33.2868   -2.4917    0.0000 C   0  0
   32.5722   -2.0794    0.0000 C   0  0
   34.0011   -2.0790    0.0000 O   0  0
   32.5720   -1.2544    0.0000 C   0  0
   31.8579   -2.4921    0.0000 C   0  0
   31.8530   -1.6666    0.0000 C   0  0
   39.9422   -4.3610    0.0000 C   0  0
   39.5297   -5.0754    0.0000 C   0  0
   39.5297   -3.6465    0.0000 O   0  0
   40.7672   -4.3610    0.0000 O   0  0
   39.9422   -5.7899    0.0000 O   0  0
   38.7047   -5.0754    0.0000 O   0  0
  1  2  2  0
  2  3  1  0
  3  6  2  0
  5  4  2  0
  4  1  1  0
  5  6  1  0
  6  7  1  0
  7  8  1  0
  8  9  2  0
  9  5  1  0
  9 10  1  0
 10 11  1  0
 11 12  1  0
 12 13  1  0
 12 14  1  0
  1 15  1  0
 15 16  1  0
 16 17  1  0
 16 18  2  0
 17 19  1  0
 17 20  1  0
 17 21  1  0
 22 23  1  0
 22 24  2  0
 22 25  1  0
 23 26  2  0
 23 27  1  0
M  END