
          11280714522D 1   1.00000     0.00000     0

 35 40  0     0  0            999 V2000
    4.9167   -4.4375    0.0000 C   0  0  0  0  0  0           0  0  0
    5.6292   -4.0167    0.0000 C   0  0  0  0  0  0           0  0  0
    4.2042   -4.0250    0.0000 O   0  0  0  0  0  0           0  0  0
    5.6292   -3.2000    0.0000 C   0  0  0  0  0  0           0  0  0
    4.9167   -5.2625    0.0000 C   0  0  0  0  0  0           0  0  0
    3.4917   -4.4417    0.0000 C   0  0  0  0  0  0           0  0  0
    5.1667   -1.9417    0.0000 N   0  0  0  0  0  0           0  0  0
    3.4917   -5.2667    0.0000 C   0  0  0  0  0  0           0  0  0
    4.9417   -2.7375    0.0000 N   0  0  0  0  0  0           0  0  0
    5.9917   -1.9167    0.0000 N   0  0  0  0  0  0           0  0  0
    4.2042   -5.6792    0.0000 C   0  0  0  0  0  0           0  0  0
    6.2792   -2.6875    0.0000 N   0  0  0  0  0  0           0  0  0
    0.6417   -0.3167    0.0000 N   0  0  0  0  0  0           0  0  0
    2.7792   -4.0292    0.0000 C   0  0  0  0  0  0           0  0  0
    6.3417   -4.4292    0.0000 C   0  0  0  0  0  0           0  0  0
    5.6375   -5.6750    0.0000 C   0  0  0  0  0  0           0  0  0
    0.6417    0.5083    0.0000 C   0  0  0  0  0  0           0  0  0
    1.3542   -1.5542    0.0000 C   0  0  0  0  0  0           0  0  0
    2.0667   -1.9625    0.0000 C   0  0  0  0  0  0           0  0  0
    6.3500   -5.2542    0.0000 C   0  0  0  0  0  0           0  0  0
    4.2042   -6.5042    0.0000 O   0  0  0  0  0  0           0  0  0
    1.3542   -0.7292    0.0000 C   0  0  0  0  0  0           0  0  0
    2.7792   -3.2000    0.0000 C   0  0  0  0  0  0           0  0  0
    1.3542    0.9208    0.0000 C   0  0  0  0  0  0           0  0  0
    2.0667   -2.7875    0.0000 C   0  0  0  0  0  0           0  0  0
    2.0667    0.5083    0.0000 C   0  0  0  0  0  0           0  0  0
    7.0667   -5.6667    0.0000 Cl  0  0  0  0  0  0           0  0  0
    2.0667   -0.3167    0.0000 C   0  0  0  0  0  0           0  0  0
    2.0667   -4.4417    0.0000 C   0  0  0  0  0  0           0  0  0
    1.3500   -4.0250    0.0000 C   0  0  0  0  0  0           0  0  0
   -0.0750    0.9125    0.0000 C   0  0  0  0  0  0           0  0  0
    1.3542   -3.2000    0.0000 C   0  0  0  0  0  0           0  0  0
    1.3542    1.7458    0.0000 C   0  0  0  0  0  0           0  0  0
   -0.0708    1.7458    0.0000 C   0  0  0  0  0  0           0  0  0
    0.6417    2.1583    0.0000 C   0  0  0  0  0  0           0  0  0
  2  1  2  0     0  0
  3  1  1  0     0  0
  4  2  1  0     0  0
  5  1  1  0     0  0
  6  3  1  0     0  0
  7  9  2  0     0  0
  8 11  1  0     0  0
  9  4  1  0     0  0
 10 12  1  0     0  0
 11  5  1  0     0  0
 12  4  2  0     0  0
 13 22  2  0     0  0
 14  6  1  0     0  0
 15  2  1  0     0  0
 16  5  2  0     0  0
 17 13  1  0     0  0
 18 19  2  0     0  0
 19 25  1  0     0  0
 20 16  1  0     0  0
 21 11  2  0     0  0
 22 18  1  0     0  0
 23 14  2  0     0  0
 24 26  1  0     0  0
 25 23  1  0     0  0
 26 28  2  0     0  0
 27 20  1  0     0  0
 28 22  1  0     0  0
 29 14  1  0     0  0
 30 29  2  0     0  0
 31 17  2  0     0  0
 32 30  1  0     0  0
 33 24  2  0     0  0
 34 31  1  0     0  0
 35 33  1  0     0  0
 20 15  2  0     0  0
  8  6  2  0     0  0
  7 10  1  0     0  0
 32 25  2  0     0  0
 17 24  1  0     0  0
 34 35  2  0     0  0
M  END