
  SciTegic11161115462D

 30 33  0  0  0  0            999 V2000
   12.1125    2.0573    0.0000 C   0  0
   12.1113    1.2303    0.0000 C   0  0
   12.8259    0.8176    0.0000 C   0  0
   13.5418    1.2308    0.0000 C   0  0
   13.5389    2.0609    0.0000 C   0  0
   12.8241    2.4697    0.0000 C   0  0
   14.2565    0.8196    0.0000 N   0  0
   14.2578   -0.0049    0.0000 C   0  0
   13.5431   -0.4479    0.0000 N   0  0
   13.5440   -1.2405    0.0000 C   0  0
   14.2593   -1.6837    0.0000 N   0  0
   14.9751   -1.2346    0.0000 C   0  0
   14.9706   -0.4123    0.0000 N   0  0
   12.8305   -1.6535    0.0000 N   0  0
   15.6912   -1.6433    0.0000 N   0  0
   12.1159   -1.2420    0.0000 C   0  0
   12.1191   -0.4132    0.0000 C   0  0
   10.6926   -0.4113    0.0000 C   0  0
   10.6915   -1.2367    0.0000 C   0  0
   11.4087   -0.0017    0.0000 C   0  0
   11.4065   -1.6527    0.0000 C   0  0
   16.4032   -1.2273    0.0000 C   0  0
   17.1180   -1.6427    0.0000 C   0  0
   17.8279   -0.4055    0.0000 C   0  0
   17.1119    0.0054    0.0000 C   0  0
   17.8279   -1.2303    0.0000 C   0  0
   16.3958   -0.4087    0.0000 C   0  0
   12.8216    3.2942    0.0000 C   0  0
   13.5343    3.7087    0.0000 O   0  0
   12.1062    3.7044    0.0000 O   0  0
  4  7  1  0
 12 15  1  0
  3  4  2  0
 14 16  1  0
 16 17  2  0
  7  8  1  0
 18 19  1  0
  8  9  2  0
  4  5  1  0
  9 10  1  0
 16 21  1  0
 17 20  1  0
 20 18  2  0
 19 21  2  0
  2  3  1  0
 15 22  1  0
 22 23  2  0
 10 11  2  0
 24 25  1  0
  5  6  2  0
 11 12  1  0
  6  1  1  0
 12 13  2  0
 22 27  1  0
 23 26  1  0
 26 24  2  0
 25 27  2  0
 13  8  1  0
  6 28  1  0
  1  2  2  0
 28 29  1  0
 10 14  1  0
 28 30  2  0
M  END