
  CDK    6/4/10,11:41

 22 23  0  0  0  0  0  0  0  0999 V2000
    3.4711   -7.9741    0.0000 C   0  0  0  0  0  0  0  0  0  0  0  0
    4.1877   -8.3859    0.0000 N   0  0  0  0  0  0  0  0  0  0  0  0
    4.1882   -9.2127    0.0000 C   0  0  0  0  0  0  0  0  0  0  0  0
    4.8965   -9.6204    0.0000 C   0  0  0  0  0  0  0  0  0  0  0  0
    4.8943   -7.9684    0.0000 C   0  0  0  0  0  0  0  0  0  0  0  0
    5.6113   -8.3848    0.0000 C   0  0  0  0  0  0  0  0  0  0  0  0
    5.6114   -9.2071    0.0000 C   0  0  0  0  0  0  0  0  0  0  0  0
    6.3943   -9.4596    0.0000 C   0  0  0  0  0  0  0  0  0  0  0  0
    6.8787   -8.7937    0.0000 C   0  0  0  0  0  0  0  0  0  0  0  0
    6.3935   -8.1320    0.0000 S   0  0  0  0  0  0  0  0  0  0  0  0
    7.7037   -8.7937    0.0000 N   0  0  0  0  0  0  0  0  0  0  0  0
    6.8002  -10.1794    0.0000 C   0  0  0  0  0  0  0  0  0  0  0  0
    7.6253  -10.1894    0.0000 O   0  0  0  0  0  0  0  0  0  0  0  0
    6.3772  -10.8895    0.0000 O   0  0  0  0  0  0  0  0  0  0  0  0
    5.5523  -10.8797    0.0000 C   0  0  0  0  0  0  0  0  0  0  0  0
    5.1334  -11.5897    0.0000 C   0  0  0  0  0  0  0  0  0  0  0  0
    3.4680   -7.1491    0.0000 O   0  0  0  0  0  0  0  0  0  0  0  0
    2.7576   -8.3913    0.0000 O   0  0  0  0  0  0  0  0  0  0  0  0
    2.0412   -7.9795    0.0000 C   0  0  0  0  0  0  0  0  0  0  0  0
    1.3277   -8.3967    0.0000 C   0  0  0  0  0  0  0  0  0  0  0  0
    2.0380   -7.1545    0.0000 C   0  0  0  0  0  0  0  0  0  0  0  0
    2.2566   -8.7756    0.0000 C   0  0  0  0  0  0  0  0  0  0  0  0
  4  7  1  0  0  0  0 
  9 11  1  0  0  0  0 
  6  5  1  0  0  0  0 
  8 12  1  0  0  0  0 
  6  7  2  0  0  0  0 
 12 13  2  0  0  0  0 
 12 14  1  0  0  0  0 
  1  2  1  0  0  0  0 
 14 15  1  0  0  0  0 
  2  3  1  0  0  0  0 
 15 16  1  0  0  0  0 
  2  5  1  0  0  0  0 
  1 17  2  0  0  0  0 
  3  4  1  0  0  0  0 
  1 18  1  0  0  0  0 
  7  8  1  0  0  0  0 
 18 19  1  0  0  0  0 
  8  9  2  0  0  0  0 
 19 20  1  0  0  0  0 
  9 10  1  0  0  0  0 
 19 21  1  0  0  0  0 
 10  6  1  0  0  0  0 
 19 22  1  0  0  0  0 
M  END