
          11280714512D 1   1.00000     0.00000     0

 25 25  0     0  0            999 V2000
    6.0250   -2.7792    0.0000 C   0  0  0  0  0  0           0  0  0
    2.3917   -7.2917    0.0000 C   0  0  0  0  0  0           0  0  0
    5.5042   -3.0792    0.0000 C   0  0  0  0  0  0           0  0  0
    6.0167   -2.1792    0.0000 O   0  0  0  0  0  0           0  0  0
    2.9167   -7.5917    0.0000 O   0  0  0  0  0  0           0  0  0
    2.9000   -3.9792    0.0000 O   0  0  0  0  0  0           0  0  0
    2.9000   -4.5917    0.0000 C   0  0  0  0  0  0           0  0  0
    2.3792   -6.6917    0.0000 C   0  0  0  0  0  0           0  0  0
    3.4167   -3.0750    0.0000 C   0  0  3  0  0  0           0  0  0
    2.9000   -5.7875    0.0000 C   0  0  0  0  0  0           0  0  0
    3.4167   -3.6792    0.0000 C   0  0  0  0  0  0           0  0  0
    4.4667   -3.0875    0.0000 N   0  0  0  0  0  0           0  0  0
    6.5417   -3.0750    0.0000 O   0  0  0  0  0  0           0  0  0
    1.8792   -7.6000    0.0000 O   0  0  0  0  0  0           0  0  0
    2.9042   -6.3875    0.0000 C   0  0  0  0  0  0           0  0  0
    3.4167   -4.8917    0.0000 C   0  0  0  0  0  0           0  0  0
    2.3667   -4.8875    0.0000 C   0  0  0  0  0  0           0  0  0
    2.3667   -5.4917    0.0000 C   0  0  0  0  0  0           0  0  0
    3.4167   -5.4792    0.0000 C   0  0  0  0  0  0           0  0  0
    2.9000   -2.7792    0.0000 O   0  0  0  0  0  0           0  0  0
    4.9875   -2.7792    0.0000 C   0  0  0  0  0  0           0  0  0
    3.9417   -2.7792    0.0000 C   0  0  0  0  0  0           0  0  0
    7.0625   -2.7667    0.0000 C   0  0  0  0  0  0           0  0  0
    1.8750   -8.2000    0.0000 C   0  0  0  0  0  0           0  0  0
    7.5875   -3.0667    0.0000 C   0  0  0  0  0  0           0  0  0
  2  8  1  0     0  0
  3  1  1  0     0  0
  4  1  2  0     0  0
  5  2  2  0     0  0
  6 11  1  0     0  0
  7  6  1  0     0  0
  8 15  1  0     0  0
  9 22  1  0     0  0
 10 18  2  0     0  0
 11  9  1  0     0  0
 12 21  1  0     0  0
 13  1  1  0     0  0
 14  2  1  0     0  0
 15 10  1  0     0  0
 16  7  1  0     0  0
 17  7  2  0     0  0
 18 17  1  0     0  0
 19 16  2  0     0  0
 20  9  1  0     0  0
 21  3  1  0     0  0
 22 12  1  0     0  0
 23 13  1  0     0  0
 24 14  1  0     0  0
 25 23  1  0     0  0
 19 10  1  0     0  0
M  END