
  SciTegic12171312552D

 52 60  0  0  0  0            999 V2000
   17.3613  -20.1470    0.0000 C   0  0
   18.4472  -20.7449    0.0000 N   0  0
   17.3579  -19.3209    0.0000 C   0  0
   17.9466  -18.7376    0.0000 N   0  0
   17.5739  -17.9974    0.0000 N   0  0
   16.7539  -18.1236    0.0000 N   0  0
   16.6213  -18.9412    0.0000 C   0  0
   16.3398  -17.4091    0.0000 C   0  0
   15.5141  -17.4106    0.0000 C   0  0
   15.1043  -16.6936    0.0000 C   0  0
   14.2853  -18.1278    0.0000 C   0  0
   15.1090  -18.1233    0.0000 C   0  0
   13.8668  -17.4111    0.0000 C   0  0
   14.2801  -16.6973    0.0000 C   0  0
   13.8687  -15.9847    0.0000 C   0  0
   13.0441  -15.9845    0.0000 C   0  0
   12.6328  -16.7030    0.0000 C   0  0
   13.0466  -17.4127    0.0000 C   0  0
   19.3561  -20.1470    0.0000 C   0  0
   18.7749  -18.7375    0.0000 N   0  0
   19.3562  -19.3177    0.0000 C   0  0
   20.0876  -18.9441    0.0000 C   0  0
   19.9592  -18.1323    0.0000 N   0  0
   19.1471  -18.0054    0.0000 N   0  0
   20.3595  -17.4100    0.0000 C   0  0
   21.1851  -17.3954    0.0000 C   0  0
   21.6079  -18.1020    0.0000 C   0  0
   22.4328  -18.0879    0.0000 C   0  0
   21.5805  -16.6727    0.0000 C   0  0
   22.4039  -16.6550    0.0000 C   0  0
   22.8310  -17.3658    0.0000 C   0  0
   23.6582  -17.3503    0.0000 C   0  0
   24.0594  -16.6248    0.0000 C   0  0
   23.6272  -15.9134    0.0000 C   0  0
   22.8014  -15.9323    0.0000 C   0  0
   18.4461  -21.5437    0.0000 C   0  0
   19.9459  -21.8174    0.0000 N   0  0
   19.1436  -21.9924    0.0000 C   0  0
   19.0619  -22.8096    0.0000 C   0  0
   19.8141  -23.1410    0.0000 N   0  0
   20.3602  -22.5265    0.0000 N   0  0
   20.2050  -23.8683    0.0000 C   0  0
   19.7706  -24.5705    0.0000 C   0  0
   18.9475  -24.5438    0.0000 C   0  0
   18.5131  -25.2452    0.0000 C   0  0
   20.1645  -25.2941    0.0000 C   0  0
   19.7338  -25.9962    0.0000 C   0  0
   18.9049  -25.9708    0.0000 C   0  0
   18.4703  -26.6749    0.0000 C   0  0
   18.8634  -27.4047    0.0000 C   0  0
   19.6956  -27.4263    0.0000 C   0  0
   20.1265  -26.7215    0.0000 C   0  0
  1  3  1  0
  1  2  1  0
  3  4  1  0
  4  5  2  0
  5  6  1  0
  6  7  1  0
  7  3  2  0
  6  8  1  0
  8  9  1  0
  9 10  2  0
 10 14  1  0
 13 11  1  0
 11 12  2  0
 12  9  1  0
 13 14  1  0
 14 15  2  0
 15 16  1  0
 16 17  2  0
 17 18  1  0
 18 13  2  0
  2 19  1  0
 19 21  1  0
 20 21  1  0
 21 22  2  0
 22 23  1  0
 23 24  1  0
 24 20  2  0
 23 25  1  0
 25 26  1  0
 26 27  2  0
 27 28  1  0
 28 31  2  0
 30 29  2  0
 29 26  1  0
 30 31  1  0
 31 32  1  0
 32 33  2  0
 33 34  1  0
 34 35  2  0
 35 30  1  0
  2 36  1  0
 36 38  1  0
 37 38  1  0
 38 39  2  0
 39 40  1  0
 40 41  1  0
 41 37  2  0
 40 42  1  0
 42 43  1  0
 43 44  2  0
 44 45  1  0
 45 48  2  0
 47 46  2  0
 46 43  1  0
 47 48  1  0
 48 49  1  0
 49 50  2  0
 50 51  1  0
 51 52  2  0
 52 47  1  0
M  END