
  SciTegic06051315212D

 24 26  0  0  0  0            999 V2000
    1.8806  -25.0440    0.0000 C   0  0
    1.8795  -25.8635    0.0000 C   0  0
    2.5875  -26.2725    0.0000 C   0  0
    3.2972  -25.8630    0.0000 C   0  0
    3.2943  -25.0404    0.0000 C   0  0
    2.5857  -24.6351    0.0000 C   0  0
    2.5833  -23.8179    0.0000 S   0  0
    3.2898  -23.4072    0.0000 N   0  0
    1.7871  -24.0246    0.0000 O   0  0
    2.1668  -23.1042    0.0000 O   0  0
    4.0005  -24.6291    0.0000 F   0  0
    1.1728  -24.6356    0.0000 F   0  0
    1.1714  -26.2716    0.0000 F   0  0
    4.0055  -26.2705    0.0000 F   0  0
    2.5873  -27.0897    0.0000 S   0  0
    3.2949  -27.4984    0.0000 C   0  0
    3.3836  -28.3138    0.0000 N   0  0
    4.0449  -27.1689    0.0000 S   0  0
    4.5916  -27.7763    0.0000 C   0  0
    4.1844  -28.4805    0.0000 C   0  0
    4.5905  -29.1833    0.0000 C   0  0
    5.4038  -29.1830    0.0000 C   0  0
    5.8093  -28.4741    0.0000 C   0  0
    5.4008  -27.7742    0.0000 C   0  0
  1  2  2  0
  2  3  1  0
  3  4  2  0
  4  5  1  0
  5  6  2  0
  6  1  1  0
  6  7  1  0
  7  8  1  0
  7  9  2  0
  7 10  2  0
  5 11  1  0
  1 12  1  0
  2 13  1  0
  4 14  1  0
  3 15  1  0
 15 16  1  0
 16 17  2  0
 17 20  1  0
 19 18  1  0
 18 16  1  0
 19 20  2  0
 20 21  1  0
 21 22  2  0
 22 23  1  0
 23 24  2  0
 24 19  1  0
M  END