
  CDK    9/16/09,10:6

 48 49  0  0  0  0  0  0  0  0999 V2000
   16.8937  -14.0633    0.0000 C   0  0  0  0  0  0  0  0  0  0  0  0
   16.8937  -14.8906    0.0000 C   0  0  0  0  0  0  0  0  0  0  0  0
   17.6089  -15.3042    0.0000 C   0  0  0  0  0  0  0  0  0  0  0  0
   18.3241  -14.8906    0.0000 C   0  0  0  0  0  0  0  0  0  0  0  0
   18.3241  -14.0633    0.0000 C   0  0  0  0  0  0  0  0  0  0  0  0
   17.6089  -13.6498    0.0000 C   0  0  0  0  0  0  0  0  0  0  0  0
   17.6078  -12.8271    0.0000 O   0  0  0  0  0  0  0  0  0  0  0  0
   17.6078  -16.1268    0.0000 O   0  0  0  0  0  0  0  0  0  0  0  0
   16.1822  -13.6561    0.0000 C   0  0  0  0  0  0  0  0  0  0  0  0
   16.1802  -12.8335    0.0000 C   0  0  0  0  0  0  0  0  0  0  0  0
   15.4640  -12.4217    0.0000 C   0  0  0  0  0  0  0  0  0  0  0  0
   16.8897  -12.4181    0.0000 C   0  0  0  0  0  0  0  0  0  0  0  0
   16.8877  -11.5955    0.0000 C   0  0  0  0  0  0  0  0  0  0  0  0
   17.6018  -11.1848    0.0000 C   0  0  0  0  0  0  0  0  0  0  0  0
   16.1761  -11.1883    0.0000 O   0  0  0  0  0  0  0  0  0  0  0  0
   17.5998  -10.3622    0.0000 C   0  0  0  0  0  0  0  0  0  0  0  0
   18.3093   -9.9468    0.0000 C   0  0  0  0  0  0  0  0  0  0  0  0
   16.8836   -9.9503    0.0000 C   0  0  0  0  0  0  0  0  0  0  0  0
   19.0255  -10.3588    0.0000 C   0  0  0  0  0  0  0  0  0  0  0  0
   19.7351   -9.9434    0.0000 C   0  0  0  0  0  0  0  0  0  0  0  0
   19.0276  -11.1814    0.0000 C   0  0  0  0  0  0  0  0  0  0  0  0
   20.5560   -9.9410    0.0000 C   0  0  0  0  0  0  0  0  0  0  0  0
   21.2671  -10.3546    0.0000 C   0  0  0  0  0  0  0  0  0  0  0  0
   20.7677   -9.1469    0.0000 O   0  0  0  0  0  0  0  0  0  0  0  0
   19.5211   -9.1499    0.0000 O   0  0  0  0  0  0  0  0  0  0  0  0
   18.7265   -8.9401    0.0000 C   0  0  0  0  0  0  0  0  0  0  0  0
   18.5078   -8.1419    0.0000 O   0  0  0  0  0  0  0  0  0  0  0  0
   18.1457   -9.5239    0.0000 N   0  0  0  0  0  0  0  0  0  0  0  0
   21.5664   -8.9348    0.0000 C   0  0  0  0  0  0  0  0  0  0  0  0
   21.2649  -11.1772    0.0000 C   0  0  0  0  0  0  0  0  0  0  0  0
   20.5487  -11.5845    0.0000 C   0  0  0  0  0  0  0  0  0  0  0  0
   20.5467  -12.4071    0.0000 C   0  0  0  0  0  0  0  0  0  0  0  0
   21.2608  -12.8225    0.0000 C   0  0  0  0  0  0  0  0  0  0  0  0
   19.0397  -13.6551    0.0000 N   0  0  0  0  0  0  0  0  0  0  0  0
   19.0405  -12.8325    0.0000 C   0  0  0  0  0  0  0  0  0  0  0  0
   18.3257  -12.4181    0.0000 O   0  0  0  0  0  0  0  0  0  0  0  0
   15.4532  -11.6093    0.0000 C   0  0  0  0  0  0  0  0  0  0  0  0
   16.8752  -10.7636    0.0000 N   0  0  0  0  0  0  0  0  0  0  0  0
   16.1691  -15.3087    0.0000 N   0  0  0  0  0  0  0  0  0  0  0  0
   15.4448  -14.8901    0.0000 C   0  0  0  0  0  0  0  0  0  0  0  0
   14.7201  -15.3081    0.0000 C   0  0  0  0  0  0  0  0  0  0  0  0
   13.9959  -14.8895    0.0000 N   0  0  0  0  0  0  0  0  0  0  0  0
   13.2712  -15.3076    0.0000 C   0  0  0  0  0  0  0  0  0  0  0  0
   13.9961  -14.0530    0.0000 C   0  0  0  0  0  0  0  0  0  0  0  0
   16.4522  -10.0386    0.0000 C   0  0  0  0  0  0  0  0  0  0  0  0
   15.6156  -10.0424    0.0000 C   0  0  0  0  0  0  0  0  0  0  0  0
   15.2006  -10.7687    0.0000 F   0  0  0  0  0  0  0  0  0  0  0  0
   15.1941   -9.3198    0.0000 F   0  0  0  0  0  0  0  0  0  0  0  0
 22 24  1  1  0  0  0 
 10 12  1  0  0  0  0 
 20 25  1  6  0  0  0 
  5  6  1  0  0  0  0 
 25 26  1  0  0  0  0 
 12 13  1  0  0  0  0 
 26 27  2  0  0  0  0 
 26 28  1  0  0  0  0 
 13 14  1  0  0  0  0 
 24 29  1  0  0  0  0 
  6  7  2  0  0  0  0 
 23 30  2  0  0  0  0 
 13 15  1  6  0  0  0 
 30 31  1  0  0  0  0 
  1  2  2  0  0  0  0 
 31 32  2  0  0  0  0 
 14 16  1  0  0  0  0 
 32 33  1  0  0  0  0 
  3  8  2  0  0  0  0 
  5 34  1  0  0  0  0 
 16 17  1  0  0  0  0 
 34 35  1  0  0  0  0 
  1  6  1  0  0  0  0 
 35 36  2  0  0  0  0 
 35 32  1  0  0  0  0 
 16 18  1  1  0  0  0 
 15 37  1  0  0  0  0 
  1  9  1  0  0  0  0 
 14 38  1  1  0  0  0 
 17 19  2  0  0  0  0 
  2 39  1  0  0  0  0 
  2  3  1  0  0  0  0 
 39 40  1  0  0  0  0 
 19 20  1  0  0  0  0 
 40 41  1  0  0  0  0 
  9 10  1  0  0  0  0 
 41 42  1  0  0  0  0 
 19 21  1  0  0  0  0 
 42 43  1  0  0  0  0 
  3  4  1  0  0  0  0 
 42 44  1  0  0  0  0 
 20 22  1  0  0  0  0 
 38 45  1  0  0  0  0 
 10 11  1  1  0  0  0 
 45 46  1  0  0  0  0 
 22 23  1  0  0  0  0 
 46 47  1  0  0  0  0 
  4  5  2  0  0  0  0 
 46 48  1  0  0  0  0 
M  END