
  SciTegic11201309402D

 37 41  0  0  0  0            999 V2000
    2.2040   -0.8584    0.0000 C   0  0
    3.0290   -0.8584    0.0000 C   0  0
    3.4415   -0.1440    0.0000 C   0  0  1  0  0  0
    3.0290    0.5705    0.0000 C   0  0
    2.2040    0.5705    0.0000 C   0  0  2  0  0  0
    1.7915    1.2850    0.0000 C   0  0
    0.9665    1.2850    0.0000 C   0  0
    0.5540    0.5705    0.0000 C   0  0  2  0  0  0
    0.9665   -0.1440    0.0000 C   0  0  1  0  0  0
    1.7915   -0.1440    0.0000 C   0  0  1  0  0  0
    0.5540   -0.8584    0.0000 C   0  0
   -0.2710   -0.8584    0.0000 C   0  0
   -0.6835   -0.1440    0.0000 C   0  0
   -0.2710    0.5705    0.0000 C   0  0  1  0  0  0
   -0.6835    1.2850    0.0000 C   0  0
   -1.5085    1.2850    0.0000 C   0  0
   -1.9210    0.5705    0.0000 C   0  0  2  0  0  0
   -1.5085   -0.1440    0.0000 C   0  0  1  0  0  0
    1.3790   -0.8584    0.0000 C   0  0
   -1.9210   -0.8584    0.0000 C   0  0
   -2.7460   -0.8584    0.0000 C   0  0  2  0  0  0
   -3.1585   -0.1440    0.0000 C   0  0
   -2.7460    0.5705    0.0000 C   0  0
    3.7286    1.0077    0.0000 C   0  0
    3.0578    1.3950    0.0000 C   0  0
    0.1415    1.2850    0.0000 C   0  0
   -0.3573    1.3910    0.0000 C   0  0
   -2.3335    1.2850    0.0000 C   0  0
   -3.4457   -1.2956    0.0000 C   0  0
   -2.7748   -1.6829    0.0000 C   0  0
    4.2665   -0.1440    0.0000 O   0  0
    0.9665   -1.5729    0.0000 O   0  0
   -4.1741   -0.9083    0.0000 O   0  0
   -3.4169   -2.1201    0.0000 O   0  0
   -1.0085   -1.0100    0.0000 H   0  0
    1.4665   -1.0100    0.0000 H   0  0
    2.7040    1.4365    0.0000 H   0  0
  1  2  1  0
  1 10  1  0
  2  3  1  0
  3  4  1  0
  3 31  1  1
  4  5  1  0
 24  4  1  0
 25  4  1  0
  5  6  1  0
 10  5  1  0
  6  7  1  0
  7  8  1  0
  8  9  1  0
 14  8  1  0
  8 26  1  1
 10  9  1  0
  9 11  1  0
 10 19  1  1
 11 12  1  0
 11 32  2  0
 12 13  2  0
 13 14  1  0
 18 13  1  0
 14 15  1  0
 14 27  1  6
 15 16  1  0
 16 17  1  0
 17 18  1  0
 17 23  1  0
 17 28  1  1
 18 20  1  0
 20 21  1  0
 21 22  1  0
 21 29  1  0
 21 30  1  6
 22 23  1  0
 29 33  2  0
 29 34  1  0
 18 35  1  1
  9 36  1  6
  5 37  1  6
M  END