
  SciTegic06051315212D

 33 38  0  0  0  0            999 V2000
    4.0042  -22.6791    0.0000 C   0  0
    4.0030  -23.5068    0.0000 N   0  0
    4.7181  -23.9198    0.0000 C   0  0
    5.4348  -23.5064    0.0000 C   0  0
    5.4320  -22.6755    0.0000 C   0  0
    4.7164  -22.2663    0.0000 C   0  0
    6.0836  -22.1689    0.0000 N   0  0
    6.8318  -21.0601    0.0000 N   0  0
    6.0558  -21.3430    0.0000 C   0  0
    7.3401  -21.7118    0.0000 C   0  0
    6.8761  -22.3935    0.0000 C   0  0
    7.2345  -23.1340    0.0000 C   0  0
    8.0567  -23.1940    0.0000 C   0  0
    8.5190  -22.5075    0.0000 C   0  0
    8.1581  -21.7698    0.0000 C   0  0
    4.7179  -24.7451    0.0000 N   0  0
    4.0030  -25.1576    0.0000 C   0  0
    5.3256  -20.9618    0.0000 C   0  0
    5.2948  -20.1360    0.0000 C   0  0
    3.9012  -21.0207    0.0000 C   0  0
    4.6311  -21.4014    0.0000 C   0  0
    3.8663  -20.1919    0.0000 C   0  0
    4.5679  -19.7523    0.0000 C   0  0
    4.5370  -18.9267    0.0000 C   0  0
    3.8053  -18.5398    0.0000 C   0  0
    3.1031  -18.9845    0.0000 C   0  0
    3.1374  -19.8085    0.0000 C   0  0
    3.2896  -24.7465    0.0000 C   0  0
    2.5769  -25.1554    0.0000 C   0  0
    2.5725  -25.9810    0.0000 C   0  0
    3.2869  -26.3961    0.0000 C   0  0
    4.0059  -25.9854    0.0000 C   0  0
    9.3424  -22.5643    0.0000 O   0  0
  1  2  2  0
  2  3  1  0
  3  4  2  0
  4  5  1  0
  5  6  2  0
  6  1  1  0
  5  7  1  0
  7 11  1  0
 10  8  1  0
  8  9  2  0
  9  7  1  0
 10 11  2  0
 11 12  1  0
 12 13  2  0
 13 14  1  0
 14 15  2  0
 15 10  1  0
  3 16  1  0
 16 17  1  0
 18 19  2  0
 19 23  1  0
 22 20  1  0
 20 21  2  0
 21 18  1  0
  9 18  1  0
 22 23  1  0
 23 24  2  0
 24 25  1  0
 25 26  2  0
 26 27  1  0
 27 22  2  0
 17 28  1  0
 17 32  1  0
 28 29  1  0
 29 30  1  0
 30 31  1  0
 31 32  1  0
 14 33  1  0
M  END