
  SciTegic01161211252D

 30 33  0  0  0  0            999 V2000
   16.5350  -25.0655    0.0000 N   0  0
   17.1968  -24.5722    0.0000 C   0  0
   16.9322  -23.7904    0.0000 C   0  0
   16.1068  -23.8004    0.0000 N   0  0
   15.8616  -24.5879    0.0000 C   0  0
   15.1472  -24.9936    0.0000 C   0  0
   14.4362  -24.5730    0.0000 C   0  0
   13.7185  -24.9784    0.0000 C   0  0
   13.7107  -25.8043    0.0000 C   0  0
   14.4265  -26.2230    0.0000 C   0  0
   15.1412  -25.8152    0.0000 C   0  0
   17.3363  -23.0706    0.0000 C   0  0
   18.1612  -23.0607    0.0000 N   0  0
   16.9152  -22.3612    0.0000 O   0  0
   18.5651  -22.3412    0.0000 N   0  0
   16.5473  -25.8883    0.0000 C   0  0
   15.8362  -26.3089    0.0000 C   0  0
   15.8459  -27.1331    0.0000 C   0  0
   16.5659  -27.5377    0.0000 C   0  0
   17.2776  -27.1120    0.0000 C   0  0
   17.2644  -26.2893    0.0000 C   0  0
   12.9932  -26.2114    0.0000 Cl  0  0
   16.5771  -28.3626    0.0000 Cl  0  0
   14.4444  -23.7481    0.0000 Cl  0  0
   17.9845  -24.8175    0.0000 S   0  0
   18.1658  -25.6224    0.0000 C   0  0
   19.3811  -22.2413    0.0000 C   0  0
   19.5429  -21.4324    0.0000 C   0  0
   18.8234  -21.0285    0.0000 C   0  0
   18.2171  -21.5880    0.0000 C   0  0
  2  3  2  0
 13 15  1  0
  7  8  1  0
  3  4  1  0
 16 17  2  0
  8  9  2  0
 17 18  1  0
  4  5  2  0
 18 19  2  0
  9 10  1  0
 19 20  1  0
  5  1  1  0
 20 21  2  0
 21 16  1  0
  1 16  1  0
 10 11  2  0
  9 22  1  0
 11  6  1  0
 19 23  1  0
  5  6  1  0
  7 24  1  0
  1  2  1  0
  2 25  1  0
  3 12  1  0
 25 26  1  0
 15 27  1  0
 12 13  1  0
  6  7  2  0
 12 14  2  0
 27 28  1  0
 28 29  1  0
 29 30  1  0
 30 15  1  0
M  END