
  Mrv0541 04051115152D          

 22 23  0  0  0  0            999 V2000
    1.3139    2.0414    0.0000 N   0  0  0  0  0  0  0  0  0  0  0  0
    0.5995    2.4539    0.0000 C   0  0  0  0  0  0  0  0  0  0  0  0
   -0.1150    2.0414    0.0000 N   0  0  0  0  0  0  0  0  0  0  0  0
   -0.1150    1.2164    0.0000 C   0  0  0  0  0  0  0  0  0  0  0  0
    0.5995    0.8039    0.0000 C   0  0  0  0  0  0  0  0  0  0  0  0
    1.3139    1.2164    0.0000 C   0  0  0  0  0  0  0  0  0  0  0  0
   -0.8295    0.8039    0.0000 N   0  0  0  0  0  0  0  0  0  0  0  0
   -0.8295   -0.0211    0.0000 C   0  0  0  0  0  0  0  0  0  0  0  0
   -0.1150   -0.4336    0.0000 C   0  0  0  0  0  0  0  0  0  0  0  0
   -0.1150   -1.2586    0.0000 C   0  0  0  0  0  0  0  0  0  0  0  0
   -0.8295   -1.6711    0.0000 C   0  0  0  0  0  0  0  0  0  0  0  0
   -1.5439   -1.2586    0.0000 C   0  0  0  0  0  0  0  0  0  0  0  0
   -1.5439   -0.4336    0.0000 C   0  0  0  0  0  0  0  0  0  0  0  0
   -0.8295   -2.4961    0.0000 S   0  0  0  0  0  0  0  0  0  0  0  0
   -0.8295   -3.3211    0.0000 O   0  0  0  0  0  0  0  0  0  0  0  0
   -0.0045   -2.4961    0.0000 O   0  0  0  0  0  0  0  0  0  0  0  0
   -1.6545   -2.4961    0.0000 N   0  0  0  0  0  0  0  0  0  0  0  0
    0.5995   -0.0211    0.0000 C   0  0  0  0  0  0  0  0  0  0  0  0
    1.3139   -0.4336    0.0000 O   0  0  0  0  0  0  0  0  0  0  0  0
    2.0284    0.8039    0.0000 Cl  0  0  0  0  0  0  0  0  0  0  0  0
    0.5995    3.2789    0.0000 S   0  0  0  0  0  0  0  0  0  0  0  0
   -0.1150    3.6914    0.0000 C   0  0  0  0  0  0  0  0  0  0  0  0
  2  1  2  0  0  0  0
  6  1  1  0  0  0  0
  2  3  1  0  0  0  0
  2 21  1  0  0  0  0
  4  3  2  0  0  0  0
  4  5  1  0  0  0  0
  4  7  1  0  0  0  0
  5  6  2  0  0  0  0
 18  5  1  0  0  0  0
  6 20  1  0  0  0  0
  8  7  1  0  0  0  0
  8  9  2  0  0  0  0
 13  8  1  0  0  0  0
 10  9  1  0  0  0  0
 10 11  2  0  0  0  0
 11 12  1  0  0  0  0
 11 14  1  0  0  0  0
 12 13  2  0  0  0  0
 15 14  2  0  0  0  0
 16 14  2  0  0  0  0
 17 14  1  0  0  0  0
 18 19  2  0  0  0  0
 22 21  1  0  0  0  0
M  END