
  SciTegic05071317032D

 36 35  0  0  0  0            999 V2000
   19.4902   -2.8208    0.0000 C   0  0
   19.4890   -3.6481    0.0000 C   0  0
   20.2039   -4.0610    0.0000 C   0  0
   20.9203   -3.6477    0.0000 C   0  0
   20.9175   -2.8172    0.0000 C   0  0
   20.2021   -2.4080    0.0000 C   0  0
   21.6304   -2.4019    0.0000 O   0  0
   22.3464   -2.8118    0.0000 C   0  0
   23.0593   -2.3966    0.0000 C   0  0
   23.7753   -2.8064    0.0000 C   0  0
   24.4882   -2.3912    0.0000 C   0  0
   25.2042   -2.8010    0.0000 C   0  0
   25.9172   -2.3858    0.0000 C   0  0
   26.6331   -2.7957    0.0000 C   0  0
   27.3461   -2.3804    0.0000 C   0  0
   28.0621   -2.7902    0.0000 C   0  0
   28.7750   -2.3751    0.0000 N   0  0
   29.4908   -2.7871    0.0000 C   0  0
   30.2016   -2.3754    0.0000 C   0  0
   30.2027   -1.5501    0.0000 N   0  0
   29.4868   -1.1381    0.0000 C   0  0
   28.7699   -1.5514    0.0000 C   0  0
   30.9172   -1.1376    0.0000 C   0  0
   31.6316   -1.5501    0.0000 C   0  0
   32.3461   -1.1376    0.0000 C   0  0
   33.0606   -1.5501    0.0000 C   0  0
   33.7751   -1.1376    0.0000 N   0  0
   34.4896   -1.5501    0.0000 C   0  0
   33.7751   -0.3126    0.0000 C   0  0
   34.4896    0.1001    0.0000 C   0  0
   33.0582    0.1000    0.0000 O   0  0
   35.2041   -0.3126    0.0000 F   0  0
   34.4896    0.9249    0.0000 F   0  0
   35.1999    0.5167    0.0000 F   0  0
   28.2257   -4.3470    0.0000 Cl  0  0
   30.2893   -4.3313    0.0000 Cl  0  0
  1  2  2  0
  2  3  1  0
  3  4  2  0
  4  5  1  0
  5  6  2  0
  6  1  1  0
  5  7  1  0
  7  8  1  0
  8  9  1  0
  9 10  1  0
 10 11  1  0
 11 12  1  0
 12 13  1  0
 13 14  1  0
 14 15  1  0
 15 16  1  0
 16 17  1  0
 17 18  1  0
 17 22  1  0
 18 19  1  0
 19 20  1  0
 20 21  1  0
 21 22  1  0
 20 23  1  0
 23 24  1  0
 24 25  1  0
 25 26  1  0
 26 27  1  0
 27 28  1  0
 27 29  1  0
 29 30  1  0
 29 31  2  0
 30 32  1  0
 30 33  1  0
 30 34  1  0
M  END