
  SciTegic11251413152D

 42 45  0  0  1  0            999 V2000
    5.0108   -2.6657    0.0000 O   0  0
    5.7975   -1.4420    0.0000 O   0  0
    7.8367   -2.0685    0.0000 O   0  0
    3.5688   -3.4959    0.0000 O   0  0
    7.7056   -3.4959    0.0000 O   0  0
    2.1412   -3.4959    0.0000 O   0  0
    6.6423   -3.3940    0.0000 O   0  0
    5.0108   -1.0196    0.0000 O   0  0
   10.1528   -3.7436    0.0000 O   0  0
    2.1412   -5.9722    0.0000 O   0  0
    9.1768   -5.0691    0.0000 O   0  0
    7.7639   -0.4224    0.0000 O   0  0
    0.7138   -5.1420    0.0000 O   0  0
    2.1412   -2.6657    0.0000 N   0  0
    3.5688   -0.1894    0.0000 N   0  0
    9.4828   -2.2432    0.0000 N   0  0
    3.5688   -5.1420    0.0000 N   0  0
    7.8804   -5.6663    0.0000 N   0  0
    0.0000   -3.9038    0.0000 N   0  0
    5.7246   -2.2578    0.0000 C   0  0  2  0  0  0
    4.2825   -2.2578    0.0000 C   0  0  1  0  0  0
    7.0210   -1.9810    0.0000 C   0  0  1  0  0  0
    6.4675   -2.5928    0.0000 C   0  0  1  0  0  0
    3.5688   -2.6657    0.0000 C   0  0  1  0  0  0
    6.6132   -1.2673    0.0000 C   0  0  1  0  0  0
    4.2825   -1.4275    0.0000 C   0  0  2  0  0  0
    2.8550   -2.2578    0.0000 C   0  0  2  0  0  0
    8.1718   -2.8259    0.0000 C   0  0  1  0  0  0
    3.5688   -1.0196    0.0000 C   0  0  1  0  0  0
    2.8550   -3.9038    0.0000 C   0  0  1  0  0  0
    9.0020   -2.8987    0.0000 C   0  0  1  0  0  0
    2.8550   -1.4275    0.0000 C   0  0
    2.8550   -4.7341    0.0000 C   0  0  1  0  0  0
    9.3370   -3.6561    0.0000 C   0  0  2  0  0  0
    8.0406   -4.2388    0.0000 C   0  0  2  0  0  0
    2.1412   -5.1420    0.0000 C   0  0  2  0  0  0
    8.8418   -4.3262    0.0000 C   0  0  1  0  0  0
    6.9482   -0.5098    0.0000 C   0  0
    1.4275   -3.9038    0.0000 C   0  0  1  0  0  0
    1.4275   -4.7341    0.0000 C   0  0  1  0  0  0
    7.5454   -4.9089    0.0000 C   0  0
    0.7138   -3.4959    0.0000 C   0  0
 20  1  1  6
 21  1  1  1
  2 20  1  0
  2 25  1  0
 22  3  1  1
 28  3  1  6
 24  4  1  6
 30  4  1  6
  5 28  1  0
  5 35  1  0
  6 30  1  0
  6 39  1  0
 23  7  1  1
 26  8  1  6
 34  9  1  1
 36 10  1  1
 37 11  1  6
 12 38  1  0
 40 13  1  6
 27 14  1  1
 29 15  1  1
 31 16  1  6
 33 17  1  6
 18 41  1  0
 19 42  1  0
 20 23  1  0
 21 24  1  0
 21 26  1  0
 22 23  1  0
 22 25  1  0
 24 27  1  0
 25 38  1  6
 26 29  1  0
 27 32  1  0
 28 31  1  0
 29 32  1  0
 30 33  1  0
 31 34  1  0
 33 36  1  0
 34 37  1  0
 35 37  1  0
 35 41  1  6
 36 40  1  0
 39 40  1  0
 39 42  1  1
M  END