
          11280714542D 1   1.00000     0.00000     0

 29 30  0     0  0            999 V2000
   -1.7083   -1.7750    0.0000 N   0  0  0  0  0  0           0  0  0
   -2.2333   -1.4792    0.0000 C   0  0  0  0  0  0           0  0  0
   -1.1958   -1.4750    0.0000 C   0  0  0  0  0  0           0  0  0
   -0.6708   -1.7667    0.0000 N   0  0  0  0  0  0           0  0  0
   -0.1500   -1.4667    0.0000 C   0  0  3  0  0  0           0  0  0
    0.9375   -1.4667    0.0000 N   0  0  3  0  0  0           0  0  0
   -2.7458   -1.7792    0.0000 C   0  0  0  0  0  0           0  0  0
    3.5917   -1.3542    0.0000 C   0  0  0  0  0  0           0  0  0
    2.3917   -2.3917    0.0000 C   0  0  0  0  0  0           0  0  0
    3.2917   -1.8750    0.0000 C   0  0  0  0  0  0           0  0  0
    2.6917   -1.8750    0.0000 C   0  0  0  0  0  0           0  0  0
    0.3917   -1.7792    0.0000 C   0  0  0  0  0  0           0  0  0
   -2.2333   -0.8792    0.0000 O   0  0  0  0  0  0           0  0  0
   -0.1500   -0.8292    0.0000 C   0  0  3  0  0  0           0  0  0
   -1.1958   -0.8750    0.0000 O   0  0  0  0  0  0           0  0  0
    3.2125   -0.8917    0.0000 O   0  0  0  0  0  0           0  0  0
    1.7917   -2.3917    0.0000 O   0  0  0  0  0  0           0  0  0
   -3.2708   -1.4792    0.0000 C   0  0  0  0  0  0           0  0  0
    0.3917   -0.5167    0.0000 C   0  0  0  0  0  0           0  0  0
    0.5125   -0.9917    0.0000 C   0  0  0  0  0  0           0  0  0
    0.9375   -0.8292    0.0000 C   0  0  0  0  0  0           0  0  0
    0.0667   -1.3500    0.0000 C   0  0  0  0  0  0           0  0  0
    4.1875   -1.2542    0.0000 O   0  0  0  0  0  0           0  0  0
    2.6917   -2.9167    0.0000 O   0  0  0  0  0  0           0  0  0
   -2.7458   -2.3875    0.0000 C   0  0  0  0  0  0           0  0  0
   -3.2708   -0.8792    0.0000 C   0  0  0  0  0  0           0  0  0
   -3.7833   -1.7792    0.0000 C   0  0  0  0  0  0           0  0  0
   -3.2708   -2.6875    0.0000 C   0  0  0  0  0  0           0  0  0
   -3.7833   -2.3875    0.0000 C   0  0  0  0  0  0           0  0  0
  2  1  1  0     0  0
  3  1  1  0     0  0
  4  3  1  0     0  0
  5  4  1  0     0  0
  6 12  1  0     0  0
  7  2  1  0     0  0
  9 11  1  0     0  0
 10  8  1  0     0  0
 11 10  2  0     0  0
 12  5  1  0     0  0
 13  2  2  0     0  0
 14  5  1  0     0  0
 15  3  2  0     0  0
 16  8  2  0     0  0
 17  9  2  0     0  0
 18  7  2  0     0  0
 19 14  1  0     0  0
 20 14  1  0     0  0
 21  6  1  0     0  0
 22  6  1  0     0  0
 23  8  1  0     0  0
 24  9  1  0     0  0
 25  7  1  0     0  0
 26 18  1  0     0  0
 27 18  1  0     0  0
 28 25  2  0     0  0
 29 28  1  0     0  0
 29 27  2  0     0  0
 20 22  1  0     0  0
 19 21  1  0     0  0
M  END