
  SciTegic11201309402D

 19 20  0  0  1  0            999 V2000
    3.8497   -5.6784    0.0000 N   0  0
    2.4217   -5.6784    0.0000 C   0  0  1  0  0  0
    3.1440   -6.0918    0.0000 C   0  0  2  0  0  0
    1.7077   -6.0918    0.0000 C   0  0
    0.9938   -5.6784    0.0000 O   0  0
    0.2756   -6.0918    0.0000 C   0  0
    2.4217   -4.8517    0.0000 O   0  0
   -1.1524   -6.9268    0.0000 C   0  0
   -0.4384   -5.6784    0.0000 C   0  0
    0.2798   -6.9185    0.0000 C   0  0
   -0.4342   -7.3319    0.0000 C   0  0
   -1.1607   -6.1001    0.0000 C   0  0
    4.5636   -6.0918    0.0000 C   0  0
    3.1440   -6.9185    0.0000 C   0  0
   -1.8664   -7.3402    0.0000 C   0  0
    4.5636   -6.9185    0.0000 C   0  0
    3.8497   -7.3319    0.0000 C   0  0
    1.7077   -5.2651    0.0000 H   0  0
    3.1357   -5.2651    0.0000 H   0  0
  2  3  1  0
  3  1  1  0
  4  2  1  0
  5  4  1  0
  6  5  1  0
  2  7  1  0
  8 11  1  0
  9  6  2  0
 10  6  1  0
 11 10  2  0
 12  9  1  0
 13  1  1  0
 14  3  1  0
 15  8  1  0
 16 13  1  0
 17 16  1  0
  2 18  1  6
  3 19  1  6
 17 14  1  0
 12  8  2  0
M  END