
          11280715322D 1   1.00000     0.00000     0

 32 35  0     0  0            999 V2000
    7.7542   -0.0292    0.0000 C   0  0  0  0  0  0           0  0  0
    9.0917   -0.1542    0.0000 N   0  3  0  0  0  0           0  0  0
    8.4667    0.3875    0.0000 C   0  0  0  0  0  0           0  0  0
    7.9375   -0.8375    0.0000 N   0  0  0  0  0  0           0  0  0
    4.1667   -1.2792    0.0000 C   0  0  0  0  0  0           0  0  0
    4.1667   -2.1042    0.0000 N   0  0  0  0  0  0           0  0  0
    7.0375    0.3833    0.0000 C   0  0  0  0  0  0           0  0  0
    8.7542   -0.9167    0.0000 O   0  0  0  0  0  0           0  0  0
    2.7417   -2.1042    0.0000 C   0  0  0  0  0  0           0  0  0
    3.4542   -2.5167    0.0000 C   0  0  0  0  0  0           0  0  0
    3.4542   -0.8667    0.0000 N   0  0  0  0  0  0           0  0  0
    2.7417   -1.2792    0.0000 C   0  0  0  0  0  0           0  0  0
    4.8875   -0.8667    0.0000 N   0  0  3  0  0  0           0  0  0
    6.3167   -0.0292    0.0000 N   0  0  3  0  0  0           0  0  0
    8.5417    1.2125    0.0000 C   0  0  0  0  0  0           0  0  0
    2.0292   -2.5167    0.0000 C   0  0  0  0  0  0           0  0  0
    2.0292   -0.8667    0.0000 C   0  0  0  0  0  0           0  0  0
    1.3125   -2.1042    0.0000 C   0  0  0  0  0  0           0  0  0
    9.9000    0.0125    0.0000 O   0  5  0  0  0  0           0  0  0
    1.3125   -1.2792    0.0000 C   0  0  0  0  0  0           0  0  0
    7.0292    1.2083    0.0000 O   0  0  0  0  0  0           0  0  0
    4.8875   -0.0292    0.0000 C   0  0  0  0  0  0           0  0  0
    5.6000   -1.2792    0.0000 C   0  0  0  0  0  0           0  0  0
    6.3167   -0.8667    0.0000 C   0  0  0  0  0  0           0  0  0
    5.6000    0.3750    0.0000 C   0  0  0  0  0  0           0  0  0
    7.8667    1.6875    0.0000 O   0  0  0  0  0  0           0  0  0
    3.4542   -3.3417    0.0000 N   0  0  0  0  0  0           0  0  0
    9.2917    1.5625    0.0000 N   0  0  0  0  0  0           0  0  0
    0.5917   -2.5250    0.0000 O   0  0  0  0  0  0           0  0  0
    0.5917   -0.8667    0.0000 O   0  0  0  0  0  0           0  0  0
   -0.1208   -1.2792    0.0000 C   0  0  0  0  0  0           0  0  0
   -0.1333   -2.1125    0.0000 C   0  0  0  0  0  0           0  0  0
  2  3  2  0     0  0
  3  1  1  0     0  0
  4  1  2  0     0  0
  5 13  1  0     0  0
  6  5  1  0     0  0
  7  1  1  0     0  0
  8  4  1  0     0  0
  9 12  2  0     0  0
 10  6  2  0     0  0
 11  5  2  0     0  0
 12 11  1  0     0  0
 13 22  1  0     0  0
 14  7  1  0     0  0
 15  3  1  0     0  0
 16  9  1  0     0  0
 17 12  1  0     0  0
 18 20  1  0     0  0
 19  2  1  0     0  0
 20 17  2  0     0  0
 21  7  2  0     0  0
 22 25  1  0     0  0
 23 24  1  0     0  0
 24 14  1  0     0  0
 25 14  1  0     0  0
 26 15  2  0     0  0
 27 10  1  0     0  0
 28 15  1  0     0  0
 29 18  1  0     0  0
 30 20  1  0     0  0
 31 30  1  0     0  0
 32 29  1  0     0  0
  2  8  1  0     0  0
 23 13  1  0     0  0
 10  9  1  0     0  0
 18 16  2  0     0  0
M  CHG  2   2   1  19  -1
M  END