
  CDK    9/16/09,9:47

 31 34  0  0  0  0  0  0  0  0999 V2000
   11.0642  -15.7209    0.0000 C   0  0  0  0  0  0  0  0  0  0  0  0
   11.0642  -16.5463    0.0000 C   0  0  0  0  0  0  0  0  0  0  0  0
   11.7767  -16.9548    0.0000 C   0  0  0  0  0  0  0  0  0  0  0  0
   11.7767  -15.3039    0.0000 C   0  0  0  0  0  0  0  0  0  0  0  0
   12.4890  -15.7209    0.0000 C   0  0  0  0  0  0  0  0  0  0  0  0
   12.4855  -16.5463    0.0000 C   0  0  0  0  0  0  0  0  0  0  0  0
   13.1946  -16.9597    0.0000 C   0  0  0  0  0  0  0  0  0  0  0  0
   13.9118  -16.5523    0.0000 C   0  0  0  0  0  0  0  0  0  0  0  0
   13.2016  -15.3089    0.0000 C   0  0  0  0  0  0  0  0  0  0  0  0
   13.9115  -15.7295    0.0000 C   0  0  0  0  0  0  0  0  0  0  0  0
   13.9284  -14.0824    0.0000 C   0  0  0  0  0  0  0  0  0  0  0  0
   13.2070  -14.4861    0.0000 C   0  0  0  0  0  0  0  0  0  0  0  0
   14.6382  -14.5029    0.0000 C   0  0  0  0  0  0  0  0  0  0  0  0
   14.6292  -15.3249    0.0000 C   0  0  0  0  0  0  0  0  0  0  0  0
   15.4082  -15.5874    0.0000 C   0  0  0  0  0  0  0  0  0  0  0  0
   15.8987  -14.9276    0.0000 C   0  0  0  0  0  0  0  0  0  0  0  0
   15.4227  -14.2575    0.0000 C   0  0  0  0  0  0  0  0  0  0  0  0
   10.3500  -16.9600    0.0000 O   0  0  0  0  0  0  0  0  0  0  0  0
   12.4816  -14.8954    0.0000 C   0  0  0  0  0  0  0  0  0  0  0  0
   14.6328  -13.6740    0.0000 C   0  0  0  0  0  0  0  0  0  0  0  0
   15.6863  -13.4753    0.0000 C   0  0  0  0  0  0  0  0  0  0  0  0
   16.4955  -13.3124    0.0000 C   0  0  0  0  0  0  0  0  0  0  0  0
   15.1407  -12.8558    0.0000 O   0  0  0  0  0  0  0  0  0  0  0  0
   13.9032  -14.9037    0.0000 H   0  0  0  0  0  0  0  0  0  0  0  0
   13.1945  -16.1336    0.0000 H   0  0  0  0  0  0  0  0  0  0  0  0
   14.6245  -16.1503    0.0000 H   0  0  0  0  0  0  0  0  0  0  0  0
   13.1900  -17.7852    0.0000 C   0  0  0  0  0  0  0  0  0  0  0  0
   16.2461  -14.2534    0.0000 O   0  0  0  0  0  0  0  0  0  0  0  0
   16.6624  -14.9663    0.0000 C   0  0  0  0  0  0  0  0  0  0  0  0
   17.4878  -14.9622    0.0000 C   0  0  0  0  0  0  0  0  0  0  0  0
   16.2532  -15.6831    0.0000 O   0  0  0  0  0  0  0  0  0  0  0  0
  2  3  1  0  0  0  0 
  5  9  1  0  0  0  0 
  6  7  1  0  0  0  0 
 14 15  1  0  0  0  0 
 15 16  1  0  0  0  0 
 16 17  1  0  0  0  0 
 17 13  1  0  0  0  0 
  7  8  1  0  0  0  0 
  2 18  2  0  0  0  0 
  8 10  1  0  0  0  0 
  5 19  1  1  0  0  0 
  9 10  1  0  0  0  0 
 13 20  1  1  0  0  0 
  3  6  2  0  0  0  0 
 17 21  1  1  0  0  0 
  5  4  1  0  0  0  0 
 21 22  1  0  0  0  0 
  5  6  1  0  0  0  0 
 21 23  2  0  0  0  0 
 10 24  1  1  0  0  0 
  9 12  1  0  0  0  0 
  9 25  1  6  0  0  0 
 10 14  1  0  0  0  0 
 14 26  1  6  0  0  0 
 13 11  1  0  0  0  0 
  7 27  1  6  0  0  0 
 11 12  1  0  0  0  0 
 17 28  1  0  0  0  0 
 13 14  1  0  0  0  0 
 28 29  1  0  0  0  0 
  1  2  1  0  0  0  0 
 29 30  1  0  0  0  0 
  1  4  1  0  0  0  0 
 29 31  2  0  0  0  0 
M  END