
          11280715342D 1   1.00000     0.00000     0

 25 25  0     0  0            999 V2000
    1.6667   -4.2250    0.0000 S   0  0  3  0  0  0           0  0  0
    4.9542   -4.2042    0.0000 C   0  0  0  0  0  0           0  0  0
    2.4875   -4.2167    0.0000 C   0  0  0  0  0  0           0  0  0
    8.7167   -6.2667    0.0000 C   0  0  0  0  0  0           0  0  0
    7.4417   -5.6167    0.0000 N   0  0  0  0  0  0           0  0  0
    6.6167   -5.6250    0.0000 C   0  0  0  0  0  0           0  0  0
    5.3750   -4.9167    0.0000 N   0  0  0  0  0  0           0  0  0
    1.6625   -5.0417    0.0000 O   0  0  0  0  0  0           0  0  0
    1.6667   -3.4000    0.0000 O   0  0  0  0  0  0           0  0  0
    7.8917   -6.3125    0.0000 C   0  0  3  0  0  0           0  0  0
    4.1292   -4.2125    0.0000 C   0  0  0  0  0  0           0  0  0
    0.8375   -4.2167    0.0000 N   0  0  0  0  0  0           0  0  0
    5.3667   -3.4917    0.0000 O   0  0  0  0  0  0           0  0  0
    9.0917   -5.5292    0.0000 O   0  0  0  0  0  0           0  0  0
    6.2042   -6.3417    0.0000 O   0  0  0  0  0  0           0  0  0
    2.8917   -3.5042    0.0000 C   0  0  0  0  0  0           0  0  0
    2.9042   -4.9292    0.0000 C   0  0  0  0  0  0           0  0  0
    3.7250   -4.9292    0.0000 C   0  0  0  0  0  0           0  0  0
    3.7125   -3.5000    0.0000 C   0  0  0  0  0  0           0  0  0
    6.2000   -4.9125    0.0000 C   0  0  0  0  0  0           0  0  0
    9.1667   -6.9625    0.0000 O   0  0  0  0  0  0           0  0  0
    7.5167   -7.0417    0.0000 C   0  0  0  0  0  0           0  0  0
    7.5917   -8.4750    0.0000 S   0  0  0  0  0  0           0  0  0
    7.9667   -7.7375    0.0000 C   0  0  0  0  0  0           0  0  0
    8.0417   -9.1667    0.0000 C   0  0  0  0  0  0           0  0  0
  2 11  1  0     0  0
  3  1  1  0     0  0
  4 10  1  0     0  0
  5  6  1  0     0  0
  6 20  1  0     0  0
  7  2  1  0     0  0
  8  1  2  0     0  0
  9  1  2  0     0  0
 10  5  1  0     0  0
 11 18  2  0     0  0
 12  1  1  0     0  0
 13  2  2  0     0  0
 14  4  2  0     0  0
 15  6  2  0     0  0
 16  3  1  0     0  0
 17  3  2  0     0  0
 18 17  1  0     0  0
 19 16  2  0     0  0
 20  7  1  0     0  0
 21  4  1  0     0  0
 22 10  1  0     0  0
 23 24  1  0     0  0
 24 22  1  0     0  0
 25 23  1  0     0  0
 11 19  1  0     0  0
M  END