
          03140815512D 1   1.00000     0.00000     0

 28 29  0     1  0            999 V2000
   18.9923   -3.5821    0.0000 C   0  0  0  0  0  0           0  0  0
   18.9923   -4.4101    0.0000 C   0  0  0  0  0  0           0  0  0
   19.7074   -4.8220    0.0000 N   0  0  0  0  0  0           0  0  0
   20.4226   -4.4101    0.0000 C   0  0  0  0  0  0           0  0  0
   20.4226   -3.5821    0.0000 C   0  0  0  0  0  0           0  0  0
   19.7074   -3.1660    0.0000 N   0  0  0  0  0  0           0  0  0
   21.1354   -4.8272    0.0000 O   0  0  0  0  0  0           0  0  0
   18.2736   -3.1723    0.0000 C   0  0  0  0  0  0           0  0  0
   18.2754   -4.8272    0.0000 C   0  0  0  0  0  0           0  0  0
   17.5573   -4.4121    0.0000 C   0  0  0  0  0  0           0  0  0
   16.8402   -4.8292    0.0000 C   0  0  0  0  0  0           0  0  0
   16.1221   -4.4142    0.0000 C   0  0  0  0  0  0           0  0  0
   15.4093   -4.8313    0.0000 N   0  0  0  0  0  0           0  0  0
   14.6957   -4.4215    0.0000 C   0  0  0  0  0  0           0  0  0
   13.9851   -5.6571    0.0000 N   0  0  0  0  0  0           0  0  0
   13.9851   -4.8333    0.0000 C   0  0  1  0  0  0           0  0  0
   13.2703   -4.4215    0.0000 C   0  0  0  0  0  0           0  0  0
   12.5597   -4.8333    0.0000 C   0  0  0  0  0  0           0  0  0
   12.5597   -5.6571    0.0000 C   0  0  0  0  0  0           0  0  0
   11.8449   -6.0690    0.0000 C   0  0  0  0  0  0           0  0  0
   11.1301   -5.6571    0.0000 C   0  0  0  0  0  0           0  0  0
   10.4153   -6.0690    0.0000 O   0  0  0  0  0  0           0  0  0
   11.1301   -4.8333    0.0000 C   0  0  0  0  0  0           0  0  0
   11.8449   -4.4215    0.0000 C   0  0  0  0  0  0           0  0  0
   14.6957   -3.5977    0.0000 O   0  0  0  0  0  0           0  0  0
   11.8449   -3.5977    0.0000 C   0  0  0  0  0  0           0  0  0
   13.2703   -6.0690    0.0000 C   0  0  0  0  0  0           0  0  0
   21.1367   -3.1714    0.0000 C   0  0  0  0  0  0           0  0  0
  4  7  2  0     0  0
  1  2  2  0     0  0
  1  8  1  0     0  0
  1  6  1  0     0  0
  2  9  1  0     0  0
  2  3  1  0     0  0
  9 10  1  0     0  0
  3  4  1  0     0  0
 10 11  1  0     0  0
  4  5  1  0     0  0
 11 12  1  0     0  0
  5  6  2  0     0  0
 12 13  1  0     0  0
 16 15  1  1     0  0
 14 16  1  0     0  0
 16 17  1  0     0  0
 17 18  1  0     0  0
 18 19  2  0     0  0
 19 20  1  0     0  0
 20 21  2  0     0  0
 21 22  1  0     0  0
 21 23  1  0     0  0
 23 24  2  0     0  0
 18 24  1  0     0  0
 14 25  2  0     0  0
 14 13  1  0     0  0
 24 26  1  0     0  0
 19 27  1  0     0  0
  5 28  1  0     0  0
M  END