
  SciTegic05071316162D

 19 20  0  0  0  0            999 V2000
   11.4434  -18.9274    0.0000 C   0  0
   11.4422  -19.7470    0.0000 C   0  0
   12.1503  -20.1559    0.0000 C   0  0
   12.8599  -19.7465    0.0000 C   0  0
   12.8571  -18.9238    0.0000 C   0  0
   12.1485  -18.5186    0.0000 C   0  0
   10.7356  -18.5190    0.0000 C   0  0  2  0  0  0
   10.0280  -18.9278    0.0000 C   0  0
    9.3202  -18.5193    0.0000 C   0  0
    8.6126  -18.9281    0.0000 N   0  0
    7.8666  -18.5920    0.0000 N   0  0
    7.3199  -19.1994    0.0000 C   0  0
    7.7287  -19.9071    0.0000 N   0  0
    8.5279  -19.7369    0.0000 C   0  0
   10.7354  -17.7018    0.0000 C   0  0
   11.4430  -17.2930    0.0000 C   0  0
   12.1508  -17.7015    0.0000 C   0  0
   12.8584  -17.2927    0.0000 C   0  0
   13.5683  -20.1540    0.0000 F   0  0
  1  2  2  0
  2  3  1  0
  3  4  2  0
  4  5  1  0
  5  6  2  0
  6  1  1  0
  1  7  1  0
  7  8  1  0
  8  9  1  0
  9 10  1  0
 10 11  1  0
 11 12  2  0
 12 13  1  0
 13 14  2  0
 14 10  1  0
  7 15  1  6
 15 16  1  0
 16 17  1  0
 17 18  1  0
  4 19  1  0
M  END