
          11280715062D 1   1.00000     0.00000     0

 56 55  0     0  0            999 V2000
    1.7042   -2.1917    0.0000 C   0  0  3  0  0  0           0  0  0
    1.0292   -1.9667    0.0000 C   0  0  3  0  0  0           0  0  0
    1.4292   -2.6875    0.0000 C   0  0  3  0  0  0           0  0  0
    2.9875   -2.5792    0.0000 C   0  0  3  0  0  0           0  0  0
    2.3542   -2.3542    0.0000 C   0  0  3  0  0  0           0  0  0
    1.4875   -1.3917    0.0000 C   0  0  0  0  0  0           0  0  0
    4.3917   -2.8375    0.0000 S   0  0  3  0  0  0           0  0  0
    2.5792   -1.8542    0.0000 O   0  0  0  0  0  0           0  0  0
   -0.4083   -1.6500    0.0000 S   0  0  3  0  0  0           0  0  0
    0.3292   -3.5917    0.0000 S   0  0  3  0  0  0           0  0  0
    2.3500   -3.7792    0.0000 S   0  0  3  0  0  0           0  0  0
    2.0667   -0.8042    0.0000 N   0  0  3  0  0  0           0  0  0
    3.6167   -3.1125    0.0000 O   0  0  0  0  0  0           0  0  0
    3.0667    0.2125    0.0000 C   0  0  0  0  0  0           0  0  0
    2.8625   -0.5875    0.0000 C   0  0  3  0  0  0           0  0  0
    0.3917   -1.4375    0.0000 O   0  0  0  0  0  0           0  0  0
    1.1417   -3.4542    0.0000 O   0  0  0  0  0  0           0  0  0
    2.7667   -3.0667    0.0000 O   0  0  0  0  0  0           0  0  0
    3.8625    0.4333    0.0000 N   0  0  0  0  0  0           0  0  0
    5.0167   -3.3667    0.0000 O   0  5  0  0  0  0           0  0  0
    2.7625   -4.5000    0.0000 O   0  5  0  0  0  0           0  0  0
    0.7375   -4.3042    0.0000 O   0  5  0  0  0  0           0  0  0
   -0.9958   -1.0625    0.0000 O   0  5  0  0  0  0           0  0  0
    1.8500   -0.0042    0.0000 C   0  0  0  0  0  0           0  0  0
    3.6417   -2.4792    0.0000 O   0  0  0  0  0  0           0  0  0
    4.8292   -2.3042    0.0000 O   0  0  0  0  0  0           0  0  0
   -0.4250   -3.9292    0.0000 O   0  0  0  0  0  0           0  0  0
   -0.2000   -2.9542    0.0000 O   0  0  0  0  0  0           0  0  0
    2.1292   -4.5792    0.0000 O   0  0  0  0  0  0           0  0  0
   -0.6333   -2.4417    0.0000 O   0  0  0  0  0  0           0  0  0
    1.5250   -3.7792    0.0000 O   0  0  0  0  0  0           0  0  0
    0.3000   -2.0667    0.0000 O   0  0  0  0  0  0           0  0  0
    0.6875   -1.1792    0.0000 O   0  0  0  0  0  0           0  0  0
    2.4792    0.7958    0.0000 O   0  0  0  0  0  0           0  0  0
    3.6542   -0.8000    0.0000 C   0  0  0  0  0  0           0  0  0
    4.0667    1.2333    0.0000 C   0  0  3  0  0  0           0  0  0
    1.0542    0.2083    0.0000 C   0  0  0  0  0  0           0  0  0
   -0.6958   -6.2167    0.0000 Na  0  3  0  0  0  0           0  0  0
    4.8625   -5.2167    0.0000 Na  0  3  0  0  0  0           0  0  0
    7.0417   -0.5917    0.0000 Na  0  3  0  0  0  0           0  0  0
   -2.4458   -1.0292    0.0000 Na  0  3  0  0  0  0           0  0  0
    3.8667   -1.5917    0.0000 C   0  0  0  0  0  0           0  0  0
    4.2292   -0.2167    0.0000 C   0  0  0  0  0  0           0  0  0
    0.8417    1.0000    0.0000 C   0  0  0  0  0  0           0  0  0
    0.4792   -0.3792    0.0000 C   0  0  0  0  0  0           0  0  0
    4.8667    1.4500    0.0000 C   0  0  0  0  0  0           0  0  0
    3.4792    1.8083    0.0000 C   0  0  0  0  0  0           0  0  0
    5.0292   -0.4250    0.0000 C   0  0  0  0  0  0           0  0  0
    4.6625   -1.8042    0.0000 C   0  0  0  0  0  0           0  0  0
   -0.3208   -0.1750    0.0000 C   0  0  0  0  0  0           0  0  0
    0.0417    1.2083    0.0000 C   0  0  0  0  0  0           0  0  0
    3.6917    2.6083    0.0000 C   0  0  0  0  0  0           0  0  0
    5.0750    2.2458    0.0000 C   0  0  0  0  0  0           0  0  0
   -0.5375    0.6250    0.0000 C   0  0  0  0  0  0           0  0  0
    5.2417   -1.2250    0.0000 C   0  0  0  0  0  0           0  0  0
    4.4917    2.8333    0.0000 C   0  0  0  0  0  0           0  0  0
  2  1  1  0     0  0
  3  2  1  0     0  0
  4  8  1  0     0  0
  5  4  1  0     0  0
  6  1  1  0     0  0
  7 13  1  0     0  0
  8  1  1  0     0  0
  9 16  1  0     0  0
 10 17  1  0     0  0
 11 18  1  0     0  0
 12  6  1  0     0  0
 13  4  1  0     0  0
 14 15  1  0     0  0
 15 12  1  0     0  0
 16  2  1  0     0  0
 17  3  1  0     0  0
 18  5  1  0     0  0
 19 14  1  0     0  0
 20  7  1  0     0  0
 21 11  1  0     0  0
 22 10  1  0     0  0
 23  9  1  0     0  0
 24 12  1  0     0  0
 25  7  2  0     0  0
 26  7  2  0     0  0
 27 10  2  0     0  0
 28 10  2  0     0  0
 29 11  2  0     0  0
 30  9  2  0     0  0
 31 11  2  0     0  0
 32  9  2  0     0  0
 33  6  2  0     0  0
 34 14  2  0     0  0
 35 15  1  0     0  0
 36 19  1  0     0  0
 37 24  1  0     0  0
 42 35  2  0     0  0
 43 35  1  0     0  0
 44 37  2  0     0  0
 45 37  1  0     0  0
 46 36  1  0     0  0
 47 36  1  0     0  0
 48 43  2  0     0  0
 49 42  1  0     0  0
 50 45  2  0     0  0
 51 44  1  0     0  0
 52 47  1  0     0  0
 53 46  1  0     0  0
 54 50  1  0     0  0
 55 48  1  0     0  0
 56 52  1  0     0  0
  5  3  1  0     0  0
 51 54  2  0     0  0
 49 55  2  0     0  0
 53 56  1  0     0  0
M  CHG  8  20  -1  21  -1  22  -1  23  -1  38   1  39   1  40   1  41   1
M  END