
          11280715362D 1   1.00000     0.00000     0

 13 14  0     0  0            999 V2000
    1.7792   -4.5625    0.0000 N   0  0  0  0  0  0           0  0  0
    2.3042   -3.8375    0.0000 C   0  0  0  0  0  0           0  0  0
    1.7750   -3.1250    0.0000 C   0  0  0  0  0  0           0  0  0
    0.9292   -3.4042    0.0000 C   0  0  0  0  0  0           0  0  0
    0.9375   -4.2917    0.0000 C   0  0  0  0  0  0           0  0  0
    3.1750   -1.2500    0.0000 N   0  0  0  0  0  0           0  0  0
    2.0417   -2.2792    0.0000 C   0  0  0  0  0  0           0  0  0
    0.1667   -2.9625    0.0000 C   0  0  0  0  0  0           0  0  0
    0.1667   -4.7292    0.0000 C   0  0  0  0  0  0           0  0  0
    2.9042   -2.0917    0.0000 C   0  0  0  0  0  0           0  0  0
    4.0292   -1.0417    0.0000 C   0  0  0  0  0  0           0  0  0
   -0.5958   -3.4042    0.0000 C   0  0  0  0  0  0           0  0  0
   -0.5958   -4.2917    0.0000 C   0  0  0  0  0  0           0  0  0
  2  1  1  0     0  0
  3  2  2  0     0  0
  4  5  1  0     0  0
  5  1  1  0     0  0
  6 10  1  0     0  0
  7  3  1  0     0  0
  8  4  2  0     0  0
  9  5  2  0     0  0
 10  7  1  0     0  0
 11  6  1  0     0  0
 12 13  2  0     0  0
 13  9  1  0     0  0
  3  4  1  0     0  0
  8 12  1  0     0  0
M  END