
          11280715572D 1   1.00000     0.00000     0

 75 79  0     1  0            999 V2000
   10.8750   -5.2292    0.0000 N   0  0  3  0  0  0           0  0  0
   10.3625   -4.9292    0.0000 C   0  0  0  0  0  0           0  0  0
    4.1125   -4.9667    0.0000 C   0  0  0  0  0  0           0  0  0
    5.6792   -5.2542    0.0000 C   0  0  0  0  0  0           0  0  0
    7.2375   -4.9417    0.0000 C   0  0  0  0  0  0           0  0  0
    8.8000   -5.2292    0.0000 C   0  0  0  0  0  0           0  0  0
   11.4375   -5.4417    0.0000 C   0  0  3  0  0  0           0  0  0
    3.5917   -5.2750    0.0000 C   0  0  1  0  0  0           0  0  0
    4.6375   -5.2625    0.0000 N   0  0  0  0  0  0           0  0  0
    7.7625   -5.2375    0.0000 N   0  0  0  0  0  0           0  0  0
    6.1917   -4.9500    0.0000 N   0  0  0  0  0  0           0  0  0
    9.3167   -4.9167    0.0000 N   0  0  0  0  0  0           0  0  0
    5.1500   -4.9542    0.0000 C   0  0  1  0  0  0           0  0  0
    8.2792   -4.9292    0.0000 C   0  0  1  0  0  0           0  0  0
    6.7167   -5.2417    0.0000 C   0  0  2  0  0  0           0  0  0
    3.0750   -4.9750    0.0000 N   0  0  0  0  0  0           0  0  0
    2.5500   -5.2792    0.0000 C   0  0  0  0  0  0           0  0  0
   11.5917   -6.0292    0.0000 C   0  0  0  0  0  0           0  0  0
    9.8417   -5.2292    0.0000 C   0  0  1  0  0  0           0  0  0
   10.8500   -7.6417    0.0000 C   0  0  0  0  0  0           0  0  0
    1.5125   -5.2875    0.0000 C   0  0  0  0  0  0           0  0  0
    2.0292   -4.9792    0.0000 C   0  0  0  0  0  0           0  0  0
    0.9917   -4.9917    0.0000 C   0  0  0  0  0  0           0  0  0
   10.3292   -7.9292    0.0000 N   0  0  0  0  0  0           0  0  0
   10.3667   -4.3292    0.0000 O   0  0  0  0  0  0           0  0  0
    4.1042   -4.3667    0.0000 O   0  0  0  0  0  0           0  0  0
    8.8042   -5.8292    0.0000 O   0  0  0  0  0  0           0  0  0
    5.6792   -5.8542    0.0000 O   0  0  0  0  0  0           0  0  0
    7.2292   -4.3417    0.0000 O   0  0  0  0  0  0           0  0  0
    5.1500   -4.3542    0.0000 C   0  0  0  0  0  0           0  0  0
   11.1625   -6.4500    0.0000 O   0  0  0  0  0  0           0  0  0
    2.5542   -5.8792    0.0000 O   0  0  0  0  0  0           0  0  0
    6.7250   -5.8417    0.0000 C   0  0  0  0  0  0           0  0  0
    8.2667   -4.3292    0.0000 C   0  0  0  0  0  0           0  0  0
   10.8542   -7.0417    0.0000 N   0  0  0  0  0  0           0  0  0
   12.1667   -6.1792    0.0000 N   0  0  0  0  0  0           0  0  0
   11.3667   -7.9417    0.0000 N   0  0  0  0  0  0           0  0  0
   10.9042   -4.6292    0.0000 C   0  0  0  0  0  0           0  0  0
    0.4750   -5.2917    0.0000 C   0  0  0  0  0  0           0  0  0
    5.6667   -4.0500    0.0000 C   0  0  0  0  0  0           0  0  0
    6.7042   -3.4417    0.0000 C   0  0  0  0  0  0           0  0  0
    4.1167   -6.1667    0.0000 O   0  0  0  0  0  0           0  0  0
    3.6000   -5.8667    0.0000 C   0  0  0  0  0  0           0  0  0
    5.6625   -3.4500    0.0000 C   0  0  0  0  0  0           0  0  0
    6.1917   -4.3417    0.0000 C   0  0  0  0  0  0           0  0  0
    6.1792   -3.1417    0.0000 C   0  0  0  0  0  0           0  0  0
    6.7125   -4.0417    0.0000 C   0  0  0  0  0  0           0  0  0
   11.8167   -4.9792    0.0000 C   0  0  0  0  0  0           0  0  0
    7.2167   -3.1375    0.0000 O   0  0  0  0  0  0           0  0  0
    1.5167   -5.8792    0.0000 C   0  0  0  0  0  0           0  0  0
    4.6417   -7.0667    0.0000 C   0  0  0  0  0  0           0  0  0
   11.4917   -4.4792    0.0000 C   0  0  0  0  0  0           0  0  0
    9.8292   -5.8292    0.0000 C   0  0  0  0  0  0           0  0  0
    1.0042   -6.1875    0.0000 C   0  0  0  0  0  0           0  0  0
    8.7875   -4.0292    0.0000 C   0  0  3  0  0  0           0  0  0
    7.2417   -6.1417    0.0000 C   0  0  3  0  0  0           0  0  0
    0.9917   -4.3917    0.0000 C   0  0  0  0  0  0           0  0  0
    4.1250   -6.7667    0.0000 C   0  0  0  0  0  0           0  0  0
    0.4792   -5.8917    0.0000 C   0  0  0  0  0  0           0  0  0
   12.3167   -6.7667    0.0000 C   0  0  0  0  0  0           0  0  0
   10.3417   -6.7375    0.0000 C   0  0  0  0  0  0           0  0  0
   -0.0458   -4.9917    0.0000 C   0  0  0  0  0  0           0  0  0
    4.6417   -7.6667    0.0000 C   0  0  0  0  0  0           0  0  0
    5.1542   -6.7625    0.0000 C   0  0  0  0  0  0           0  0  0
   10.3500   -6.1375    0.0000 C   0  0  0  0  0  0           0  0  0
    8.7792   -3.4292    0.0000 C   0  0  0  0  0  0           0  0  0
    9.3125   -4.3167    0.0000 C   0  0  0  0  0  0           0  0  0
    7.7417   -5.8042    0.0000 C   0  0  0  0  0  0           0  0  0
    7.3125   -6.7375    0.0000 C   0  0  0  0  0  0           0  0  0
   12.9000   -6.9167    0.0000 C   0  0  0  0  0  0           0  0  0
    0.4667   -4.0917    0.0000 C   0  0  0  0  0  0           0  0  0
   -0.0458   -4.4000    0.0000 C   0  0  0  0  0  0           0  0  0
    5.6792   -7.0542    0.0000 C   0  0  0  0  0  0           0  0  0
    5.1667   -7.9625    0.0000 C   0  0  0  0  0  0           0  0  0
    5.6792   -7.6625    0.0000 C   0  0  0  0  0  0           0  0  0
  2  1  1  0     0  0
  3  9  1  0     0  0
  4 11  1  0     0  0
  5 10  1  0     0  0
  6 12  1  0     0  0
  7  1  1  0     0  0
  8  3  1  0     0  0
  9 13  1  0     0  0
 10 14  1  0     0  0
 11 15  1  0     0  0
 12 19  1  0     0  0
 13  4  1  0     0  0
 14  6  1  0     0  0
 15  5  1  0     0  0
 16  8  1  0     0  0
 17 16  1  0     0  0
 18  7  1  0     0  0
 19  2  1  0     0  0
 20 35  2  0     0  0
 21 22  1  0     0  0
 22 17  1  0     0  0
 23 21  2  0     0  0
 24 20  1  0     0  0
 25  2  2  0     0  0
 26  3  2  0     0  0
 27  6  2  0     0  0
 28  4  2  0     0  0
 29  5  2  0     0  0
 13 30  1  1     0  0
 31 18  2  0     0  0
 32 17  2  0     0  0
 15 33  1  1     0  0
 14 34  1  1     0  0
 35 61  1  0     0  0
 36 18  1  0     0  0
 37 20  1  0     0  0
 38  1  1  0     0  0
 39 23  1  0     0  0
 40 30  1  0     0  0
 41 47  2  0     0  0
 42 43  1  0     0  0
  8 43  1  6     0  0
 44 40  1  0     0  0
 45 40  2  0     0  0
 46 44  2  0     0  0
 47 45  1  0     0  0
 48  7  1  0     0  0
 49 41  1  0     0  0
 50 21  1  0     0  0
 51 58  1  0     0  0
 52 38  1  0     0  0
 19 53  1  6     0  0
 54 50  2  0     0  0
 55 34  1  0     0  0
 56 33  1  0     0  0
 57 23  1  0     0  0
 58 42  1  0     0  0
 59 54  1  0     0  0
 60 36  1  0     0  0
 61 65  1  0     0  0
 62 39  1  0     0  0
 63 51  2  0     0  0
 64 51  1  0     0  0
 65 53  1  0     0  0
 66 55  1  0     0  0
 67 55  1  0     0  0
 68 56  1  0     0  0
 69 56  1  0     0  0
 70 60  1  0     0  0
 71 57  2  0     0  0
 72 71  1  0     0  0
 73 64  2  0     0  0
 74 63  1  0     0  0
 75 73  1  0     0  0
 52 48  1  0     0  0
 46 41  1  0     0  0
 74 75  2  0     0  0
 39 59  2  0     0  0
 72 62  2  0     0  0
M  END