
  SciTegic12171313052D

 25 25  0  0  0  0            999 V2000
    7.7729   -2.5006    0.0000 C   0  0
    8.4875   -2.0882    0.0000 C   0  0
    7.0585   -2.0882    0.0000 F   0  0
    7.7729   -3.3257    0.0000 F   0  0
    7.0563   -2.9090    0.0000 F   0  0
    9.2019   -2.5006    0.0000 O   0  0
    8.4875   -1.2632    0.0000 O   0  0
   12.5565   -4.5060    0.0000 C   0  0  1  0  0  0
   11.9348   -5.0496    0.0000 C   0  0
   12.9689   -5.2204    0.0000 C   0  0
   13.2753   -4.0938    0.0000 N   0  0
   12.5565   -2.0073    0.0000 C   0  0
   12.5565   -2.8402    0.0000 N   0  0
   11.8377   -3.2609    0.0000 C   0  0
   13.2753   -3.2609    0.0000 C   0  0
   11.1152   -2.8466    0.0000 O   0  0
   13.9978   -2.8466    0.0000 N   0  0
   11.8377   -4.0938    0.0000 C   0  0
   11.2238   -4.6313    0.0000 C   0  0
   10.5057   -5.0372    0.0000 C   0  0
    9.7985   -4.6168    0.0000 C   0  0
    9.0809   -5.0221    0.0000 C   0  0
    9.0729   -5.8478    0.0000 C   0  0
    9.7885   -6.2668    0.0000 C   0  0
   10.5032   -5.8590    0.0000 C   0  0
  1  2  1  0
  1  3  1  0
  1  4  1  0
  1  5  1  0
  2  6  1  0
  2  7  2  0
  9  8  1  0
  8 10  1  1
 14 18  1  0
 11 15  2  0
 15 13  1  0
 14 16  2  0
 15 17  1  0
  8 11  1  0
 13 12  1  0
 14 13  1  0
 18  8  1  0
  9 19  1  0
 19 20  1  0
 20 21  2  0
 21 22  1  0
 22 23  2  0
 23 24  1  0
 24 25  2  0
 25 20  1  0
M  END