
          11280715252D 1   1.00000     0.00000     0

 12 13  0     0  0            999 V2000
    4.9792   -1.1542    0.0000 C   0  0  0  0  0  0           0  0  0
    4.9792   -1.7542    0.0000 C   0  0  0  0  0  0           0  0  0
    5.5000   -0.8542    0.0000 C   0  0  3  0  0  0           0  0  0
    5.5000   -2.0542    0.0000 C   0  0  0  0  0  0           0  0  0
    4.4625   -0.8417    0.0000 O   0  0  0  0  0  0           0  0  0
    6.0250   -1.7542    0.0000 C   0  0  0  0  0  0           0  0  0
    6.0250   -1.1500    0.0000 C   0  0  0  0  0  0           0  0  0
    5.4917   -0.2542    0.0000 N   0  0  0  0  0  0           0  0  0
    4.4542   -2.0625    0.0000 C   0  0  0  0  0  0           0  0  0
    5.5000   -2.6625    0.0000 C   0  0  0  0  0  0           0  0  0
    4.4542   -2.6667    0.0000 C   0  0  0  0  0  0           0  0  0
    4.9792   -2.9625    0.0000 C   0  0  0  0  0  0           0  0  0
  2  1  1  0     0  0
  3  1  1  0     0  0
  4  2  2  0     0  0
  5  1  2  0     0  0
  6  7  1  0     0  0
  7  3  1  0     0  0
  3  8  1  0     0  0
  9  2  1  0     0  0
 10  4  1  0     0  0
 11  9  2  0     0  0
 12 11  1  0     0  0
  4  6  1  0     0  0
 10 12  2  0     0  0
M  END