
  SciTegic12201609542D

 32 36  0  0  0  0            999 V2000
    0.4679    5.2953    0.0000 C   0  0
   -0.7429    6.1802    0.0000 N   0  0
   -0.5819    7.6715    0.0000 C   0  0
    0.7901    8.2778    0.0000 C   0  0
    2.0012    7.3927    0.0000 C   0  0
    1.8402    5.9014    0.0000 N   0  0
   -1.7918    8.5596    0.0000 N   0  0
    1.4351    0.3168    0.0000 C   0  0
    1.4351   -1.1556    0.0000 N   0  0
    0.0186   -1.6401    0.0000 C   0  0
   -0.8574   -0.4287    0.0000 C   0  0
    0.0186    0.7828    0.0000 C   0  0
    1.3979    1.3979    0.0000 C   0  0
    1.5656    2.8889    0.0000 C   0  0
    0.3168    3.8022    0.0000 N   0  0
   -1.0251    3.1871    0.0000 C   0  0
   -1.1742    1.6588    0.0000 C   0  0
    2.6555   -2.0253    0.0000 C   0  0
    3.6380   -4.4926    0.0000 N   0  0
    2.5134   -3.5194    0.0000 C   0  0
    1.2223   -4.2577    0.0000 C   0  0
    1.5456   -5.7224    0.0000 C   0  0
    3.0385   -5.8676    0.0000 C   0  0
   -1.6286   10.0515    0.0000 C   0  0
   -2.8385   10.9396    0.0000 C   0  0
   -2.6776   12.4309    0.0000 C   0  0
   -3.8886   13.3160    0.0000 C   0  0
   -5.2607   12.7098    0.0000 C   0  0
   -5.4217   11.2185    0.0000 C   0  0
   -4.2106   10.3334    0.0000 C   0  0
   -6.2295   13.4179    0.0000 Cl  0  0
   -1.5800   12.9160    0.0000 Cl  0  0
  1  2  1  0
  2  3  2  0
  3  4  1  0
  4  5  2  0
  5  6  1  0
  1  6  2  0
  3  7  1  0
  8  9  1  0
  9 10  1  0
 10 11  1  0
 11 12  1  0
 12 13  1  0
 13 14  1  0
 14 15  1  0
 15 16  1  0
 16 17  1  0
  8 12  1  0
 12 17  1  0
 19 20  1  0
 20 21  1  0
 21 22  1  0
 22 23  1  0
 19 23  1  0
 18 20  1  0
  9 18  1  0
  1 15  1  0
 24 25  1  0
 25 26  1  0
 26 27  2  0
 27 28  1  0
 28 29  2  0
 29 30  1  0
 25 30  2  0
 28 31  1  0
 26 32  1  0
  7 24  1  0
M  END