
  SciTegic12091613522D

 27 30  0  0  0  0            999 V2000
    9.0550    2.7274    0.0000 C   0  0
    8.0574    3.8486    0.0000 C   0  0
   -2.3155    0.7475    0.0000 C   0  0
   -2.3155   -0.7475    0.0000 C   0  0
   -1.0028   -1.5132    0.0000 C   0  0
   -1.0028    1.5132    0.0000 C   0  0
    0.2917    0.7475    0.0000 C   0  0
    0.2917   -0.7475    0.0000 C   0  0
    1.7138   -1.2033    0.0000 N   0  0
    2.5889    0.0182    0.0000 C   0  0
    1.7138    1.2033    0.0000 C   0  0
    2.1812    2.6271    0.0000 C   0  0
    3.6500    2.9355    0.0000 N   0  0
    4.1200    4.3600    0.0000 C   0  0
    5.5886    4.6654    0.0000 C   0  0
    6.5873    3.5462    0.0000 N   0  0
    1.3808    3.5211    0.0000 O   0  0
    8.4352    4.9876    0.0000 O   0  0
    4.6488    1.8163    0.0000 C   0  0
    6.1174    2.1217    0.0000 C   0  0
   -3.6187    1.4919    0.0000 N   0  3
   -3.6251    2.6919    0.0000 O   0  0
   -4.6549    0.8867    0.0000 O   0  5
   10.5335    2.8887    0.0000 S   0  0
   11.1327    1.5136    0.0000 C   0  0
   10.0101    0.5188    0.0000 C   0  0
    8.7170    1.2791    0.0000 C   0  0
  1  2  1  0
  3  4  2  0
  4  5  1  0
  5  8  2  0
  7  6  2  0
  6  3  1  0
  7  8  1  0
  8  9  1  0
  9 10  1  0
 10 11  2  0
 11  7  1  0
 11 12  1  0
 12 13  1  0
 13 14  1  0
 14 15  1  0
 15 16  1  0
 16  2  1  0
 12 17  2  0
  2 18  2  0
 13 19  1  0
 16 20  1  0
 19 20  1  0
 21 22  2  0
 21 23  1  0
  3 21  1  0
  1 24  1  0
 24 25  1  0
 25 26  2  0
 26 27  1  0
 27  1  2  0
M  CHG  2  21   1  23  -1
M  END