
          11280715402D 1   1.00000     0.00000     0

 49 53  0     0  0            999 V2000
   -0.7583    4.1167    0.0000 S   0  0  3  0  0  0           0  0  0
   -0.0375    2.8833    0.0000 C   0  0  0  0  0  0           0  0  0
   -0.0458    3.7083    0.0000 N   0  0  0  0  0  0           0  0  0
    0.6792    2.4708    0.0000 C   0  0  0  0  0  0           0  0  0
   -0.7500    2.4708    0.0000 N   0  0  0  0  0  0           0  0  0
   -0.0375    1.2333    0.0000 N   0  0  0  0  0  0           0  0  0
   -0.7500    1.6458    0.0000 C   0  0  0  0  0  0           0  0  0
    0.6792    1.6458    0.0000 C   0  0  0  0  0  0           0  0  0
   -0.7583    4.9417    0.0000 C   0  0  0  0  0  0           0  0  0
    1.3917    2.8958    0.0000 O   0  0  0  0  0  0           0  0  0
   -0.0458    5.3417    0.0000 N   0  0  0  0  0  0           0  0  0
    4.2542   -2.0625    0.0000 C   0  0  0  0  0  0           0  0  0
   -0.9708    3.3208    0.0000 O   0  0  0  0  0  0           0  0  0
    2.1042    2.4833    0.0000 C   0  0  0  0  0  0           0  0  0
   -1.5583    4.3292    0.0000 O   0  0  0  0  0  0           0  0  0
    2.8250   -0.4167    0.0000 C   0  0  0  0  0  0           0  0  0
    2.1125   -0.0042    0.0000 C   0  0  0  0  0  0           0  0  0
    4.9667   -1.6500    0.0000 N   0  0  0  0  0  0           0  0  0
   -0.0458    6.1750    0.0000 C   0  0  0  0  0  0           0  0  0
   -1.4625    1.2333    0.0000 C   0  0  0  0  0  0           0  0  0
    4.2542   -2.8875    0.0000 O   0  0  0  0  0  0           0  0  0
   -0.7625    6.5875    0.0000 C   0  0  0  0  0  0           0  0  0
   -1.4708    5.3417    0.0000 C   0  0  0  0  0  0           0  0  0
   -2.8958    0.4083    0.0000 N   0  0  0  0  0  0           0  0  0
    2.8125    2.8958    0.0000 C   0  0  0  0  0  0           0  0  0
   -1.4750    6.1667    0.0000 C   0  0  0  0  0  0           0  0  0
    1.3917    1.2333    0.0000 O   0  0  0  0  0  0           0  0  0
    3.5375   -1.6500    0.0000 O   0  0  0  0  0  0           0  0  0
    5.6792   -2.0542    0.0000 C   0  0  0  0  0  0           0  0  0
   -0.7708    7.4042    0.0000 C   0  0  3  0  0  0           0  0  0
    2.8042    3.7208    0.0000 O   0  0  0  0  0  0           0  0  0
    1.3917    0.4083    0.0000 C   0  0  0  0  0  0           0  0  0
    3.5375   -0.8250    0.0000 C   0  0  0  0  0  0           0  0  0
    2.1042    1.6583    0.0000 C   0  0  0  0  0  0           0  0  0
   -2.8958    1.2333    0.0000 C   0  0  0  0  0  0           0  0  0
   -2.1750   -0.0042    0.0000 C   0  0  0  0  0  0           0  0  0
   -2.1833    1.6458    0.0000 C   0  0  0  0  0  0           0  0  0
   -1.4625    0.4083    0.0000 C   0  0  0  0  0  0           0  0  0
    3.5292    2.4958    0.0000 C   0  0  0  0  0  0           0  0  0
   -0.0583    7.8292    0.0000 C   0  0  0  0  0  0           0  0  0
   -1.4833    7.8167    0.0000 C   0  0  0  0  0  0           0  0  0
    5.6792   -2.8792    0.0000 C   0  0  0  0  0  0           0  0  0
    6.3917   -1.6417    0.0000 C   0  0  0  0  0  0           0  0  0
    2.0875    4.1250    0.0000 C   0  0  0  0  0  0           0  0  0
    2.8167    1.2458    0.0000 C   0  0  0  0  0  0           0  0  0
    3.5375    1.6625    0.0000 C   0  0  0  0  0  0           0  0  0
    7.1042   -2.0500    0.0000 C   0  0  0  0  0  0           0  0  0
    6.3917   -3.2917    0.0000 C   0  0  0  0  0  0           0  0  0
    7.1042   -2.8792    0.0000 C   0  0  0  0  0  0           0  0  0
  2  3  1  0     0  0
  3  1  1  0     0  0
  4  2  2  0     0  0
  5  2  1  0     0  0
  6  7  1  0     0  0
  7  5  2  0     0  0
  8  4  1  0     0  0
  9  1  1  0     0  0
 10  4  1  0     0  0
 11  9  2  0     0  0
 12 28  1  0     0  0
 13  1  2  0     0  0
 14 10  1  0     0  0
 15  1  2  0     0  0
 16 17  3  0     0  0
 17 32  1  0     0  0
 18 12  1  0     0  0
 19 11  1  0     0  0
 20  7  1  0     0  0
 21 12  2  0     0  0
 22 26  1  0     0  0
 23  9  1  0     0  0
 24 36  1  0     0  0
 25 14  1  0     0  0
 26 23  2  0     0  0
 27  8  1  0     0  0
 28 33  1  0     0  0
 29 18  1  0     0  0
 30 22  1  0     0  0
 31 25  1  0     0  0
 32 27  1  0     0  0
 33 16  1  0     0  0
 34 14  2  0     0  0
 35 37  1  0     0  0
 36 38  2  0     0  0
 37 20  2  0     0  0
 38 20  1  0     0  0
 39 25  2  0     0  0
 40 30  1  0     0  0
 41 30  1  0     0  0
 42 29  2  0     0  0
 43 29  1  0     0  0
 44 31  1  0     0  0
 45 34  1  0     0  0
 46 45  2  0     0  0
 47 43  2  0     0  0
 48 42  1  0     0  0
 49 47  1  0     0  0
 19 22  2  0     0  0
  8  6  2  0     0  0
 35 24  2  0     0  0
 46 39  1  0     0  0
 48 49  2  0     0  0
M  END