
  SciTegic11201309402D

 73 76  0  0  1  0            999 V2000
    7.8500   -2.6917    0.0000 N   0  0
    2.7542   -2.6917    0.0000 C   0  0
    7.3417   -2.4042    0.0000 C   0  0
    4.2792   -2.4042    0.0000 C   0  0
    3.2542   -2.4042    0.0000 N   0  0
    8.5125   -1.8792    0.0000 C   0  0
    5.8125   -2.6917    0.0000 C   0  0
    4.7875   -2.6917    0.0000 N   0  0
    1.7292   -2.6917    0.0000 N   0  0
    6.8292   -2.6917    0.0000 C   0  0  1  0  0  0
    2.2417   -2.4042    0.0000 C   0  0  1  0  0  0
    3.7667   -2.6917    0.0000 C   0  0  1  0  0  0
    8.3875   -2.4542    0.0000 C   0  0
    1.2167   -2.4042    0.0000 C   0  0
    6.3167   -2.4042    0.0000 N   0  0
    8.0667   -1.4917    0.0000 N   0  0
    5.3042   -2.4042    0.0000 C   0  0  1  0  0  0
    7.8000   -4.1917    0.0000 N   0  0
    8.2000   -0.9042    0.0000 C   0  0  2  0  0  0
    1.7292   -5.0542    0.0000 C   0  0
    7.7625   -0.5167    0.0000 C   0  0
    7.0875   -3.9875    0.0000 C   0  0
    6.8292   -3.2792    0.0000 C   0  0
    0.1917   -2.4042    0.0000 N   0  0
    7.1250   -5.2042    0.0000 N   0  0
    7.8167   -4.9542    0.0000 C   0  0
   -0.3083   -2.6917    0.0000 C   0  0
    0.7125   -2.6917    0.0000 C   0  0  1  0  0  0
    2.7542   -3.2792    0.0000 O   0  0
    2.2417   -5.3500    0.0000 N   0  0
    7.3417   -1.8167    0.0000 O   0  0
    4.2792   -1.8167    0.0000 O   0  0
    3.7667   -3.2792    0.0000 C   0  0
    9.0750   -1.7042    0.0000 O   0  0
    5.8125   -3.2792    0.0000 O   0  0
    6.6667   -4.6125    0.0000 C   0  0
    1.2167   -1.8167    0.0000 O   0  0
    8.7542   -0.7292    0.0000 C   0  0
    7.2000   -0.7000    0.0000 O   0  0
   -0.3083   -3.2792    0.0000 O   0  0
    1.7292   -4.4667    0.0000 N   0  0
    1.2167   -5.3500    0.0000 N   0  0
    2.2417   -1.8167    0.0000 C   0  0
    7.9167   -3.2792    0.0000 C   0  0
    5.3042   -1.8167    0.0000 C   0  0  2  0  0  0
    4.2792   -3.5875    0.0000 C   0  0
    7.8875    0.0583    0.0000 O   0  0
    5.3042   -4.1750    0.0000 C   0  0
    8.8792   -0.1500    0.0000 C   0  0
   -1.3333   -2.6917    0.0000 N   0  0
    3.1042   -1.8292    0.0000 C   0  0
    4.7875   -3.2792    0.0000 C   0  0
    4.2792   -4.1750    0.0000 C   0  0
    5.3042   -3.5875    0.0000 C   0  0
    4.7875   -4.4667    0.0000 C   0  0
    8.7875   -2.8917    0.0000 C   0  0
    5.8125   -4.4667    0.0000 O   0  0
   -0.8208   -2.4042    0.0000 C   0  0
    8.4917   -3.4042    0.0000 C   0  0
    0.7125   -3.2792    0.0000 C   0  0
    1.2167   -4.1750    0.0000 C   0  0
   -1.4833   -3.2667    0.0000 C   0  0
    4.7875   -1.5167    0.0000 C   0  0
    2.7542   -1.5167    0.0000 C   0  0
    1.7292   -1.5167    0.0000 C   0  0
    5.8125   -1.5167    0.0000 C   0  0
    8.4417    0.2458    0.0000 C   0  0
    9.4417    0.0250    0.0000 C   0  0
    1.2167   -3.5875    0.0000 C   0  0
    4.7875   -0.9292    0.0000 C   0  0
    9.5625    0.6000    0.0000 C   0  0
    8.5667    0.8208    0.0000 C   0  0
    9.1250    1.0000    0.0000 C   0  0
  2  5  1  0
  3  1  1  0
  4  8  1  0
  5 12  1  0
  6 13  1  0
  7 15  1  0
 17  8  1  1
 11  9  1  1
 10  3  1  0
 11  2  1  0
 12  4  1  0
 13  1  1  0
 14  9  1  0
 10 15  1  6
 16  6  1  0
 17  7  1  0
 18 22  1  0
 19 16  1  6
 20 41  2  0
 21 19  1  0
 22 23  1  0
 10 23  1  0
 28 24  1  6
 25 36  1  0
 26 18  2  0
 27 24  1  0
 28 14  1  0
 29  2  2  0
 30 20  1  0
 31  3  2  0
 32  4  2  0
 12 33  1  6
 34  6  2  0
 35  7  2  0
 36 22  2  0
 37 14  2  0
 19 38  1  0
 39 21  2  0
 40 27  2  0
 41 61  1  0
 42 20  1  0
 11 43  1  0
 44  1  1  0
 17 45  1  0
 46 33  1  0
 47 21  1  0
 48 55  2  0
 49 38  1  0
 50 58  1  0
 51  5  1  0
 52 46  1  0
 53 46  2  0
 54 52  2  0
 55 53  1  0
 56 13  1  0
 57 48  1  0
 58 27  1  0
 59 44  1  0
 28 60  1  0
 61 69  1  0
 62 50  1  0
 63 45  1  0
 64 43  1  0
 65 43  1  0
 45 66  1  6
 67 49  1  0
 68 49  2  0
 69 60  1  0
 70 63  1  0
 71 68  1  0
 72 67  2  0
 73 71  2  0
 56 59  1  0
 25 26  1  0
 73 72  1  0
 48 54  1  0
M  END