
  SciTegic09261415472D

 16 16  0  0  0  0            999 V2000
   -0.3516  -10.2645    0.0000 C   0  0
    0.3664  -10.6773    0.0000 C   0  0
    1.0828  -10.2640    0.0000 C   0  0
    1.0800   -9.4335    0.0000 C   0  0
    1.7979  -10.6754    0.0000 C   0  0
    2.5117  -10.2618    0.0000 C   0  0
   -0.3527   -9.4371    0.0000 C   0  0
    0.3668   -9.0236    0.0000 C   0  0
    1.7933   -9.0191    0.0000 O   0  0
    1.7911   -8.1941    0.0000 C   0  0
   -1.0701  -10.6764    0.0000 O   0  0
   -1.7809  -10.2634    0.0000 C   0  0
    3.2267  -10.6732    0.0000 C   0  0
    3.9406  -10.2596    0.0000 N   0  0
    4.6557  -10.6709    0.0000 C   0  0
    3.9393   -9.4346    0.0000 C   0  0
  7  1  2  0
  1  2  1  0
  2  3  2  0
  3  4  1  0
  4  8  2  0
  3  5  1  0
  5  6  1  0
  7  8  1  0
  4  9  1  0
  9 10  1  0
  1 11  1  0
 11 12  1  0
  6 13  1  0
 13 14  1  0
 14 15  1  0
 14 16  1  0
M  END