
          11280715332D 1   1.00000     0.00000     0

 37 40  0     0  0            999 V2000
    1.8917   -4.5875    0.0000 C   0  0  0  0  0  0           0  0  0
    2.1500   -3.8042    0.0000 N   0  0  0  0  0  0           0  0  0
    1.4875   -3.3167    0.0000 C   0  0  0  0  0  0           0  0  0
    0.8167   -3.7917    0.0000 O   0  0  0  0  0  0           0  0  0
    1.0667   -4.5792    0.0000 C   0  0  0  0  0  0           0  0  0
    2.4750   -5.1667    0.0000 C   0  0  0  0  0  0           0  0  0
    1.5042   -0.0167    0.0000 C   0  0  0  0  0  0           0  0  0
    1.4917   -2.4917    0.0000 C   0  0  0  0  0  0           0  0  0
    1.5042   -0.8417    0.0000 C   0  0  0  0  0  0           0  0  0
    5.7792   -0.0042    0.0000 C   0  0  0  0  0  0           0  0  0
    2.4667   -5.9917    0.0000 O   0  0  0  0  0  0           0  0  0
    0.7917    0.3958    0.0000 C   0  0  0  0  0  0           0  0  0
    2.2167    0.3958    0.0000 C   0  0  0  0  0  0           0  0  0
    0.0792    1.6333    0.0000 N   0  0  0  0  0  0           0  0  0
    6.4917    0.4083    0.0000 O   0  0  0  0  0  0           0  0  0
    3.1875   -4.7542    0.0000 N   0  0  0  0  0  0           0  0  0
    2.2125   -2.0792    0.0000 C   0  0  0  0  0  0           0  0  0
    0.7792   -2.0750    0.0000 C   0  0  0  0  0  0           0  0  0
    2.2125   -1.2542    0.0000 C   0  0  0  0  0  0           0  0  0
    0.7792   -1.2500    0.0000 C   0  0  0  0  0  0           0  0  0
    5.7792   -0.8292    0.0000 O   0  0  0  0  0  0           0  0  0
    3.9042   -5.1625    0.0000 C   0  0  0  0  0  0           0  0  0
    0.7917    1.2208    0.0000 C   0  0  0  0  0  0           0  0  0
    5.3292   -5.1542    0.0000 C   0  0  0  0  0  0           0  0  0
    5.0667    0.4083    0.0000 C   0  0  0  0  0  0           0  0  0
   -0.6333    1.2208    0.0000 C   0  0  0  0  0  0           0  0  0
    2.9292   -0.0167    0.0000 C   0  0  0  0  0  0           0  0  0
    4.6167   -4.7417    0.0000 C   0  0  0  0  0  0           0  0  0
    0.0792   -0.0167    0.0000 C   0  0  0  0  0  0           0  0  0
    5.3250   -5.9792    0.0000 C   0  0  0  0  0  0           0  0  0
    6.0375   -4.7417    0.0000 C   0  0  0  0  0  0           0  0  0
    4.3542   -0.0125    0.0000 C   0  0  0  0  0  0           0  0  0
    3.6417    0.4000    0.0000 C   0  0  0  0  0  0           0  0  0
   -0.6333    0.3958    0.0000 C   0  0  0  0  0  0           0  0  0
    6.7417   -5.1542    0.0000 C   0  0  0  0  0  0           0  0  0
    6.0292   -6.3917    0.0000 C   0  0  0  0  0  0           0  0  0
    6.7500   -5.9792    0.0000 C   0  0  0  0  0  0           0  0  0
  2  1  1  0     0  0
  3  2  2  0     0  0
  4  5  1  0     0  0
  5  1  2  0     0  0
  6  1  1  0     0  0
  7  9  1  0     0  0
  8  3  1  0     0  0
  9 20  2  0     0  0
 10 25  1  0     0  0
 11  6  2  0     0  0
 12  7  1  0     0  0
 13  7  2  0     0  0
 14 23  2  0     0  0
 15 10  2  0     0  0
 16  6  1  0     0  0
 17  8  1  0     0  0
 18  8  2  0     0  0
 19 17  2  0     0  0
 20 18  1  0     0  0
 21 10  1  0     0  0
 22 16  1  0     0  0
 23 12  1  0     0  0
 24 28  1  0     0  0
 25 32  1  0     0  0
 26 34  2  0     0  0
 27 13  1  0     0  0
 28 22  1  0     0  0
 29 12  2  0     0  0
 30 24  2  0     0  0
 31 24  1  0     0  0
 32 33  1  0     0  0
 33 27  1  0     0  0
 34 29  1  0     0  0
 35 31  2  0     0  0
 36 30  1  0     0  0
 37 35  1  0     0  0
  4  3  1  0     0  0
  9 19  1  0     0  0
 37 36  2  0     0  0
 26 14  1  0     0  0
M  END