
          11280715332D 1   1.00000     0.00000     0

 41 44  0     0  0            999 V2000
    2.0417   -4.6625    0.0000 C   0  0  0  0  0  0           0  0  0
    2.2542   -3.8667    0.0000 N   0  0  0  0  0  0           0  0  0
    1.5542   -3.4167    0.0000 C   0  0  0  0  0  0           0  0  0
    0.9250   -3.9417    0.0000 O   0  0  0  0  0  0           0  0  0
    1.2167   -4.7042    0.0000 C   0  0  0  0  0  0           0  0  0
    2.6625   -5.2042    0.0000 C   0  0  0  0  0  0           0  0  0
    1.3667   -0.1292    0.0000 C   0  0  0  0  0  0           0  0  0
    1.5125   -2.5917    0.0000 C   0  0  0  0  0  0           0  0  0
    1.4167   -0.9500    0.0000 C   0  0  0  0  0  0           0  0  0
    5.6292    0.1583    0.0000 C   0  0  0  0  0  0           0  0  0
    2.7125   -6.0292    0.0000 O   0  0  0  0  0  0           0  0  0
    0.6292    0.2375    0.0000 C   0  0  0  0  0  0           0  0  0
    2.0500    0.3333    0.0000 C   0  0  0  0  0  0           0  0  0
   -0.1625    1.4250    0.0000 N   0  0  0  0  0  0           0  0  0
    6.3167    0.6208    0.0000 O   0  0  0  0  0  0           0  0  0
    2.2042   -2.1375    0.0000 C   0  0  0  0  0  0           0  0  0
    0.7750   -2.2292    0.0000 C   0  0  0  0  0  0           0  0  0
    2.1500   -1.3167    0.0000 C   0  0  0  0  0  0           0  0  0
    0.7250   -1.4042    0.0000 C   0  0  0  0  0  0           0  0  0
    3.3417   -4.7375    0.0000 N   0  0  0  0  0  0           0  0  0
    6.8875   -4.6167    0.0000 C   0  0  3  0  0  0           0  0  0
    6.3042   -5.2042    0.0000 C   0  0  3  0  0  0           0  0  0
    5.6792   -0.6625    0.0000 O   0  0  0  0  0  0           0  0  0
    0.5750    1.0625    0.0000 C   0  0  0  0  0  0           0  0  0
    4.5167   -4.6625    0.0000 C   0  0  0  0  0  0           0  0  0
    5.7167   -4.6167    0.0000 O   0  0  0  0  0  0           0  0  0
    4.8917    0.5250    0.0000 C   0  0  0  0  0  0           0  0  0
    3.9667   -5.2917    0.0000 C   0  0  0  0  0  0           0  0  0
   -0.8458    0.9708    0.0000 C   0  0  0  0  0  0           0  0  0
    2.7875   -0.0292    0.0000 C   0  0  0  0  0  0           0  0  0
    5.1375   -5.2042    0.0000 C   0  0  0  0  0  0           0  0  0
   -0.0583   -0.2167    0.0000 C   0  0  0  0  0  0           0  0  0
    7.6875   -4.8292    0.0000 C   0  0  0  0  0  0           0  0  0
    6.6667   -3.8167    0.0000 C   0  0  0  0  0  0           0  0  0
    6.3000   -6.0292    0.0000 C   0  0  0  0  0  0           0  0  0
    4.2125    0.0625    0.0000 C   0  0  0  0  0  0           0  0  0
    3.4750    0.4333    0.0000 C   0  0  0  0  0  0           0  0  0
   -0.7958    0.1458    0.0000 C   0  0  0  0  0  0           0  0  0
    7.2542   -3.2292    0.0000 C   0  0  0  0  0  0           0  0  0
    8.2667   -4.2417    0.0000 C   0  0  0  0  0  0           0  0  0
    8.0542   -3.4417    0.0000 C   0  0  0  0  0  0           0  0  0
  2  1  1  0     0  0
  3  2  2  0     0  0
  4  5  1  0     0  0
  5  1  2  0     0  0
  6  1  1  0     0  0
  7  9  1  0     0  0
  8  3  1  0     0  0
  9 19  2  0     0  0
 10 27  1  0     0  0
 11  6  2  0     0  0
 12  7  1  0     0  0
 13  7  2  0     0  0
 14 24  2  0     0  0
 15 10  2  0     0  0
 16  8  1  0     0  0
 17  8  2  0     0  0
 18 16  2  0     0  0
 19 17  1  0     0  0
 20  6  1  0     0  0
 21 22  1  0     0  0
 22 26  1  0     0  0
 23 10  1  0     0  0
 24 12  1  0     0  0
 25 28  1  0     0  0
 26 31  1  0     0  0
 27 36  1  0     0  0
 28 20  1  0     0  0
 29 38  2  0     0  0
 30 13  1  0     0  0
 31 25  1  0     0  0
 32 12  2  0     0  0
 33 21  1  0     0  0
 34 21  1  0     0  0
 35 22  1  0     0  0
 36 37  1  0     0  0
 37 30  1  0     0  0
 38 32  1  0     0  0
 39 34  1  0     0  0
 40 33  1  0     0  0
 41 39  1  0     0  0
  4  3  1  0     0  0
  9 18  1  0     0  0
 41 40  1  0     0  0
 29 14  1  0     0  0
M  END