
  SciTegic12231509382D

 30 32  0  0  0  0            999 V2000
   15.2319   -2.0506    0.0000 N   0  0
   15.9626   -1.6686    0.0000 C   0  0
   15.8203   -0.8536    0.0000 C   0  0
   15.0079   -0.7353    0.0000 C   0  0
   14.6421   -1.4787    0.0000 C   0  0
   16.3964   -0.2597    0.0000 C   0  0
   16.1728    0.5346    0.0000 O   0  0
   17.1962   -0.4601    0.0000 N   0  0
   14.6175   -0.0088    0.0000 C   0  0
   16.7060   -2.0301    0.0000 C   0  0
   13.8272   -1.6210    0.0000 C   0  0
   13.6064   -3.7396    0.0000 N   0  0
   14.0778   -3.0668    0.0000 C   0  0
   13.5848   -2.4074    0.0000 C   0  0
   12.8057   -2.6723    0.0000 C   0  0
   12.0843   -2.2738    0.0000 C   0  0
   11.3730   -2.6919    0.0000 C   0  0
   11.3874   -3.5168    0.0000 C   0  0
   12.1088   -3.9237    0.0000 C   0  0
   12.8159   -3.4973    0.0000 C   0  0
   14.9027   -3.0524    0.0000 O   0  0
   10.6516   -2.2934    0.0000 O   0  0
   17.7723    0.1256    0.0000 C   0  0
   18.5720   -0.0706    0.0000 C   0  0
   19.1482    0.5191    0.0000 N   0  0
   19.9479    0.3187    0.0000 C   0  0
   20.1715   -0.4756    0.0000 C   0  0
   18.9204    1.3134    0.0000 C   0  0
   19.4923    1.9075    0.0000 C   0  0
    9.9486   -2.7172    0.0000 C   0  0
  1  2  1  0
  2  3  2  0
  3  4  1  0
  4  5  2  0
  1  5  1  0
  6  7  2  0
  6  8  1  0
  3  6  1  0
  4  9  1  0
  2 10  1  0
 12 13  1  0
 13 14  1  0
 14 15  1  0
 15 16  1  0
 16 17  2  0
 17 18  1  0
 18 19  2  0
 19 20  1  0
 12 20  1  0
 15 20  2  0
 13 21  2  0
 17 22  1  0
 11 14  2  0
  5 11  1  0
 23 24  1  0
 26 27  1  0
 25 26  1  0
 28 29  1  0
 25 28  1  0
 24 25  1  0
  8 23  1  0
 22 30  1  0
M  END