
  SciTegic01161211232D

 34 37  0  0  0  0            999 V2000
    5.8611   -0.4708    0.0000 C   0  0
    5.8599   -1.2982    0.0000 C   0  0
    7.2883   -0.4672    0.0000 C   0  0
    6.5729   -0.0580    0.0000 C   0  0
    7.2912   -1.2977    0.0000 C   0  0
    6.5712   -1.7081    0.0000 C   0  0
    6.5667   -2.5323    0.0000 C   0  0
    7.2804   -2.9522    0.0000 N   0  0
    8.0004   -2.5418    0.0000 C   0  0  2  0  0  0
    8.0066   -1.7114    0.0000 C   0  0
    8.7122   -2.9589    0.0000 C   0  0
    8.7068   -3.7839    0.0000 O   0  0
    9.4293   -2.5510    0.0000 N   0  0
    9.4347   -1.7261    0.0000 C   0  0  2  0  0  0
    8.7229   -1.3089    0.0000 C   0  0
    8.7282   -0.4840    0.0000 N   0  0
   10.1518   -1.3182    0.0000 C   0  0
   10.8636   -1.7353    0.0000 C   0  0
   10.1571   -0.4932    0.0000 C   0  0
    9.4523   -0.0785    0.0000 C   0  0
    9.4596    0.7429    0.0000 C   0  0  1  0  0  0
    8.7496    1.1638    0.0000 C   0  0  1  0  0  0
    8.0307    0.7572    0.0000 C   0  0
    8.0217   -0.0704    0.0000 C   0  0
    8.7562    1.9863    0.0000 C   0  0
    9.4765    2.3908    0.0000 C   0  0
    9.4853    3.2150    0.0000 C   0  0
    8.7746    3.6357    0.0000 C   0  0
    8.0535    3.2261    0.0000 C   0  0
    8.0482    2.4033    0.0000 C   0  0
   10.2042    3.6198    0.0000 O   0  0
   10.1782    1.1480    0.0000 C   0  0
    9.4583    1.5833    0.0000 C   0  0
    5.1465   -0.0585    0.0000 O   0  0
  4  1  1  0
 14 17  1  6
  5 10  1  0
 17 18  1  0
  6  7  1  0
 17 19  1  0
 16 20  1  0
  7  8  1  0
  8  9  1  0
  9 10  1  0
  5  6  2  0
  9 11  1  6
 16 24  1  0
 20 21  1  0
 21 22  1  0
 22 23  1  0
 23 24  1  0
  2  6  1  0
 11 12  2  0
 25 26  2  0
 26 27  1  0
 11 13  1  0
 27 28  2  0
  5  3  1  0
 28 29  1  0
 13 14  1  0
 29 30  2  0
 30 25  1  0
 22 25  1  0
  1  2  2  0
 27 31  1  0
 14 15  1  0
 21 32  1  1
  3  4  2  0
 22 33  1  6
 15 16  1  0
  1 34  1  0
M  END