
  SciTegic12171312552D

 82 91  0  0  0  0            999 V2000
   17.0519   -8.2793    0.0000 C   0  0
   12.0561   -7.2481    0.0000 C   0  0
    8.8498   -2.5123    0.0000 N   0  0
   12.8674   -8.4167    0.0000 C   0  0
   11.2539   -6.0628    0.0000 C   0  0
    6.1938   -5.1885    0.0000 O   0  0
    7.4819   -3.4380    0.0000 S   0  0
    8.2253   -3.7984    0.0000 C   0  0
   14.9660   -7.8018    0.0000 C   0  0
   13.4612   -7.1146    0.0000 C   0  0
   16.7152   -9.0327    0.0000 N   0  0
    8.3971   -7.6230    0.0000 O   0  0
    9.0877   -5.8047    0.0000 C   0  0
    9.7121   -4.5187    0.0000 C   0  0
    7.4400   -2.6112    0.0000 O   0  0
    9.8272   -6.1635    0.0000 C   0  0
    9.0249   -4.9783    0.0000 C   0  0
    9.8900   -6.9900    0.0000 C   0  0
    7.6597   -5.9094    0.0000 C   0  0
   12.7407   -6.7833    0.0000 O   0  0
    6.3507   -7.6603    0.0000 N   0  0
   13.5419   -7.9401    0.0000 C   0  0
    9.2015   -7.4536    0.0000 C   0  0
   10.6335   -7.3502    0.0000 C   0  0
    6.6564   -3.4760    0.0000 O   0  0
    9.2643   -8.2800    0.0000 O   0  0
    5.4061   -6.0519    0.0000 O   0  0
    8.9059   -3.3321    0.0000 C   0  0
   11.3127   -6.8879    0.0000 C   0  0
   16.4352   -7.7226    0.0000 C   0  0
   14.1370   -6.6339    0.0000 C   0  0
   12.1203   -8.0705    0.0000 N   0  0
   15.8965   -8.9447    0.0000 N   0  0
    6.2331   -6.0101    0.0000 S   0  0
    9.6480   -3.6963    0.0000 C   0  0
    8.4580   -7.0933    0.0000 C   0  0
   14.8880   -6.9815    0.0000 C   0  0
   10.5105   -5.7027    0.0000 C   0  0
    6.9712   -6.3730    0.0000 C   0  0
    7.7787   -7.5556    0.0000 C   0  0
    7.6009   -5.0842    0.0000 O   0  0
    8.4031   -6.2696    0.0000 C   0  0
    7.0354   -7.1954    0.0000 C   0  0
   15.7190   -8.1362    0.0000 N   0  0
    5.8524   -6.7465    0.0000 O   0  0
    8.2816   -4.6182    0.0000 C   0  0
    7.1013   -4.1745    0.0000 O   0  0
   26.8844   -3.0072    0.0000 N   0  0
   27.5940   -2.5956    0.0000 C   0  0
   27.5958   -4.2435    0.0000 C   0  0
   26.8796   -3.8327    0.0000 C   0  0
   26.2675   -4.3869    0.0000 N   0  0
   26.6056   -5.1404    0.0000 N   0  0
   27.4265   -5.0516    0.0000 C   0  0
   28.3072   -3.0035    0.0000 N   0  0
   28.3121   -3.8273    0.0000 C   0  0
   29.0970   -4.0773    0.0000 N   0  0
   29.5774   -3.4080    0.0000 C   0  0
   29.0892   -2.7444    0.0000 N   0  0
   30.4010   -3.4022    0.0000 C   0  0
   30.8883   -4.0647    0.0000 C   0  0
   31.6689   -3.8059    0.0000 C   0  0
   31.6641   -2.9835    0.0000 C   0  0
   30.8804   -2.7340    0.0000 O   0  0
   25.4626   -4.2182    0.0000 C   0  0
   24.9141   -4.8310    0.0000 C   0  0
   24.1091   -4.6622    0.0000 C   0  0
   23.5607   -5.2750    0.0000 C   0  0
   22.7556   -5.1016    0.0000 C   0  0
   22.2073   -5.7136    0.0000 C   0  0
   22.4635   -6.4960    0.0000 C   0  0
   23.2731   -6.6629    0.0000 C   0  0
   23.8179   -6.0497    0.0000 C   0  0
   27.5916   -1.7732    0.0000 N   0  0
   21.9157   -7.1094    0.0000 O   0  0
   21.1106   -6.9418    0.0000 C   0  0
   20.5629   -7.5553    0.0000 C   0  0
   19.7578   -7.3876    0.0000 N   0  0
   20.8203   -8.3363    0.0000 O   0  0
   19.2100   -8.0011    0.0000 C   0  0
   18.4048   -7.8334    0.0000 C   0  0
   17.8571   -8.4469    0.0000 N   0  0
 28  3  2  0
  8 46  2  0
 14 35  2  0
 33 11  2  0
 23 26  1  0
 47  7  2  0
 34  6  1  0
 44 33  1  0
 45 34  2  0
  9 37  1  0
  7 25  2  0
 22  4  1  0
 43 21  1  0
 17 46  1  0
  2 29  1  0
 39 43  2  0
 10 22  1  0
  4 32  1  0
 13 17  2  0
 44  9  1  0
 11  1  1  0
 37 31  1  0
 42 13  1  0
  7 15  1  0
 36 42  1  0
 18 24  2  0
 19 42  2  0
 23 12  2  0
 19 39  1  0
  8  7  1  0
 30 44  1  0
 46 41  1  0
 31 10  1  0
 34 27  2  0
  2 20  2  0
 29  5  2  0
 16 18  1  0
 18 23  1  0
 28  8  1  0
 17 14  1  0
  1 30  2  0
 39 34  1  0
  5 38  1  0
 16 13  1  0
 43 40  1  0
 24 29  1  0
 35 28  1  0
 41 19  1  0
 38 16  2  0
 40 36  2  0
 32  2  1  0
 48 51  1  0
 50 56  1  0
 55 49  1  0
 49 48  2  0
 50 51  2  0
 51 52  1  0
 52 53  1  0
 53 54  2  0
 54 50  1  0
 55 56  1  0
 56 57  2  0
 57 58  1  0
 58 59  2  0
 59 55  1  0
 60 61  2  0
 61 62  1  0
 62 63  2  0
 63 64  1  0
 64 60  1  0
 58 60  1  0
 52 65  1  0
 65 66  1  0
 66 67  1  0
 67 68  1  0
 68 69  2  0
 69 70  1  0
 70 71  2  0
 71 72  1  0
 72 73  2  0
 73 68  1  0
 49 74  1  0
 71 75  1  0
 75 76  1  0
 76 77  1  0
 77 78  1  0
 77 79  2  0
 78 80  1  0
 80 81  1  0
 81 82  1  0
 82  1  1  0
M  END