
  SciTegic12231509382D

 12 12  0  0  0  0            999 V2000
    8.2167   -4.9625    0.0000 N   0  0
    7.5000   -4.5542    0.0000 C   0  0
    5.3542   -4.9750    0.0000 C   0  0
    6.7875   -4.9667    0.0000 C   0  0
    8.2167   -5.7875    0.0000 C   0  0
    8.9292   -4.5417    0.0000 C   0  0
    6.0667   -4.5542    0.0000 C   0  0
    4.6417   -4.5625    0.0000 C   0  0
    5.3542   -5.8042    0.0000 C   0  0
    3.9292   -4.9750    0.0000 C   0  0
    4.6417   -6.2167    0.0000 C   0  0
    3.9292   -5.8042    0.0000 C   0  0
  2  1  1  0
  3  7  1  0
  4  2  1  0
  5  1  1  0
  6  1  1  0
  7  4  1  0
  8  3  2  0
  9  3  1  0
 10  8  1  0
 11  9  2  0
 12 10  2  0
 11 12  1  0
M  END