
  SciTegic06051313522D

 51 54  0  0  0  0            999 V2000
   30.2529  -12.7189    0.0000 O   0  0
   30.9621  -12.3129    0.0000 C   0  0
   30.9628  -11.4974    0.0000 C   0  0
   31.6712  -11.0915    0.0000 C   0  0
   32.3783  -11.5029    0.0000 C   0  0
   32.3726  -12.3243    0.0000 C   0  0
   31.6636  -12.7264    0.0000 C   0  0
   31.6739  -10.2743    0.0000 F   0  0
   33.0734  -12.7367    0.0000 C   0  0
   33.7843  -12.3315    0.0000 N   0  0
   34.4886  -12.7446    0.0000 C   0  0
   34.4830  -13.5626    0.0000 C   0  0
   33.7674  -13.9659    0.0000 C   0  0
   33.0661  -13.5505    0.0000 C   0  0
   35.1884  -13.9786    0.0000 C   0  0
   35.8996  -13.5762    0.0000 O   0  0
   35.1814  -14.7958    0.0000 O   0  0
   23.1771  -12.7407    0.0000 C   0  0
   23.1760  -13.5603    0.0000 C   0  0
   23.8840  -13.9692    0.0000 C   0  0
   24.5937  -13.5598    0.0000 C   0  0
   24.5908  -12.7371    0.0000 C   0  0
   23.8822  -12.3319    0.0000 C   0  0
   25.3020  -13.9673    0.0000 Cl  0  0
   22.4693  -12.3323    0.0000 O   0  0
   22.4691  -11.5151    0.0000 C   0  0
   22.4679  -13.9683    0.0000 N   0  0
   22.4673  -14.7855    0.0000 C   0  0
   21.7592  -15.1935    0.0000 C   0  0
   23.1747  -15.1946    0.0000 O   0  0
   21.7586  -16.0107    0.0000 S   0  0
   21.0506  -16.4187    0.0000 C   0  0
   20.3450  -16.0055    0.0000 N   0  0
   19.6375  -16.4129    0.0000 C   0  0
   19.6364  -17.2309    0.0000 C   0  0
   20.3488  -17.6399    0.0000 C   0  0
   21.0534  -17.2302    0.0000 C   0  0
   18.9288  -17.6371    0.0000 C   0  0
   18.2209  -17.2289    0.0000 O   0  0
   18.9292  -18.4543    0.0000 O   0  0
   25.2970  -12.3259    0.0000 O   0  0
   26.0062  -12.7318    0.0000 C   0  0
   26.7124  -12.3205    0.0000 C   0  0  2  0  0  0
   27.4216  -12.7265    0.0000 C   0  0  2  0  0  0
   28.1278  -12.3152    0.0000 C   0  0  1  0  0  0
   28.8371  -12.7211    0.0000 C   0  0  1  0  0  0
   29.5432  -12.3099    0.0000 C   0  0
   26.7093  -11.5033    0.0000 O   0  0
   27.4247  -13.5436    0.0000 O   0  0
   28.1247  -11.4980    0.0000 O   0  0
   28.8401  -13.5383    0.0000 O   0  0
  1  2  1  0
  2  3  2  0
  3  4  1  0
  4  5  2  0
  5  6  1  0
  6  7  2  0
  7  2  1  0
  4  8  1  0
  9 10  2  0
 10 11  1  0
 11 12  2  0
 12 13  1  0
 13 14  2  0
 14  9  1  0
  6  9  1  0
 15 16  1  0
 15 17  2  0
 12 15  1  0
 18 19  2  0
 19 20  1  0
 20 21  2  0
 21 22  1  0
 22 23  2  0
 23 18  1  0
 21 24  1  0
 18 25  1  0
 25 26  1  0
 19 27  1  0
 27 28  1  0
 28 29  1  0
 28 30  2  0
 29 31  1  0
 31 32  1  0
 32 33  2  0
 33 34  1  0
 34 35  2  0
 35 36  1  0
 36 37  2  0
 37 32  1  0
 38 39  1  0
 38 40  2  0
 35 38  1  0
 22 41  1  0
 41 42  1  0
 42 43  1  0
 43 44  1  0
 44 45  1  0
 45 46  1  0
 46 47  1  0
 47  1  1  0
 43 48  1  1
 44 49  1  6
 45 50  1  6
 46 51  1  1
M  END