
  SciTegic12231509382D

 22 23  0  0  0  0            999 V2000
    5.2375   -1.4917    0.0000 S   0  0
    6.3000   -3.2792    0.0000 S   0  0
    3.1542   -3.2792    0.0000 S   0  0
    5.2417   -2.0917    0.0000 C   0  0
    5.7667   -2.9917    0.0000 C   0  0
    5.7667   -2.4000    0.0000 C   0  0
    4.7292   -2.3917    0.0000 C   0  0
    4.7292   -2.9917    0.0000 C   0  0
    3.6875   -2.9917    0.0000 C   0  0
    5.2417   -3.2917    0.0000 C   0  0
    4.2125   -3.2917    0.0000 C   0  0
    5.2292   -0.8917    0.0000 O   0  0
    6.8292   -3.5750    0.0000 O   0  0
    2.6292   -3.5750    0.0000 O   0  0
    4.6375   -1.5042    0.0000 O   0  0
    5.8375   -1.4875    0.0000 O   0  0
    6.5917   -2.7542    0.0000 O   0  0
    6.0042   -3.8125    0.0000 O   0  0
    2.8667   -2.7542    0.0000 O   0  0
    3.4500   -3.8125    0.0000 O   0  0
    4.2125   -2.0917    0.0000 C   0  0
    3.6875   -2.4000    0.0000 C   0  0
  2  5  1  0
  3  9  1  0
  4  1  1  0
  5  6  1  0
  6  4  2  0
  7  4  1  0
  8  7  1  0
  9 22  2  0
 10  8  1  0
 11  8  2  0
 12  1  1  0
 13  2  1  0
 14  3  1  0
 15  1  2  0
 16  1  2  0
 17  2  2  0
 18  2  2  0
 19  3  2  0
 20  3  2  0
 21  7  2  0
 22 21  1  0
  9 11  1  0
  5 10  2  0
M  END