
  SciTegic02271514412D

246257  0  0  0  0            999 V2000
   14.8215  -15.0799    0.0000 N   0  0
   15.5322  -15.4869    0.0000 C   0  0  2  0  0  0
   16.2415  -14.2603    0.0000 O   0  0
   16.2415  -15.0791    0.0000 C   0  0
   15.5322  -16.3073    0.0000 C   0  0
   16.2470  -17.5394    0.0000 C   0  0
   16.2407  -16.7197    0.0000 C   0  0
   16.9565  -16.3045    0.0000 C   0  0
   17.6639  -16.7163    0.0000 C   0  0
   17.6711  -17.5376    0.0000 C   0  0
   16.9544  -17.9471    0.0000 C   0  0
   16.9513  -15.4867    0.0000 N   0  0
   17.6606  -15.0789    0.0000 C   0  0  2  0  0  0
   18.3713  -16.3038    0.0000 O   0  0
   18.3713  -15.4859    0.0000 C   0  0
   17.6606  -14.2586    0.0000 C   0  0
   19.1237  -14.1816    0.0000 C   0  0
   18.3716  -13.8476    0.0000 C   0  0
   19.6673  -13.5695    0.0000 N   0  0
   18.4532  -13.0290    0.0000 C   0  0
   19.2596  -12.8581    0.0000 C   0  0
   19.5115  -12.0765    0.0000 C   0  0
   18.9571  -11.4658    0.0000 C   0  0
   18.1508  -11.6367    0.0000 C   0  0
   17.8988  -12.4183    0.0000 C   0  0
   19.0797  -15.0777    0.0000 N   0  0
   19.7867  -15.4844    0.0000 C   0  0  2  0  0  0
   20.4950  -14.2550    0.0000 O   0  0
   20.4950  -15.0760    0.0000 C   0  0
   19.7867  -16.3020    0.0000 C   0  0
   20.5012  -17.5341    0.0000 C   0  0
   20.4949  -16.7145    0.0000 C   0  0
   21.2063  -16.2992    0.0000 C   0  0
   21.9187  -16.7110    0.0000 C   0  0
   21.9197  -17.5323    0.0000 C   0  0
   21.2084  -17.9418    0.0000 C   0  0
   21.2025  -15.4827    0.0000 N   0  0
   21.9141  -15.0743    0.0000 C   0  0  2  0  0  0
   22.6226  -16.2984    0.0000 O   0  0
   22.6226  -15.4809    0.0000 C   0  0
   21.9141  -14.2532    0.0000 C   0  0
   22.6226  -13.8424    0.0000 C   0  0
   22.6226  -13.0214    0.0000 C   0  0
   23.3311  -14.2532    0.0000 C   0  0
   25.4617  -17.9352    0.0000 N   0  0
   25.4617  -18.7527    0.0000 C   0  0
   24.7574  -19.1635    0.0000 N   0  0
   26.1733  -19.1652    0.0000 N   0  0
   23.3342  -15.0725    0.0000 N   0  0
   24.0427  -15.4792    0.0000 C   0  0  2  0  0  0
   24.7543  -14.2497    0.0000 O   0  0
   24.7543  -15.0707    0.0000 C   0  0
   24.0427  -16.2967    0.0000 C   0  0
   24.7543  -16.7092    0.0000 C   0  0
   24.7543  -17.5267    0.0000 C   0  0
   25.4587  -15.4774    0.0000 N   0  0
   26.1703  -15.0690    0.0000 C   0  0
   26.8788  -16.2931    0.0000 O   0  0
   26.8788  -15.4756    0.0000 C   0  0
   27.5904  -15.0672    0.0000 N   0  0
   14.1153  -15.4910    0.0000 C   0  0
   13.4061  -15.0849    0.0000 C   0  0  1  0  0  0
   14.1181  -16.3082    0.0000 O   0  0
   12.6998  -15.4959    0.0000 N   0  0
   12.7027  -16.3131    0.0000 C   0  0
   11.9964  -16.7242    0.0000 O   0  0
   13.4118  -16.7192    0.0000 C   0  0
    7.6139   -8.7062    0.0000 N   0  0
    8.0380   -8.0008    0.0000 C   0  0  2  0  0  0
    9.2512   -8.7314    0.0000 O   0  0
    8.8502   -8.0146    0.0000 C   0  0
    7.6370   -7.2840    0.0000 C   0  0
    8.0482   -6.5810    0.0000 C   0  0
    6.8119   -7.2726    0.0000 C   0  0
    9.2743   -7.3092    0.0000 N   0  0
   10.0937   -7.3190    0.0000 C   0  0  2  0  0  0
   10.1135   -5.8986    0.0000 O   0  0
   10.5144   -6.6154    0.0000 C   0  0
   10.4947   -8.0357    0.0000 C   0  0
   11.7174   -8.7658    0.0000 C   0  0
   11.3164   -8.0490    0.0000 C   0  0
   11.7340   -7.3425    0.0000 C   0  0
   12.5582   -7.3543    0.0000 C   0  0
   12.9592   -8.0711    0.0000 C   0  0
   12.5380   -8.7796    0.0000 C   0  0
   11.3330   -6.6257    0.0000 N   0  0
   11.7563   -5.9207    0.0000 C   0  0  2  0  0  0
   12.9795   -6.6457    0.0000 O   0  0
   12.5785   -5.9290    0.0000 C   0  0
   11.3553   -5.2039    0.0000 C   0  0
   11.3756   -3.7786    0.0000 C   0  0
   11.7765   -4.4954    0.0000 C   0  0
   12.5972   -4.5092    0.0000 C   0  0
   13.0184   -3.8007    0.0000 C   0  0
   12.6174   -3.0839    0.0000 C   0  0
   11.7932   -3.0721    0.0000 C   0  0
   13.0350   -2.3774    0.0000 O   0  0
   16.2671   -6.6936    0.0000 N   0  0
   16.6681   -7.4103    0.0000 C   0  0
   16.2448   -8.1153    0.0000 N   0  0
   17.4867   -7.4206    0.0000 N   0  0
   12.9981   -5.2260    0.0000 N   0  0
   13.8203   -5.2343    0.0000 C   0  0  2  0  0  0
   13.8390   -3.8146    0.0000 O   0  0
   14.2400   -4.5313    0.0000 C   0  0
   14.2213   -5.9511    0.0000 C   0  0
   15.0419   -5.9649    0.0000 C   0  0
   15.4429   -6.6817    0.0000 C   0  0
   15.0622   -4.5396    0.0000 N   0  0
   15.4818   -3.8367    0.0000 C   0  0  2  0  0  0
   16.7050   -4.5617    0.0000 O   0  0
   16.3040   -3.8449    0.0000 C   0  0
   15.0808   -3.1199    0.0000 C   0  0
   15.5021   -2.4113    0.0000 C   0  0
   15.1011   -1.6945    0.0000 C   0  0
   16.3227   -2.4252    0.0000 C   0  0
   16.7237   -3.1420    0.0000 N   0  0
   17.5459   -3.1502    0.0000 C   0  0
   17.5645   -1.7305    0.0000 O   0  0
   17.9655   -2.4473    0.0000 C   0  0
   18.7877   -2.4555    0.0000 N   0  0
   19.2073   -1.7526    0.0000 C   0  0  2  0  0  0
   20.4305   -2.4776    0.0000 O   0  0
   20.0295   -1.7608    0.0000 C   0  0
   18.8064   -1.0358    0.0000 C   0  0
   18.8266    0.3946    0.0000 C   0  0
   19.2276   -0.3273    0.0000 C   0  0
   20.0518   -0.3391    0.0000 C   0  0
   20.4694    0.3755    0.0000 C   0  0
   20.0685    1.0922    0.0000 C   0  0
   19.2478    1.1031    0.0000 C   0  0
   20.4897    1.7951    0.0000 O   0  0
   20.4528   -1.0559    0.0000 N   0  0
   21.2699   -1.0699    0.0000 C   0  0
   21.6905   -0.3693    0.0000 C   0  0
   22.5076   -0.3832    0.0000 N   0  0
   22.9282    0.3182    0.0000 C   0  0
   23.7453    0.3074    0.0000 C   0  0
   22.5318    1.0371    0.0000 O   0  0
   24.1417   -0.4112    0.0000 C   0  0
   23.7211   -1.1118    0.0000 C   0  0
   24.1175   -1.8264    0.0000 C   0  0
   23.6969   -2.5270    0.0000 C   0  0  1  0  0  0
   22.8859   -2.5992    0.0000 S   0  0
   22.7023   -3.3955    0.0000 C   0  0
   24.0194   -3.2798    0.0000 C   0  0  1  0  0  0
   23.4032   -3.8162    0.0000 C   0  0  2  0  0  0
   23.7229   -4.5681    0.0000 N   0  0
   24.5369   -4.4963    0.0000 C   0  0
   24.7200   -3.7001    0.0000 N   0  0
   25.0735   -5.1127    0.0000 O   0  0
   24.5986   -2.7073    0.0000 H   0  0
   22.8140   -4.3866    0.0000 H   0  0
    6.7968   -8.6917    0.0000 C   0  0
    6.3758   -9.3921    0.0000 C   0  0
    6.4008   -7.9769    0.0000 O   0  0
    6.7718  -10.1069    0.0000 C   0  0
    7.5889  -10.1214    0.0000 C   0  0
    3.0310    2.6164    0.0000 N   0  0
    3.0310    3.4221    0.0000 C   0  0
    2.3295    3.8270    0.0000 N   0  0
    3.7525    3.8343    0.0000 N   0  0
    0.8894   -0.2706    0.0000 N   0  0
    1.5938    0.1373    0.0000 C   0  0  2  0  0  0
    2.3093   -1.0937    0.0000 O   0  0
    2.3093   -0.2747    0.0000 C   0  0
    1.5938    0.9735    0.0000 C   0  0
    2.3139    1.3865    0.0000 C   0  0
    2.3139    2.1916    0.0000 C   0  0
    3.0187    0.1385    0.0000 N   0  0
    3.7343   -0.2759    0.0000 C   0  0  2  0  0  0
    4.4387    0.9467    0.0000 O   0  0
    4.4387    0.1343    0.0000 C   0  0
    3.7343   -1.1030    0.0000 C   0  0
    4.5126   -2.3363    0.0000 N   0  0
    5.3106   -2.5121    0.0000 C   0  0
    5.7270   -1.8070    0.0000 N   0  0
    5.1815   -1.1909    0.0000 C   0  0
    4.4372   -1.5119    0.0000 C   0  0
    5.1588   -0.2826    0.0000 N   0  0
    5.8608    0.1258    0.0000 C   0  0  2  0  0  0
    6.5820   -1.1258    0.0000 O   0  0
    6.5820   -0.2912    0.0000 C   0  0
    5.8608    0.9395    0.0000 C   0  0
    6.5822    1.3560    0.0000 C   0  0
    6.5822    2.1700    0.0000 C   0  0
    7.3038    2.5822    0.0000 O   0  0
    5.8807    2.5749    0.0000 O   0  0
    9.4119   -2.7777    0.0000 N   0  0
    9.4119   -3.6124    0.0000 C   0  0
    8.6901   -4.0257    0.0000 N   0  0
   10.1132   -4.0163    0.0000 N   0  0
    7.2836    0.1183    0.0000 N   0  0
    8.0051   -0.3045    0.0000 C   0  0  2  0  0  0
    8.7064    0.9169    0.0000 O   0  0
    8.7064    0.1110    0.0000 C   0  0
    8.0051   -1.1351    0.0000 C   0  0
    8.7064   -1.5390    0.0000 C   0  0
    8.7064   -2.3737    0.0000 C   0  0
    9.4280   -0.3138    0.0000 N   0  0
   10.1293    0.0914    0.0000 C   0  0  2  0  0  0
   10.8509   -1.1578    0.0000 O   0  0
   10.8509   -0.3231    0.0000 C   0  0
   10.1293    0.9056    0.0000 C   0  0  1  0  0  0
   10.8509    1.3219    0.0000 C   0  0
    9.4279    1.3146    0.0000 C   0  0
    9.4279    2.1433    0.0000 C   0  0
   11.5564    0.0843    0.0000 N   0  0
    0.1821    0.1419    0.0000 C   0  0
   -0.5306   -0.2692    0.0000 C   0  0
    0.1830    0.9591    0.0000 O   0  0
   -1.2348    0.1405    0.0000 N   0  0
   -1.2356    0.9577    0.0000 C   0  0
   -1.9399    1.3738    0.0000 C   0  0
   -0.5323    1.3670    0.0000 O   0  0
   -0.5297   -1.0863    0.0000 C   0  0
    0.1804   -1.4957    0.0000 C   0  0
    0.1796   -2.3129    0.0000 C   0  0
    0.8868   -2.7222    0.0000 C   0  0
    0.8860   -3.5394    0.0000 C   0  0
    1.5933   -3.9487    0.0000 C   0  0
    1.5924   -4.7659    0.0000 C   0  0
    2.2997   -5.1753    0.0000 C   0  0
    2.2988   -5.9924    0.0000 N   0  0
    1.6363   -6.4785    0.0000 N   0  0
    1.8885   -7.2558    0.0000 N   0  0
    2.7056   -7.2565    0.0000 C   0  0
    2.9585   -6.4791    0.0000 C   0  0
    3.1118   -7.9656    0.0000 C   0  0
    3.9290   -7.9684    0.0000 C   0  0
    4.3352   -8.6774    0.0000 C   0  0
    5.1524   -8.6802    0.0000 C   0  0
    5.5634   -7.9739    0.0000 O   0  0
    5.5586   -9.3893    0.0000 N   0  0
    7.9849  -10.8362    0.0000 C   0  0
    8.8019  -10.8506    0.0000 C   0  0
    9.1980  -11.5655    0.0000 C   0  0
   10.0150  -11.5799    0.0000 C   0  0
   10.4110  -12.2947    0.0000 C   0  0
   11.2281  -12.3092    0.0000 C   0  0
   11.6241  -13.0240    0.0000 N   0  0
   11.2820  -13.7639    0.0000 N   0  0
   11.8796  -14.3213    0.0000 N   0  0
   12.5945  -13.9253    0.0000 C   0  0
   12.4386  -13.1231    0.0000 C   0  0
   13.3350  -14.2708    0.0000 C   0  0
  4 12  1  0
 15 26  1  0
 29 37  1  0
 40 49  1  0
 52 56  1  0
 59 60  1  0
  1  2  1  0
  2  4  1  0
  4  3  2  0
  2  5  1  6
  5  7  1  0
  6  7  2  0
  7  8  1  0
  8  9  2  0
  9 10  1  0
 10 11  2  0
 11  6  1  0
 12 13  1  0
 13 15  1  0
 15 14  2  0
 13 16  1  1
 16 18  1  0
 17 18  2  0
 18 20  1  0
 19 17  1  0
 21 19  1  0
 20 21  2  0
 21 22  1  0
 22 23  2  0
 23 24  1  0
 24 25  2  0
 25 20  1  0
 26 27  1  0
 27 29  1  0
 29 28  2  0
 27 30  1  6
 30 32  1  0
 31 32  2  0
 32 33  1  0
 33 34  2  0
 34 35  1  0
 35 36  2  0
 36 31  1  0
 37 38  1  0
 38 40  1  0
 40 39  2  0
 38 41  1  1
 41 42  1  0
 42 43  1  0
 42 44  1  0
 45 46  1  0
 46 47  1  0
 46 48  2  0
 49 50  1  0
 50 52  1  0
 52 51  2  0
 50 53  1  6
 53 54  1  0
 54 55  1  0
 55 45  1  0
 56 57  1  0
 57 59  1  0
 59 58  2  0
  1 61  1  0
 61 62  1  0
 61 63  2  0
 62 64  1  0
 64 65  1  0
 65 66  2  0
 65 67  1  0
 71 75  1  0
 78 86  1  0
 89102  1  0
105109  1  0
112117  1  0
120121  1  0
124133  1  0
 68 69  1  0
 69 71  1  0
 71 70  2  0
 69 72  1  1
 72 73  1  0
 72 74  1  0
 75 76  1  0
 76 78  1  0
 78 77  2  0
 76 79  1  6
 79 81  1  0
 80 81  2  0
 81 82  1  0
 82 83  2  0
 83 84  1  0
 84 85  2  0
 85 80  1  0
 86 87  1  0
 87 89  1  0
 89 88  2  0
 87 90  1  1
 90 92  1  0
 91 92  2  0
 92 93  1  0
 93 94  2  0
 94 95  1  0
 95 96  2  0
 96 91  1  0
 95 97  1  0
 98 99  1  0
 99100  1  0
 99101  2  0
102103  1  0
103105  1  0
105104  2  0
103106  1  6
106107  1  0
107108  1  0
108 98  1  0
109110  1  0
110112  1  0
112111  2  0
110113  1  1
113114  1  0
114115  1  0
114116  1  0
117118  1  0
118120  1  0
120119  2  0
121122  1  0
122124  1  0
124123  2  0
122125  1  1
125127  1  0
126127  2  0
127128  1  0
128129  2  0
129130  1  0
130131  2  0
131126  1  0
130132  1  0
133134  1  0
134135  1  0
135136  1  0
136137  1  0
137138  1  0
137139  2  0
138140  1  0
140141  1  0
141142  1  0
143142  1  6
143144  1  0
144145  1  0
145147  1  0
146143  1  0
146147  1  0
147148  1  0
148149  1  0
149150  1  0
150146  1  0
149151  2  0
146152  1  1
147153  1  1
 68154  1  0
154155  1  0
154156  2  0
155157  1  0
157158  1  0
166170  1  0
173180  1  0
183193  1  0
196200  1  0
203208  1  0
159160  1  0
160161  1  0
160162  2  0
163164  1  0
164166  1  0
166165  2  0
164167  1  1
167168  1  0
168169  1  0
169159  1  0
170171  1  0
171173  1  0
173172  2  0
171174  1  6
174179  1  0
175176  1  0
176177  2  0
177178  1  0
178179  2  0
179175  1  0
180181  1  0
181183  1  0
183182  2  0
181184  1  1
184185  1  0
185186  1  0
186187  2  0
186188  1  0
189190  1  0
190191  1  0
190192  2  0
193194  1  0
194196  1  0
196195  2  0
194197  1  6
197198  1  0
198199  1  0
199189  1  0
200201  1  0
201203  1  1
203202  2  0
201204  1  0
204205  1  6
204206  1  0
206207  1  0
163209  1  0
209210  1  0
209211  2  0
210212  1  0
212213  1  0
213214  1  0
213215  2  0
210216  1  0
216217  1  0
217218  1  0
218219  1  0
219220  1  0
220221  1  0
221222  1  0
222223  1  0
223224  1  0
224225  1  0
225226  2  0
226227  1  0
227228  2  0
228224  1  0
227229  1  0
229230  1  0
230231  1  0
231232  1  0
232233  2  0
232234  1  0
234155  1  0
158235  1  0
235236  1  0
236237  1  0
237238  1  0
238239  1  0
239240  1  0
240241  1  0
241242  1  0
242243  2  0
243244  1  0
244245  2  0
245241  1  0
244246  1  0
 62246  1  1
M  END