
  SciTegic04191613082D

 20 20  0  0  0  0            999 V2000
    5.1993   -4.5021    0.0000 N   0  0
    5.1983   -3.0012    0.0000 C   0  0
    3.9013   -5.2556    0.0000 C   0  0
    3.9034   -6.4556    0.0000 C   0  0
    6.4990   -5.2525    0.0000 C   0  0
    6.5000   -6.7533    0.0000 C   0  0
    7.7997   -7.5037    0.0000 C   0  0
    7.8007   -9.0045    0.0000 C   0  0
    9.1004   -9.7549    0.0000 C   0  0
    9.1014  -11.2558    0.0000 C   0  0
   10.1406  -11.8558    0.0000 C   0  0
    3.8985   -2.2508    0.0000 C   0  0
    2.5988   -1.5004    0.0000 C   0  0
    1.2990   -0.7500    0.0000 C   0  0
    1.2990    0.7500    0.0000 C   0  0
    0.0000    1.5000    0.0000 C   0  0
   -1.2990    0.7500    0.0000 C   0  0
   -1.2990   -0.7500    0.0000 C   0  0
    0.0000   -1.5000    0.0000 C   0  0
   -2.3383    1.3500    0.0000 C   0  0
  1  2  1  0
  1  3  1  0
  3  4  1  0
  1  5  1  0
  5  6  1  0
  6  7  1  0
  7  8  1  0
  8  9  1  0
  9 10  1  0
 10 11  1  0
  2 12  1  0
 12 13  3  0
 13 14  1  0
 14 15  2  0
 15 16  1  0
 16 17  2  0
 17 18  1  0
 18 19  2  0
 19 14  1  0
 17 20  1  0
M  END