
  SciTegic10311316262D

 29 31  0  0  0  0            999 V2000
   13.5347  -21.7874    0.0000 C   0  0
   13.5335  -22.6147    0.0000 C   0  0
   14.2483  -23.0276    0.0000 C   0  0
   14.9648  -22.6142    0.0000 C   0  0
   14.9619  -21.7837    0.0000 C   0  0
   14.2465  -21.3746    0.0000 C   0  0
   15.6748  -21.3685    0.0000 N   0  0
   16.3908  -21.7783    0.0000 C   0  0
   17.1037  -21.3631    0.0000 C   0  0
   16.3939  -22.6033    0.0000 O   0  0
   17.8198  -21.7730    0.0000 S   0  0
   18.5327  -21.3578    0.0000 C   0  0
   19.2486  -21.7707    0.0000 N   0  0
   19.9594  -21.3591    0.0000 C   0  0
   19.9605  -20.5337    0.0000 C   0  0
   19.2446  -20.1217    0.0000 C   0  0
   18.5276  -20.5351    0.0000 N   0  0
   19.2443  -19.2967    0.0000 O   0  0
   20.6757  -20.1255    0.0000 C   0  0
   21.3902  -19.7130    0.0000 N   0  0
   20.6722  -21.7707    0.0000 C   0  0
   20.6708  -22.5968    0.0000 C   0  0
   21.3844  -23.0092    0.0000 C   0  0
   22.0999  -22.5967    0.0000 C   0  0
   22.0972  -21.7674    0.0000 C   0  0
   21.3830  -21.3587    0.0000 C   0  0
   22.8149  -23.0082    0.0000 Cl  0  0
   12.8201  -21.3750    0.0000 C   0  0
   14.2440  -20.5496    0.0000 C   0  0
  1  2  2  0
  2  3  1  0
  3  4  2  0
  4  5  1  0
  5  6  2  0
  6  1  1  0
  5  7  1  0
  7  8  1  0
  8  9  1  0
  8 10  2  0
  9 11  1  0
 11 12  1  0
 12 13  2  0
 12 17  1  0
 13 14  1  0
 14 15  2  0
 15 16  1  0
 16 17  1  0
 16 18  2  0
 19 20  3  0
 15 19  1  0
 21 22  2  0
 22 23  1  0
 23 24  2  0
 24 25  1  0
 25 26  2  0
 26 21  1  0
 14 21  1  0
 24 27  1  0
  1 28  1  0
  6 29  1  0
M  END