
  SciTegic07221113202D

 30 30  0  0  0  0            999 V2000
    3.5946    3.9482    0.0000 C   0  0
    2.8801    3.5357    0.0000 C   0  0
    2.8801    2.7107    0.0000 C   0  0
    3.5946    2.2982    0.0000 C   0  0
    4.3091    2.7107    0.0000 C   0  0
    4.3091    3.5357    0.0000 C   0  0
    3.5946    4.7732    0.0000 O   0  0
    2.1657    3.9482    0.0000 N   0  3
    1.4512    3.5357    0.0000 O   0  5
    2.1657    4.7732    0.0000 O   0  0
    5.0236    3.9482    0.0000 N   0  3
    5.7381    3.5357    0.0000 O   0  5
    5.0236    4.7732    0.0000 O   0  0
    3.5946    1.4732    0.0000 N   0  3
    4.3091    1.0607    0.0000 O   0  0
    2.8802    1.0607    0.0000 O   0  5
    7.4845   -0.0426    0.0000 N   0  0
   11.5061    0.7789    0.0000 C   0  0
    7.2335    0.7446    0.0000 C   0  0
    6.4121    0.7504    0.0000 S   0  0
   11.5290   -0.0426    0.0000 N   0  0
    6.8171   -0.5217    0.0000 C   0  0
    6.1496   -0.0255    0.0000 C   0  0
   12.2135    1.1896    0.0000 N   0  0
   10.7874    1.1896    0.0000 N   0  0
    8.6539    0.7618    0.0000 S   0  0
    7.9465    1.1611    0.0000 C   0  0
   10.0857    0.7675    0.0000 C   0  0
   12.9265    0.7789    0.0000 C   0  0
    9.3670    1.1725    0.0000 C   0  0
  1  2  1  0
  1  6  2  0
  2  3  2  0
  3  4  1  0
  4  5  2  0
  5  6  1  0
  1  7  1  0
  2  8  1  0
  8  9  1  0
  8 10  2  0
  6 11  1  0
 11 12  1  0
 11 13  2  0
  4 14  1  0
 14 15  2  0
 14 16  1  0
 18 25  1  0
 19 17  2  0
 20 19  1  0
 21 18  1  0
 22 17  1  0
 23 22  2  0
 24 18  2  0
 25 28  1  0
 26 27  1  0
 27 19  1  0
 28 30  1  0
 29 24  1  0
 30 26  1  0
 20 23  1  0
M  CHG  6   8   1   9  -1  11   1  12  -1  14   1  16  -1
M  END