
  SciTegic12011114592D

 21 23  0  0  0  0            999 V2000
    3.1672  -13.0201    0.0000 C   0  0
    3.1660  -13.8469    0.0000 C   0  0
    3.8804  -14.2595    0.0000 C   0  0
    3.8786  -12.6077    0.0000 C   0  0
    4.5934  -13.0165    0.0000 C   0  0
    4.5922  -13.8490    0.0000 C   0  0
    5.3086  -14.2639    0.0000 C   0  0
    6.0308  -13.8510    0.0000 C   0  0
    6.0320  -13.0186    0.0000 C   0  0
    5.3110  -12.5990    0.0000 O   0  0
    5.3063  -15.0883    0.0000 O   0  0
    6.7453  -12.6107    0.0000 C   0  0
    7.4585  -13.0264    0.0000 C   0  0
    8.1730  -12.6166    0.0000 C   0  0
    8.1755  -11.7912    0.0000 C   0  0
    7.4575  -11.3774    0.0000 C   0  0
    6.7459  -11.7896    0.0000 C   0  0
    3.8801  -15.0839    0.0000 O   0  0
    6.7436  -14.2653    0.0000 O   0  0
    2.4531  -12.6081    0.0000 O   0  0
    7.4587  -13.8551    0.0000 C   0  0
  9 10  1  0
  5  6  1  0
  7 11  2  0
  2  3  1  0
 12 13  2  0
  3  6  2  0
 13 14  1  0
  1  2  2  0
 14 15  2  0
  5  4  2  0
 15 16  1  0
  4  1  1  0
 16 17  2  0
 17 12  1  0
  9 12  1  0
  5 10  1  0
  3 18  1  0
  6  7  1  0
  8 19  1  0
  7  8  1  0
  1 20  1  0
  8  9  2  0
 19 21  1  0
M  END