
          11280714492D 1   1.00000     0.00000     0

 23 26  0     1  0            999 V2000
   -2.6708   -5.7375    0.0000 C   0  0  3  0  0  0           0  0  0
   -2.6708   -4.9125    0.0000 C   0  0  0  0  0  0           0  0  0
   -3.3833   -6.1417    0.0000 C   0  0  0  0  0  0           0  0  0
   -1.9583   -6.1417    0.0000 C   0  0  0  0  0  0           0  0  0
   -3.3875   -6.9667    0.0000 C   0  0  0  0  0  0           0  0  0
   -1.9583   -6.9667    0.0000 C   0  0  0  0  0  0           0  0  0
   -1.2458   -3.2667    0.0000 N   0  0  3  0  0  0           0  0  0
   -1.9583   -4.5000    0.0000 C   0  0  0  0  0  0           0  0  0
   -2.6750   -7.3792    0.0000 C   0  0  0  0  0  0           0  0  0
   -1.9583   -3.6750    0.0000 C   0  0  1  0  0  0           0  0  0
   -0.5250   -3.6792    0.0000 C   0  0  0  0  0  0           0  0  0
   -1.2458   -2.4417    0.0000 C   0  0  0  0  0  0           0  0  0
   -4.0958   -5.7375    0.0000 C   0  0  0  0  0  0           0  0  0
   -1.2500   -5.7292    0.0000 C   0  0  0  0  0  0           0  0  0
   -1.2458   -7.3750    0.0000 C   0  0  0  0  0  0           0  0  0
   -4.0958   -7.3750    0.0000 C   0  0  0  0  0  0           0  0  0
   -2.6625   -3.2667    0.0000 C   0  0  0  0  0  0           0  0  0
   -1.9583   -2.0250    0.0000 C   0  0  0  0  0  0           0  0  0
   -0.5375   -6.1292    0.0000 C   0  0  0  0  0  0           0  0  0
   -4.8000   -6.1417    0.0000 C   0  0  0  0  0  0           0  0  0
   -4.8083   -6.9625    0.0000 C   0  0  0  0  0  0           0  0  0
   -0.5333   -6.9542    0.0000 C   0  0  0  0  0  0           0  0  0
   -2.6625   -2.4417    0.0000 C   0  0  0  0  0  0           0  0  0
  2  1  1  0     0  0
  3  1  1  0     0  0
  4  1  1  0     0  0
  5  3  1  0     0  0
  6  4  2  0     0  0
  7 10  1  0     0  0
  8  2  2  0     0  0
  9  6  1  0     0  0
 10  8  1  1     0  0
 11  7  1  0     0  0
 12  7  1  0     0  0
 13  3  2  0     0  0
 14  4  1  0     0  0
 15  6  1  0     0  0
 16  5  2  0     0  0
 17 10  1  0     0  0
 18 23  1  0     0  0
 19 14  2  0     0  0
 20 13  1  0     0  0
 21 20  2  0     0  0
 22 19  1  0     0  0
 23 17  1  0     0  0
  5  9  1  0     0  0
 15 22  2  0     0  0
 21 16  1  0     0  0
 12 18  1  0     0  0
M  END