


 28 30  0     0  0  0  0  0  0999 V2000
   -0.6907    0.3442    0.0000 S   0  0  0  0  0  0  0  0  0  0  0  0
    1.7289    0.1885    0.0000 S   0  0  0  0  0  0  0  0  0  0  0  0
   -2.7762   -0.4029    0.0000 F   0  0  0  0  0  0  0  0  0  0  0  0
   -0.8780    0.8701    0.0000 O   0  0  0  0  0  0  0  0  0  0  0  0
   -0.5056   -0.1794    0.0000 O   0  0  0  0  0  0  0  0  0  0  0  0
    1.5326   -0.8949    0.0000 O   0  0  0  0  0  0  0  0  0  0  0  0
    2.4534    1.4660    0.0000 O   0  0  0  0  0  0  0  0  0  0  0  0
    2.7762    0.5609    0.0000 O   0  0  0  0  0  0  0  0  0  0  0  0
   -0.1693    0.5338    0.0000 N   0  0  0  0  0  0  0  0  0  0  0  0
    0.2528    0.1727    0.0000 C   0  0  0  0  0  0  0  0  0  0  0  0
    0.1580   -0.3735    0.0000 C   0  0  0  0  0  0  0  0  0  0  0  0
    0.5823   -0.7256    0.0000 C   0  0  0  0  0  0  0  0  0  0  0  0
   -1.2165    0.1546    0.0000 C   0  0  0  0  0  0  0  0  0  0  0  0
    1.1037   -0.5383    0.0000 C   0  0  0  0  0  0  0  0  0  0  0  0
    1.1985    0.0057    0.0000 C   0  0  0  0  0  0  0  0  0  0  0  0
    0.7719    0.3645    0.0000 C   0  0  0  0  0  0  0  0  0  0  0  0
   -1.3113   -0.3871    0.0000 C   0  0  0  0  0  0  0  0  0  0  0  0
   -0.3634   -0.5586    0.0000 C   0  0  0  0  0  0  0  0  0  0  0  0
    0.4830   -1.2696    0.0000 C   0  0  0  0  0  0  0  0  0  0  0  0
   -1.6386    0.5112    0.0000 C   0  0  0  0  0  0  0  0  0  0  0  0
   -1.8327   -0.5722    0.0000 C   0  0  0  0  0  0  0  0  0  0  0  0
   -0.4582   -1.1048    0.0000 C   0  0  0  0  0  0  0  0  0  0  0  0
   -2.2525   -0.2201    0.0000 C   0  0  0  0  0  0  0  0  0  0  0  0
   -0.0316   -1.4660    0.0000 C   0  0  0  0  0  0  0  0  0  0  0  0
   -2.1600    0.3239    0.0000 C   0  0  0  0  0  0  0  0  0  0  0  0
   -0.8847   -0.7414    0.0000 C   0  0  0  0  0  0  0  0  0  0  0  0
    1.8350    0.7347    0.0000 C   0  0  0  0  0  0  0  0  0  0  0  0
    2.3564    0.9198    0.0000 C   0  0  0  0  0  0  0  0  0  0  0  0
  1  4  2  0  0  0  0
  1  5  2  0  0  0  0
  1  9  1  0  0  0  0
  1 13  1  0  0  0  0
  2 15  1  0  0  0  0
  2 27  1  0  0  0  0
  3 23  1  0  0  0  0
  6 14  1  0  0  0  0
  7 28  2  0  0  0  0
  8 28  1  0  0  0  0
  9 10  1  0  0  0  0
 10 11  2  0  0  0  0
 10 16  1  0  0  0  0
 11 12  1  0  0  0  0
 11 18  1  0  0  0  0
 12 14  2  0  0  0  0
 12 19  1  0  0  0  0
 13 17  2  0  0  0  0
 13 20  1  0  0  0  0
 14 15  1  0  0  0  0
 15 16  2  0  0  0  0
 17 21  1  0  0  0  0
 17 26  1  0  0  0  0
 18 22  2  0  0  0  0
 19 24  2  0  0  0  0
 20 25  2  0  0  0  0
 21 23  2  0  0  0  0
 22 24  1  0  0  0  0
 23 25  1  0  0  0  0
 27 28  1  0  0  0  0
M  END