
          05080814042D 1   1.00000     0.00000     0

 37 42  0     1  0            999 V2000
   -4.3940  -20.4197    0.0000 C   0  0  0  0  0  0           0  0  0
   -5.1048  -20.8345    0.0000 C   0  0  0  0  0  0           0  0  0
   -5.0978  -21.6609    0.0000 C   0  0  0  0  0  0           0  0  0
   -4.3839  -22.0643    0.0000 C   0  0  0  0  0  0           0  0  0
   -3.6807  -20.8269    0.0000 C   0  0  0  0  0  0           0  0  0
   -3.6747  -21.6545    0.0000 C   0  0  0  0  0  0           0  0  0
   -2.9589  -22.0609    0.0000 C   0  0  0  0  0  0           0  0  0
   -2.9710  -20.4055    0.0000 C   0  0  0  0  0  0           0  0  0
   -2.2505  -20.8164    0.0000 C   0  0  2  0  0  0           0  0  0
   -2.2460  -21.6460    0.0000 C   0  0  2  0  0  0           0  0  0
   -1.5292  -22.0546    0.0000 N   0  0  3  0  0  0           0  0  0
   -0.8124  -21.6382    0.0000 C   0  0  0  0  0  0           0  0  0
   -0.8169  -20.8086    0.0000 C   0  0  1  0  0  0           0  0  0
   -1.5383  -20.3954    0.0000 C   0  0  0  0  0  0           0  0  0
   -2.2583  -19.9875    0.0000 H   0  0  0  0  0  0           0  0  0
   -2.2542  -22.4708    0.0000 H   0  0  0  0  0  0           0  0  0
   -0.1043  -20.3929    0.0000 C   0  0  0  0  0  0           0  0  0
    0.6120  -20.8022    0.0000 N   0  0  3  0  0  0           0  0  0
   -0.1080  -19.5679    0.0000 O   0  0  0  0  0  0           0  0  0
    0.6097  -21.6303    0.0000 C   0  0  0  0  0  0           0  0  0
    1.3219  -22.0396    0.0000 C   0  0  0  0  0  0           0  0  0
    2.0370  -21.6274    0.0000 C   0  0  3  0  0  0           0  0  0
    2.0353  -20.8014    0.0000 C   0  0  0  0  0  0           0  0  0
    1.3185  -20.3876    0.0000 C   0  0  0  0  0  0           0  0  0
   -4.3980  -19.5947    0.0000 O   0  0  0  0  0  0           0  0  0
   -5.1145  -19.1856    0.0000 C   0  0  0  0  0  0           0  0  0
   -1.5258  -22.8796    0.0000 C   0  0  0  0  0  0           0  0  0
    2.7517  -22.0394    0.0000 N   0  0  3  0  0  0           0  0  0
    4.0595  -22.3138    0.0000 N   0  0  0  0  0  0           0  0  0
    3.5070  -21.7012    0.0000 C   0  0  0  0  0  0           0  0  0
    3.6773  -20.8940    0.0000 O   0  0  0  0  0  0           0  0  0
    3.6475  -23.0286    0.0000 C   0  0  0  0  0  0           0  0  0
    2.8418  -22.8567    0.0000 C   0  0  0  0  0  0           0  0  0
    2.2920  -23.4677    0.0000 C   0  0  0  0  0  0           0  0  0
    2.5467  -24.2509    0.0000 C   0  0  0  0  0  0           0  0  0
    3.3563  -24.4197    0.0000 C   0  0  0  0  0  0           0  0  0
    3.9025  -23.8073    0.0000 C   0  0  0  0  0  0           0  0  0
  7 10  1  0     0  0
 17 18  1  0     0  0
  9  8  1  0     0  0
 17 19  2  0     0  0
 18 20  1  0     0  0
  9 10  1  0     0  0
  3  4  2  0     0  0
  4  6  1  0     0  0
  5  6  2  0     0  0
  1  2  2  0     0  0
 18 24  1  0     0  0
 20 21  1  0     0  0
 21 22  1  0     0  0
 22 23  1  0     0  0
 23 24  1  0     0  0
  5  1  1  0     0  0
  1 25  1  0     0  0
  2  3  1  0     0  0
 25 26  1  0     0  0
  9 14  1  0     0  0
 11 27  1  0     0  0
 10 11  1  0     0  0
 22 28  1  0     0  0
 28 33  1  0     0  0
 11 12  1  0     0  0
 12 13  1  0     0  0
 32 29  1  0     0  0
 29 30  1  0     0  0
 30 28  1  0     0  0
 13 14  1  0     0  0
 30 31  2  0     0  0
  9 15  1  6     0  0
 32 33  2  0     0  0
  5  8  1  0     0  0
 33 34  1  0     0  0
 10 16  1  1     0  0
 34 35  2  0     0  0
  6  7  1  0     0  0
 35 36  1  0     0  0
 13 17  1  1     0  0
 36 37  2  0     0  0
 37 32  1  0     0  0
M  END