
  CDK    6/4/10,11:55

 27 27  0  0  0  0  0  0  0  0999 V2000
    6.4667   -6.6500    0.0000 C   0  0  0  0  0  0  0  0  0  0  0  0
    5.7542   -7.0625    0.0000 C   0  0  0  0  0  0  0  0  0  0  0  0
    6.4667   -5.8250    0.0000 C   0  0  0  0  0  0  0  0  0  0  0  0
    5.0417   -5.8250    0.0000 C   0  0  0  0  0  0  0  0  0  0  0  0
    5.0417   -6.6500    0.0000 C   0  0  0  0  0  0  0  0  0  0  0  0
    5.7542   -7.8875    0.0000 P   0  0  0  0  0  0  0  0  0  0  0  0
    5.7542   -5.4125    0.0000 C   0  0  0  0  0  0  0  0  0  0  0  0
    7.9167   -6.6875    0.0000 P   0  0  0  0  0  0  0  0  0  0  0  0
    7.1875   -4.5917    0.0000 P   0  0  0  0  0  0  0  0  0  0  0  0
    3.6167   -5.8333    0.0000 P   0  0  0  0  0  0  0  0  0  0  0  0
    7.1833   -7.0625    0.0000 O   0  0  0  0  0  0  0  0  0  0  0  0
    7.1833   -5.4167    0.0000 O   0  0  0  0  0  0  0  0  0  0  0  0
    4.3292   -5.4167    0.0000 O   0  0  0  0  0  0  0  0  0  0  0  0
    5.7500   -8.7125    0.0000 O   0  0  0  0  0  0  0  0  0  0  0  0
    6.5792   -7.8875    0.0000 O   0  0  0  0  0  0  0  0  0  0  0  0
    8.6542   -6.3208    0.0000 O   0  0  0  0  0  0  0  0  0  0  0  0
    7.1792   -3.7625    0.0000 O   0  0  0  0  0  0  0  0  0  0  0  0
    3.0292   -6.4125    0.0000 O   0  0  0  0  0  0  0  0  0  0  0  0
    6.3625   -4.5958    0.0000 O   0  0  0  0  0  0  0  0  0  0  0  0
    8.2917   -7.4250    0.0000 O   0  0  0  0  0  0  0  0  0  0  0  0
    3.1125   -5.1750    0.0000 O   0  0  0  0  0  0  0  0  0  0  0  0
    4.9292   -7.8833    0.0000 O   0  0  0  0  0  0  0  0  0  0  0  0
    4.3292   -7.0667    0.0000 O   0  0  0  0  0  0  0  0  0  0  0  0
    8.0125   -4.5917    0.0000 O   0  0  0  0  0  0  0  0  0  0  0  0
    7.5458   -5.9542    0.0000 O   0  0  0  0  0  0  0  0  0  0  0  0
    4.1208   -6.4833    0.0000 O   0  0  0  0  0  0  0  0  0  0  0  0
    5.7542   -4.5875    0.0000 O   0  0  0  0  0  0  0  0  0  0  0  0
  2  1  1  0  0  0  0 
  3  1  1  0  0  0  0 
  4  7  1  0  0  0  0 
  5  2  1  0  0  0  0 
  2  6  1  1  0  0  0 
  7  3  1  0  0  0  0 
  8 11  1  0  0  0  0 
  9 12  1  0  0  0  0 
 10 13  1  0  0  0  0 
 11  1  1  0  0  0  0 
  3 12  1  1  0  0  0 
 13  4  1  0  0  0  0 
 14  6  1  0  0  0  0 
 15  6  2  0  0  0  0 
 16  8  1  0  0  0  0 
 17  9  1  0  0  0  0 
 18 10  1  0  0  0  0 
 19  9  2  0  0  0  0 
 20  8  2  0  0  0  0 
 21 10  2  0  0  0  0 
 22  6  1  0  0  0  0 
  5 23  1  1  0  0  0 
 24  9  1  0  0  0  0 
 25  8  1  0  0  0  0 
 26 10  1  0  0  0  0 
  7 27  1  6  0  0  0 
  5  4  1  0  0  0  0 
M  END