
          11280715092D 1   1.00000     0.00000     0

 28 30  0     0  0            999 V2000
    0.4750   -0.5417    0.0000 C   0  0  0  0  0  0           0  0  0
    1.1917   -0.9542    0.0000 O   0  0  0  0  0  0           0  0  0
    0.8250   -1.8667    0.0000 C   0  0  3  0  0  0           0  0  0
   -0.2458   -1.7792    0.0000 O   0  0  0  0  0  0           0  0  0
    1.9042    0.2958    0.0000 C   0  0  0  0  0  0           0  0  0
    1.1875    0.7000    0.0000 N   0  0  0  0  0  0           0  0  0
   -0.2458   -0.9542    0.0000 C   0  0  0  0  0  0           0  0  0
    0.4750    0.2833    0.0000 C   0  0  0  0  0  0           0  0  0
    2.6167    0.7083    0.0000 C   0  0  0  0  0  0           0  0  0
    1.9042   -0.5292    0.0000 O   0  0  0  0  0  0           0  0  0
    3.3292    0.2958    0.0000 C   0  0  0  0  0  0           0  0  0
    2.6042    1.5250    0.0000 C   0  0  0  0  0  0           0  0  0
    3.3167    1.9458    0.0000 C   0  0  0  0  0  0           0  0  0
    4.0417    0.7083    0.0000 C   0  0  0  0  0  0           0  0  0
    4.0417    1.5333    0.0000 C   0  0  0  0  0  0           0  0  0
    5.4667    1.5458    0.0000 N   0  0  0  0  0  0           0  0  0
    1.6500   -1.8667    0.0000 C   0  0  0  0  0  0           0  0  0
    0.6042   -2.6625    0.0000 C   0  0  0  0  0  0           0  0  0
   -0.9583   -0.5417    0.0000 C   0  0  0  0  0  0           0  0  0
   -0.2458    0.6958    0.0000 C   0  0  0  0  0  0           0  0  0
   -0.9583    0.2833    0.0000 C   0  0  0  0  0  0           0  0  0
    4.7542    1.9583    0.0000 C   0  0  0  0  0  0           0  0  0
   -0.1958   -2.8750    0.0000 C   0  0  0  0  0  0           0  0  0
    2.0625   -1.1542    0.0000 C   0  0  0  0  0  0           0  0  0
   -0.4083   -3.6667    0.0000 C   0  0  0  0  0  0           0  0  0
    2.8875   -1.1500    0.0000 C   0  0  0  0  0  0           0  0  0
   -1.2083   -3.8792    0.0000 C   0  0  0  0  0  0           0  0  0
    3.3000   -1.8667    0.0000 C   0  0  0  0  0  0           0  0  0
  2  1  1  0     0  0
  3  2  1  0     0  0
  4  7  1  0     0  0
  5  6  1  0     0  0
  6  8  1  0     0  0
  7  1  2  0     0  0
  8  1  1  0     0  0
  9  5  1  0     0  0
 10  5  2  0     0  0
 11  9  2  0     0  0
 12  9  1  0     0  0
 13 12  2  0     0  0
 14 11  1  0     0  0
 15 13  1  0     0  0
 16 22  1  0     0  0
  3 17  1  0     0  0
  3 18  1  0     0  0
 19  7  1  0     0  0
 20  8  2  0     0  0
 21 20  1  0     0  0
 22 15  1  0     0  0
 23 18  1  0     0  0
 24 17  1  0     0  0
 25 23  1  0     0  0
 26 24  1  0     0  0
 27 25  1  0     0  0
 28 26  1  0     0  0
  3  4  1  0     0  0
 19 21  2  0     0  0
 15 14  2  0     0  0
M  END