
          11280715112D 1   1.00000     0.00000     0

 22 24  0     0  0            999 V2000
   -1.0833   -1.0167    0.0000 N   0  0  0  0  0  0           0  0  0
   -1.3750   -0.5042    0.0000 C   0  0  0  0  0  0           0  0  0
   -0.9750   -0.0625    0.0000 N   0  0  0  0  0  0           0  0  0
   -0.4958   -0.9000    0.0000 C   0  0  0  0  0  0           0  0  0
   -0.4333   -0.3042    0.0000 C   0  0  0  0  0  0           0  0  0
   -3.3458   -1.3792    0.0000 N   0  0  0  0  0  0           0  0  0
    1.4917   -2.2125    0.0000 C   0  0  0  0  0  0           0  0  0
   -3.5333   -0.8042    0.0000 C   0  0  0  0  0  0           0  0  0
   -4.3208   -1.3667    0.0000 N   0  0  0  0  0  0           0  0  0
   -3.8333   -1.7292    0.0000 C   0  0  0  0  0  0           0  0  0
   -0.0583   -1.3042    0.0000 C   0  0  0  0  0  0           0  0  0
    0.9750   -1.9125    0.0000 C   0  0  0  0  0  0           0  0  0
   -4.1333   -0.8000    0.0000 C   0  0  0  0  0  0           0  0  0
    1.4917   -2.8125    0.0000 O   0  0  0  0  0  0           0  0  0
   -1.9750   -0.5042    0.0000 S   0  0  0  0  0  0           0  0  0
    0.4625   -1.0042    0.0000 C   0  0  0  0  0  0           0  0  0
   -0.0583   -1.9042    0.0000 C   0  0  0  0  0  0           0  0  0
    0.4542   -2.2042    0.0000 C   0  0  0  0  0  0           0  0  0
    0.9792   -1.3042    0.0000 C   0  0  0  0  0  0           0  0  0
    2.0167   -1.9167    0.0000 N   0  0  0  0  0  0           0  0  0
   -3.0083   -0.5042    0.0000 C   0  0  0  0  0  0           0  0  0
   -2.4958   -0.8042    0.0000 C   0  0  0  0  0  0           0  0  0
  2  1  2  0     0  0
  3  2  1  0     0  0
  4  1  1  0     0  0
  5  4  2  0     0  0
  6  8  1  0     0  0
  7 12  1  0     0  0
  8 21  1  0     0  0
  9 13  1  0     0  0
 10  6  2  0     0  0
 11  4  1  0     0  0
 12 18  1  0     0  0
 13  8  2  0     0  0
 14  7  2  0     0  0
 15  2  1  0     0  0
 16 11  2  0     0  0
 17 11  1  0     0  0
 18 17  2  0     0  0
 19 16  1  0     0  0
 20  7  1  0     0  0
 21 22  1  0     0  0
 22 15  1  0     0  0
  3  5  1  0     0  0
 19 12  2  0     0  0
 10  9  1  0     0  0
M  END