
  SciTegic12231509382D

 10 10  0  0  1  0            999 V2000
    4.8792   -5.2792    0.0000 C   0  0
    5.5000   -6.3375    0.0000 N   0  0
    4.2667   -5.6375    0.0000 C   0  0
    5.4875   -5.6250    0.0000 C   0  0  2  0  0  0
    3.6542   -5.2792    0.0000 C   0  0
    4.2667   -6.3417    0.0000 C   0  0
    6.1042   -5.2667    0.0000 C   0  0
    3.0375   -5.6375    0.0000 C   0  0
    3.6542   -6.7000    0.0000 C   0  0
    3.0375   -6.3417    0.0000 C   0  0
  2  4  1  0
  3  1  1  0
  4  1  1  0
  5  3  2  0
  6  3  1  0
  4  7  1  1
  8  5  1  0
  9  6  2  0
 10  9  1  0
  8 10  2  0
M  END