
  SciTegic04191610272D

 26 29  0  0  0  0            999 V2000
   -1.2964    1.4973    0.0000 N   0  0
   -2.6111    0.7486    0.0000 C   0  0
   -2.6111   -0.7486    0.0000 C   0  0
   -1.2964   -1.4973    0.0000 C   0  0
    0.0000   -0.7486    0.0000 C   0  0
    1.2964   -1.4973    0.0000 C   0  0
    2.5929   -0.7486    0.0000 C   0  0
    2.5929    0.7486    0.0000 N   0  0
    1.2964    1.4973    0.0000 C   0  0
    0.0000    0.7486    0.0000 C   0  0
   -3.6486    1.3517    0.0000 O   0  0
   -3.6486   -1.3517    0.0000 C   0  0
    1.2995    2.9981    0.0000 N   0  0
    2.6003    3.7467    0.0000 C   0  0
    2.6056    5.2467    0.0000 C   0  0
    3.9072    5.9922    0.0000 C   0  0
    5.2037    5.2377    0.0000 N   0  0
    5.1985    3.7377    0.0000 C   0  0
    3.8969    2.9922    0.0000 C   0  0
    1.2964   -2.9980    0.0000 C   0  0
    2.5942   -3.7503    0.0000 C   0  0
    2.5918   -5.2503    0.0000 N   0  0
    1.2915   -5.9981    0.0000 C   0  0
   -0.0063   -5.2460    0.0000 C   0  0
   -0.0038   -3.7460    0.0000 C   0  0
   -1.0465   -5.8443    0.0000 C   0  0
  1  2  1  0
  2  3  1  0
  3  4  2  0
  4  5  1  0
  5  6  1  0
  6  7  2  0
  7  8  1  0
  8  9  2  0
  9 10  1  0
  1 10  1  0
  5 10  2  0
  2 11  2  0
  3 12  1  0
  9 13  1  0
 13 14  1  0
 14 15  1  0
 14 19  1  0
 15 16  1  0
 16 17  1  0
 17 18  1  0
 18 19  1  0
 20 21  2  0
 21 22  1  0
 22 23  2  0
 23 24  1  0
 24 25  2  0
 25 20  1  0
  6 20  1  0
 24 26  1  0
M  END