
  SciTegic12231509382D

 14 15  0  0  1  0            999 V2000
    5.0569   -0.1525    0.0000 S   0  0
    5.0569   -1.4866    0.0000 N   0  0
    2.1346    0.0000    0.0000 N   0  0
    6.3529   -0.8132    0.0000 N   0  0
    4.2692   -0.4066    0.0000 C   0  0
    4.2692   -1.2324    0.0000 C   0  0
    5.5271   -0.8132    0.0000 C   0  0
    3.5577    0.0000    0.0000 C   0  0
    2.8398   -0.4066    0.0000 C   0  0  2  0  0  0
    3.5577   -1.6391    0.0000 C   0  0
    2.8398   -1.2324    0.0000 C   0  0
    1.4231   -0.4066    0.0000 C   0  0
    0.7052    0.0000    0.0000 C   0  0
    0.0000   -0.4066    0.0000 C   0  0
  1  5  1  0
  1  7  1  0
  2  6  1  0
  2  7  2  0
  9  3  1  6
  3 12  1  0
  4  7  1  0
  5  6  2  0
  5  8  1  0
  6 10  1  0
  8  9  1  0
  9 11  1  0
 10 11  1  0
 12 13  1  0
 13 14  1  0
M  END