
  SciTegic12231509382D

 21 19  0  0  0  0            999 V2000
    1.8498   -9.0525    0.0000 C   0  0
    2.5638   -8.6392    0.0000 C   0  0
    3.2778   -9.0484    0.0000 C   0  0
    3.9918   -8.6350    0.0000 C   0  0
    4.7058   -9.0442    0.0000 C   0  0
    5.4198   -8.6309    0.0000 C   0  0
    6.1339   -9.0400    0.0000 C   0  0
    6.8479   -8.6267    0.0000 C   0  0
    7.5619   -9.0358    0.0000 C   0  0
    8.2760   -8.6225    0.0000 C   0  0
    8.9899   -9.0317    0.0000 C   0  0
    9.7040   -8.6183    0.0000 C   0  0
   10.4179   -9.0275    0.0000 C   0  0
   11.1320   -8.6142    0.0000 C   0  0
   11.8460   -9.0233    0.0000 C   0  0
   12.5600   -8.6099    0.0000 C   0  0
   13.2741   -9.0192    0.0000 C   0  0
   13.9880   -8.6058    0.0000 C   0  0
   14.7045   -9.0183    0.0000 O   0  5
   13.9870   -7.7790    0.0000 O   0  0
   16.0550   -9.1778    0.0000 K   0  3
  1  2  1  0
  2  3  1  0
  3  4  1  0
  4  5  1  0
  5  6  1  0
  6  7  1  0
  7  8  1  0
  8  9  1  0
  9 10  2  0
 10 11  1  0
 11 12  1  0
 12 13  1  0
 13 14  1  0
 14 15  1  0
 15 16  1  0
 16 17  1  0
 17 18  1  0
 18 19  1  0
 18 20  2  0
M  CHG  2  19  -1  21   1
M  END