
          11280715182D 1   1.00000     0.00000     0

 28 30  0     0  0            999 V2000
    7.2125   -1.8250    0.0000 C   0  0  0  0  0  0           0  0  0
    2.2042   -3.0625    0.0000 C   0  0  0  0  0  0           0  0  0
    7.2125   -2.6542    0.0000 C   0  0  0  0  0  0           0  0  0
    6.4917   -1.4125    0.0000 C   0  0  0  0  0  0           0  0  0
    2.2042   -3.8875    0.0000 C   0  0  0  0  0  0           0  0  0
    4.3542   -2.6500    0.0000 C   0  0  0  0  0  0           0  0  0
    2.9167   -2.6500    0.0000 C   0  0  0  0  0  0           0  0  0
    7.9375   -1.4042    0.0000 C   0  0  0  0  0  0           0  0  0
    5.7792   -2.6542    0.0000 C   0  0  0  0  0  0           0  0  0
    5.0667   -3.0667    0.0000 N   0  0  0  0  0  0           0  0  0
    3.6292   -3.0625    0.0000 C   0  0  0  0  0  0           0  0  0
    1.4917   -2.6500    0.0000 C   0  0  3  0  0  0           0  0  0
    5.7792   -1.8250    0.0000 C   0  0  0  0  0  0           0  0  0
    6.4917   -3.0667    0.0000 C   0  0  0  0  0  0           0  0  0
    1.4917   -4.3000    0.0000 C   0  0  3  0  0  0           0  0  0
    2.9167   -4.3000    0.0000 C   0  0  0  0  0  0           0  0  0
    4.3542   -1.8250    0.0000 O   0  0  0  0  0  0           0  0  0
    3.6292   -3.8875    0.0000 C   0  0  0  0  0  0           0  0  0
    7.9375   -0.5792    0.0000 O   0  0  0  0  0  0           0  0  0
    0.7750   -3.0625    0.0000 C   0  0  0  0  0  0           0  0  0
    0.7750   -3.8875    0.0000 C   0  0  0  0  0  0           0  0  0
    6.4792   -0.5875    0.0000 F   0  0  0  0  0  0           0  0  0
    7.9292   -3.0750    0.0000 F   0  0  0  0  0  0           0  0  0
    8.6542   -1.8250    0.0000 O   0  0  0  0  0  0           0  0  0
    1.0292   -1.9875    0.0000 C   0  0  0  0  0  0           0  0  0
    2.0792   -2.0667    0.0000 C   0  0  0  0  0  0           0  0  0
    0.9167   -4.8792    0.0000 C   0  0  0  0  0  0           0  0  0
    2.0792   -4.8792    0.0000 C   0  0  0  0  0  0           0  0  0
  2  7  1  0     0  0
  3  1  2  0     0  0
  4  1  1  0     0  0
  5 16  1  0     0  0
  6 10  1  0     0  0
  7 11  2  0     0  0
  8  1  1  0     0  0
  9 13  1  0     0  0
 10  9  1  0     0  0
 11  6  1  0     0  0
 12  2  1  0     0  0
 13  4  2  0     0  0
 14  3  1  0     0  0
 15  5  1  0     0  0
 16 18  2  0     0  0
 17  6  2  0     0  0
 18 11  1  0     0  0
 19  8  2  0     0  0
 20 12  1  0     0  0
 21 15  1  0     0  0
 22  4  1  0     0  0
 23  3  1  0     0  0
 24  8  1  0     0  0
 25 12  1  0     0  0
 26 12  1  0     0  0
 27 15  1  0     0  0
 28 15  1  0     0  0
  9 14  2  0     0  0
  2  5  2  0     0  0
 20 21  1  0     0  0
M  END