
  SciTegic12151613562D

 33 36  0  0  0  0            999 V2000
   -1.0028   -1.5132    0.0000 C   0  0
    0.2917   -0.7475    0.0000 C   0  0
    0.2917    0.7475    0.0000 C   0  0
   -1.0028    1.5132    0.0000 C   0  0
   -2.3155    0.7475    0.0000 C   0  0
   -2.3155   -0.7475    0.0000 N   0  0
    1.7138   -1.2033    0.0000 C   0  0
    2.5889    0.0182    0.0000 C   0  0
    1.7138    1.2033    0.0000 S   0  0
    4.0872    0.0382    0.0000 C   0  0
    4.7008   -0.9930    0.0000 N   0  0
    4.8208    1.3475    0.0000 N   0  0
   -0.9982    3.0140    0.0000 C   0  0
   -2.2894    3.7767    0.0000 C   0  0
   -2.2745    5.2767    0.0000 C   0  0
   -0.9680    6.0137    0.0000 C   0  0
    0.3235    5.2508    0.0000 C   0  0
    0.3086    3.7509    0.0000 C   0  0
   -0.9991   -2.7132    0.0000 O   0  0
   -3.6217   -1.4865    0.0000 C   0  0
   -4.6560   -0.8780    0.0000 C   0  0
    8.5566    2.6924    0.0000 C   0  0
    7.0567    2.6752    0.0000 C   0  0
    6.3215    1.3677    0.0000 C   0  0
    7.0864    0.0773    0.0000 C   0  0
    8.5863    0.0945    0.0000 C   0  0
    9.3214    1.4020    0.0000 S   0  0
    9.9087    0.3555    0.0000 O   0  0
    9.8848    2.4615    0.0000 O   0  0
   -3.5667    6.0400    0.0000 C   0  0
   -4.6122    5.4510    0.0000 F   0  0
   -3.5543    7.2399    0.0000 F   0  0
   -4.5996    6.6508    0.0000 F   0  0
  1  2  1  0
  2  3  2  0
  3  4  1  0
  4  5  2  0
  5  6  1  0
  1  6  1  0
  7  8  2  0
  8  9  1  0
  2  7  1  0
  3  9  1  0
 10 11  2  0
 10 12  1  0
  8 10  1  0
 13 14  1  0
 14 15  2  0
 15 16  1  0
 16 17  2  0
 17 18  1  0
 13 18  2  0
  4 13  1  0
  1 19  2  0
 20 21  1  0
  6 20  1  0
 22 23  1  0
 23 24  1  0
 24 25  1  0
 25 26  1  0
 26 27  1  0
 22 27  1  0
 27 28  2  0
 27 29  2  0
 12 24  1  0
 30 31  1  0
 30 32  1  0
 30 33  1  0
 15 30  1  0
M  END