
  CDK    9/16/09,9:59

 19 20  0  0  0  0  0  0  0  0999 V2000
    3.5388  -23.0073    0.0000 C   0  0  0  0  0  0  0  0  0  0  0  0
    3.9495  -22.2934    0.0000 N   0  0  0  0  0  0  0  0  0  0  0  0
    3.1240  -23.7187    0.0000 C   0  0  0  0  0  0  0  0  0  0  0  0
    4.2515  -23.4201    0.0000 C   0  0  0  0  0  0  0  0  0  0  0  0
    2.8260  -22.5946    0.0000 C   0  0  0  0  0  0  0  0  0  0  0  0
    2.1123  -23.0056    0.0000 O   0  0  0  0  0  0  0  0  0  0  0  0
    2.3004  -23.7152    0.0000 O   0  0  0  0  0  0  0  0  0  0  0  0
    4.2503  -24.2437    0.0000 O   0  0  0  0  0  0  0  0  0  0  0  0
    4.7721  -22.2931    0.0000 C   0  0  0  0  0  0  0  0  0  0  0  0
    5.1786  -21.5672    0.0000 C   0  0  0  0  0  0  0  0  0  0  0  0
    5.1798  -20.2333    0.0000 N   0  0  0  0  0  0  0  0  0  0  0  0
    4.6995  -20.9033    0.0000 C   0  0  0  0  0  0  0  0  0  0  0  0
    5.9671  -20.4885    0.0000 C   0  0  0  0  0  0  0  0  0  0  0  0
    5.9650  -21.3142    0.0000 C   0  0  0  0  0  0  0  0  0  0  0  0
    6.6826  -21.7292    0.0000 N   0  0  0  0  0  0  0  0  0  0  0  0
    7.4029  -21.3154    0.0000 C   0  0  0  0  0  0  0  0  0  0  0  0
    7.4009  -20.4864    0.0000 N   0  0  0  0  0  0  0  0  0  0  0  0
    6.6826  -20.0710    0.0000 C   0  0  0  0  0  0  0  0  0  0  0  0
    6.6811  -19.2433    0.0000 O   0  0  0  0  0  0  0  0  0  0  0  0
  9 10  1  0  0  0  0 
 10 14  1  0  0  0  0 
  1  3  1  0  0  0  0 
  5  6  1  0  0  0  0 
 13 11  1  0  0  0  0 
 11 12  1  0  0  0  0 
 12 10  2  0  0  0  0 
  1  2  1  0  0  0  0 
  3  7  1  0  0  0  0 
 13 14  2  0  0  0  0 
  1  4  1  0  0  0  0 
 14 15  1  0  0  0  0 
  4  8  1  0  0  0  0 
 15 16  2  0  0  0  0 
 16 17  1  0  0  0  0 
  2  9  1  0  0  0  0 
 17 18  1  0  0  0  0 
 18 13  1  0  0  0  0 
  1  5  1  0  0  0  0 
 18 19  2  0  0  0  0 
M  END