
          05270816392D 1   1.00000     0.00000     0

 34 39  0     1  0            999 V2000
   -3.5079   -4.1021    0.0000 C   0  0  0  0  0  0           0  0  0
   -3.5092   -4.9251    0.0000 C   0  0  0  0  0  0           0  0  0
   -2.0845   -4.0981    0.0000 C   0  0  0  0  0  0           0  0  0
   -2.7936   -3.6894    0.0000 C   0  0  0  0  0  0           0  0  0
   -2.0815   -4.9247    0.0000 C   0  0  0  0  0  0           0  0  0
   -2.7929   -5.3392    0.0000 C   0  0  0  0  0  0           0  0  0
   -2.7942   -6.1613    0.0000 C   0  0  0  0  0  0           0  0  0
   -2.0811   -6.5752    0.0000 C   0  0  0  0  0  0           0  0  0
   -4.1251   -5.4772    0.0000 N   0  0  0  0  0  0           0  0  0
   -3.5786   -6.4159    0.0000 C   0  0  0  0  0  0           0  0  0
   -1.3667   -5.3369    0.0000 C   0  0  2  0  0  0           0  0  0
   -1.3659   -6.1648    0.0000 C   0  0  2  0  0  0           0  0  0
   -0.6524   -6.5756    0.0000 N   0  0  3  0  0  0           0  0  0
    0.0647   -6.1632    0.0000 C   0  0  0  0  0  0           0  0  0
    0.0638   -5.3353    0.0000 C   0  0  1  0  0  0           0  0  0
   -0.6542   -4.9199    0.0000 C   0  0  0  0  0  0           0  0  0
   -1.3750   -6.9852    0.0000 H   0  0  0  0  0  0           0  0  0
   -1.3750   -4.5101    0.0000 H   0  0  0  0  0  0           0  0  0
   -0.6528   -7.4006    0.0000 C   0  0  0  0  0  0           0  0  0
    0.7783   -4.9228    0.0000 C   0  0  0  0  0  0           0  0  0
    0.7783   -4.0978    0.0000 O   0  0  0  0  0  0           0  0  0
    1.4927   -5.3353    0.0000 N   0  0  3  0  0  0           0  0  0
    1.4877   -6.1656    0.0000 C   0  0  0  0  0  0           0  0  0
    2.1981   -6.5780    0.0000 C   0  0  0  0  0  0           0  0  0
    2.9150   -6.1690    0.0000 N   0  0  3  0  0  0           0  0  0
    2.9169   -5.3430    0.0000 C   0  0  0  0  0  0           0  0  0
    2.2019   -4.9261    0.0000 C   0  0  0  0  0  0           0  0  0
    3.6279   -6.5842    0.0000 C   0  0  0  0  0  0           0  0  0
    3.6198   -7.4081    0.0000 C   0  0  0  0  0  0           0  0  0
    4.3319   -7.8233    0.0000 C   0  0  0  0  0  0           0  0  0
    5.0490   -7.4133    0.0000 C   0  0  0  0  0  0           0  0  0
    5.0494   -6.5841    0.0000 C   0  0  0  0  0  0           0  0  0
    4.3367   -6.1727    0.0000 N   0  0  0  0  0  0           0  0  0
   -3.8731   -7.1866    0.0000 Br  0  0  0  0  0  0           0  0  0
 14 15  1  0     0  0
 15 16  1  0     0  0
  6  7  1  0     0  0
 12 17  1  1     0  0
  7  8  1  0     0  0
 11 18  1  6     0  0
  8 12  1  0     0  0
 13 19  1  0     0  0
  3  4  2  0     0  0
 15 20  1  1     0  0
  2  9  1  0     0  0
 20 21  2  0     0  0
  4  1  1  0     0  0
 20 22  1  0     0  0
 22 23  1  0     0  0
  7 10  2  0     0  0
  9 10  1  0     0  0
 11 12  1  0     0  0
  5  6  2  0     0  0
  2  6  1  0     0  0
 22 27  1  0     0  0
 23 24  1  0     0  0
 24 25  1  0     0  0
 25 26  1  0     0  0
 26 27  1  0     0  0
 25 28  1  0     0  0
  5  3  1  0     0  0
 28 29  2  0     0  0
  1  2  2  0     0  0
 29 30  1  0     0  0
  5 11  1  0     0  0
 30 31  2  0     0  0
 11 16  1  0     0  0
 31 32  1  0     0  0
 12 13  1  0     0  0
 32 33  2  0     0  0
 33 28  1  0     0  0
 13 14  1  0     0  0
 10 34  1  0     0  0
M  END