
          11280715142D 1   1.00000     0.00000     0

 62 68  0     1  0            999 V2000
    9.8750   -0.9917    0.0000 O   0  0  0  0  0  0           0  0  0
    9.9000   -0.1667    0.0000 C   0  0  1  0  0  0           0  0  0
   -1.6958   -7.4250    0.0000 O   0  0  0  0  0  0           0  0  0
    9.1500   -1.3792    0.0000 C   0  0  2  0  0  0           0  0  0
   10.6375    0.2125    0.0000 C   0  0  0  0  0  0           0  0  0
   -2.4125   -7.0125    0.0000 C   0  0  2  0  0  0           0  0  0
    9.1167   -2.2042    0.0000 C   0  0  0  0  0  0           0  0  0
   -0.9833   -7.0167    0.0000 C   0  0  1  0  0  0           0  0  0
    9.2125    0.2708    0.0000 O   0  0  0  0  0  0           0  0  0
   -2.4125   -6.1917    0.0000 O   0  0  0  0  0  0           0  0  0
   -5.9875   -9.0792    0.0000 N   0  0  0  0  0  0           0  0  0
    8.4500   -0.9417    0.0000 C   0  0  1  0  0  0           0  0  0
    4.0167   -5.7792    0.0000 O   0  0  0  0  0  0           0  0  0
    5.4417   -4.9542    0.0000 O   0  0  0  0  0  0           0  0  0
    4.7375   -6.1917    0.0000 C   0  0  0  0  0  0           0  0  0
    5.4417   -5.7792    0.0000 C   0  0  0  0  0  0           0  0  0
   -5.2708   -8.6667    0.0000 C   0  0  0  0  0  0           0  0  0
   -0.9833   -6.1917    0.0000 C   0  0  1  0  0  0           0  0  0
   -0.2708   -7.4292    0.0000 C   0  0  0  0  0  0           0  0  0
    3.3042   -6.1917    0.0000 C   0  0  0  0  0  0           0  0  0
    6.1667   -4.5667    0.0000 C   0  0  0  0  0  0           0  0  0
   -3.1250   -7.4292    0.0000 C   0  0  0  0  0  0           0  0  0
   11.3375   -0.2292    0.0000 C   0  0  0  0  0  0           0  0  0
    9.8167   -2.6375    0.0000 C   0  0  0  0  0  0           0  0  0
    8.4792   -0.1167    0.0000 C   0  0  0  0  0  0           0  0  0
   -1.7000   -5.7792    0.0000 C   0  0  0  0  0  0           0  0  0
    0.4375   -8.6667    0.0000 N   0  0  0  0  0  0           0  0  0
    3.3042   -7.0167    0.0000 O   0  0  0  0  0  0           0  0  0
    6.8667   -5.0042    0.0000 O   0  0  0  0  0  0           0  0  0
   -3.8375   -7.0167    0.0000 C   0  0  0  0  0  0           0  0  0
   -3.1250   -8.2542    0.0000 C   0  0  0  0  0  0           0  0  0
    6.8417   -1.5250    0.0000 C   0  0  0  0  0  0           0  0  0
    0.4500   -6.1917    0.0000 C   0  0  0  0  0  0           0  0  0
    6.3542   -2.4917    0.0000 C   0  0  0  0  0  0           0  0  0
    1.1792   -6.1792    0.0000 C   0  0  0  0  0  0           0  0  0
   -4.5500   -8.2542    0.0000 C   0  0  0  0  0  0           0  0  0
   11.3000   -1.0542    0.0000 Cl  0  0  0  0  0  0           0  0  0
   -3.8375   -8.6667    0.0000 C   0  0  0  0  0  0           0  0  0
   -4.5500   -7.4292    0.0000 C   0  0  0  0  0  0           0  0  0
   -0.2750   -8.2542    0.0000 C   0  0  0  0  0  0           0  0  0
   10.5500   -2.2500    0.0000 O   0  0  0  0  0  0           0  0  0
   10.6667    1.0333    0.0000 C   0  0  0  0  0  0           0  0  0
    8.3917   -2.5792    0.0000 C   0  0  0  0  0  0           0  0  0
    7.7000   -1.4292    0.0000 C   0  0  0  0  0  0           0  0  0
   -0.2708   -5.7792    0.0000 C   0  0  0  0  0  0           0  0  0
    6.2000   -3.7417    0.0000 C   0  0  0  0  0  0           0  0  0
    2.5875   -5.7792    0.0000 C   0  0  0  0  0  0           0  0  0
    0.4375   -7.0167    0.0000 C   0  0  0  0  0  0           0  0  0
    4.7292   -7.0167    0.0000 C   0  0  0  0  0  0           0  0  0
    6.1542   -6.1875    0.0000 C   0  0  0  0  0  0           0  0  0
    1.1542   -8.2542    0.0000 C   0  0  0  0  0  0           0  0  0
    1.7667   -5.8375    0.0000 C   0  0  0  0  0  0           0  0  0
    6.9292   -3.3542    0.0000 C   0  0  0  0  0  0           0  0  0
   12.0625    0.1583    0.0000 C   0  0  0  0  0  0           0  0  0
    9.7875   -3.4625    0.0000 C   0  0  0  0  0  0           0  0  0
    1.1500   -7.4250    0.0000 C   0  0  0  0  0  0           0  0  0
   11.3917    1.4208    0.0000 C   0  0  0  0  0  0           0  0  0
    8.3625   -3.4042    0.0000 C   0  0  0  0  0  0           0  0  0
    6.1625   -7.0167    0.0000 C   0  0  0  0  0  0           0  0  0
    5.4417   -7.4292    0.0000 C   0  0  0  0  0  0           0  0  0
   12.0917    0.9833    0.0000 C   0  0  0  0  0  0           0  0  0
    9.0625   -3.8417    0.0000 C   0  0  0  0  0  0           0  0  0
  2  1  1  0     0  0
  3  8  1  0     0  0
  4  1  1  0     0  0
  2  5  1  6     0  0
  6 10  1  0     0  0
  4  7  1  6     0  0
  8 18  1  0     0  0
  9  2  1  0     0  0
 10 26  1  0     0  0
 11 17  3  0     0  0
 12  4  1  0     0  0
 13 15  1  0     0  0
 14 21  1  0     0  0
 15 16  1  0     0  0
 16 14  1  0     0  0
 17 36  1  0     0  0
 18 45  1  1     0  0
  8 19  1  1     0  0
 20 13  1  0     0  0
 21 46  1  0     0  0
  6 22  1  1     0  0
 23  5  1  0     0  0
 24  7  2  0     0  0
 25 12  1  0     0  0
 26 18  1  0     0  0
 27 40  1  0     0  0
 28 20  2  0     0  0
 29 21  2  0     0  0
 30 22  2  0     0  0
 31 22  1  0     0  0
 32 44  1  0     0  0
 33 35  2  0     0  0
 34 32  2  0     0  0
 35 52  1  0     0  0
 36 38  1  0     0  0
 37 23  1  0     0  0
 38 31  2  0     0  0
 39 30  1  0     0  0
 40 19  2  0     0  0
 41 24  1  0     0  0
 42  5  2  0     0  0
 43  7  1  0     0  0
 12 44  1  6     0  0
 45 33  1  0     0  0
 46 53  1  0     0  0
 47 20  1  0     0  0
 48 19  1  0     0  0
 49 15  2  0     0  0
 50 16  2  0     0  0
 51 56  1  0     0  0
 52 47  1  0     0  0
 53 34  1  0     0  0
 54 23  2  0     0  0
 55 24  1  0     0  0
 56 48  2  0     0  0
 57 42  1  0     0  0
 58 43  2  0     0  0
 59 50  1  0     0  0
 60 59  2  0     0  0
 61 57  2  0     0  0
 62 58  1  0     0  0
 25  9  1  0     0  0
 55 62  2  0     0  0
 61 54  1  0     0  0
 49 60  1  0     0  0
  6  3  1  0     0  0
 27 51  2  0     0  0
 39 36  2  0     0  0
M  END