
          11280714522D 1   1.00000     0.00000     0

 41 45  0     0  0            999 V2000
   -0.0833   -3.4917    0.0000 C   0  0  0  0  0  0           0  0  0
    0.5792   -3.0167    0.0000 N   0  0  0  0  0  0           0  0  0
   -0.3458   -2.8167    0.0000 C   0  0  3  0  0  0           0  0  0
    1.2542   -3.4917    0.0000 C   0  0  0  0  0  0           0  0  0
   -1.5000    1.5375    0.0000 S   0  0  3  0  0  0           0  0  0
   -0.1958   -2.1292    0.0000 C   0  0  3  0  0  0           0  0  0
   -1.6583   -2.9042    0.0000 C   0  0  3  0  0  0           0  0  0
   -1.3208   -3.6917    0.0000 O   0  0  0  0  0  0           0  0  0
   -1.0833    0.8208    0.0000 N   0  0  0  0  0  0           0  0  0
    0.1667   -4.2792    0.0000 O   0  0  0  0  0  0           0  0  0
   -0.9833   -2.3542    0.0000 C   0  0  3  0  0  0           0  0  0
    0.9917   -4.2792    0.0000 C   0  0  0  0  0  0           0  0  0
    0.0167   -1.3292    0.0000 C   0  0  0  0  0  0           0  0  0
    1.9167   -3.2167    0.0000 C   0  0  0  0  0  0           0  0  0
   -1.2958    0.0125    0.0000 C   0  0  0  0  0  0           0  0  0
    0.8125   -1.5417    0.0000 C   0  0  0  0  0  0           0  0  0
   -1.0875    2.2708    0.0000 O   0  0  0  0  0  0           0  0  0
   -2.3333    1.5375    0.0000 O   0  0  0  0  0  0           0  0  0
   -1.9333   -2.3667    0.0000 C   0  0  0  0  0  0           0  0  0
   -1.4583   -1.8792    0.0000 C   0  0  0  0  0  0           0  0  0
    0.5917   -0.7542    0.0000 C   0  0  0  0  0  0           0  0  0
    2.0042   -2.4667    0.0000 O   0  0  0  0  0  0           0  0  0
   -2.1000   -0.1917    0.0000 O   0  0  0  0  0  0           0  0  0
    2.5667   -3.6292    0.0000 N   0  0  0  0  0  0           0  0  0
    0.0042   -0.1667    0.0000 C   0  0  0  0  0  0           0  0  0
   -0.7083   -0.5750    0.0000 C   0  0  0  0  0  0           0  0  0
   -1.9208    2.2583    0.0000 C   0  0  0  0  0  0           0  0  0
    1.6042   -1.7542    0.0000 C   0  0  0  0  0  0           0  0  0
    6.1542   -3.2542    0.0000 C   0  0  3  0  0  0           0  0  0
    1.1667   -0.1750    0.0000 C   0  0  0  0  0  0           0  0  0
    3.3042   -3.2625    0.0000 C   0  0  0  0  0  0           0  0  0
    5.4417   -3.6667    0.0000 C   0  0  0  0  0  0           0  0  0
    6.8750   -3.6625    0.0000 C   0  0  0  0  0  0           0  0  0
    6.1500   -2.4292    0.0000 C   0  0  0  0  0  0           0  0  0
    4.0167   -3.6750    0.0000 C   0  0  0  0  0  0           0  0  0
    4.7292   -3.2542    0.0000 C   0  0  0  0  0  0           0  0  0
    2.1792   -1.1750    0.0000 C   0  0  0  0  0  0           0  0  0
    1.9667   -0.3792    0.0000 C   0  0  0  0  0  0           0  0  0
    6.8667   -2.0125    0.0000 C   0  0  0  0  0  0           0  0  0
    7.5792   -3.2500    0.0000 C   0  0  0  0  0  0           0  0  0
    7.5792   -2.4250    0.0000 C   0  0  0  0  0  0           0  0  0
  2  1  2  0     0  0
  3  1  1  0     0  0
  4  2  1  0     0  0
  5  9  1  0     0  0
  6  3  1  0     0  0
  7  3  1  0     0  0
  8  7  1  0     0  0
  9 15  1  0     0  0
 10  1  1  0     0  0
 11  6  1  0     0  0
 12 10  1  0     0  0
 13  6  1  0     0  0
 14  4  1  0     0  0
 15 26  1  0     0  0
 16 13  1  0     0  0
 17  5  2  0     0  0
 18  5  2  0     0  0
 19  7  1  0     0  0
 20 19  1  0     0  0
 21 16  1  0     0  0
 22 14  2  0     0  0
 23 15  2  0     0  0
 24 14  1  0     0  0
 25 21  1  0     0  0
 26 25  1  0     0  0
 27  5  1  0     0  0
 28 16  2  0     0  0
 29 32  1  0     0  0
 30 21  2  0     0  0
 31 24  1  0     0  0
 32 36  1  0     0  0
 33 29  1  0     0  0
 34 29  1  0     0  0
 35 31  1  0     0  0
 36 35  1  0     0  0
 37 28  1  0     0  0
 38 37  2  0     0  0
 39 34  1  0     0  0
 40 33  1  0     0  0
 41 39  1  0     0  0
 12  4  2  0     0  0
 11  8  1  0     0  0
 11 20  1  0     0  0
 30 38  1  0     0  0
 41 40  1  0     0  0
M  END