
          11280715492D 1   1.00000     0.00000     0

 20 20  0     1  0            999 V2000
    4.4375  -13.8375    0.0000 C   0  0  0  0  0  0           0  0  0
    4.4375  -14.6625    0.0000 C   0  0  0  0  0  0           0  0  0
    5.1495  -15.0708    0.0000 N   0  0  3  0  0  0           0  0  0
    5.8615  -14.6625    0.0000 C   0  0  0  0  0  0           0  0  0
    5.8615  -13.8375    0.0000 N   0  0  3  0  0  0           0  0  0
    5.1495  -13.4208    0.0000 C   0  0  0  0  0  0           0  0  0
    5.1495  -12.5958    0.0000 O   0  0  0  0  0  0           0  0  0
    6.5754  -15.0760    0.0000 O   0  0  0  0  0  0           0  0  0
    5.1495  -15.8958    0.0000 C   0  0  0  0  0  0           0  0  0
    4.4350  -16.3083    0.0000 C   0  0  1  0  0  0           0  0  0
    4.4350  -17.1333    0.0000 C   0  0  0  0  0  0           0  0  0
    3.7206  -15.8958    0.0000 N   0  0  0  0  0  0           0  0  0
    3.7206  -17.5458    0.0000 O   0  0  0  0  0  0           0  0  0
    5.1495  -17.5458    0.0000 O   0  0  0  0  0  0           0  0  0
    6.5772  -13.4271    0.0000 C   0  0  0  0  0  0           0  0  0
    7.2905  -13.8417    0.0000 C   0  0  0  0  0  0           0  0  0
    8.0062  -13.4313    0.0000 C   0  0  0  0  0  0           0  0  0
    8.7194  -13.8459    0.0000 C   0  0  0  0  0  0           0  0  0
    9.4351  -13.4355    0.0000 O   0  0  0  0  0  0           0  0  0
    8.7170  -14.6709    0.0000 O   0  0  0  0  0  0           0  0  0
  9 10  1  0     0  0
  3  4  1  0     0  0
 10 11  1  0     0  0
  4  5  1  0     0  0
 10 12  1  1     0  0
  5  6  1  0     0  0
 11 13  1  0     0  0
 11 14  2  0     0  0
  6  7  2  0     0  0
  5 15  1  0     0  0
  1  2  2  0     0  0
 15 16  1  0     0  0
  4  8  2  0     0  0
 16 17  1  0     0  0
  1  6  1  0     0  0
 17 18  1  0     0  0
  3  9  1  0     0  0
 18 19  1  0     0  0
  2  3  1  0     0  0
 18 20  2  0     0  0
M  END