
          11280715522D 1   1.00000     0.00000     0

 13 13  0     0  0            999 V2000
    0.6717   -1.0554    0.0000 O   0  0  0  0  0  0           0  0  0
    1.4914   -1.0631    0.0000 C   0  0  0  0  0  0           0  0  0
    1.7444   -0.2833    0.0000 C   0  0  3  0  0  0           0  0  0
    1.0914    0.2087    0.0000 O   0  0  0  0  0  0           0  0  0
    0.4157   -0.2756    0.0000 C   0  0  3  0  0  0           0  0  0
    0.3715    0.5535    0.0000 C   0  0  0  0  0  0           0  0  0
   -0.1418   -0.8837    0.0000 C   0  0  0  0  0  0           0  0  0
    2.5303   -0.0321    0.0000 C   0  0  0  0  0  0           0  0  0
    3.1394   -0.5897    0.0000 N   0  0  0  0  0  0           0  0  0
    3.9253   -0.3384    0.0000 S   0  0  3  0  0  0           0  0  0
    3.7070    0.4599    0.0000 O   0  0  0  0  0  0           0  0  0
    4.1344   -1.1319    0.0000 O   0  0  0  0  0  0           0  0  0
    4.7167   -0.1223    0.0000 N   0  0  0  0  0  0           0  0  0
  1  2  1  0     0  0
  2  3  1  0     0  0
  3  4  1  0     0  0
  4  5  1  0     0  0
  5  1  1  0     0  0
  5  6  1  0     0  0
  5  7  1  0     0  0
  3  8  1  0     0  0
  8  9  1  0     0  0
  9 10  1  0     0  0
 10 11  2  0     0  0
 10 12  2  0     0  0
 10 13  1  0     0  0
M  END