
  Mrv0541 05211314572D          

 22 22  0  0  0  0            999 V2000
    2.4946    2.5517    0.0000 C   0  0  0  0  0  0  0  0  0  0  0  0
    2.9071    1.8372    0.0000 C   0  0  0  0  0  0  0  0  0  0  0  0
    2.4946    1.1227    0.0000 C   0  0  0  0  0  0  0  0  0  0  0  0
    1.6696    1.1227    0.0000 C   0  0  0  0  0  0  0  0  0  0  0  0
    1.2571    1.8372    0.0000 C   0  0  0  0  0  0  0  0  0  0  0  0
    1.6696    2.5517    0.0000 N   0  0  0  0  0  0  0  0  0  0  0  0
    1.2571    0.4083    0.0000 C   0  0  0  0  0  0  0  0  0  0  0  0
    1.6696   -0.3062    0.0000 O   0  0  0  0  0  0  0  0  0  0  0  0
    0.4321    0.4083    0.0000 C   0  0  0  0  0  0  0  0  0  0  0  0
    0.0196   -0.3062    0.0000 N   0  0  0  0  0  0  0  0  0  0  0  0
   -0.8054   -0.3062    0.0000 C   0  0  0  0  0  0  0  0  0  0  0  0
    0.4321   -1.0207    0.0000 C   0  0  0  0  0  0  0  0  0  0  0  0
    1.2571   -1.0207    0.0000 C   0  0  0  0  0  0  0  0  0  0  0  0
    1.6696   -1.7351    0.0000 C   0  0  0  0  0  0  0  0  0  0  0  0
   -1.2179   -1.0207    0.0000 C   0  0  0  0  0  0  0  0  0  0  0  0
   -2.0429   -1.0207    0.0000 C   0  0  0  0  0  0  0  0  0  0  0  0
   -2.4554   -1.7351    0.0000 C   0  0  0  0  0  0  0  0  0  0  0  0
   -3.2804   -1.7351    0.0000 C   0  0  0  0  0  0  0  0  0  0  0  0
   -3.6929   -1.0207    0.0000 C   0  0  0  0  0  0  0  0  0  0  0  0
   -3.2804   -0.3062    0.0000 N   0  0  0  0  0  0  0  0  0  0  0  0
   -2.4554   -0.3062    0.0000 C   0  0  0  0  0  0  0  0  0  0  0  0
    5.1464    0.0000    0.0000 Br  0  0  0  0  0  0  0  0  0  0  0  0
  1  2  2  0  0  0  0
  2  3  1  0  0  0  0
  3  4  2  0  0  0  0
  4  5  1  0  0  0  0
  1  6  1  0  0  0  0
  5  6  2  0  0  0  0
  4  7  1  0  0  0  0
  7  8  1  0  0  0  0
  7  9  1  0  0  0  0
  9 10  1  0  0  0  0
 10 11  1  0  0  0  0
 10 12  1  0  0  0  0
 12 13  1  0  0  0  0
 13 14  1  0  0  0  0
 11 15  1  0  0  0  0
 15 16  1  0  0  0  0
 16 17  2  0  0  0  0
 17 18  1  0  0  0  0
 18 19  2  0  0  0  0
 19 20  1  0  0  0  0
 16 21  1  0  0  0  0
 20 21  2  0  0  0  0
M  END