
          11280715332D 1   1.00000     0.00000     0

 19 21  0     0  0            999 V2000
    3.4792   -1.8792    0.0000 C   0  0  0  0  0  0           0  0  0
    3.4875   -3.0875    0.0000 N   0  0  0  0  0  0           0  0  0
    4.0042   -2.7792    0.0000 C   0  0  0  0  0  0           0  0  0
    4.0042   -2.1792    0.0000 C   0  0  0  0  0  0           0  0  0
    2.9667   -2.1875    0.0000 C   0  0  0  0  0  0           0  0  0
    3.4792   -1.2792    0.0000 C   0  0  0  0  0  0           0  0  0
    2.9667   -2.7875    0.0000 C   0  0  0  0  0  0           0  0  0
    2.9542   -0.9875    0.0000 O   0  0  0  0  0  0           0  0  0
    4.5292   -3.0792    0.0000 C   0  0  0  0  0  0           0  0  0
    3.9917   -0.9792    0.0000 O   0  0  0  0  0  0           0  0  0
    2.4417   -1.8875    0.0000 C   0  0  0  0  0  0           0  0  0
    2.4417   -3.0917    0.0000 C   0  0  0  0  0  0           0  0  0
    4.5292   -3.6792    0.0000 C   0  0  0  0  0  0           0  0  0
    5.0417   -2.7792    0.0000 C   0  0  0  0  0  0           0  0  0
    1.9292   -2.1875    0.0000 C   0  0  0  0  0  0           0  0  0
    1.9292   -2.7917    0.0000 C   0  0  0  0  0  0           0  0  0
    5.5667   -3.0750    0.0000 C   0  0  0  0  0  0           0  0  0
    5.0542   -3.9792    0.0000 C   0  0  0  0  0  0           0  0  0
    5.5667   -3.6750    0.0000 C   0  0  0  0  0  0           0  0  0
  2  7  1  0     0  0
  3  4  1  0     0  0
  4  1  2  0     0  0
  5  1  1  0     0  0
  6  1  1  0     0  0
  7  5  1  0     0  0
  8  6  2  0     0  0
  9  3  1  0     0  0
 10  6  1  0     0  0
 11  5  2  0     0  0
 12  7  2  0     0  0
 13  9  2  0     0  0
 14  9  1  0     0  0
 15 11  1  0     0  0
 16 15  2  0     0  0
 17 14  2  0     0  0
 18 13  1  0     0  0
 19 17  1  0     0  0
  3  2  2  0     0  0
 12 16  1  0     0  0
 19 18  2  0     0  0
M  END