
          11280715262D 1   1.00000     0.00000     0

 25 27  0     0  0            999 V2000
    5.8167   -3.0625    0.0000 C   0  0  0  0  0  0           0  0  0
    1.4917   -3.1250    0.0000 N   0  0  0  0  0  0           0  0  0
    6.5292   -3.4750    0.0000 N   0  0  0  0  0  0           0  0  0
    7.2542   -3.0667    0.0000 C   0  0  3  0  0  0           0  0  0
    1.3542   -4.4417    0.0000 N   0  0  0  0  0  0           0  0  0
    0.9417   -3.7292    0.0000 C   0  0  0  0  0  0           0  0  0
    2.2417   -3.4625    0.0000 C   0  0  0  0  0  0           0  0  0
    2.1542   -4.2792    0.0000 C   0  0  0  0  0  0           0  0  0
    5.8167   -2.2375    0.0000 O   0  0  0  0  0  0           0  0  0
    7.9667   -3.4792    0.0000 C   0  0  0  0  0  0           0  0  0
    7.2542   -2.2417    0.0000 C   0  0  3  0  0  0           0  0  0
    5.1042   -3.4667    0.0000 O   0  0  0  0  0  0           0  0  0
    2.9667   -3.0542    0.0000 C   0  0  0  0  0  0           0  0  0
    7.9542   -4.3042    0.0000 C   0  0  0  0  0  0           0  0  0
    8.6667   -3.0667    0.0000 C   0  0  0  0  0  0           0  0  0
    7.9792   -1.8292    0.0000 C   0  0  0  0  0  0           0  0  0
    6.5417   -1.8292    0.0000 C   0  0  0  0  0  0           0  0  0
    4.3917   -3.0542    0.0000 C   0  0  0  0  0  0           0  0  0
    3.6792   -3.4667    0.0000 C   0  0  0  0  0  0           0  0  0
    9.3792   -3.4792    0.0000 C   0  0  0  0  0  0           0  0  0
    8.6667   -4.7167    0.0000 C   0  0  0  0  0  0           0  0  0
    6.5542   -1.0042    0.0000 C   0  0  0  0  0  0           0  0  0
    7.9792   -1.0125    0.0000 C   0  0  0  0  0  0           0  0  0
    7.2667   -0.5917    0.0000 C   0  0  0  0  0  0           0  0  0
    9.3792   -4.3042    0.0000 C   0  0  0  0  0  0           0  0  0
  2  7  1  0     0  0
  3  1  1  0     0  0
  4  3  1  0     0  0
  5  8  1  0     0  0
  6  2  2  0     0  0
  7 13  1  0     0  0
  8  7  2  0     0  0
  9  1  2  0     0  0
 10  4  1  0     0  0
 11  4  1  0     0  0
 12  1  1  0     0  0
 13 19  1  0     0  0
 14 10  2  0     0  0
 15 10  1  0     0  0
 16 11  1  0     0  0
 17 11  1  0     0  0
 18 12  1  0     0  0
 19 18  1  0     0  0
 20 15  2  0     0  0
 21 14  1  0     0  0
 22 17  1  0     0  0
 23 16  1  0     0  0
 24 22  1  0     0  0
 25 20  1  0     0  0
 24 23  1  0     0  0
 25 21  2  0     0  0
  5  6  1  0     0  0
M  END