
  SciTegic10301317112D

 67 70  0  0  1  0            999 V2000
    1.5639  -10.1803    0.0000 N   0  0
    2.3206   -9.8517    0.0000 C   0  0
    4.4032  -10.5052    0.0000 C   0  0
    8.6623  -10.9925    0.0000 C   0  0
    0.7745   -8.9400    0.0000 C   0  0
    5.8229  -10.6677    0.0000 N   0  0
   10.0819  -11.1550    0.0000 N   0  0
    2.9835  -10.3428    0.0000 C   0  0  1  0  0  0
    6.5796  -10.3390    0.0000 C   0  0
    0.8532   -9.7613    0.0000 C   0  0  2  0  0  0
   10.8387  -10.8264    0.0000 C   0  0
    3.7403  -10.0142    0.0000 N   0  0
    7.9993  -10.5015    0.0000 N   0  0
    5.1600  -10.1766    0.0000 C   0  0  1  0  0  0
    9.4190  -10.6639    0.0000 C   0  0  1  0  0  0
    7.2426  -10.8301    0.0000 C   0  0  1  0  0  0
    0.0240   -8.5975    0.0000 O   0  0
    1.8514  -12.8475    0.0000 N   0  0
   15.0977  -11.3137    0.0000 C   0  0
    3.1476  -11.1513    0.0000 C   0  0
   -1.3984   -8.7338    0.0000 C   0  0
    2.5295  -11.6976    0.0000 C   0  0
   11.4078  -12.1371    0.0000 N   0  0
    1.7241  -11.5187    0.0000 N   0  0
    1.3051  -12.2293    0.0000 C   0  0
   12.0708  -12.6281    0.0000 C   0  0
   11.5016  -11.3174    0.0000 C   0  0  1  0  0  0
   -0.6479   -9.0763    0.0000 C   0  0  2  0  0  0
   15.7606  -11.8048    0.0000 N   0  0
    2.6082  -12.5189    0.0000 C   0  0
    2.4144   -9.0321    0.0000 O   0  0
    4.3094  -11.3249    0.0000 O   0  0
    8.5685  -11.8122    0.0000 O   0  0
    1.4464   -8.4613    0.0000 O   0  0
    6.6734   -9.5194    0.0000 O   0  0
   10.9325  -10.0067    0.0000 O   0  0
    7.1488  -11.6497    0.0000 C   0  0
   -2.0703   -9.2126    0.0000 O   0  0
   12.8275  -12.2995    0.0000 O   0  0
   14.3410  -11.6423    0.0000 N   0  0
    5.2537   -9.3570    0.0000 C   0  0
   15.1915  -10.4941    0.0000 N   0  0
    1.3849  -10.9857    0.0000 C   0  0
    9.5128   -9.8443    0.0000 C   0  0
    6.3921  -11.9784    0.0000 C   0  0
   -1.4771   -7.9126    0.0000 O   0  0
    4.8786  -12.6356    0.0000 C   0  0
    5.7291  -11.4873    0.0000 C   0  0
    6.2983  -12.7980    0.0000 C   0  0
    5.5415  -13.1266    0.0000 C   0  0
    4.9724  -11.8159    0.0000 C   0  0
    0.2351  -10.3076    0.0000 C   0  0
    4.1219  -12.9642    0.0000 O   0  0
   11.9770  -13.4478    0.0000 C   0  0
   12.6399  -13.9388    0.0000 O   0  0
    0.5637  -11.0643    0.0000 C   0  0
   12.2583  -10.9888    0.0000 C   0  0
   -0.5692   -9.8975    0.0000 C   0  0
   13.6780  -11.1513    0.0000 C   0  0
    6.0105   -9.0283    0.0000 C   0  0
    4.5908   -8.8659    0.0000 C   0  0
    8.8498   -9.3532    0.0000 C   0  0
   10.2695   -9.5157    0.0000 C   0  0
   12.9213  -11.4799    0.0000 C   0  0
    4.6846   -8.0463    0.0000 C   0  0
    6.1043   -8.2087    0.0000 C   0  0
    5.4413   -7.7176    0.0000 C   0  0
  2  1  1  0
  3 12  1  0
  4 13  1  0
 10  5  1  1
  6 14  1  0
 15  7  1  6
  8  2  1  0
  9  6  1  0
 10  1  1  0
 11  7  1  0
 12  8  1  0
 16 13  1  1
 14  3  1  0
 15  4  1  0
 16  9  1  0
 17  5  1  0
 18 30  1  0
 19 40  2  0
  8 20  1  1
 28 21  1  0
 22 20  1  0
 23 27  1  0
 24 22  1  0
 25 24  2  0
 26 23  1  0
 27 11  1  0
 28 17  1  0
 29 19  1  0
 30 22  2  0
 31  2  2  0
 32  3  2  0
 33  4  2  0
 34  5  2  0
 35  9  2  0
 36 11  2  0
 16 37  1  0
 38 21  2  0
 39 26  2  0
 40 59  1  0
 14 41  1  6
 42 19  1  0
 43  1  1  0
 15 44  1  0
 45 37  1  0
 46 21  1  0
 47 50  2  0
 48 45  1  0
 49 45  2  0
 50 49  1  0
 51 48  2  0
 52 10  1  0
 53 47  1  0
 54 26  1  0
 55 54  1  0
 56 43  1  0
 27 57  1  6
 28 58  1  1
 59 64  1  0
 60 41  1  0
 61 41  1  0
 62 44  1  0
 63 44  1  0
 64 57  1  0
 65 61  1  0
 66 60  1  0
 67 65  1  0
 52 56  1  0
 18 25  1  0
 67 66  1  0
 47 51  1  0
M  END