
  CDK    9/16/09,9:47

 42 45  0  0  0  0  0  0  0  0999 V2000
    0.1308   -7.3532    0.0000 N   0  0  0  0  0  0  0  0  0  0  0  0
   -0.4786   -6.7994    0.0000 C   0  0  0  0  0  0  0  0  0  0  0  0
    0.8527   -6.9459    0.0000 C   0  0  0  0  0  0  0  0  0  0  0  0
    1.5574   -7.3708    0.0000 C   0  0  0  0  0  0  0  0  0  0  0  0
    2.2817   -6.9758    0.0000 C   0  0  0  0  0  0  0  0  0  0  0  0
    2.9879   -7.4046    0.0000 C   0  0  0  0  0  0  0  0  0  0  0  0
    3.7106   -7.0056    0.0000 C   0  0  0  0  0  0  0  0  0  0  0  0
    4.4167   -7.4346    0.0000 C   0  0  0  0  0  0  0  0  0  0  0  0
    5.1410   -7.0395    0.0000 C   0  0  0  0  0  0  0  0  0  0  0  0
    5.8456   -7.4644    0.0000 O   0  0  0  0  0  0  0  0  0  0  0  0
    5.1576   -6.2116    0.0000 O   0  0  0  0  0  0  0  0  0  0  0  0
    2.2984   -6.1480    0.0000 O   0  0  0  0  0  0  0  0  0  0  0  0
    3.7287   -6.1818    0.0000 O   0  0  0  0  0  0  0  0  0  0  0  0
   -0.2126   -8.1072    0.0000 C   0  0  0  0  0  0  0  0  0  0  0  0
    0.1937   -8.8238    0.0000 C   0  0  0  0  0  0  0  0  0  0  0  0
   -0.2210   -9.5384    0.0000 C   0  0  0  0  0  0  0  0  0  0  0  0
    0.1845  -10.2523    0.0000 C   0  0  0  0  0  0  0  0  0  0  0  0
    1.0106  -10.2566    0.0000 C   0  0  0  0  0  0  0  0  0  0  0  0
    1.4261   -9.5393    0.0000 C   0  0  0  0  0  0  0  0  0  0  0  0
    1.0169   -8.8297    0.0000 C   0  0  0  0  0  0  0  0  0  0  0  0
    1.4171  -10.9773    0.0000 F   0  0  0  0  0  0  0  0  0  0  0  0
   -0.4955   -5.9746    0.0000 C   0  0  0  0  0  0  0  0  0  0  0  0
   -1.1976   -7.2113    0.0000 C   0  0  0  0  0  0  0  0  0  0  0  0
   -1.0282   -8.0220    0.0000 C   0  0  0  0  0  0  0  0  0  0  0  0
    0.1948   -5.5232    0.0000 C   0  0  0  0  0  0  0  0  0  0  0  0
   -1.2303   -5.6007    0.0000 C   0  0  0  0  0  0  0  0  0  0  0  0
   -1.4368   -8.7391    0.0000 C   0  0  0  0  0  0  0  0  0  0  0  0
   -2.2623   -8.7386    0.0000 C   0  0  0  0  0  0  0  0  0  0  0  0
   -2.6708   -9.4550    0.0000 C   0  0  0  0  0  0  0  0  0  0  0  0
   -2.2539  -10.1685    0.0000 C   0  0  0  0  0  0  0  0  0  0  0  0
   -1.4242  -10.1611    0.0000 C   0  0  0  0  0  0  0  0  0  0  0  0
   -1.0194   -9.4441    0.0000 C   0  0  0  0  0  0  0  0  0  0  0  0
   -1.9505   -6.8731    0.0000 S   0  0  0  0  0  0  0  0  0  0  0  0
   -2.6681   -6.4576    0.0000 N   0  0  0  0  0  0  0  0  0  0  0  0
   -3.3835   -6.8693    0.0000 N   0  0  0  0  0  0  0  0  0  0  0  0
   -4.0937   -6.4529    0.0000 C   0  0  0  0  0  0  0  0  0  0  0  0
   -4.8086   -6.8639    0.0000 C   0  0  0  0  0  0  0  0  0  0  0  0
   -4.8102   -7.6902    0.0000 O   0  0  0  0  0  0  0  0  0  0  0  0
   -4.0908   -8.1037    0.0000 C   0  0  0  0  0  0  0  0  0  0  0  0
   -3.3789   -7.6903    0.0000 C   0  0  0  0  0  0  0  0  0  0  0  0
   -2.3270   -7.6077    0.0000 O   0  0  0  0  0  0  0  0  0  0  0  0
   -1.5704   -6.1404    0.0000 O   0  0  0  0  0  0  0  0  0  0  0  0
 15 16  2  0  0  0  0 
 16 17  1  0  0  0  0 
 17 18  2  0  0  0  0 
 18 19  1  0  0  0  0 
 19 20  2  0  0  0  0 
 20 15  1  0  0  0  0 
 14 15  1  0  0  0  0 
 18 21  1  0  0  0  0 
  2 22  1  0  0  0  0 
 23 24  1  0  0  0  0 
 22 25  1  0  0  0  0 
 22 26  1  0  0  0  0 
 24 27  1  0  0  0  0 
 14  1  1  0  0  0  0 
 27 28  2  0  0  0  0 
  1  2  1  0  0  0  0 
 28 29  1  0  0  0  0 
  2 23  2  0  0  0  0 
 29 30  2  0  0  0  0 
  1  3  1  0  0  0  0 
 30 31  1  0  0  0  0 
  3  4  1  0  0  0  0 
 31 32  2  0  0  0  0 
 32 27  1  0  0  0  0 
  4  5  1  0  0  0  0 
 23 33  1  0  0  0  0 
  5  6  1  0  0  0  0 
 33 34  1  0  0  0  0 
  6  7  1  0  0  0  0 
 34 35  1  0  0  0  0 
  7  8  1  0  0  0  0 
 35 36  1  0  0  0  0 
  8  9  1  0  0  0  0 
 36 37  1  0  0  0  0 
  9 10  1  0  0  0  0 
 37 38  1  0  0  0  0 
  9 11  2  0  0  0  0 
 38 39  1  0  0  0  0 
  5 12  1  1  0  0  0 
 39 40  1  0  0  0  0 
 40 35  1  0  0  0  0 
  7 13  1  1  0  0  0 
 33 41  2  0  0  0  0 
 14 24  2  0  0  0  0 
 33 42  2  0  0  0  0 
M  END