
  SciTegic05061409512D

 16 18  0  0  0  0            999 V2000
   14.5862   -8.7600    0.0000 C   0  0
   14.5851   -9.5873    0.0000 C   0  0
   15.2997   -9.9999    0.0000 C   0  0
   15.2979   -8.3475    0.0000 C   0  0
   16.0131   -8.7564    0.0000 C   0  0
   16.0133   -9.5826    0.0000 C   0  0
   16.7993   -9.8378    0.0000 N   0  0
   17.2847   -9.1691    0.0000 C   0  0
   16.7981   -8.5016    0.0000 N   0  0
   18.1095   -9.1684    0.0000 C   0  0
   18.5226   -9.8823    0.0000 C   0  0
   18.1108  -10.5969    0.0000 N   0  0
   17.2948  -10.6879    0.0000 C   0  0
   17.1241  -11.4948    0.0000 N   0  0
   17.8388  -11.9065    0.0000 C   0  0
   18.4512  -11.3540    0.0000 N   0  0
  1  2  1  0
  2  3  2  0
  3  6  1  0
  5  4  1  0
  4  1  2  0
  5  6  2  0
  6  7  1  0
  7  8  2  0
  8  9  1  0
  9  5  1  0
  8 10  1  0
 10 11  1  0
 11 12  1  0
 12 13  1  0
 13 14  2  0
 14 15  1  0
 15 16  2  0
 16 12  1  0
M  END