
          11280714522D 1   1.00000     0.00000     0

 63 69  0     1  0            999 V2000
    8.7542   -2.5042    0.0000 N   0  0  0  0  0  0           0  0  0
    9.1167   -1.7500    0.0000 C   0  0  2  0  0  0           0  0  0
    7.9417   -0.8167    0.0000 N   0  0  3  0  0  0           0  0  0
    8.7542   -0.9917    0.0000 C   0  0  0  0  0  0           0  0  0
    7.9417   -2.6917    0.0000 C   0  0  0  0  0  0           0  0  0
    7.2917   -2.1667    0.0000 C   0  0  0  0  0  0           0  0  0
    9.9417   -1.7417    0.0000 N   0  0  0  0  0  0           0  0  0
    7.2917   -1.3417    0.0000 C   0  0  0  0  0  0           0  0  0
   10.3542   -2.4542    0.0000 C   0  0  0  0  0  0           0  0  0
    7.8875   -9.5917    0.0000 N   0  0  3  0  0  0           0  0  0
    7.4750  -10.3125    0.0000 C   0  0  0  0  0  0           0  0  0
    9.9417   -6.0292    0.0000 C   0  0  0  0  0  0           0  0  0
   11.1792   -2.4542    0.0000 N   0  0  0  0  0  0           0  0  0
    8.7125   -8.1750    0.0000 N   0  0  3  0  0  0           0  0  0
   -0.0708  -10.8792    0.0000 N   0  0  3  0  0  0           0  0  0
    9.2667   -0.3500    0.0000 O   0  0  0  0  0  0           0  0  0
    7.7625   -3.4917    0.0000 C   0  0  0  0  0  0           0  0  0
    9.9417   -3.1750    0.0000 O   0  0  0  0  0  0           0  0  0
    7.4792   -8.8792    0.0000 C   0  0  0  0  0  0           0  0  0
    8.7125   -9.6000    0.0000 C   0  0  0  0  0  0           0  0  0
    9.1167   -6.0292    0.0000 O   0  0  0  0  0  0           0  0  0
    7.8875  -11.0250    0.0000 O   0  0  0  0  0  0           0  0  0
   10.3542   -5.3125    0.0000 O   0  0  0  0  0  0           0  0  0
   11.5917   -3.1667    0.0000 C   0  0  0  0  0  0           0  0  0
   10.3625   -6.7417    0.0000 N   0  0  0  0  0  0           0  0  0
    0.5792  -10.3792    0.0000 C   0  0  0  0  0  0           0  0  0
    1.3417  -10.6917    0.0000 C   0  0  0  0  0  0           0  0  0
    7.8875   -8.1667    0.0000 C   0  0  0  0  0  0           0  0  0
    9.1292   -8.8792    0.0000 C   0  0  0  0  0  0           0  0  0
    7.7542   -0.0125    0.0000 C   0  0  0  0  0  0           0  0  0
   11.1792   -3.8792    0.0000 C   0  0  0  0  0  0           0  0  0
    1.9917  -10.1875    0.0000 C   0  0  0  0  0  0           0  0  0
   11.1792   -5.3125    0.0000 C   0  0  0  0  0  0           0  0  0
    6.5750   -2.5792    0.0000 C   0  0  0  0  0  0           0  0  0
   11.5917   -4.5917    0.0000 C   0  0  0  0  0  0           0  0  0
    6.2292   -9.6000    0.0000 N   0  0  0  0  0  0           0  0  0
    2.7542  -10.5000    0.0000 C   0  0  0  0  0  0           0  0  0
    6.5750   -0.9292    0.0000 C   0  0  0  0  0  0           0  0  0
    6.6500  -10.3125    0.0000 C   0  0  0  0  0  0           0  0  0
    9.9500   -7.4542    0.0000 C   0  0  0  0  0  0           0  0  0
    9.1250   -7.4542    0.0000 C   0  0  0  0  0  0           0  0  0
    4.8167   -9.7917    0.0000 C   0  0  0  0  0  0           0  0  0
    3.4042   -9.9917    0.0000 O   0  0  0  0  0  0           0  0  0
   -0.8333  -10.5667    0.0000 C   0  0  0  0  0  0           0  0  0
    0.0417  -11.7000    0.0000 C   0  0  0  0  0  0           0  0  0
    2.2167  -11.8167    0.0000 C   0  0  0  0  0  0           0  0  0
   12.8292   -3.8750    0.0000 C   0  0  0  0  0  0           0  0  0
    5.5792  -10.1042    0.0000 C   0  0  0  0  0  0           0  0  0
   12.4167   -3.1667    0.0000 C   0  0  0  0  0  0           0  0  0
    1.4542  -11.5125    0.0000 C   0  0  0  0  0  0           0  0  0
    6.9750   -3.7375    0.0000 C   0  0  0  0  0  0           0  0  0
    8.3667   -4.0500    0.0000 C   0  0  0  0  0  0           0  0  0
    4.1667  -10.3042    0.0000 C   0  0  0  0  0  0           0  0  0
   12.4167   -4.5917    0.0000 C   0  0  0  0  0  0           0  0  0
    2.8667  -11.3125    0.0000 C   0  0  0  0  0  0           0  0  0
    5.8625   -2.1667    0.0000 C   0  0  0  0  0  0           0  0  0
    5.8625   -1.3417    0.0000 C   0  0  0  0  0  0           0  0  0
   -1.4833  -11.0750    0.0000 C   0  0  0  0  0  0           0  0  0
   -0.6083  -12.2042    0.0000 C   0  0  0  0  0  0           0  0  0
    6.7917   -4.5375    0.0000 C   0  0  0  0  0  0           0  0  0
    8.1875   -4.8500    0.0000 C   0  0  0  0  0  0           0  0  0
    7.3917   -5.1000    0.0000 C   0  0  0  0  0  0           0  0  0
   -1.3708  -11.8917    0.0000 C   0  0  0  0  0  0           0  0  0
  2  1  1  0     0  0
  3  4  1  0     0  0
  4  2  1  0     0  0
  5  1  2  0     0  0
  6  5  1  0     0  0
  2  7  1  6     0  0
  8  6  1  0     0  0
  9  7  1  0     0  0
 10 20  1  0     0  0
 11 10  1  0     0  0
 12 23  1  0     0  0
 13  9  1  0     0  0
 14 41  1  0     0  0
 15 26  1  0     0  0
 16  4  2  0     0  0
 17  5  1  0     0  0
 18  9  2  0     0  0
 19 28  1  0     0  0
 20 29  1  0     0  0
 21 12  2  0     0  0
 22 11  2  0     0  0
 23 33  1  0     0  0
 24 13  1  0     0  0
 25 12  1  0     0  0
 26 27  1  0     0  0
 27 32  2  0     0  0
 28 14  1  0     0  0
 29 14  1  0     0  0
 30  3  1  0     0  0
 31 24  2  0     0  0
 32 37  1  0     0  0
 33 35  1  0     0  0
 34  6  2  0     0  0
 35 31  1  0     0  0
 36 39  1  0     0  0
 37 43  1  0     0  0
 38  8  2  0     0  0
 39 11  1  0     0  0
 40 25  1  0     0  0
 41 40  1  0     0  0
 42 48  1  0     0  0
 43 53  1  0     0  0
 44 15  1  0     0  0
 45 15  1  0     0  0
 46 55  1  0     0  0
 47 49  2  0     0  0
 48 36  1  0     0  0
 49 24  1  0     0  0
 50 46  2  0     0  0
 51 17  2  0     0  0
 52 17  1  0     0  0
 53 42  1  0     0  0
 54 47  1  0     0  0
 55 37  2  0     0  0
 56 34  1  0     0  0
 57 56  2  0     0  0
 58 44  1  0     0  0
 59 45  1  0     0  0
 60 51  1  0     0  0
 61 52  2  0     0  0
 62 61  1  0     0  0
 63 59  1  0     0  0
  8  3  1  0     0  0
 60 62  2  0     0  0
 38 57  1  0     0  0
 35 54  2  0     0  0
 19 10  1  0     0  0
 27 50  1  0     0  0
 58 63  1  0     0  0
M  END