
  SciTegic11201309402D

106115  0  0  0  0            999 V2000
   -2.5994  -16.8835    0.0000 C   0  0
   -2.5529  -18.5376    0.0000 O   0  0
    1.2133  -14.7664    0.0000 N   0  0
    0.3903  -14.7794    0.0000 C   0  0
   -0.0101  -15.5007    0.0000 N   0  0
   -0.0342  -14.0719    0.0000 S   0  0
   -0.8350  -15.5146    0.0000 C   0  0
   -1.2537  -14.8066    0.0000 C   0  0
   -2.0779  -14.8201    0.0000 C   0  0
   -1.2274  -16.2347    0.0000 C   0  0
   -2.0501  -16.2517    0.0000 C   0  0
   -2.4808  -15.5376    0.0000 C   0  0
   -3.2930  -15.7265    0.0000 C   0  0
   -3.3644  -16.5574    0.0000 O   0  0
   -3.9165  -15.1863    0.0000 O   0  0
   -1.8700  -17.2723    0.0000 C   0  0
   -1.8507  -18.1016    0.0000 C   0  0
   -1.1240  -18.4978    0.0000 C   0  0
   -0.4161  -18.0658    0.0000 C   0  0
   -0.4394  -17.2334    0.0000 C   0  0
   -1.1666  -16.8409    0.0000 C   0  0
   -3.2808  -18.1425    0.0000 C   0  0
   -3.3022  -17.3204    0.0000 C   0  0
   -4.0237  -16.9296    0.0000 C   0  0
   -4.7243  -17.3598    0.0000 C   0  0
   -4.6989  -18.1850    0.0000 C   0  0
   -3.9769  -18.5720    0.0000 C   0  0
    0.3090  -18.4594    0.0000 O   0  0
   -5.4002  -18.6195    0.0000 O   0  0
    6.3244  -14.6073    0.0000 C   0  0  2  0  0  0
    6.5908  -13.8310    0.0000 C   0  0
    5.9327  -13.3335    0.0000 C   0  0
    5.2562  -13.8058    0.0000 C   0  0
    5.4951  -14.5950    0.0000 N   0  0
    4.7973  -15.0351    0.0000 C   0  0
    4.0673  -14.6509    0.0000 C   0  0
    4.8296  -15.8595    0.0000 O   0  0
    3.3695  -15.0911    0.0000 C   0  0
    2.6394  -14.7068    0.0000 C   0  0
    1.9416  -15.1470    0.0000 C   0  0
   21.1814  -17.3104    0.0000 C   0  0
   21.9283  -16.9563    0.0000 C   0  0
   22.6047  -17.4287    0.0000 C   0  0
   22.5357  -18.2510    0.0000 O   0  0
   23.3538  -17.0795    0.0000 O   0  0
   20.4810  -16.8745    0.0000 C   0  0  2  0  0  0
   19.0779  -16.0385    0.0000 C   0  0
   19.7953  -15.6312    0.0000 C   0  0
   20.5068  -16.0488    0.0000 N   0  0
   19.8012  -14.8062    0.0000 O   0  0
   19.7525  -17.2617    0.0000 C   0  0
   19.7237  -18.0862    0.0000 N   0  0
   19.0529  -16.8245    0.0000 O   0  0
   15.7638  -19.2369    0.0000 C   0  0
   10.4493  -16.0093    0.0000 C   0  0
   11.2743  -16.0089    0.0000 N   0  0
   10.0371  -16.7240    0.0000 O   0  0
   11.6871  -16.7232    0.0000 C   0  0  2  0  0  0
   12.5121  -16.7228    0.0000 C   0  0
   11.2750  -17.4379    0.0000 C   0  0  1  0  0  0
   10.4500  -17.4383    0.0000 C   0  0
   11.6878  -18.1521    0.0000 O   0  0
   12.9250  -17.4371    0.0000 N   0  0
   12.9243  -16.0081    0.0000 O   0  0
    9.2165  -15.2945    0.0000 N   0  0
   10.0369  -15.2953    0.0000 C   0  0  1  0  0  0
   10.2909  -14.5151    0.0000 C   0  0
    9.6274  -14.0324    0.0000 C   0  0
    8.9634  -14.5143    0.0000 C   0  0
   13.7500  -17.4367    0.0000 C   0  0  2  0  0  0
   14.1628  -18.1509    0.0000 C   0  0
   14.1621  -16.7220    0.0000 C   0  0
   13.7506  -18.8656    0.0000 O   0  0
   14.9853  -18.1505    0.0000 N   0  0
   14.9817  -18.9742    0.0000 C   0  0
   16.2554  -18.5743    0.0000 C   0  0
   15.7773  -17.9006    0.0000 C   0  0  1  0  0  0
   16.1632  -17.1714    0.0000 C   0  0
   16.9868  -17.1410    0.0000 N   0  0
   15.7246  -16.4726    0.0000 O   0  0
   17.2698  -17.9152    0.0000 C   0  0
   18.0944  -17.8875    0.0000 C   0  0
   18.3228  -17.0947    0.0000 C   0  0
   17.6388  -16.6320    0.0000 C   0  0  1  0  0  0
   17.6246  -15.8071    0.0000 C   0  0
   18.4126  -15.5508    0.0000 N   0  0
   16.9031  -15.4070    0.0000 O   0  0
   10.6871  -16.7237    0.0000 H   0  0
    8.8101  -16.0124    0.0000 C   0  0
    7.9851  -16.0194    0.0000 C   0  0
    9.2286  -16.7234    0.0000 O   0  0
    7.5666  -15.3085    0.0000 N   0  0
    6.7416  -15.3154    0.0000 C   0  0
    6.3352  -16.0334    0.0000 O   0  0
   18.4083  -14.7250    0.0000 C   0  0
   17.6917  -14.3162    0.0000 C   0  0
   17.6875  -13.4912    0.0000 C   0  0
   16.9709  -13.0824    0.0000 C   0  0
   16.1252  -13.4736    0.0000 C   0  0
   15.5003  -12.8814    0.0000 C   0  0
   13.8171  -12.8476    0.0000 C   0  0
   10.9583  -12.8458    0.0000 C   0  0
    7.5583  -14.4833    0.0000 C   0  0
   18.5180  -16.1555    0.0000 H   0  0
   16.7752  -17.8354    0.0000 H   0  0
   11.0314  -15.1910    0.0000 H   0  0
 46 49  1  1
 10  7  1  0
 46 51  1  0
 23 24  1  0
 51 52  1  0
 11 12  1  0
 51 53  2  0
 24 25  2  0
  1 16  1  0
 66 55  1  0
 25 26  1  0
 55 56  1  0
  4  5  1  0
 55 57  2  0
 26 27  2  0
 56 58  1  0
 27 22  1  0
 58 59  1  0
 22  2  1  0
 58 60  1  0
 19 28  1  0
 60 61  1  6
  4  6  2  0
 60 62  1  0
 26 29  1  0
 59 63  1  0
 12 13  1  0
 59 64  2  0
 65 66  1  0
 30 31  1  0
 13 14  1  0
 14  1  1  0
  1 11  1  0
  2 17  1  0
 66 67  1  0
 67 68  1  0
 68 69  1  0
 69 65  1  0
 31 32  1  0
 63 70  1  0
 32 33  1  0
 70 71  1  0
 33 34  1  0
 70 72  1  1
 34 30  1  0
 71 73  2  0
 13 15  2  0
 71 74  1  0
 74 75  1  0
 34 35  1  0
  5  7  1  0
 35 36  1  0
 75 54  1  0
 54 76  1  0
 76 77  1  0
 77 74  1  0
 77 78  1  0
 35 37  2  0
 78 79  1  0
 16 17  2  0
 78 80  2  0
 79 81  1  0
 36 38  1  0
  7  8  2  0
 38 39  1  0
 17 18  1  0
 81 82  1  0
 82 83  1  0
 83 84  1  0
 84 79  1  0
 39 40  1  0
 84 85  1  0
 40  3  1  0
 85 86  1  0
  1 23  1  0
 85 87  2  0
 18 19  2  0
 58 88  1  1
 41 42  1  0
 65 89  1  0
  8  9  1  0
 89 90  1  0
 42 43  1  0
 89 91  2  0
 19 20  1  0
 90 92  1  0
  9 12  2  0
 92 93  1  0
 43 44  1  0
 93 94  2  0
 86 47  1  0
 46 41  1  0
 30 93  1  1
 43 45  2  0
 86 95  1  0
 20 21  2  0
 95 96  1  0
 21 16  1  0
 96 97  1  0
  3  4  1  0
 97 98  1  0
 47 48  1  0
 98 99  1  0
 11 10  2  0
 99100  1  0
 48 49  1  0
100101  1  0
 22 23  2  0
102101  2  0
 48 50  2  0
 92103  1  0
103102  1  0
 84104  1  1
 77105  1  1
 66106  1  6
M  END