
          11280714492D 1   1.00000     0.00000     0

  8  8  0     0  0            999 V2000
    0.9500   -3.1917    0.0000 N   0  0  0  0  0  0           0  0  0
    1.4667   -4.1000    0.0000 C   0  0  0  0  0  0           0  0  0
    1.4667   -3.4917    0.0000 C   0  0  0  0  0  0           0  0  0
    0.4292   -3.5000    0.0000 C   0  0  0  0  0  0           0  0  0
    1.9917   -4.4000    0.0000 C   0  0  0  0  0  0           0  0  0
    0.9500   -4.4000    0.0000 C   0  0  0  0  0  0           0  0  0
    0.4292   -4.1000    0.0000 C   0  0  0  0  0  0           0  0  0
    1.9917   -5.0000    0.0000 C   0  0  0  0  0  0           0  0  0
  2  3  1  0     0  0
  3  1  2  0     0  0
  4  1  1  0     0  0
  5  2  1  0     0  0
  6  7  1  0     0  0
  7  4  2  0     0  0
  8  5  1  0     0  0
  2  6  2  0     0  0
M  END