
          11280715442D 1   1.00000     0.00000     0

 35 35  0     1  0            999 V2000
    0.1792    0.1875    0.0000 C   0  0  1  0  0  0           0  0  0
    0.9000   -0.2167    0.0000 C   0  0  0  0  0  0           0  0  0
   -0.5333   -0.2167    0.0000 N   0  0  0  0  0  0           0  0  0
    1.6125    0.1958    0.0000 N   0  0  3  0  0  0           0  0  0
   -1.2500    0.1833    0.0000 C   0  0  0  0  0  0           0  0  0
    3.0375    0.2000    0.0000 C   0  0  0  0  0  0           0  0  0
    2.3167   -0.2125    0.0000 C   0  0  2  0  0  0           0  0  0
    3.7500   -0.2125    0.0000 C   0  0  0  0  0  0           0  0  0
   -2.6750    0.1750    0.0000 C   0  0  3  0  0  0           0  0  0
   -1.9708   -0.2292    0.0000 C   0  0  2  0  0  0           0  0  0
    4.4667    0.2000    0.0000 C   0  0  0  0  0  0           0  0  0
    0.1750    1.0125    0.0000 C   0  0  3  0  0  0           0  0  0
    0.9000   -1.0500    0.0000 O   0  0  0  0  0  0           0  0  0
   -1.2500    1.0000    0.0000 O   0  0  0  0  0  0           0  0  0
   -3.3875   -0.2375    0.0000 C   0  0  0  0  0  0           0  0  0
    4.4625    1.0208    0.0000 O   0  0  0  0  0  0           0  0  0
   -1.9708   -1.0542    0.0000 N   0  0  0  0  0  0           0  0  0
    2.3167   -1.0375    0.0000 C   0  0  3  0  0  0           0  0  0
    0.8875    1.4208    0.0000 S   0  0  0  0  0  0           0  0  0
    5.1792   -0.2042    0.0000 O   0  0  0  0  0  0           0  0  0
    1.6042    1.0208    0.0000 C   0  0  0  0  0  0           0  0  0
   -2.2708    0.8958    0.0000 C   0  0  0  0  0  0           0  0  0
   -3.0958    0.8958    0.0000 C   0  0  0  0  0  0           0  0  0
    3.7542   -1.0375    0.0000 C   0  0  0  0  0  0           0  0  0
    0.1750    1.8375    0.0000 C   0  0  0  0  0  0           0  0  0
   -0.5375    1.4208    0.0000 C   0  0  0  0  0  0           0  0  0
   -4.1083    0.1750    0.0000 C   0  0  0  0  0  0           0  0  0
   -3.3875   -1.0667    0.0000 C   0  0  0  0  0  0           0  0  0
   -1.2458   -1.4667    0.0000 C   0  0  0  0  0  0           0  0  0
    0.8875    2.2500    0.0000 C   0  0  0  0  0  0           0  0  0
    1.6125   -1.4542    0.0000 C   0  0  0  0  0  0           0  0  0
    3.0417   -1.4500    0.0000 C   0  0  0  0  0  0           0  0  0
   -4.8208   -0.2417    0.0000 C   0  0  0  0  0  0           0  0  0
   -4.1083   -1.4792    0.0000 C   0  0  0  0  0  0           0  0  0
   -4.8208   -1.0667    0.0000 C   0  0  0  0  0  0           0  0  0
  2  1  1  0     0  0
  3  1  1  0     0  0
  4  2  1  0     0  0
  5  3  1  0     0  0
  6  7  1  0     0  0
  7  4  1  0     0  0
  8  6  2  0     0  0
  9 10  1  0     0  0
 10  5  1  0     0  0
 11  8  1  0     0  0
  1 12  1  1     0  0
 13  2  2  0     0  0
 14  5  2  0     0  0
 15  9  1  0     0  0
 16 11  2  0     0  0
 10 17  1  1     0  0
  7 18  1  6     0  0
 19 12  1  0     0  0
 20 11  1  0     0  0
 21  4  1  0     0  0
 22  9  1  0     0  0
 23  9  1  0     0  0
 24  8  1  0     0  0
 25 12  1  0     0  0
 26 12  1  0     0  0
 27 15  2  0     0  0
 28 15  1  0     0  0
 29 17  1  0     0  0
 30 19  1  0     0  0
 31 18  1  0     0  0
 32 18  1  0     0  0
 33 27  1  0     0  0
 34 28  2  0     0  0
 35 34  1  0     0  0
 33 35  2  0     0  0
M  END