
  SciTegic10041313202D

 32 34  0  0  1  0            999 V2000
    4.2875   -2.5625    0.0000 C   0  0
    5.0000   -2.9792    0.0000 N   0  0
    6.4292   -2.9875    0.0000 C   0  0
    3.5667   -2.9750    0.0000 N   0  0
    5.7167   -2.5667    0.0000 C   0  0  2  0  0  0
    9.3954   -2.0994    0.0000 N   0  0
    7.1417   -2.5792    0.0000 N   0  0
    8.5667   -2.5792    0.0000 C   0  0
    4.2792   -1.7375    0.0000 O   0  0
    6.4250   -3.8125    0.0000 O   0  0
    5.7167   -1.7417    0.0000 C   0  0
    2.1500   -3.8000    0.0000 O   0  0
    7.8542   -2.9917    0.0000 C   0  0  2  0  0  0
    7.8500   -4.4167    0.0000 C   0  0
    3.5667   -3.8000    0.0000 C   0  0
    2.8542   -2.5542    0.0000 C   0  0
    8.2667   -3.7042    0.0000 C   0  0
    8.2625   -5.1292    0.0000 C   0  0
    5.3042   -1.0250    0.0000 C   0  0
    2.1500   -2.9750    0.0000 C   0  0
    2.8542   -4.2042    0.0000 C   0  0
    9.0792   -5.1292    0.0000 C   0  0
    7.8417   -5.8417    0.0000 C   0  0
    5.7167   -0.3000    0.0000 C   0  0
    4.4667   -1.0292    0.0000 C   0  0
    8.2542   -6.5542    0.0000 C   0  0
    9.4917   -5.8417    0.0000 C   0  0
    4.0542   -0.3042    0.0000 C   0  0
    5.3000    0.4208    0.0000 C   0  0
    9.0792   -6.5625    0.0000 C   0  0
    4.4667    0.4208    0.0000 C   0  0
    7.4417   -3.7042    0.0000 H   0  0
  2  1  1  0
  3  5  1  0
  4  1  1  0
  5  2  1  0
  6  8  3  0
  7  3  1  0
  8 13  1  0
  9  1  2  0
 10  3  2  0
  5 11  1  1
 12 20  1  0
 13  7  1  0
 14 17  1  0
 15  4  1  0
 16  4  1  0
 13 17  1  6
 18 14  1  0
 19 11  1  0
 20 16  1  0
 21 15  1  0
 22 18  1  0
 23 18  2  0
 24 19  1  0
 25 19  1  0
 26 23  1  0
 27 22  2  0
 28 25  1  0
 29 24  1  0
 30 26  2  0
 31 28  1  0
 13 32  1  1
 12 21  1  0
 29 31  1  0
 27 30  1  0
M  END