
  SciTegic01061111512D

 24 26  0  0  0  0            999 V2000
   -4.3919  -10.0112    0.0000 C   0  0  2  0  0  0
   -4.3919  -10.8366    0.0000 C   0  0  1  0  0  0
   -3.6831  -11.2471    0.0000 C   0  0  1  0  0  0
   -2.9703  -10.8366    0.0000 C   0  0  2  0  0  0
   -2.9703  -10.0112    0.0000 C   0  0  1  0  0  0
   -3.6831   -9.5966    0.0000 O   0  0
   -2.2539   -9.6027    0.0000 S   0  0
   -1.5398  -10.0154    0.0000 C   0  0
   -2.2556  -11.2523    0.0000 O   0  0
   -3.6831  -12.0725    0.0000 N   0  0
   -4.3442  -12.5568    0.0000 N   0  0
   -4.0905  -13.3419    0.0000 N   0  0
   -3.2650  -13.3419    0.0000 C   0  0
   -3.0114  -12.5568    0.0000 C   0  0
   -5.1065  -11.2523    0.0000 O   0  0
   -5.1083   -9.6027    0.0000 C   0  0
   -5.1107   -8.7776    0.0000 O   0  0
   -2.7783  -14.0061    0.0000 C   0  0
   -3.1191  -14.7591    0.0000 C   0  0
   -2.6331  -15.4272    0.0000 C   0  0
   -1.8113  -15.3416    0.0000 C   0  0
   -1.4781  -14.5823    0.0000 C   0  0
   -1.9620  -13.9175    0.0000 C   0  0
   -1.6311  -13.1618    0.0000 F   0  0
  5  6  1  0
 11 12  2  0
 12 13  1  0
 13 14  2  0
 14 10  1  0
  5  7  1  1
  2 15  1  1
  1  2  1  0
  1 16  1  1
  7  8  1  0
 16 17  1  0
  1  6  1  0
 13 18  1  0
  4  9  1  6
 18 19  2  0
  2  3  1  0
 19 20  1  0
  3 10  1  1
 20 21  2  0
 10 11  1  0
 21 22  1  0
  3  4  1  0
 22 23  2  0
 23 18  1  0
  4  5  1  0
 23 24  1  0
M  END