
  SciTegic12201609462D

 27 29  0  0  0  0            999 V2000
    2.3383   -1.3500    0.0000 C   0  0
    1.2990   -0.7500    0.0000 N   0  0
    1.2990    0.7500    0.0000 C   0  0
    0.0000    1.5000    0.0000 C   0  0
    0.0000   -1.5000    0.0000 C   0  0
   -1.2990   -0.7500    0.0000 C   0  0
   -1.2990    0.7500    0.0000 N   0  0
   -2.5987    1.5004    0.0000 C   0  0
   -2.6012    3.0004    0.0000 C   0  0
   -1.3042    3.7556    0.0000 N   0  0
   -1.3088    5.2565    0.0000 C   0  0
   -0.0119    6.0117    0.0000 C   0  0
   -0.0143    7.5117    0.0000 C   0  0
    1.2835    8.2639    0.0000 C   0  0
    1.2815    9.4638    0.0000 C   0  0
    2.5838    7.5160    0.0000 C   0  0
    2.5863    6.0160    0.0000 C   0  0
    3.6265    5.4177    0.0000 C   0  0
    1.2885    5.2639    0.0000 C   0  0
   -2.3501    5.8529    0.0000 O   0  0
   -3.9015    3.7484    0.0000 C   0  0
   -5.1993    2.9963    0.0000 C   0  0
   -6.5018    3.7420    0.0000 N   0  3
   -6.5058    4.9420    0.0000 O   0  5
   -7.5392    3.1388    0.0000 O   0  0
   -5.1969    1.4963    0.0000 C   0  0
   -3.8967    0.7484    0.0000 C   0  0
  1  2  1  0
  2  3  1  0
  3  4  1  0
  2  5  1  0
  5  6  1  0
  6  7  1  0
  4  7  1  0
  7  8  1  0
  8  9  2  0
  9 10  1  0
 10 11  1  0
 11 12  1  0
 12 13  2  0
 13 14  1  0
 14 15  1  0
 14 16  2  0
 16 17  1  0
 17 18  1  0
 17 19  2  0
 12 19  1  0
 11 20  2  0
  9 21  1  0
 21 22  2  0
 22 23  1  0
 23 24  1  0
 23 25  2  0
 22 26  1  0
 26 27  2  0
  8 27  1  0
M  CHG  2  23   1  24  -1
M  END