
  CDK    9/16/09,9:59

 20 21  0  0  0  0  0  0  0  0999 V2000
   -3.4649  -23.7453    0.0000 C   0  0  0  0  0  0  0  0  0  0  0  0
   -3.4637  -22.4108    0.0000 N   0  0  0  0  0  0  0  0  0  0  0  0
   -3.9457  -23.0832    0.0000 C   0  0  0  0  0  0  0  0  0  0  0  0
   -2.6778  -22.6669    0.0000 C   0  0  0  0  0  0  0  0  0  0  0  0
   -2.6799  -23.4915    0.0000 C   0  0  0  0  0  0  0  0  0  0  0  0
   -1.9638  -23.9079    0.0000 N   0  0  0  0  0  0  0  0  0  0  0  0
   -1.2452  -23.4926    0.0000 C   0  0  0  0  0  0  0  0  0  0  0  0
   -1.2471  -22.6648    0.0000 N   0  0  0  0  0  0  0  0  0  0  0  0
   -1.9637  -22.2521    0.0000 C   0  0  0  0  0  0  0  0  0  0  0  0
   -1.9653  -21.4255    0.0000 O   0  0  0  0  0  0  0  0  0  0  0  0
   -3.8872  -24.4587    0.0000 C   0  0  0  0  0  0  0  0  0  0  0  0
   -3.4807  -25.1793    0.0000 N   0  0  0  0  0  0  0  0  0  0  0  0
   -3.8974  -27.3074    0.0000 C   0  0  0  0  0  0  0  0  0  0  0  0
   -3.4855  -26.6002    0.0000 C   0  0  0  0  0  0  0  0  0  0  0  0
   -3.8941  -25.8882    0.0000 C   0  0  0  0  0  0  0  0  0  0  0  0
   -2.6680  -26.6030    0.0000 O   0  0  0  0  0  0  0  0  0  0  0  0
   -4.7196  -27.3082    0.0000 O   0  0  0  0  0  0  0  0  0  0  0  0
   -2.6542  -25.1852    0.0000 C   0  0  0  0  0  0  0  0  0  0  0  0
   -2.2460  -25.9040    0.0000 C   0  0  0  0  0  0  0  0  0  0  0  0
   -1.4194  -25.9098    0.0000 O   0  0  0  0  0  0  0  0  0  0  0  0
  1  5  1  0  0  0  0 
  9 10  2  0  0  0  0 
  4  5  2  0  0  0  0 
  1 11  1  0  0  0  0 
  4  2  1  0  0  0  0 
 11 12  1  0  0  0  0 
  5  6  1  0  0  0  0 
  2  3  1  0  0  0  0 
  6  7  2  0  0  0  0 
 13 14  1  0  0  0  0 
 14 15  1  0  0  0  0 
 15 12  1  0  0  0  0 
  3  1  2  0  0  0  0 
 14 16  1  6  0  0  0 
  7  8  1  0  0  0  0 
 13 17  1  0  0  0  0 
 12 18  1  0  0  0  0 
  8  9  1  0  0  0  0 
 18 19  1  0  0  0  0 
  9  4  1  0  0  0  0 
 19 20  1  0  0  0  0 
M  END