
          11280715412D 1   1.00000     0.00000     0

 26 28  0     0  0            999 V2000
    5.5417   -1.4542    0.0000 C   0  0  0  0  0  0           0  0  0
    4.8167   -1.8667    0.0000 O   0  0  0  0  0  0           0  0  0
    5.5417   -0.6250    0.0000 C   0  0  0  0  0  0           0  0  0
    4.8167   -0.2042    0.0000 O   0  0  0  0  0  0           0  0  0
    4.1000   -1.4542    0.0000 C   0  0  0  0  0  0           0  0  0
   10.5375   -0.2375    0.0000 C   0  0  0  0  0  0           0  0  0
    4.1042   -0.6250    0.0000 C   0  0  0  0  0  0           0  0  0
    6.2542   -1.8750    0.0000 C   0  0  3  0  0  0           0  0  0
   11.2542   -0.6542    0.0000 C   0  0  0  0  0  0           0  0  0
    9.8250   -0.6500    0.0000 C   0  0  0  0  0  0           0  0  0
   11.2542   -1.4792    0.0000 C   0  0  0  0  0  0           0  0  0
    9.8292   -1.4667    0.0000 C   0  0  0  0  0  0           0  0  0
   10.5375   -1.8875    0.0000 C   0  0  0  0  0  0           0  0  0
   10.5375    0.5875    0.0000 O   0  0  0  0  0  0           0  0  0
    7.6792   -1.8792    0.0000 N   0  0  0  0  0  0           0  0  0
    6.2542   -2.7000    0.0000 O   0  0  0  0  0  0           0  0  0
   11.9667   -0.2417    0.0000 O   0  0  0  0  0  0           0  0  0
    6.9667   -1.4625    0.0000 C   0  0  0  0  0  0           0  0  0
    3.3875   -1.8667    0.0000 C   0  0  0  0  0  0           0  0  0
    3.3875   -0.2125    0.0000 C   0  0  0  0  0  0           0  0  0
    8.4000   -1.4667    0.0000 C   0  0  0  0  0  0           0  0  0
    9.1125   -1.8792    0.0000 C   0  0  0  0  0  0           0  0  0
   11.2500    1.0000    0.0000 C   0  0  0  0  0  0           0  0  0
   12.6875   -0.6542    0.0000 C   0  0  0  0  0  0           0  0  0
    2.6750   -1.4542    0.0000 C   0  0  0  0  0  0           0  0  0
    2.6750   -0.6250    0.0000 C   0  0  0  0  0  0           0  0  0
  2  1  1  0     0  0
  3  1  2  0     0  0
  4  3  1  0     0  0
  5  2  1  0     0  0
  6 10  2  0     0  0
  7  4  1  0     0  0
  8  1  1  0     0  0
  9 11  2  0     0  0
 10 12  1  0     0  0
 11 13  1  0     0  0
 12 22  1  0     0  0
 13 12  2  0     0  0
 14  6  1  0     0  0
 15 18  1  0     0  0
 16  8  1  0     0  0
 17  9  1  0     0  0
 18  8  1  0     0  0
 19  5  2  0     0  0
 20  7  2  0     0  0
 21 15  1  0     0  0
 22 21  1  0     0  0
 23 14  1  0     0  0
 24 17  1  0     0  0
 25 19  1  0     0  0
 26 20  1  0     0  0
  7  5  1  0     0  0
 26 25  2  0     0  0
  6  9  1  0     0  0
M  END