
          11280715162D 1   1.00000     0.00000     0

 26 28  0     0  0            999 V2000
    3.7125   -5.1917    0.0000 N   0  0  0  0  0  0           0  0  0
    4.4500   -5.5375    0.0000 N   0  0  3  0  0  0           0  0  0
    5.0000   -4.9292    0.0000 C   0  0  0  0  0  0           0  0  0
    3.8042   -4.3750    0.0000 C   0  0  0  0  0  0           0  0  0
    4.6000   -4.2125    0.0000 C   0  0  0  0  0  0           0  0  0
    5.8167   -5.0250    0.0000 C   0  0  0  0  0  0           0  0  0
    6.3125   -4.3625    0.0000 C   0  0  0  0  0  0           0  0  0
    3.2125   -3.8125    0.0000 C   0  0  3  0  0  0           0  0  0
    7.1292   -4.4542    0.0000 N   0  0  0  0  0  0           0  0  0
    4.6042   -6.3417    0.0000 C   0  0  0  0  0  0           0  0  0
    5.9792   -3.6042    0.0000 O   0  0  0  0  0  0           0  0  0
    7.6250   -3.7917    0.0000 C   0  0  0  0  0  0           0  0  0
    8.6042   -2.4667    0.0000 C   0  0  0  0  0  0           0  0  0
    9.0917   -1.8042    0.0000 Cl  0  0  0  0  0  0           0  0  0
    7.2917   -3.0417    0.0000 C   0  0  0  0  0  0           0  0  0
    8.4417   -3.8875    0.0000 C   0  0  0  0  0  0           0  0  0
    8.9292   -3.2250    0.0000 C   0  0  0  0  0  0           0  0  0
    7.7792   -2.3750    0.0000 C   0  0  0  0  0  0           0  0  0
    2.5042   -3.4000    0.0000 C   0  0  0  0  0  0           0  0  0
    3.3875   -3.0042    0.0000 C   0  0  0  0  0  0           0  0  0
    2.4375   -4.0542    0.0000 C   0  0  0  0  0  0           0  0  0
    5.3750   -6.6042    0.0000 C   0  0  0  0  0  0           0  0  0
    4.0000   -6.8875    0.0000 C   0  0  0  0  0  0           0  0  0
    4.1542   -7.6917    0.0000 C   0  0  0  0  0  0           0  0  0
    5.5375   -7.4167    0.0000 C   0  0  0  0  0  0           0  0  0
    4.9250   -7.9625    0.0000 C   0  0  0  0  0  0           0  0  0
  2  1  1  0     0  0
  3  2  1  0     0  0
  4  1  2  0     0  0
  5  4  1  0     0  0
  6  3  1  0     0  0
  7  6  1  0     0  0
  8  4  1  0     0  0
  9  7  1  0     0  0
 10  2  1  0     0  0
 11  7  2  0     0  0
 12  9  1  0     0  0
 13 17  2  0     0  0
 14 13  1  0     0  0
 15 12  1  0     0  0
 16 12  2  0     0  0
 17 16  1  0     0  0
 18 15  2  0     0  0
 19  8  1  0     0  0
 20  8  1  0     0  0
 21  8  1  0     0  0
 22 10  1  0     0  0
 23 10  2  0     0  0
 24 23  1  0     0  0
 25 22  2  0     0  0
 26 24  2  0     0  0
  3  5  2  0     0  0
 25 26  1  0     0  0
 18 13  1  0     0  0
M  END