
  SciTegic07291412072D

 48 50  0  0  0  0            999 V2000
    2.9245   -3.2440    0.0000 P   0  0
    9.5245   -4.6730    0.0000 C   0  0
    7.8745   -3.2440    0.0000 C   0  0
   10.3495   -4.6730    0.0000 N   0  0
    8.2870   -3.9585    0.0000 N   0  0
   10.7620   -5.3874    0.0000 C   0  0  1  0  0  0
    7.0495   -4.6730    0.0000 C   0  0
   11.5870   -5.3874    0.0000 C   0  0
    9.1120   -3.9585    0.0000 C   0  0  1  0  0  0
    7.0495   -3.2440    0.0000 C   0  0  1  0  0  0
    6.6370   -3.9585    0.0000 N   0  0
   10.3495   -6.1019    0.0000 C   0  0
   11.9995   -6.1019    0.0000 C   0  0
    3.3370   -2.5295    0.0000 O   0  0
    2.5120   -3.9585    0.0000 O   0  0
    9.1120   -5.3874    0.0000 O   0  0
    8.2870   -2.5295    0.0000 O   0  0
    9.5245   -3.2440    0.0000 C   0  0
    6.6370   -2.5295    0.0000 C   0  0
    7.8745   -4.6730    0.0000 O   0  0
    9.5245   -6.1019    0.0000 O   0  0
    6.6370   -5.3874    0.0000 O   0  0
   12.8245   -6.1019    0.0000 O   0  0
    3.6389   -3.6565    0.0000 O   0  0
    2.2100   -2.8315    0.0000 O   0  0
   10.7620   -6.8164    0.0000 N   0  0
   11.5870   -6.8164    0.0000 N   0  0
    4.1620   -2.5295    0.0000 C   0  0
   10.3495   -3.2440    0.0000 C   0  0
    5.8120   -2.5295    0.0000 C   0  0
   11.9995   -3.2440    0.0000 C   0  0
    5.8120   -6.8164    0.0000 C   0  0
    5.3995   -7.5308    0.0000 C   0  0
    7.0495   -6.1019    0.0000 C   0  0
    4.5745   -7.5308    0.0000 N   0  0
    6.6370   -6.8164    0.0000 C   0  0
    5.3995   -3.2440    0.0000 C   0  0
   10.7620   -3.9585    0.0000 C   0  0
    5.3995   -1.8151    0.0000 C   0  0
   10.7620   -2.5295    0.0000 C   0  0
    4.5745   -1.8151    0.0000 C   0  0
    4.5745   -3.2440    0.0000 C   0  0
   11.5870   -3.9585    0.0000 C   0  0
   11.5870   -2.5295    0.0000 C   0  0
   12.8245   -3.2440    0.0000 O   0  0
    6.6370   -8.2453    0.0000 C   0  0
    5.8120   -8.2453    0.0000 C   0  0
    7.0495   -7.5308    0.0000 C   0  0
  2  9  1  0
  3 10  1  0
  4  2  1  0
  5  3  1  0
  6  4  1  0
  7 11  1  0
  6  8  1  1
  9  5  1  0
 10 19  1  1
 11 10  1  0
 12  6  1  0
 13  8  1  0
 14  1  1  0
 15  1  2  0
 16  2  2  0
 17  3  2  0
  9 18  1  1
 19 30  1  0
 20  7  2  0
 21 12  2  0
 22  7  1  0
 23 13  2  0
 24  1  1  0
 25  1  1  0
 26 12  1  0
 27 13  1  0
 28 14  1  0
 29 18  1  0
 30 37  2  0
 31 44  2  0
 32 36  2  0
 33 32  1  0
 34 22  1  0
 35 33  1  0
 36 34  1  0
 37 42  1  0
 38 29  1  0
 39 41  2  0
 40 29  2  0
 41 28  1  0
 42 28  2  0
 43 38  2  0
 44 40  1  0
 45 31  1  0
 46 48  2  0
 47 46  1  0
 48 36  1  0
 30 39  1  0
 43 31  1  0
 33 47  2  0
M  END