
  SciTegic10311316212D

 46 52  0  0  0  0            999 V2000
    3.0761   -3.3118    0.0000 C   0  0
    3.0761   -4.1290    0.0000 C   0  0
    3.7847   -4.5376    0.0000 C   0  0
    4.4914   -4.1290    0.0000 C   0  0
    4.4914   -3.3118    0.0000 C   0  0
    3.7847   -2.9032    0.0000 C   0  0
    5.2042   -4.5376    0.0000 C   0  0  1  0  0  0
    5.9067   -4.1290    0.0000 C   0  0  2  0  0  0
    5.9067   -3.3118    0.0000 C   0  0
    5.2042   -2.9032    0.0000 C   0  0
    6.5498   -4.6328    0.0000 C   0  0
    7.3411   -4.4569    0.0000 C   0  0
    7.6991   -3.7204    0.0000 C   0  0
    7.3411   -2.9840    0.0000 C   0  0  1  0  0  0
    6.5498   -2.8018    0.0000 C   0  0
    7.8054   -5.1309    0.0000 C   0  0
    8.6174   -5.0705    0.0000 C   0  0
    8.9754   -4.3340    0.0000 C   0  0
    8.5111   -3.6580    0.0000 C   0  0
    9.7874   -4.2716    0.0000 C   0  0
   10.1454   -3.5352    0.0000 C   0  0
    9.6811   -2.8611    0.0000 C   0  0  1  0  0  0
    8.8691   -2.9215    0.0000 O   0  0
   10.9574   -3.4748    0.0000 C   0  0
   11.3155   -2.7383    0.0000 C   0  0
   10.8512   -2.0623    0.0000 C   0  0
   10.0392   -2.1247    0.0000 C   0  0  1  0  0  0
    5.2042   -5.3548    0.0000 O   0  0
    5.2042   -2.0860    0.0000 O   0  0
    3.7847   -2.0860    0.0000 O   0  0
    2.3694   -4.5376    0.0000 C   0  0
    6.3677   -2.0064    0.0000 O   0  0
    9.0817   -5.7445    0.0000 O   0  0
   10.2517   -4.9477    0.0000 O   0  0
   11.4176   -4.1488    0.0000 O   0  0
    4.4914   -5.7634    0.0000 C   0  0
    3.7847   -5.3548    0.0000 O   0  0
    4.4914   -6.5806    0.0000 C   0  0
    6.7466   -4.1888    0.0000 C   0  0
    7.3247   -3.7214    0.0000 C   0  0
    7.5535   -2.1950    0.0000 H   0  0
    9.0714   -2.3321    0.0000 C   0  0
    9.2234   -1.5367    0.0000 O   0  0
    8.3057   -2.5984    0.0000 O   0  0
    8.6095   -1.0077    0.0000 C   0  0
    9.8972   -1.1264    0.0000 O   0  0
  1  2  2  0
  2  3  1  0
  3  4  2  0
  4  5  1  0
  5  6  2  0
  6  1  1  0
  4  7  1  0
  7  8  1  0
  8  9  1  0
  9 10  2  0
 10  5  1  0
  8 11  1  0
 11 12  1  0
 12 13  2  0
 13 14  1  0
 14 15  1  0
 15  9  1  0
 12 16  1  0
 16 17  2  0
 17 18  1  0
 18 19  2  0
 19 13  1  0
 18 20  1  0
 20 21  1  0
 21 22  1  0
 22 23  1  0
 23 19  1  0
 21 24  2  0
 24 25  1  0
 25 26  2  0
 26 27  1  0
 27 22  1  0
  7 28  1  1
 10 29  1  0
  6 30  1  0
  2 31  1  0
 15 32  2  0
 17 33  1  0
 20 34  2  0
 24 35  1  0
 28 36  1  0
 36 37  2  0
 36 38  1  0
  8 39  1  1
 14 40  1  0
 39 40  2  0
 14 41  1  1
 22 42  1  6
 42 43  1  0
 42 44  2  0
 43 45  1  0
 27 46  1  6
M  END