
  SciTegic04151115542D

 28 30  0  0  0  0            999 V2000
   -1.3514  -12.4833    0.0000 C   0  0
   -1.3526  -13.3107    0.0000 C   0  0
   -0.6378  -13.7235    0.0000 C   0  0
    0.0787  -13.3102    0.0000 C   0  0
    0.0758  -12.4797    0.0000 C   0  0
   -0.6396  -12.0705    0.0000 C   0  0
   -2.0660  -12.0710    0.0000 O   0  0
   -2.0662  -11.2460    0.0000 C   0  0
   -2.0674  -13.7226    0.0000 S   0  0
   -2.7815  -13.3095    0.0000 N   0  0
   -2.4875  -14.4333    0.0000 O   0  0
   -1.4875  -14.3042    0.0000 O   0  0
    0.7938  -13.7216    0.0000 C   0  0
    1.5076  -13.3079    0.0000 C   0  0  2  0  0  0
    2.2227  -13.7193    0.0000 N   0  0
    1.5063  -12.4829    0.0000 C   0  0
    2.9365  -13.3057    0.0000 C   0  0
    4.3655  -13.3035    0.0000 O   0  0
    5.0806  -13.7148    0.0000 C   0  0
    5.0777  -14.5386    0.0000 C   0  0
    5.7920  -14.9499    0.0000 C   0  0
    6.5068  -14.5362    0.0000 C   0  0
    6.5028  -13.7069    0.0000 C   0  0
    5.7880  -13.2994    0.0000 C   0  0
    4.3627  -14.9502    0.0000 O   0  0
    3.6487  -14.5369    0.0000 C   0  0  2  0  0  0
    3.6497  -13.7119    0.0000 C   0  0  1  0  0  0
    2.9338  -14.9485    0.0000 C   0  0
 13 14  1  0
  1  7  1  0
 14 15  1  0
  3  4  2  0
 14 16  1  1
  7  8  1  0
 15 17  1  0
 27 17  1  1
 27 18  1  0
  2  9  1  0
 18 19  1  0
  4  5  1  0
 19 20  2  0
  9 10  1  0
 20 21  1  0
  2  3  1  0
 21 22  2  0
  9 11  2  0
 22 23  1  0
  5  6  2  0
 23 24  2  0
 24 19  1  0
  9 12  2  0
 20 25  1  0
  6  1  1  0
 25 26  1  0
  4 13  1  0
 26 27  1  0
  1  2  2  0
 26 28  1  1
M  END