
  SciTegic05221516342D

 16 18  0  0  0  0            999 V2000
   16.9175   -1.5436    0.0000 C   0  0
   16.9175   -2.3608    0.0000 C   0  0
   17.6228   -2.7652    0.0000 N   0  0
   17.6228   -1.1309    0.0000 C   0  0
   18.3281   -1.5436    0.0000 C   0  0
   18.3265   -2.3590    0.0000 C   0  0
   19.0307   -2.7663    0.0000 C   0  0
   19.7370   -2.3593    0.0000 C   0  0
   19.7346   -1.5408    0.0000 C   0  0
   19.0298   -1.1372    0.0000 C   0  0
   17.6240   -3.5824    0.0000 C   0  0
   20.4451   -2.7672    0.0000 N   0  0
   16.9169   -3.9921    0.0000 O   0  0
   18.3323   -3.9900    0.0000 C   0  0
   18.7431   -4.6923    0.0000 C   0  0
   19.1506   -3.9840    0.0000 C   0  0
  1  2  1  0
  1  4  1  0
  2  3  1  0
  3  6  1  0
  5  4  1  0
  5  6  2  0
  6  7  1  0
  7  8  2  0
  8  9  1  0
  9 10  2  0
 10  5  1  0
  3 11  1  0
  8 12  1  0
 11 13  2  0
 11 14  1  0
 15 14  1  0
 16 15  1  0
 14 16  1  0
M  END