
  SciTegic05281310212D

 40 41  0  0  0  0            999 V2000
    7.1234   -4.2255    0.0000 C   0  0  2  0  0  0
    7.5254   -3.5094    0.0000 C   0  0  1  0  0  0
    5.1929   -6.1728    0.0000 S   0  0
    8.3672   -4.9290    0.0000 C   0  0  2  0  0  0
    9.6109   -5.6284    0.0000 S   0  0
    2.6132   -6.5706    0.0000 S   0  0
    3.9449   -5.4693    0.0000 C   0  0  1  0  0  0
    4.3469   -4.7532    0.0000 C   0  0  1  0  0  0
    3.4800   -1.8887    0.0000 S   0  0
    8.3420   -3.4968    0.0000 O   0  0
    7.5422   -4.9374    0.0000 C   0  0  1  0  0  0
    3.1157   -5.4818    0.0000 C   0  0  2  0  0  0
    8.7692   -4.2087    0.0000 C   0  0  1  0  0  0
    6.0346   -4.8494    0.0000 O   0  0
    2.7011   -4.7741    0.0000 C   0  0
    4.3637   -6.1812    0.0000 N   0  0
    3.9198   -4.0454    0.0000 O   0  0
    8.7818   -5.6326    0.0000 O   0  0
    7.2239   -3.0571    0.0000 C   0  0
    3.0822   -4.0370    0.0000 C   0  0
    3.0529   -6.0346    0.0000 O   0  0
    5.2012   -7.0020    0.0000 O   0  0
    9.6235   -6.4575    0.0000 O   0  0
    1.8636   -7.0731    0.0000 O   0  0
    4.2087   -2.3033    0.0000 O   0  0
    3.0780   -2.6174    0.0000 O   0  0
    5.1887   -5.3436    0.0000 O   0  0
    6.0221   -6.1560    0.0000 O   0  0
    2.1735   -5.8545    0.0000 O   0  0
   10.4401   -5.6075    0.0000 O   0  0
    9.6026   -4.7908    0.0000 O   0  0
    2.9649   -7.2616    0.0000 O   0  0
    3.8821   -1.1684    0.0000 O   0  0
    2.7514   -1.4993    0.0000 O   0  0
    2.6760   -3.3461    0.0000 C   0  0
    7.6302   -2.4289    0.0000 O   0  0
    6.3822   -2.8687    0.0000 O   0  0
    7.6930   -4.1878    0.0000 O   0  0
    9.5984   -4.1961    0.0000 O   0  0
   10.3019   -3.8109    0.0000 C   0  0
  2  1  1  0
  3 16  1  0
  4 11  1  0
  5 18  1  0
  6 21  1  0
  7  8  1  0
  8 14  1  6
  9 26  1  0
 10  2  1  0
 11  1  1  0
 12  7  1  0
 13  4  1  0
  1 14  1  6
 15 20  2  0
  7 16  1  6
 17  8  1  0
  4 18  1  6
  2 19  1  6
 20 17  1  0
 12 21  1  1
 22  3  1  0
 23  5  1  0
 24  6  1  0
 25  9  1  0
 26 35  1  0
 27  3  2  0
 28  3  2  0
 29  6  2  0
 30  5  2  0
 31  5  2  0
 32  6  2  0
 33  9  2  0
 34  9  2  0
 35 20  1  0
 36 19  1  0
 37 19  2  0
 11 38  1  1
 13 39  1  1
 40 39  1  0
 10 13  1  0
 12 15  1  0
M  END