
          11280715152D 1   1.00000     0.00000     0

 22 25  0     0  0            999 V2000
    4.7917   -6.0417    0.0000 N   0  0  3  0  0  0           0  0  0
    5.5125   -6.4542    0.0000 C   0  0  0  0  0  0           0  0  0
    6.1250   -5.9042    0.0000 N   0  0  0  0  0  0           0  0  0
    5.5125   -7.2917    0.0000 C   0  0  0  0  0  0           0  0  0
    4.9667   -5.2375    0.0000 C   0  0  0  0  0  0           0  0  0
    5.7917   -5.1500    0.0000 C   0  0  0  0  0  0           0  0  0
    4.7917   -7.7042    0.0000 N   0  0  0  0  0  0           0  0  0
    4.0792   -6.4625    0.0000 C   0  0  0  0  0  0           0  0  0
    4.0792   -7.2875    0.0000 C   0  0  0  0  0  0           0  0  0
    6.2042   -4.4375    0.0000 C   0  0  0  0  0  0           0  0  0
    6.2250   -7.7042    0.0000 O   0  0  0  0  0  0           0  0  0
    7.0292   -4.4417    0.0000 C   0  0  0  0  0  0           0  0  0
    5.7917   -3.7292    0.0000 C   0  0  0  0  0  0           0  0  0
    7.0292   -3.0125    0.0000 C   0  0  0  0  0  0           0  0  0
    6.2000   -3.0125    0.0000 C   0  0  0  0  0  0           0  0  0
    7.4417   -3.7250    0.0000 C   0  0  0  0  0  0           0  0  0
    3.3667   -6.0500    0.0000 C   0  0  0  0  0  0           0  0  0
    7.4417   -2.2917    0.0000 O   0  0  0  0  0  0           0  0  0
    3.3667   -7.7042    0.0000 C   0  0  0  0  0  0           0  0  0
    8.2667   -2.2917    0.0000 C   0  0  0  0  0  0           0  0  0
    2.6542   -6.4667    0.0000 C   0  0  0  0  0  0           0  0  0
    2.6542   -7.2917    0.0000 C   0  0  0  0  0  0           0  0  0
  2  1  1  0     0  0
  3  2  2  0     0  0
  4  2  1  0     0  0
  5  1  1  0     0  0
  6  5  2  0     0  0
  7  9  1  0     0  0
  8  1  1  0     0  0
  9  8  2  0     0  0
 10  6  1  0     0  0
 11  4  1  0     0  0
 12 10  2  0     0  0
 13 10  1  0     0  0
 14 15  1  0     0  0
 15 13  2  0     0  0
 16 12  1  0     0  0
 17  8  1  0     0  0
 18 14  1  0     0  0
 19  9  1  0     0  0
 20 18  1  0     0  0
 21 17  2  0     0  0
 22 21  1  0     0  0
  6  3  1  0     0  0
  7  4  2  0     0  0
 22 19  2  0     0  0
 14 16  2  0     0  0
M  END