
  SciTegic04191613082D

 35 39  0  0  0  0            999 V2000
    1.2990   -0.7500    0.0000 C   0  0
    1.2990    0.7500    0.0000 C   0  0
    0.0000    1.5000    0.0000 C   0  0
   -1.2990    0.7500    0.0000 C   0  0
   -1.2990   -0.7500    0.0000 C   0  0
    0.0000   -1.5000    0.0000 N   0  3
   -2.6003   -1.4978    0.0000 C   0  0
   -3.8990   -0.7455    0.0000 C   0  0
   -5.2003   -1.4932    0.0000 C   0  0
    2.6003   -1.4977    0.0000 C   0  0
    3.8990   -0.7455    0.0000 C   0  0
    5.2003   -1.4932    0.0000 C   0  0
   -6.4994   -0.7433    0.0000 C   0  0
   -7.7985   -1.4932    0.0000 C   0  0
   -7.7985   -2.9932    0.0000 C   0  0
   -6.4995   -3.7433    0.0000 C   0  0
   -5.2004   -2.9933    0.0000 C   0  0
    6.4994   -0.7432    0.0000 C   0  0
    7.7985   -1.4932    0.0000 C   0  0
    7.7985   -2.9932    0.0000 C   0  0
    6.4995   -3.7432    0.0000 C   0  0
    5.2004   -2.9933    0.0000 C   0  0
    9.0982   -3.7435    0.0000 C   0  0
   10.3985   -2.9956    0.0000 C   0  0
   11.6964   -3.7477    0.0000 C   0  0
   11.6940   -5.2477    0.0000 C   0  0
   10.3938   -5.9956    0.0000 C   0  0
    9.0960   -5.2436    0.0000 C   0  0
   -9.0982   -3.7436    0.0000 C   0  0
  -10.3985   -2.9957    0.0000 C   0  0
  -11.6964   -3.7477    0.0000 C   0  0
  -11.6940   -5.2477    0.0000 C   0  0
  -10.3938   -5.9957    0.0000 C   0  0
   -9.0959   -5.2437    0.0000 C   0  0
    0.0000   -2.7000    0.0000 C   0  0
  1  2  2  0
  2  3  1  0
  3  4  2  0
  4  5  1  0
  5  6  2  0
  6  1  1  0
  5  7  1  0
  7  8  1  0
  8  9  1  0
  1 10  1  0
 10 11  1  0
 11 12  1  0
  9 13  1  0
  9 17  2  0
 13 14  2  0
 14 15  1  0
 15 16  2  0
 16 17  1  0
 12 18  2  0
 12 22  1  0
 18 19  1  0
 19 20  2  0
 20 21  1  0
 21 22  2  0
 23 24  2  0
 24 25  1  0
 25 26  2  0
 26 27  1  0
 27 28  2  0
 28 23  1  0
 20 23  1  0
 29 30  2  0
 30 31  1  0
 31 32  2  0
 32 33  1  0
 33 34  2  0
 34 29  1  0
 15 29  1  0
  6 35  1  0
M  CHG  1   6   1
M  END