
          11280715352D 1   1.00000     0.00000     0

 40 43  0     1  0            999 V2000
    3.6792   -5.8625    0.0000 N   0  0  3  0  0  0           0  0  0
    4.7000   -5.2875    0.0000 C   0  0  0  0  0  0           0  0  0
    4.1917   -4.9917    0.0000 C   0  0  0  0  0  0           0  0  0
    4.6917   -5.8750    0.0000 C   0  0  0  0  0  0           0  0  0
    3.6875   -5.2750    0.0000 C   0  0  0  0  0  0           0  0  0
    4.7000   -4.1125    0.0000 C   0  0  2  0  0  0           0  0  0
    4.1917   -4.4042    0.0000 C   0  0  0  0  0  0           0  0  0
    5.2042   -4.4125    0.0000 C   0  0  2  0  0  0           0  0  0
    5.7250   -4.1250    0.0000 N   0  0  3  0  0  0           0  0  0
    5.2042   -4.9917    0.0000 C   0  0  0  0  0  0           0  0  0
    6.2500   -2.6542    0.0000 C   0  0  0  0  0  0           0  0  0
    5.7292   -3.5375    0.0000 C   0  0  0  0  0  0           0  0  0
    4.7042   -3.5167    0.0000 C   0  0  0  0  0  0           0  0  0
    7.4375   -5.3792    0.0000 C   0  0  0  0  0  0           0  0  0
    8.6417   -5.3875    0.0000 C   0  0  0  0  0  0           0  0  0
    7.7375   -4.8667    0.0000 C   0  0  0  0  0  0           0  0  0
    8.3375   -4.8667    0.0000 C   0  0  0  0  0  0           0  0  0
    5.2167   -3.2292    0.0000 C   0  0  1  0  0  0           0  0  0
    5.7417   -2.3542    0.0000 O   0  0  0  0  0  0           0  0  0
    3.2500   -6.2792    0.0000 C   0  0  3  0  0  0           0  0  0
    6.2417   -3.2500    0.0000 O   0  0  0  0  0  0           0  0  0
    7.7375   -5.9042    0.0000 O   0  0  0  0  0  0           0  0  0
    9.2417   -5.3875    0.0000 O   0  0  0  0  0  0           0  0  0
    6.7625   -2.3667    0.0000 C   0  0  3  0  0  0           0  0  0
    5.2250   -2.6417    0.0000 C   0  0  0  0  0  0           0  0  0
    3.1750   -4.9917    0.0000 C   0  0  0  0  0  0           0  0  0
    3.6875   -4.1042    0.0000 C   0  0  0  0  0  0           0  0  0
    6.2292   -4.4250    0.0000 C   0  0  0  0  0  0           0  0  0
    8.3375   -5.9042    0.0000 O   0  0  0  0  0  0           0  0  0
    6.8375   -5.3792    0.0000 O   0  0  0  0  0  0           0  0  0
    3.1750   -4.4042    0.0000 C   0  0  0  0  0  0           0  0  0
    6.7750   -1.7792    0.0000 C   0  0  0  0  0  0           0  0  0
    7.2750   -2.6792    0.0000 C   0  0  0  0  0  0           0  0  0
    2.6750   -6.1167    0.0000 C   0  0  0  0  0  0           0  0  0
    3.4000   -6.8625    0.0000 C   0  0  0  0  0  0           0  0  0
    7.7875   -2.3917    0.0000 C   0  0  0  0  0  0           0  0  0
    7.2917   -1.5000    0.0000 C   0  0  0  0  0  0           0  0  0
    7.8000   -1.8042    0.0000 C   0  0  0  0  0  0           0  0  0
    3.8500   -3.5667    0.0000 H   0  0  0  0  0  0           0  0  0
    5.7167   -4.7042    0.0000 H   0  0  0  0  0  0           0  0  0
  2  4  2  0     0  0
  3  5  1  0     0  0
  4  1  1  0     0  0
  5  1  1  0     0  0
  6  7  1  0     0  0
  7  3  2  0     0  0
  8 10  1  0     0  0
  9  8  1  0     0  0
 10  2  1  0     0  0
 11 19  1  0     0  0
 12  9  1  0     0  0
 13  6  1  0     0  0
 15 17  1  0     0  0
 16 14  1  0     0  0
 17 16  2  0     0  0
 18 13  1  0     0  0
 19 25  1  0     0  0
 20  1  1  0     0  0
 21 11  2  0     0  0
 22 14  2  0     0  0
 23 15  2  0     0  0
 24 11  1  0     0  0
 18 25  1  1     0  0
 26  5  2  0     0  0
 27  7  1  0     0  0
 28  9  1  0     0  0
 29 15  1  0     0  0
 30 14  1  0     0  0
 31 26  1  0     0  0
 32 24  1  0     0  0
 33 24  1  0     0  0
 34 20  1  0     0  0
 35 20  1  0     0  0
 36 33  1  0     0  0
 37 32  1  0     0  0
 38 36  1  0     0  0
  6 39  1  6     0  0
  8 40  1  1     0  0
  3  2  1  0     0  0
 31 27  2  0     0  0
  8  6  1  0     0  0
 12 18  1  0     0  0
 38 37  1  0     0  0
M  END