
          11280714552D 1   1.00000     0.00000     0

 22 25  0     0  0            999 V2000
    1.6542   -3.9792    0.0000 N   0  0  3  0  0  0           0  0  0
    2.1292   -3.3042    0.0000 C   0  0  3  0  0  0           0  0  0
    0.8625   -3.7292    0.0000 C   0  0  0  0  0  0           0  0  0
    0.8542   -2.9000    0.0000 C   0  0  0  0  0  0           0  0  0
    2.9625   -3.3000    0.0000 C   0  0  0  0  0  0           0  0  0
    1.6417   -2.6375    0.0000 C   0  0  0  0  0  0           0  0  0
    3.4375   -2.6167    0.0000 N   0  0  0  0  0  0           0  0  0
    3.4542   -3.9542    0.0000 N   0  0  0  0  0  0           0  0  0
    0.1417   -4.1417    0.0000 C   0  0  0  0  0  0           0  0  0
    0.1417   -2.4875    0.0000 C   0  0  0  0  0  0           0  0  0
   -0.5708   -2.9000    0.0000 C   0  0  0  0  0  0           0  0  0
   -0.5708   -3.7292    0.0000 C   0  0  0  0  0  0           0  0  0
    1.6500   -4.8042    0.0000 C   0  0  0  0  0  0           0  0  0
   -1.2875   -2.4875    0.0000 C   0  0  0  0  0  0           0  0  0
   -1.2875   -1.6625    0.0000 C   0  0  0  0  0  0           0  0  0
    4.2250   -2.8625    0.0000 C   0  0  0  0  0  0           0  0  0
    4.2417   -3.6875    0.0000 C   0  0  0  0  0  0           0  0  0
   -0.5708   -1.2500    0.0000 C   0  0  0  0  0  0           0  0  0
   -2.0000   -1.2500    0.0000 C   0  0  0  0  0  0           0  0  0
   -2.0000   -0.4292    0.0000 C   0  0  0  0  0  0           0  0  0
   -0.5708   -0.4292    0.0000 C   0  0  0  0  0  0           0  0  0
   -1.2833   -0.0125    0.0000 C   0  0  0  0  0  0           0  0  0
  2  1  1  0     0  0
  3  1  1  0     0  0
  4  3  1  0     0  0
  5  2  1  0     0  0
  6  2  1  0     0  0
  7  5  2  0     0  0
  8  5  1  0     0  0
  9  3  2  0     0  0
 10  4  2  0     0  0
 11 12  2  0     0  0
 12  9  1  0     0  0
 13  1  1  0     0  0
 14 11  1  0     0  0
 15 14  1  0     0  0
 16  7  1  0     0  0
 17  8  1  0     0  0
 18 15  2  0     0  0
 19 15  1  0     0  0
 20 19  2  0     0  0
 21 18  1  0     0  0
 22 20  1  0     0  0
  6  4  1  0     0  0
 10 11  1  0     0  0
 17 16  1  0     0  0
 21 22  2  0     0  0
M  END