
  SciTegic11201309402D

166170  0  0  1  0            999 V2000
   -4.3083   -2.6250    0.0000 C   0  0  2  0  0  0
   -8.4375   -8.9542    0.0000 N   0  0
   -4.9750   -2.1292    0.0000 N   0  0
   -7.6417   -9.2042    0.0000 C   0  0
   -3.7583   -3.2417    0.0000 N   0  0
   -9.7667   -7.9792    0.0000 C   0  0
   -3.9250   -7.8792    0.0000 N   0  0
    6.2917   -4.5292    0.0000 C   0  0  1  0  0  0
    6.9042   -5.0917    0.0000 C   0  0
    5.5042   -4.7792    0.0000 N   0  0
   -6.0000   -9.1792    0.0000 N   0  0
   -7.3667   -1.6542    0.0000 N   0  0
  -10.6792   -4.9042    0.0000 N   0  0
   -5.7333   -1.8000    0.0000 C   0  0
  -10.2375   -7.3042    0.0000 N   0  0
   -5.2208   -8.9000    0.0000 C   0  0
   -3.5208   -2.3667    0.0000 C   0  0
    4.8917   -4.2250    0.0000 C   0  0
   -9.5667   -2.7167    0.0000 N   0  0
  -10.1042   -3.3542    0.0000 C   0  0
   -1.5083   -3.2375    0.0000 C   0  0
   -3.4708   -7.1875    0.0000 C   0  0
  -10.7042   -5.7292    0.0000 C   0  0
   -8.1792   -1.8417    0.0000 C   0  0
   -2.9083   -2.9292    0.0000 N   0  0
   -4.5208   -8.4625    0.0000 C   0  0  2  0  0  0
    3.4917   -3.9167    0.0000 N   0  0
   -9.1500   -8.5417    0.0000 C   0  0  2  0  0  0
    2.7042   -4.1667    0.0000 C   0  0
   -6.5417   -1.6375    0.0000 C   0  0  2  0  0  0
    0.6875   -3.2917    0.0000 C   0  0
  -10.4750   -4.1000    0.0000 C   0  0  2  0  0  0
   11.1125   -6.0167    0.0000 C   0  0
   13.3042   -6.0750    0.0000 C   0  0
    9.1000   -5.1500    0.0000 C   0  0
   -1.7958   -6.0250    0.0000 C   0  0
   -0.7125   -2.9875    0.0000 N   0  0
   -6.8167   -9.2875    0.0000 C   0  0  2  0  0  0
    7.7000   -4.8417    0.0000 N   0  0
    4.1000   -4.4750    0.0000 C   0  0  1  0  0  0
    1.3000   -3.8542    0.0000 N   0  0
   -2.1125   -2.6792    0.0000 C   0  0  1  0  0  0
   13.9167   -6.6375    0.0000 N   0  0
   -0.0958   -3.5417    0.0000 C   0  0  1  0  0  0
   -2.3750   -6.6167    0.0000 N   0  0
    9.7125   -5.7125    0.0000 N   0  0
   11.9042   -5.7667    0.0000 N   0  0
   -0.2750   -4.3542    0.0000 C   0  0
    2.0917   -3.6042    0.0000 C   0  0  1  0  0  0
   -3.3583   -3.9667    0.0000 C   0  0
   -4.3958   -0.3042    0.0000 N   0  0
   -9.4667    1.3708    0.0000 C   0  0
    8.9917   -8.9417    0.0000 C   0  0
   13.2042   -9.8667    0.0000 C   0  0
   14.7042   -6.3792    0.0000 C   0  0  2  0  0  0
  -10.5625   -6.5417    0.0000 C   0  0  1  0  0  0
   -8.9250   -2.2042    0.0000 C   0  0  1  0  0  0
   -3.1833   -6.4042    0.0000 C   0  0  1  0  0  0
   15.3167   -6.9417    0.0000 C   0  0
   -6.4667   -0.8125    0.0000 C   0  0
   -5.7208   -0.4625    0.0000 C   0  0
   10.5000   -5.4542    0.0000 C   0  0  1  0  0  0
    0.3292   -4.9125    0.0000 C   0  0
   -5.5583    0.3500    0.0000 N   0  0
    8.3042   -5.4042    0.0000 C   0  0  1  0  0  0
   12.5125   -6.3292    0.0000 C   0  0  1  0  0  0
   -4.7333    0.4500    0.0000 C   0  0
   -0.9958   -6.2292    0.0000 C   0  0  2  0  0  0
   11.6417   -3.5875    0.0000 C   0  0
  -10.3000    1.3375    0.0000 N   0  0
    9.6125   -9.5042    0.0000 N   0  0
   13.8167  -10.4292    0.0000 N   0  0
   -7.8042  -10.0167    0.0000 O   0  0
   -4.9958   -0.8625    0.0000 C   0  0
  -10.3792   -8.5292    0.0000 O   0  0
    6.7292   -5.9000    0.0000 O   0  0
    5.0667   -3.4167    0.0000 O   0  0
   -1.6833   -4.0500    0.0000 O   0  0
   -4.8583   -9.6417    0.0000 O   0  0
   -5.4833   -1.0042    0.0000 O   0  0
  -10.7917   -2.9042    0.0000 O   0  0
   -2.7333   -7.5625    0.0000 O   0  0
   -8.4542   -1.0625    0.0000 O   0  0
  -11.5417   -5.7875    0.0000 O   0  0
   -3.3333   -1.5625    0.0000 O   0  0
    2.5250   -4.9750    0.0000 O   0  0
    0.8667   -2.4875    0.0000 O   0  0
    9.2750   -4.3417    0.0000 O   0  0
   -2.0208   -5.2292    0.0000 O   0  0
   10.9375   -6.8292    0.0000 O   0  0
   13.4792   -5.2667    0.0000 O   0  0
   14.8792   -5.5750    0.0000 C   0  0
  -11.2500   -3.8042    0.0000 C   0  0
   15.1417   -7.7500    0.0000 O   0  0
    2.2667   -2.8000    0.0000 C   0  0
   -2.5958   -3.6500    0.0000 O   0  0
   -0.7708   -7.0292    0.0000 C   0  0
    6.4750   -3.7250    0.0000 C   0  0  2  0  0  0
    0.1542   -5.7292    0.0000 O   0  0
   12.4292   -3.3375    0.0000 O   0  0
   -3.0583   -5.5875    0.0000 C   0  0
   10.6792   -4.6500    0.0000 C   0  0
   13.3792   -9.0625    0.0000 N   0  0
    9.1750   -8.1292    0.0000 N   0  0
   -9.0292    0.6708    0.0000 N   0  0
    8.2042   -9.1917    0.0000 N   0  0
   12.4125  -10.1167    0.0000 N   0  0
   -9.0667    2.0958    0.0000 N   0  0
   -8.6042   -9.7667    0.0000 C   0  0
   -3.1208   -4.7625    0.0000 C   0  0
    3.9292   -5.2792    0.0000 C   0  0  2  0  0  0
   -1.9333   -1.8667    0.0000 C   0  0  2  0  0  0
    1.1167   -4.6667    0.0000 N   0  0
   11.4667   -4.3917    0.0000 C   0  0
   11.0375   -3.0292    0.0000 N   0  0
   15.6750   -5.3250    0.0000 C   0  0
   -1.3583   -7.6250    0.0000 C   0  0
   -0.4208   -5.6417    0.0000 N   0  0
   16.1042   -6.6917    0.0000 O   0  0
   -4.1250   -1.8167    0.0000 C   0  0
   -2.5208   -8.8042    0.0000 C   0  0
   17.2500   -4.8250    0.0000 C   0  0
   -4.0083   -9.1125    0.0000 C   0  0
   15.8542   -4.5167    0.0000 C   0  0
   -2.1583   -7.4167    0.0000 C   0  0
   16.2792   -5.8792    0.0000 C   0  0
   -1.1333   -8.4167    0.0000 C   0  0
   -8.1917  -12.6250    0.0000 N   0  0
   -1.7125   -9.0125    0.0000 C   0  0
   17.0667   -5.6292    0.0000 C   0  0
   -2.7333   -8.0042    0.0000 C   0  0
   16.6417   -4.2542    0.0000 C   0  0
   -9.7667   -9.1000    0.0000 C   0  0
    7.2667   -3.4667    0.0000 O   0  0
   -3.1000   -9.4000    0.0000 O   0  0
   18.0417   -4.5667    0.0000 O   0  0
   -6.8042  -10.1125    0.0000 C   0  0
   -4.3083   -9.8792    0.0000 O   0  0
   -9.4292   -9.8542    0.0000 C   0  0
   -9.3625   -1.5000    0.0000 C   0  0
  -11.3792   -2.9792    0.0000 C   0  0
    3.0542   -2.5417    0.0000 C   0  0
  -11.3542   -6.7792    0.0000 C   0  0
    8.1292   -6.2042    0.0000 C   0  0
   12.3292   -7.1375    0.0000 C   0  0
   12.7667   -8.5042    0.0000 C   0  0
   -9.4167   -0.0667    0.0000 C   0  0
    8.5625   -7.5792    0.0000 C   0  0
   -8.2042  -11.7917    0.0000 C   0  0
    3.1375   -5.5292    0.0000 C   0  0
   -2.5500   -1.3125    0.0000 C   0  0
    5.8625   -3.1625    0.0000 C   0  0
    4.5375   -5.8417    0.0000 C   0  0
   -1.1458   -1.6167    0.0000 C   0  0
   -8.9667   -0.7667    0.0000 C   0  0
   12.9417   -7.6917    0.0000 C   0  0
    8.7417   -6.7667    0.0000 C   0  0
   -7.5167  -10.5375    0.0000 C   0  0
   -7.5000  -11.3667    0.0000 C   0  0
    3.6750   -3.1042    0.0000 C   0  0
  -10.7417   -2.4625    0.0000 C   0  0
  -12.1542   -2.6917    0.0000 C   0  0
    3.2375   -1.7375    0.0000 C   0  0
   -2.3708   -0.5042    0.0000 C   0  0
    2.9542   -6.3417    0.0000 C   0  0
  -10.1500   -8.5398    0.0000 H   0  0
  2  4  1  0
  3  1  1  0
  4 38  1  0
  1  5  1  0
  6 15  1  0
  7 22  1  0
  8 10  1  1
  9  8  1  0
 10 18  1  0
 11 16  1  0
 12 30  1  0
 13 32  1  0
 14  3  1  0
 15 56  1  0
 16 26  1  0
 17  1  1  0
 18 40  1  0
 19 57  1  0
 20 19  1  0
 21 42  1  0
 22 58  1  0
 23 13  1  0
 24 12  1  0
 25 17  1  0
 26  7  1  0
 27 29  1  0
 28  2  1  0
 29 49  1  0
 30 14  1  0
 31 44  1  0
 32 20  1  0
 33 62  1  0
 34 66  1  0
 35 65  1  0
 36 45  1  0
 37 21  1  0
 38 11  1  0
 39  9  1  0
 40 27  1  6
 41 31  1  0
 42 25  1  1
 43 34  1  0
 44 37  1  6
 58 45  1  6
 46 35  1  0
 47 33  1  0
 44 48  1  0
 49 41  1  1
 50  5  1  0
 51 74  1  0
 52105  2  0
 53104  2  0
 54103  2  0
 55 43  1  1
 56 23  1  0
 57 24  1  0
 58101  1  0
 59 55  1  0
 30 60  1  1
 61 60  1  0
 62 46  1  1
 63 48  1  0
 64 61  1  0
 65 39  1  6
 66 47  1  6
 67 64  2  0
 68 36  1  0
 69114  1  0
 70 52  1  0
 71 53  1  0
 72 54  1  0
 73  4  2  0
 74 61  2  0
 75  6  2  0
 76  9  2  0
 77 18  2  0
 78 21  2  0
 79 16  2  0
 80 14  2  0
 81 20  2  0
 82 22  2  0
 83 24  2  0
 84 23  2  0
 85 17  2  0
 86 29  2  0
 87 31  2  0
 88 35  2  0
 89 36  2  0
 90 33  2  0
 91 34  2  0
 55 92  1  0
 32 93  1  1
 94 59  2  0
 49 95  1  0
 96 50  2  0
 68 97  1  0
  8 98  1  0
 99 63  2  0
100 69  2  0
101110  1  0
 62102  1  0
103146  1  0
104148  1  0
105147  1  0
106 53  1  0
107 54  1  0
108 52  1  0
109  2  1  0
110 50  1  0
 40111  1  0
 42112  1  0
113 63  1  0
114102  1  0
115 69  1  0
116 92  1  0
117 97  1  0
 68118  1  1
119 59  1  0
  1120  1  6
121129  1  0
122130  2  0
 26123  1  1
124116  1  0
125117  2  0
126116  2  0
127117  1  0
128149  1  0
129127  2  0
130126  1  0
131125  1  0
132124  2  0
 28133  1  0
 98134  1  1
135121  1  0
136122  1  0
 38137  1  6
138123  1  0
139109  1  0
 57140  1  6
141 93  1  0
142 95  1  0
 56143  1  6
 65144  1  0
 66145  1  0
146156  1  0
147155  1  0
148157  1  0
149159  1  0
150111  1  0
151112  1  0
152 98  1  0
111153  1  1
112154  1  6
155140  1  0
156145  1  0
157144  1  0
158137  1  0
159158  1  0
160142  1  0
161141  1  0
162141  1  0
163142  1  0
164151  1  0
165150  1  0
 67 51  1  0
131121  2  0
 28  6  1  0
139133  1  0
132122  1  0
 28166  1  6
M  END