
  SciTegic08171211382D

162152  0  0  0  0            999 V2000
    0.0000    0.0000    0.0000 Na  0  3
    1.0018    0.0000    0.0000 Na  0  3
    2.0036    0.0000    0.0000 Na  0  3
    3.0054    0.0000    0.0000 Na  0  3
    4.0071    0.0000    0.0000 Na  0  3
    0.0000   -1.6500    0.0000 Na  0  3
    1.0018   -1.6500    0.0000 Na  0  3
    2.0036   -1.6500    0.0000 Na  0  3
    3.0054   -1.6500    0.0000 Na  0  3
    4.0071   -1.6500    0.0000 Na  0  3
    0.0000   -3.3000    0.0000 Na  0  3
    1.0018   -3.3000    0.0000 Na  0  3
    2.0036   -3.3000    0.0000 Na  0  3
    3.0054   -3.3000    0.0000 Na  0  3
    4.0071   -3.3000    0.0000 Na  0  3
    0.0000  -12.5367    0.0000 Na  0  3
    6.3682   -7.6958    0.0000 C   0  0
    5.7738   -8.2678    0.0000 N   0  0
    5.8871   -9.0850    0.0000 N   0  0
    5.1450   -9.4453    0.0000 N   0  0
    4.5730   -8.8508    0.0000 C   0  0
    4.9616   -8.1231    0.0000 C   0  0
    3.7558   -8.9642    0.0000 C   0  0
    3.4454   -9.7286    0.0000 C   0  0
    2.6282   -9.8419    0.0000 C   0  0
    2.1214   -9.1909    0.0000 C   0  0
    2.4318   -8.4265    0.0000 C   0  0
    3.2490   -8.3132    0.0000 C   0  0
   11.5204   -7.6958    0.0000 O   0  0
   12.3130   -7.9246    0.0000 C   0  0  2  0  0  0
   12.5112   -8.7254    0.0000 C   0  0  1  0  0  0
   11.9167   -9.2975    0.0000 O   0  0
   13.3038   -8.9542    0.0000 C   0  0  1  0  0  0
   13.5020   -9.7551    0.0000 O   0  0
   13.8983   -8.3822    0.0000 C   0  0  2  0  0  0
   14.6909   -8.6110    0.0000 O   0  0
   13.7001   -7.5814    0.0000 C   0  0  2  0  0  0
   12.9075   -7.3525    0.0000 O   0  0
   14.2946   -7.0093    0.0000 C   0  0
   14.0964   -6.2085    0.0000 O   0  0
   12.1148  -10.0983    0.0000 C   0  0  2  0  0  0
   11.5204  -10.6703    0.0000 C   0  0  1  0  0  0
   10.7277  -10.4415    0.0000 O   0  0
   11.7185  -11.4712    0.0000 C   0  0  1  0  0  0
   11.1241  -12.0432    0.0000 O   0  0
   12.5112  -11.7000    0.0000 C   0  0  2  0  0  0
   12.7093  -12.5009    0.0000 O   0  0
   13.1056  -11.1280    0.0000 C   0  0  2  0  0  0
   12.9075  -10.3271    0.0000 O   0  0
   13.8983  -11.3568    0.0000 C   0  0
   14.4928  -10.7848    0.0000 O   0  0
   15.2854  -11.0136    0.0000 S   0  0
   15.0566  -11.8062    0.0000 O   0  0
   16.0780  -11.2424    0.0000 O   0  0
   15.5142  -10.2209    0.0000 O   0  5
   13.5020  -12.7297    0.0000 S   0  0
   13.7308  -11.9370    0.0000 O   0  0
   13.2731  -13.5223    0.0000 O   0  0
   14.2946  -12.9585    0.0000 O   0  5
   10.5296   -9.6407    0.0000 S   0  0
   11.3304   -9.4425    0.0000 O   0  0
   10.3314   -8.8398    0.0000 O   0  0
    9.7287   -9.8388    0.0000 O   0  5
   10.7277  -13.4161    0.0000 C   0  0  1  0  0  0
    9.9351  -13.1873    0.0000 O   0  0
   10.9259  -14.2170    0.0000 C   0  0  1  0  0  0
   10.3314  -14.7890    0.0000 O   0  0
   11.7185  -14.4458    0.0000 C   0  0  2  0  0  0
   11.9167  -15.2466    0.0000 O   0  0
   12.3130  -13.8737    0.0000 C   0  0  2  0  0  0
   12.1148  -13.0729    0.0000 O   0  0
   13.1056  -14.1026    0.0000 C   0  0
   13.7001  -13.5305    0.0000 O   0  0
   14.4928  -13.7593    0.0000 S   0  0
   14.2639  -14.5520    0.0000 O   0  0
   15.2854  -13.9881    0.0000 O   0  0
   14.7216  -12.9667    0.0000 O   0  5
   12.7093  -15.4754    0.0000 S   0  0
   12.9381  -14.6828    0.0000 O   0  0
   12.4805  -16.2681    0.0000 O   0  0
   13.5020  -15.7043    0.0000 O   0  5
    9.7369  -12.3864    0.0000 S   0  0
   10.5378  -12.1883    0.0000 O   0  0
    9.5388  -11.5856    0.0000 O   0  0
    8.9361  -12.5846    0.0000 O   0  5
    9.9351  -16.1619    0.0000 C   0  0  1  0  0  0
    9.1425  -15.9331    0.0000 O   0  0
   10.1333  -16.9627    0.0000 C   0  0  1  0  0  0
    9.5388  -17.5348    0.0000 O   0  0
   10.9259  -17.1915    0.0000 C   0  0  2  0  0  0
   11.1241  -17.9924    0.0000 O   0  0
   11.5204  -16.6195    0.0000 C   0  0  2  0  0  0
   11.3222  -15.8187    0.0000 O   0  0
   12.3130  -16.8483    0.0000 C   0  0
   12.9075  -16.2763    0.0000 O   0  0
   13.7001  -16.5051    0.0000 S   0  0
   13.4713  -17.2977    0.0000 O   0  0
   14.4928  -16.7339    0.0000 O   0  0
   13.9289  -15.7125    0.0000 O   0  5
   11.9167  -18.2212    0.0000 S   0  0
   12.1455  -17.4286    0.0000 O   0  0
   11.6879  -19.0138    0.0000 O   0  0
   12.7093  -18.4500    0.0000 O   0  5
    8.9443  -15.1322    0.0000 S   0  0
    8.1435  -15.3304    0.0000 O   0  0
    9.7452  -14.9341    0.0000 O   0  0
    8.7462  -14.3314    0.0000 O   0  5
    8.1517  -17.8780    0.0000 C   0  0  1  0  0  0
    8.3498  -18.6788    0.0000 O   0  0
    7.3590  -17.6492    0.0000 C   0  0  1  0  0  0
    6.7646  -18.2212    0.0000 O   0  0
    7.1609  -16.8483    0.0000 C   0  0  2  0  0  0
    6.3682  -16.6195    0.0000 O   0  0
    7.7554  -16.2763    0.0000 C   0  0  2  0  0  0
    8.5480  -16.5051    0.0000 O   0  0
    7.5572  -15.4754    0.0000 C   0  0
    8.1517  -14.9034    0.0000 O   0  0
    7.9535  -14.1026    0.0000 S   0  0
    7.1527  -14.3007    0.0000 O   0  0
    7.7554  -13.3017    0.0000 O   0  0
    8.7544  -13.9044    0.0000 O   0  5
    6.1701  -15.8187    0.0000 S   0  0
    6.9709  -15.6205    0.0000 O   0  0
    5.3692  -16.0168    0.0000 O   0  0
    5.9719  -15.0178    0.0000 O   0  5
    6.9627  -19.0221    0.0000 S   0  0
    6.1619  -19.2202    0.0000 O   0  0
    7.7636  -18.8239    0.0000 O   0  0
    7.1609  -19.8229    0.0000 O   0  5
    9.1425  -18.9076    0.0000 S   0  0
    9.3713  -18.1150    0.0000 O   0  0
    9.9351  -19.1365    0.0000 O   0  0
    8.9137  -19.7003    0.0000 O   0  5
   10.9259   -8.2678    0.0000 C   0  0
   10.1333   -8.0390    0.0000 C   0  0
   15.2854   -8.0390    0.0000 S   0  0
   14.7134   -7.4445    0.0000 O   0  5
   15.8574   -8.6335    0.0000 O   0  0
   15.8799   -7.4670    0.0000 O   0  0
   14.2946   -9.9839    0.0000 S   0  0
   14.5234   -9.1913    0.0000 O   0  5
   14.0658  -10.7765    0.0000 O   0  0
   15.0872  -10.2127    0.0000 O   0  0
   13.3038   -5.9797    0.0000 S   0  0
   13.0750   -6.7723    0.0000 O   0  5
   13.5326   -5.1870    0.0000 O   0  0
   12.5112   -5.7508    0.0000 O   0  0
    9.9351   -7.2381    0.0000 C   0  0
    9.1425   -7.0093    0.0000 C   0  0
    8.9443   -6.2085    0.0000 C   0  0
    8.1517   -5.9797    0.0000 C   0  0
    7.9535   -5.1788    0.0000 C   0  0
    7.1609   -4.9500    0.0000 C   0  0
    6.5664   -5.5220    0.0000 C   0  0
    6.7646   -6.3229    0.0000 C   0  0
    6.1701   -6.8949    0.0000 C   0  0
   11.3222  -12.8441    0.0000 C   0  0  2  0  0  0
   10.5296  -12.6153    0.0000 H   0  0
   10.5296  -15.5898    0.0000 C   0  0  2  0  0  0
    9.7369  -15.3610    0.0000 H   0  0
    8.7462  -17.3059    0.0000 C   0  0  2  0  0  0
    8.9443  -18.1068    0.0000 H   0  0
 18 19  1  0
 19 20  2  0
 20 21  1  0
 21 22  2  0
 18 22  1  0
 23 24  1  0
 24 25  2  0
 25 26  1  0
 26 27  2  0
 27 28  1  0
 23 28  2  0
 21 23  1  0
 17 18  1  0
 30 29  1  1
 30 31  1  0
 31 32  1  6
 31 33  1  0
 33 34  1  6
 33 35  1  0
 35 36  1  1
 35 37  1  0
 37 38  1  0
 37 39  1  6
 39 40  1  0
 30 38  1  0
 41 42  1  0
 42 43  1  6
 42 44  1  0
 44 45  1  6
 44 46  1  0
 46 47  1  1
 46 48  1  0
 48 49  1  0
 48 50  1  6
 50 51  1  0
 41 49  1  0
 52 53  2  0
 52 54  2  0
 52 55  1  0
 51 52  1  0
 56 57  2  0
 56 58  2  0
 56 59  1  0
 47 56  1  0
 60 61  2  0
 60 62  2  0
 60 63  1  0
 43 60  1  0
157 64  1  0
 64 65  1  6
 64 66  1  0
 66 67  1  6
 66 68  1  0
 68 69  1  1
 68 70  1  0
 70 71  1  0
 70 72  1  6
 72 73  1  0
157 71  1  0
 74 75  2  0
 74 76  2  0
 74 77  1  0
 73 74  1  0
 78 79  2  0
 78 80  2  0
 78 81  1  0
 69 78  1  0
 82 83  2  0
 82 84  2  0
 82 85  1  0
 65 82  1  0
159 86  1  0
 86 87  1  6
 86 88  1  0
 88 89  1  6
 88 90  1  0
 90 91  1  1
 90 92  1  0
 92 93  1  0
 92 94  1  6
 94 95  1  0
159 93  1  0
 96 97  2  0
 96 98  2  0
 96 99  1  0
 95 96  1  0
100101  2  0
100102  2  0
100103  1  0
 91100  1  0
104105  2  0
104106  2  0
104107  1  0
 87104  1  0
161108  1  0
108109  1  1
108110  1  0
110111  1  1
110112  1  0
112113  1  6
112114  1  0
114115  1  0
114116  1  1
116117  1  0
161115  1  0
118119  2  0
118120  2  0
118121  1  0
117118  1  0
122123  2  0
122124  2  0
122125  1  0
113122  1  0
126127  2  0
126128  2  0
126129  1  0
111126  1  0
130131  2  0
130132  2  0
130133  1  0
109130  1  0
161 89  1  0
159 67  1  1
157 45  1  1
 41 32  1  1
134135  1  0
 29134  1  0
 36136  1  0
136137  1  0
136138  2  0
136139  2  0
 34140  1  0
140141  1  0
140142  2  0
140143  2  0
 40144  1  0
144145  1  0
144146  2  0
144147  2  0
135148  1  0
148149  1  0
149150  1  0
150151  1  0
151152  1  0
152153  1  0
153154  1  0
154155  1  0
155156  1  0
156 17  1  0
157158  1  6
159160  1  6
161162  1  1
M  CHG  8   1   1   2   1   3   1   4   1   5   1   6   1   7   1   8   1
M  CHG  8   9   1  10   1  11   1  12   1  13   1  14   1  15   1  16   1
M  CHG  8  55  -1  59  -1  63  -1  77  -1  81  -1  85  -1  99  -1 103  -1
M  CHG  8 107  -1 121  -1 125  -1 129  -1 133  -1 137  -1 141  -1 145  -1
M  END