
  SciTegic05071317012D

 27 28  0  0  0  0            999 V2000
   25.2326  -28.1290    0.0000 C   0  0  1  0  0  0
   25.8890  -28.6288    0.0000 O   0  0
   26.5671  -28.1589    0.0000 C   0  0  1  0  0  0
   26.3299  -27.3687    0.0000 C   0  0
   25.5051  -27.3505    0.0000 O   0  0
   27.3459  -28.4314    0.0000 C   0  0
   27.4993  -29.2421    0.0000 S   0  3
   28.2779  -29.5145    0.0000 C   0  0
   26.8739  -29.7802    0.0000 C   0  0
   24.4425  -28.3664    0.0000 C   0  0
   23.8419  -27.8007    0.0000 C   0  0
   24.2529  -29.1693    0.0000 C   0  0
   24.0342  -26.9975    0.0000 C   0  0
   23.4344  -26.4321    0.0000 C   0  0
   22.6432  -26.6693    0.0000 C   0  0
   22.4553  -27.4770    0.0000 C   0  0
   23.0565  -28.0389    0.0000 C   0  0
   23.4622  -29.4013    0.0000 C   0  0
   23.2725  -30.2034    0.0000 C   0  0
   23.8734  -30.7700    0.0000 C   0  0
   24.6669  -30.5289    0.0000 C   0  0
   24.8529  -29.7273    0.0000 C   0  0
   28.7730  -27.9183    0.0000 Cl  0  0
   28.7730  -28.7434    0.0000 O   0  0
   27.9480  -27.9183    0.0000 O   0  0
   28.7730  -27.0933    0.0000 O   0  5
   29.5981  -27.9183    0.0000 O   0  0
  1  2  1  0
  3  2  1  0
  3  4  1  0
  4  5  1  0
  1  5  1  0
  3  6  1  1
  6  7  1  0
  7  8  1  0
  7  9  1  0
  1 10  1  6
 10 11  1  0
 10 12  1  0
 11 13  2  0
 13 14  1  0
 14 15  2  0
 15 16  1  0
 16 17  2  0
 17 11  1  0
 12 18  2  0
 18 19  1  0
 19 20  2  0
 20 21  1  0
 21 22  2  0
 22 12  1  0
 23 24  2  0
 23 25  2  0
 23 26  1  0
 23 27  2  0
M  CHG  2   7   1  26  -1
M  END