
          11280714492D 1   1.00000     0.00000     0

 35 36  0     0  0            999 V2000
    9.3917  -11.7167    0.0000 C   0  0  0  0  0  0           0  0  0
    9.7417  -11.2292    0.0000 N   0  0  3  0  0  0           0  0  0
    4.8917  -12.2417    0.0000 N   0  0  3  0  0  0           0  0  0
    8.7917  -11.7167    0.0000 C   0  0  0  0  0  0           0  0  0
    4.2917  -12.2500    0.0000 C   0  0  0  0  0  0           0  0  0
    6.0917  -12.2417    0.0000 N   0  0  3  0  0  0           0  0  0
   14.0625  -12.2542    0.0000 C   0  0  0  0  0  0           0  0  0
   12.5042  -12.5542    0.0000 C   0  0  0  0  0  0           0  0  0
   13.0250  -12.2542    0.0000 C   0  0  0  0  0  0           0  0  0
   13.5417  -12.5542    0.0000 C   0  0  0  0  0  0           0  0  0
    9.7417  -12.2042    0.0000 C   0  0  0  0  0  0           0  0  0
   10.3042  -11.4250    0.0000 C   0  0  0  0  0  0           0  0  0
   10.3042  -12.0167    0.0000 C   0  0  0  0  0  0           0  0  0
    5.1917  -12.7667    0.0000 C   0  0  0  0  0  0           0  0  0
    5.1875  -11.7250    0.0000 C   0  0  0  0  0  0           0  0  0
    8.4917  -11.2000    0.0000 O   0  0  0  0  0  0           0  0  0
    4.0000  -12.7667    0.0000 C   0  0  0  0  0  0           0  0  0
   14.0667  -11.6542    0.0000 O   0  0  0  0  0  0           0  0  0
   12.5042  -13.1542    0.0000 O   0  0  0  0  0  0           0  0  0
    8.4917  -12.2417    0.0000 N   0  0  0  0  0  0           0  0  0
    5.7917  -11.7250    0.0000 C   0  0  0  0  0  0           0  0  0
    5.7917  -12.7625    0.0000 C   0  0  0  0  0  0           0  0  0
   11.9792  -12.2542    0.0000 O   0  0  0  0  0  0           0  0  0
   14.5792  -12.5542    0.0000 O   0  0  0  0  0  0           0  0  0
    4.3042  -13.2875    0.0000 O   0  0  0  0  0  0           0  0  0
    9.5542  -10.6625    0.0000 C   0  0  0  0  0  0           0  0  0
    6.6917  -12.2417    0.0000 C   0  0  0  0  0  0           0  0  0
    3.9917  -11.7292    0.0000 C   0  0  0  0  0  0           0  0  0
    3.4000  -12.7667    0.0000 C   0  0  0  0  0  0           0  0  0
    7.8917  -12.2417    0.0000 C   0  0  0  0  0  0           0  0  0
    4.9042  -13.2792    0.0000 C   0  0  0  0  0  0           0  0  0
    6.9917  -12.7625    0.0000 C   0  0  0  0  0  0           0  0  0
    7.5917  -12.7625    0.0000 C   0  0  0  0  0  0           0  0  0
    3.3917  -11.7292    0.0000 C   0  0  0  0  0  0           0  0  0
    3.0917  -12.2542    0.0000 C   0  0  0  0  0  0           0  0  0
  2  1  1  0     0  0
  3 14  1  0     0  0
  4  1  1  0     0  0
  5  3  1  0     0  0
  6 27  1  0     0  0
  8  9  1  0     0  0
  9 10  2  0     0  0
 10  7  1  0     0  0
 11  1  2  0     0  0
 12  2  1  0     0  0
 13 11  1  0     0  0
 14 22  1  0     0  0
 15 21  1  0     0  0
 16  4  2  0     0  0
 17  5  1  0     0  0
 18  7  2  0     0  0
 19  8  2  0     0  0
 20  4  1  0     0  0
 21  6  1  0     0  0
 22  6  1  0     0  0
 23  8  1  0     0  0
 24  7  1  0     0  0
 25 17  1  0     0  0
 26  2  1  0     0  0
 27 32  1  0     0  0
 28  5  2  0     0  0
 29 17  2  0     0  0
 30 20  1  0     0  0
 31 25  1  0     0  0
 32 33  1  0     0  0
 33 30  1  0     0  0
 34 28  1  0     0  0
 35 34  2  0     0  0
 13 12  2  0     0  0
 15  3  1  0     0  0
 35 29  1  0     0  0
M  END