
          11280715062D 1   1.00000     0.00000     0

 34 38  0     0  0            999 V2000
    7.8167   -4.3417    0.0000 C   0  0  0  0  0  0           0  0  0
    7.8292   -3.5167    0.0000 C   0  0  0  0  0  0           0  0  0
    6.4000   -4.3292    0.0000 C   0  0  0  0  0  0           0  0  0
    7.1042   -4.7500    0.0000 O   0  0  0  0  0  0           0  0  0
    7.1167   -3.1042    0.0000 C   0  0  0  0  0  0           0  0  0
    6.4042   -3.5125    0.0000 C   0  0  0  0  0  0           0  0  0
    8.6000   -4.6000    0.0000 N   0  0  0  0  0  0           0  0  0
    9.0875   -3.9417    0.0000 N   0  0  0  0  0  0           0  0  0
    5.6875   -4.7417    0.0000 C   0  0  0  0  0  0           0  0  0
    8.6042   -3.2750    0.0000 N   0  0  0  0  0  0           0  0  0
    5.6875   -3.0917    0.0000 C   0  0  0  0  0  0           0  0  0
    0.0292   -5.7667    0.0000 N   0  0  3  0  0  0           0  0  0
    1.6792   -5.7667    0.0000 N   0  0  3  0  0  0           0  0  0
    4.9750   -4.3292    0.0000 C   0  0  0  0  0  0           0  0  0
    7.1250   -2.2792    0.0000 O   0  0  0  0  0  0           0  0  0
    4.9750   -3.5042    0.0000 C   0  0  0  0  0  0           0  0  0
   -0.7958   -5.7667    0.0000 C   0  0  0  0  0  0           0  0  0
    0.4500   -6.4792    0.0000 C   0  0  0  0  0  0           0  0  0
    0.4500   -5.0542    0.0000 C   0  0  0  0  0  0           0  0  0
    1.2750   -5.0542    0.0000 C   0  0  0  0  0  0           0  0  0
    1.2750   -6.4792    0.0000 C   0  0  0  0  0  0           0  0  0
   -1.2083   -5.0542    0.0000 C   0  0  0  0  0  0           0  0  0
   -2.0333   -3.6292    0.0000 C   0  0  0  0  0  0           0  0  0
    4.1542   -4.3417    0.0000 O   0  0  0  0  0  0           0  0  0
    5.6792   -5.5667    0.0000 C   0  0  0  0  0  0           0  0  0
   -0.7958   -4.3417    0.0000 C   0  0  0  0  0  0           0  0  0
   -2.0250   -5.0625    0.0000 C   0  0  0  0  0  0           0  0  0
   -2.4458   -4.3542    0.0000 C   0  0  0  0  0  0           0  0  0
   -1.2083   -3.6292    0.0000 C   0  0  0  0  0  0           0  0  0
    2.5042   -5.7667    0.0000 C   0  0  0  0  0  0           0  0  0
    2.9167   -5.0542    0.0000 C   0  0  0  0  0  0           0  0  0
   -2.4458   -2.9167    0.0000 O   0  0  0  0  0  0           0  0  0
    3.7417   -5.0542    0.0000 C   0  0  0  0  0  0           0  0  0
   -2.0333   -2.2042    0.0000 C   0  0  0  0  0  0           0  0  0
  2  1  1  0     0  0
  3  4  1  0     0  0
  4  1  1  0     0  0
  5  2  2  0     0  0
  6  3  2  0     0  0
  7  1  2  0     0  0
  8  7  1  0     0  0
  9  3  1  0     0  0
 10  2  1  0     0  0
 11  6  1  0     0  0
 12 18  1  0     0  0
 13 30  1  0     0  0
 14  9  2  0     0  0
 15  5  1  0     0  0
 16 14  1  0     0  0
 17 12  1  0     0  0
 18 21  1  0     0  0
 19 20  1  0     0  0
 20 13  1  0     0  0
 21 13  1  0     0  0
 22 17  1  0     0  0
 23 28  1  0     0  0
 24 14  1  0     0  0
 25  9  1  0     0  0
 26 22  2  0     0  0
 27 22  1  0     0  0
 28 27  2  0     0  0
 29 26  1  0     0  0
 30 31  1  0     0  0
 31 33  1  0     0  0
 32 23  1  0     0  0
 33 24  1  0     0  0
 34 32  1  0     0  0
  8 10  2  0     0  0
  5  6  1  0     0  0
 16 11  2  0     0  0
 19 12  1  0     0  0
 29 23  2  0     0  0
M  END