
          03140815512D 1   1.00000     0.00000     0

 19 21  0     0  0            999 V2000
   20.1000  -10.0625    0.0000 N   0  0  3  0  0  0           0  0  0
   20.1000  -10.8875    0.0000 C   0  0  0  0  0  0           0  0  0
   20.8120  -11.2958    0.0000 C   0  0  0  0  0  0           0  0  0
   21.5240  -10.8875    0.0000 O   0  0  0  0  0  0           0  0  0
   21.5240  -10.0625    0.0000 C   0  0  0  0  0  0           0  0  0
   20.8120   -9.6458    0.0000 C   0  0  0  0  0  0           0  0  0
   19.3843   -9.6521    0.0000 C   0  0  0  0  0  0           0  0  0
   19.3819   -8.8271    0.0000 O   0  0  0  0  0  0           0  0  0
   18.6711  -10.0667    0.0000 C   0  0  0  0  0  0           0  0  0
   17.9554   -9.6563    0.0000 O   0  0  0  0  0  0           0  0  0
   17.2421  -10.0709    0.0000 C   0  0  0  0  0  0           0  0  0
   16.5272   -9.6571    0.0000 C   0  0  0  0  0  0           0  0  0
   15.8144  -10.0710    0.0000 C   0  0  0  0  0  0           0  0  0
   17.2469  -10.8909    0.0000 C   0  0  0  0  0  0           0  0  0
   16.5371  -11.3071    0.0000 C   0  0  0  0  0  0           0  0  0
   15.8195  -10.9001    0.0000 C   0  0  0  0  0  0           0  0  0
   15.2106  -11.4567    0.0000 O   0  0  0  0  0  0           0  0  0
   15.5518  -12.2079    0.0000 C   0  0  0  0  0  0           0  0  0
   16.3716  -12.1153    0.0000 O   0  0  0  0  0  0           0  0  0
  2  3  1  0     0  0
  9 10  1  0     0  0
  3  4  1  0     0  0
 10 11  1  0     0  0
  4  5  1  0     0  0
 11 12  2  0     0  0
  5  6  1  0     0  0
 12 13  1  0     0  0
 13 16  2  0     0  0
 15 14  2  0     0  0
 14 11  1  0     0  0
 15 16  1  0     0  0
  1  7  1  0     0  0
  1  2  1  0     0  0
  7  8  2  0     0  0
  1  6  1  0     0  0
  7  9  1  0     0  0
 16 17  1  0     0  0
 17 18  1  0     0  0
 18 19  1  0     0  0
 19 15  1  0     0  0
M  END