
  CDK    9/16/09,9:50

 30 33  0  0  0  0  0  0  0  0999 V2000
    9.0194  -17.6166    0.0000 C   0  0  0  0  0  0  0  0  0  0  0  0
    9.0182  -18.4440    0.0000 C   0  0  0  0  0  0  0  0  0  0  0  0
    9.7331  -18.8569    0.0000 C   0  0  0  0  0  0  0  0  0  0  0  0
    9.7313  -17.2039    0.0000 C   0  0  0  0  0  0  0  0  0  0  0  0
   10.4466  -17.6130    0.0000 C   0  0  0  0  0  0  0  0  0  0  0  0
   10.4469  -18.4440    0.0000 C   0  0  0  0  0  0  0  0  0  0  0  0
   11.2374  -18.7006    0.0000 N   0  0  0  0  0  0  0  0  0  0  0  0
   11.7257  -18.0281    0.0000 C   0  0  0  0  0  0  0  0  0  0  0  0
   11.2369  -17.3560    0.0000 N   0  0  0  0  0  0  0  0  0  0  0  0
   12.5507  -18.0278    0.0000 C   0  0  0  0  0  0  0  0  0  0  0  0
   12.9629  -17.3132    0.0000 C   0  0  0  0  0  0  0  0  0  0  0  0
   13.7879  -17.3129    0.0000 C   0  0  0  0  0  0  0  0  0  0  0  0
   14.2002  -16.5983    0.0000 C   0  0  0  0  0  0  0  0  0  0  0  0
   11.6417  -19.4125    0.0000 C   0  0  0  0  0  0  0  0  0  0  0  0
   12.4666  -19.4183    0.0000 C   0  0  0  0  0  0  0  0  0  0  0  0
   12.8714  -20.1366    0.0000 C   0  0  0  0  0  0  0  0  0  0  0  0
   13.6956  -20.1427    0.0000 C   0  0  0  0  0  0  0  0  0  0  0  0
   14.1140  -19.4307    0.0000 C   0  0  0  0  0  0  0  0  0  0  0  0
   13.7021  -18.7109    0.0000 C   0  0  0  0  0  0  0  0  0  0  0  0
   12.8793  -18.7082    0.0000 C   0  0  0  0  0  0  0  0  0  0  0  0
   14.9354  -19.4350    0.0000 C   0  0  0  0  0  0  0  0  0  0  0  0
   15.3432  -20.1535    0.0000 C   0  0  0  0  0  0  0  0  0  0  0  0
   16.1674  -20.1585    0.0000 C   0  0  0  0  0  0  0  0  0  0  0  0
   16.5848  -19.4459    0.0000 C   0  0  0  0  0  0  0  0  0  0  0  0
   16.1720  -18.7267    0.0000 C   0  0  0  0  0  0  0  0  0  0  0  0
   15.3491  -18.7251    0.0000 C   0  0  0  0  0  0  0  0  0  0  0  0
   14.9257  -20.8690    0.0000 C   0  0  0  0  0  0  0  0  0  0  0  0
   14.1007  -20.8634    0.0000 O   0  0  0  0  0  0  0  0  0  0  0  0
   15.3333  -21.5862    0.0000 O   0  0  0  0  0  0  0  0  0  0  0  0
    8.3048  -17.2043    0.0000 N   0  0  0  0  0  0  0  0  0  0  0  0
  1  2  2  0  0  0  0 
 14 15  1  0  0  0  0 
  5  4  2  0  0  0  0 
 15 16  2  0  0  0  0 
  6  7  1  0  0  0  0 
 16 17  1  0  0  0  0 
  7  8  1  0  0  0  0 
 17 18  2  0  0  0  0 
  8  9  2  0  0  0  0 
 18 19  1  0  0  0  0 
  9  5  1  0  0  0  0 
 19 20  2  0  0  0  0 
 20 15  1  0  0  0  0 
  4  1  1  0  0  0  0 
  8 10  1  0  0  0  0 
 21 22  2  0  0  0  0 
  5  6  1  0  0  0  0 
 22 23  1  0  0  0  0 
 10 11  1  0  0  0  0 
 23 24  2  0  0  0  0 
 24 25  1  0  0  0  0 
 11 12  1  0  0  0  0 
 25 26  2  0  0  0  0 
 26 21  1  0  0  0  0 
 18 21  1  0  0  0  0 
  2  3  1  0  0  0  0 
 12 13  1  0  0  0  0 
  3  6  2  0  0  0  0 
 27 28  1  0  0  0  0 
 27 29  2  0  0  0  0 
 22 27  1  0  0  0  0 
  7 14  1  0  0  0  0 
  1 30  1  0  0  0  0 
M  END