
  SciTegic05161214222D

 54 57  0  0  0  0            999 V2000
    2.0627  -11.7879    0.0000 C   0  0
    2.7775  -11.3759    0.0000 C   0  0
    3.4916  -11.7889    0.0000 N   0  3
   -2.2167  -10.9708    0.0000 C   0  0
   -2.2167  -11.7958    0.0000 C   0  0
   -1.5046  -12.2042    0.0000 O   0  0
   -0.7926  -11.7958    0.0000 C   0  0
   -0.7926  -10.9708    0.0000 C   0  0
   -1.5046  -10.5542    0.0000 C   0  0
   -2.9344  -10.5656    0.0000 S   0  0
   -3.3427  -11.2825    0.0000 O   0  0
   -2.5177  -11.2777    0.0000 O   0  0
   -5.8014   -5.6291    0.0000 C   0  0
   -5.8026   -6.4565    0.0000 C   0  0
   -5.0878   -6.8694    0.0000 C   0  0
   -5.0896   -5.2164    0.0000 C   0  0
   -4.3742   -5.6255    0.0000 C   0  0
   -4.3734   -6.4523    0.0000 C   0  0
   -3.6581   -6.8633    0.0000 N   0  0
   -2.9431   -6.4485    0.0000 C   0  0
   -2.9479   -5.6186    0.0000 C   0  0
   -3.6638   -5.2113    0.0000 C   0  0
   -2.2270   -6.8583    0.0000 C   0  0
   -3.6681   -4.3864    0.0000 C   0  0
   -5.0859   -7.6944    0.0000 O   0  0
   -4.3704   -8.1052    0.0000 C   0  0
   -4.3685   -8.9302    0.0000 C   0  0
   -5.0846   -9.3400    0.0000 C   0  0
   -5.0831  -10.1642    0.0000 C   0  0
   -4.3671  -10.5759    0.0000 C   0  0
   -3.6512  -10.1573    0.0000 C   0  0
   -3.6563   -9.3344    0.0000 C   0  0
   -5.7987   -8.9268    0.0000 Cl  0  0
   -2.9446   -8.9171    0.0000 Cl  0  0
   -2.2223  -10.1489    0.0000 N   0  0
   -0.7934  -10.1406    0.0000 C   0  0
   -0.0777  -10.5509    0.0000 N   0  0
   -0.7959   -9.3156    0.0000 O   0  0
   -0.0787  -11.3759    0.0000 C   0  0
    0.6329  -11.7861    0.0000 C   0  0
    1.3485  -11.3749    0.0000 N   0  0
    1.3480  -10.5489    0.0000 C   0  0
    0.6318  -10.1342    0.0000 C   0  0
    2.0621  -12.6129    0.0000 O   0  0
    4.2064  -11.3769    0.0000 C   0  0
    3.4911  -12.6139    0.0000 C   0  0
    3.2787  -10.9919    0.0000 C   0  0
    4.2534  -10.1176    0.0000 F   0  0
    4.9678   -9.7051    0.0000 C   0  0
    5.6823  -10.1176    0.0000 F   0  0
    4.9617  -10.5259    0.0000 F   0  0
    4.9709   -8.8801    0.0000 C   0  0
    5.6869   -8.4703    0.0000 O   0  5
    4.2580   -8.4649    0.0000 O   0  0
 22 24  1  0
  4  9  1  0
 15 25  1  0
 13 14  2  0
 25 26  1  0
  5  6  1  0
 26 27  1  0
 14 15  1  0
 27 28  2  0
 15 18  2  0
 28 29  1  0
  6  7  1  0
 29 30  2  0
 17 16  2  0
 30 31  1  0
 16 13  1  0
 31 32  2  0
 32 27  1  0
  7  8  1  0
 28 33  1  0
  8  9  1  0
 32 34  1  0
 31 10  1  0
 17 18  1  0
 10 35  1  0
 35  9  1  0
 11 10  2  0
  9 36  1  0
 18 19  1  0
 36 37  1  0
 10 12  2  0
 36 38  2  0
 37 39  1  0
 19 20  2  0
  2  3  1  0
 20 21  1  0
  4  5  1  0
 21 22  2  0
 37 43  1  0
 39 40  1  0
 40 41  1  0
 41 42  1  0
 42 43  1  0
 41  1  1  0
 22 17  1  0
  1 44  2  0
  1  2  1  0
  3 45  1  0
 20 23  1  0
  3 46  1  0
  3 47  1  0
 48 49  1  0
 49 51  1  0
 49 52  1  0
 49 50  1  0
 52 53  1  0
 52 54  2  0
M  CHG  2   3   1  53  -1
M  END