
          11280714492D 1   1.00000     0.00000     0

 27 29  0     0  0            999 V2000
    9.2667   -9.3792    0.0000 C   0  0  0  0  0  0           0  0  0
    4.7667   -9.9042    0.0000 N   0  0  3  0  0  0           0  0  0
    9.6167   -9.8667    0.0000 C   0  0  0  0  0  0           0  0  0
    8.6667   -9.3792    0.0000 C   0  0  0  0  0  0           0  0  0
    9.6167   -8.8917    0.0000 S   0  0  0  0  0  0           0  0  0
    4.1667   -9.9042    0.0000 C   0  0  0  0  0  0           0  0  0
   10.1792   -9.6792    0.0000 C   0  0  0  0  0  0           0  0  0
    5.9667   -9.9000    0.0000 N   0  0  3  0  0  0           0  0  0
   10.1792   -9.0792    0.0000 C   0  0  0  0  0  0           0  0  0
    5.0667  -10.4250    0.0000 C   0  0  0  0  0  0           0  0  0
    5.0625   -9.3792    0.0000 C   0  0  0  0  0  0           0  0  0
    8.3667   -8.8542    0.0000 O   0  0  0  0  0  0           0  0  0
    3.8750  -10.4292    0.0000 C   0  0  0  0  0  0           0  0  0
    8.3667   -9.9000    0.0000 N   0  0  0  0  0  0           0  0  0
    5.6667   -9.3792    0.0000 C   0  0  0  0  0  0           0  0  0
    5.6667  -10.4167    0.0000 C   0  0  0  0  0  0           0  0  0
    9.4375  -10.4417    0.0000 Cl  0  0  0  0  0  0           0  0  0
    4.1792  -10.9417    0.0000 O   0  0  0  0  0  0           0  0  0
    6.5667   -9.9000    0.0000 C   0  0  0  0  0  0           0  0  0
    3.8667   -9.3875    0.0000 C   0  0  0  0  0  0           0  0  0
    3.2750  -10.4292    0.0000 C   0  0  0  0  0  0           0  0  0
    7.7667   -9.9000    0.0000 C   0  0  0  0  0  0           0  0  0
    4.7792  -10.9375    0.0000 C   0  0  0  0  0  0           0  0  0
    6.8667  -10.4167    0.0000 C   0  0  0  0  0  0           0  0  0
    7.4667  -10.4167    0.0000 C   0  0  0  0  0  0           0  0  0
    3.2667   -9.3917    0.0000 C   0  0  0  0  0  0           0  0  0
    2.9667   -9.9125    0.0000 C   0  0  0  0  0  0           0  0  0
  2 10  1  0     0  0
  3  1  2  0     0  0
  4  1  1  0     0  0
  5  1  1  0     0  0
  6  2  1  0     0  0
  7  3  1  0     0  0
  8 19  1  0     0  0
  9  5  1  0     0  0
 10 16  1  0     0  0
 11 15  1  0     0  0
 12  4  2  0     0  0
 13  6  1  0     0  0
 14  4  1  0     0  0
 15  8  1  0     0  0
 16  8  1  0     0  0
 17  3  1  0     0  0
 18 13  1  0     0  0
 19 24  1  0     0  0
 20  6  2  0     0  0
 21 13  2  0     0  0
 22 14  1  0     0  0
 23 18  1  0     0  0
 24 25  1  0     0  0
 25 22  1  0     0  0
 26 20  1  0     0  0
 27 26  2  0     0  0
  7  9  2  0     0  0
 11  2  1  0     0  0
 21 27  1  0     0  0
M  END