
          11280715352D 1   1.00000     0.00000     0

 31 34  0     0  0            999 V2000
    0.1917    1.6750    0.0000 S   0  0  3  0  0  0           0  0  0
    0.1917    2.5000    0.0000 N   0  0  0  0  0  0           0  0  0
   -1.2458    4.1500    0.0000 N   0  0  0  0  0  0           0  0  0
   -0.5250    3.7333    0.0000 N   0  0  3  0  0  0           0  0  0
   -0.5250    2.9083    0.0000 C   0  0  0  0  0  0           0  0  0
   -1.2458    4.9667    0.0000 C   0  0  0  0  0  0           0  0  0
    0.1792    4.9792    0.0000 C   0  0  3  0  0  0           0  0  0
    0.1792    4.1542    0.0000 C   0  0  0  0  0  0           0  0  0
   -0.5208    1.2708    0.0000 O   0  0  0  0  0  0           0  0  0
    0.9917    1.4625    0.0000 O   0  0  0  0  0  0           0  0  0
    0.1917    0.8500    0.0000 C   0  0  0  0  0  0           0  0  0
   -1.8250    5.5542    0.0000 C   0  0  0  0  0  0           0  0  0
    0.7625    5.5625    0.0000 C   0  0  0  0  0  0           0  0  0
   -1.2375    2.4958    0.0000 N   0  0  0  0  0  0           0  0  0
   -2.6208    5.3417    0.0000 C   0  0  0  0  0  0           0  0  0
   -1.6083    6.3542    0.0000 C   0  0  0  0  0  0           0  0  0
   -2.9958    6.7167    0.0000 C   0  0  0  0  0  0           0  0  0
   -2.1958    6.9375    0.0000 C   0  0  0  0  0  0           0  0  0
   -3.2083    5.9167    0.0000 C   0  0  0  0  0  0           0  0  0
   -3.5750    7.3042    0.0000 Cl  0  0  0  0  0  0           0  0  0
    0.8917    0.4458    0.0000 C   0  0  0  0  0  0           0  0  0
   -0.5333    0.4458    0.0000 C   0  0  0  0  0  0           0  0  0
    0.5417    6.3542    0.0000 C   0  0  0  0  0  0           0  0  0
    1.5542    5.3417    0.0000 C   0  0  0  0  0  0           0  0  0
   -1.2333    1.6708    0.0000 C   0  0  0  0  0  0           0  0  0
    0.8917   -0.3792    0.0000 C   0  0  0  0  0  0           0  0  0
    2.1417    5.9292    0.0000 C   0  0  0  0  0  0           0  0  0
    1.1250    6.9375    0.0000 C   0  0  0  0  0  0           0  0  0
   -0.5333   -0.3750    0.0000 C   0  0  0  0  0  0           0  0  0
    0.1792   -0.7917    0.0000 C   0  0  0  0  0  0           0  0  0
    1.9292    6.7167    0.0000 C   0  0  0  0  0  0           0  0  0
  2  1  1  0     0  0
  3  4  1  0     0  0
  4  5  1  0     0  0
  5  2  1  0     0  0
  6  3  2  0     0  0
  7  8  1  0     0  0
  8  4  1  0     0  0
  9  1  2  0     0  0
 10  1  2  0     0  0
 11  1  1  0     0  0
 12  6  1  0     0  0
 13  7  1  0     0  0
 14  5  2  0     0  0
 15 12  1  0     0  0
 16 12  2  0     0  0
 17 18  2  0     0  0
 18 16  1  0     0  0
 19 15  2  0     0  0
 20 17  1  0     0  0
 21 11  1  0     0  0
 22 11  2  0     0  0
 23 13  1  0     0  0
 24 13  2  0     0  0
 25 14  1  0     0  0
 26 21  2  0     0  0
 27 24  1  0     0  0
 28 23  2  0     0  0
 29 22  1  0     0  0
 30 29  2  0     0  0
 31 27  2  0     0  0
 26 30  1  0     0  0
  6  7  1  0     0  0
 17 19  1  0     0  0
 31 28  1  0     0  0
M  END