
  SciTegic01161211232D

 32 35  0  0  0  0            999 V2000
   16.6292   -4.2792    0.0000 O   0  0
   15.9167   -4.6958    0.0000 S   0  0
   16.6338   -5.1045    0.0000 O   0  0
   15.1720   -2.6458    0.0000 N   0  0
   15.8312   -2.1498    0.0000 C   0  0
   15.5650   -1.3688    0.0000 C   0  0  1  0  0  0
   14.7375   -1.3823    0.0000 C   0  0
   14.4987   -2.1710    0.0000 N   0  0
   14.2413   -0.7228    0.0000 C   0  0
   14.5648    0.0374    0.0000 C   0  0
   14.0685    0.6955    0.0000 C   0  0
   13.2488    0.5947    0.0000 C   0  0
   12.9278   -0.1700    0.0000 C   0  0
   13.4260   -0.8249    0.0000 C   0  0
   16.0411   -0.6978    0.0000 C   0  0
   16.8638   -0.7729    0.0000 C   0  0
   17.3383   -0.0989    0.0000 C   0  0
   16.9913    0.6505    0.0000 C   0  0
   16.1651    0.7219    0.0000 C   0  0
   15.6942    0.0470    0.0000 C   0  0
   15.1847   -3.4707    0.0000 C   0  0
   14.4766   -3.8942    0.0000 N   0  0
   15.9054   -3.8722    0.0000 N   0  0
   15.2100   -5.1205    0.0000 C   0  0
   14.4935   -4.7183    0.0000 C   0  0
   13.7874   -5.1423    0.0000 C   0  0
   13.8014   -5.9675    0.0000 C   0  0
   14.5275   -6.3668    0.0000 C   0  0
   15.2307   -5.9405    0.0000 C   0  0
   13.7559   -3.4927    0.0000 C   0  0
   13.0949   -6.3934    0.0000 Cl  0  0
   12.7509    1.2525    0.0000 Cl  0  0
  2  1  2  0
 16 17  1  0
  3  2  2  0
 17 18  2  0
  9 10  2  0
 18 19  1  0
  4  5  1  0
 19 20  2  0
 20 15  1  0
  6 15  1  1
 10 11  1  0
  4 21  1  0
 21 22  1  0
 11 12  2  0
 21 23  2  0
 23  2  1  0
  5  6  1  0
  2 24  1  0
 12 13  1  0
 24 25  2  0
  6  7  1  0
 25 26  1  0
 13 14  2  0
 26 27  2  0
 14  9  1  0
 27 28  1  0
  7  9  1  0
 28 29  2  0
 29 24  1  0
  7  8  2  0
 22 30  1  0
  8  4  1  0
 27 31  1  0
 15 16  2  0
 12 32  1  0
M  END