
          11280714482D 1   1.00000     0.00000     0

 10 11  0     0  0            999 V2000
    5.1375   -3.0042    0.0000 C   0  0  0  0  0  0           0  0  0
    5.1375   -2.1792    0.0000 C   0  0  0  0  0  0           0  0  0
    4.4250   -1.7667    0.0000 O   0  0  0  0  0  0           0  0  0
    4.4250   -3.4167    0.0000 O   0  0  0  0  0  0           0  0  0
    3.7042   -3.0042    0.0000 C   0  0  0  0  0  0           0  0  0
    3.7042   -2.1792    0.0000 C   0  0  0  0  0  0           0  0  0
    5.8542   -3.4167    0.0000 C   0  0  0  0  0  0           0  0  0
    5.8542   -1.7667    0.0000 C   0  0  0  0  0  0           0  0  0
    6.5792   -2.1792    0.0000 C   0  0  0  0  0  0           0  0  0
    6.5792   -3.0042    0.0000 C   0  0  0  0  0  0           0  0  0
  2  1  1  0     0  0
  3  2  1  0     0  0
  4  1  1  0     0  0
  5  4  1  0     0  0
  6  5  1  0     0  0
  7  1  2  0     0  0
  8  2  2  0     0  0
  9 10  2  0     0  0
 10  7  1  0     0  0
  9  8  1  0     0  0
  3  6  1  0     0  0
M  END