
  SciTegic05071317052D

 29 29  0  0  0  0            999 V2000
   16.1899   -3.7730    0.0000 C   0  0
   17.0137   -3.7636    0.0000 C   0  0
   17.4133   -3.0428    0.0000 C   0  0
   16.9882   -2.3348    0.0000 C   0  0
   16.1591   -2.3521    0.0000 C   0  0
   15.7631   -3.0735    0.0000 C   0  0
   13.4624   -9.1707    0.0000 C   0  0
   13.4624   -9.9957    0.0000 C   0  0
   14.1744  -10.4041    0.0000 N   0  0
   14.8863   -9.9957    0.0000 C   0  0
   14.8863   -9.1707    0.0000 C   0  0
   14.1744   -8.7541    0.0000 N   0  0
   14.1748   -7.9289    0.0000 C   0  0
   14.8422   -7.4439    0.0000 N   0  0
   14.5873   -6.6588    0.0000 C   0  0
   13.7622   -6.6593    0.0000 C   0  0
   13.5074   -7.4439    0.0000 S   0  0
   14.9871   -5.9371    0.0000 C   0  0
   15.8120   -5.9225    0.0000 C   0  0
   16.2117   -5.2008    0.0000 N   0  0
   17.0366   -5.1861    0.0000 C   0  0
   15.7867   -4.4938    0.0000 C   0  0
   14.1744  -11.2291    0.0000 C   0  0
   13.4599  -11.6416    0.0000 C   0  0
   13.4599  -12.4666    0.0000 C   0  0
   14.9618   -4.5066    0.0000 O   0  0
   17.3870   -1.6125    0.0000 C   0  0
   13.0269   -5.7500    0.0000 Br  0  0
   12.2571   -6.9536    0.0000 Br  0  0
  1  2  2  0
  2  3  1  0
  3  4  2  0
  4  5  1  0
  5  6  2  0
  6  1  1  0
  7  8  1  0
  7 12  1  0
  8  9  1  0
  9 10  1  0
 10 11  1  0
 11 12  1  0
 13 14  2  0
 14 15  1  0
 15 16  2  0
 16 17  1  0
 17 13  1  0
 12 13  1  0
 15 18  1  0
 18 19  1  0
 19 20  1  0
 20 21  1  0
 20 22  1  0
  9 23  1  0
 23 24  1  0
 24 25  1  0
 22  1  1  0
 22 26  2  0
  4 27  1  0
M  END