
  SciTegic12231509382D

 26 29  0  0  0  0            999 V2000
    4.4125   -3.2792    0.0000 C   0  0
   -0.3833   -1.2042    0.0000 N   0  0
    0.2167   -2.2542    0.0000 C   0  0
    0.2250   -1.5625    0.0000 C   0  0
    3.8125   -3.6375    0.0000 N   0  0
   -0.9833   -2.2542    0.0000 C   0  0
    2.0167   -2.5917    0.0000 N   0  0
   -0.9750   -1.5542    0.0000 C   0  0
    4.4125   -2.5917    0.0000 O   0  0
    5.0125   -3.6375    0.0000 C   0  0
    0.8125   -2.6000    0.0000 C   0  0
    3.2125   -3.2792    0.0000 C   0  0
    3.2125   -2.5917    0.0000 C   0  0
    2.6125   -3.6292    0.0000 C   0  0
    1.4167   -2.2542    0.0000 C   0  0
    2.6125   -2.2417    0.0000 C   0  0
    2.0167   -3.2792    0.0000 C   0  0
   -1.5750   -2.5917    0.0000 C   0  0
   -1.5750   -1.2042    0.0000 C   0  0
    5.6042   -3.2875    0.0000 C   0  0
    5.0042   -4.3167    0.0000 C   0  0
   -2.1750   -2.2542    0.0000 C   0  0
   -2.1750   -1.5542    0.0000 C   0  0
    6.2042   -3.6292    0.0000 C   0  0
    5.6042   -4.6750    0.0000 C   0  0
    6.2042   -4.3167    0.0000 C   0  0
  2  4  1  0
  3 11  1  0
  4  3  2  0
  5  1  1  0
  6  3  1  0
  7 17  1  0
  8  6  2  0
  9  1  2  0
 10  1  1  0
 11 15  1  0
 12  5  1  0
 13 12  1  0
 14 12  1  0
 15  7  1  0
 16 13  1  0
 17 14  1  0
 18  6  1  0
 19  8  1  0
 20 10  1  0
 21 10  2  0
 22 18  2  0
 23 22  1  0
 24 20  2  0
 25 21  1  0
 26 24  1  0
 25 26  2  0
  7 16  1  0
  2  8  1  0
 23 19  2  0
M  END