
          11280715412D 1   1.00000     0.00000     0

 49 53  0     0  0            999 V2000
    0.0917    2.7708    0.0000 S   0  0  3  0  0  0           0  0  0
    0.8125    1.5333    0.0000 C   0  0  0  0  0  0           0  0  0
    0.1000    1.1208    0.0000 N   0  0  0  0  0  0           0  0  0
    0.1000    0.2958    0.0000 C   0  0  0  0  0  0           0  0  0
    0.8125   -0.1167    0.0000 N   0  0  0  0  0  0           0  0  0
    0.8042    2.3583    0.0000 N   0  0  0  0  0  0           0  0  0
    1.5292    1.1208    0.0000 C   0  0  0  0  0  0           0  0  0
    1.5292    0.2958    0.0000 C   0  0  0  0  0  0           0  0  0
    0.0917    3.5958    0.0000 C   0  0  0  0  0  0           0  0  0
    2.2417    1.5375    0.0000 O   0  0  0  0  0  0           0  0  0
   -0.6125   -0.1167    0.0000 N   0  0  3  0  0  0           0  0  0
    5.8167   -3.0000    0.0000 N   0  0  0  0  0  0           0  0  0
    5.1042   -3.4125    0.0000 C   0  0  0  0  0  0           0  0  0
    0.8042    4.0000    0.0000 N   0  0  0  0  0  0           0  0  0
   -0.7083    2.9833    0.0000 O   0  0  0  0  0  0           0  0  0
   -0.1208    1.9708    0.0000 O   0  0  0  0  0  0           0  0  0
    2.9542    1.1333    0.0000 C   0  0  0  0  0  0           0  0  0
    3.6750   -1.7667    0.0000 C   0  0  0  0  0  0           0  0  0
    2.9625   -1.3542    0.0000 C   0  0  0  0  0  0           0  0  0
    6.5292   -3.4042    0.0000 C   0  0  0  0  0  0           0  0  0
    7.2417   -2.9917    0.0000 N   0  0  0  0  0  0           0  0  0
    0.8042    4.8250    0.0000 C   0  0  0  0  0  0           0  0  0
    5.1042   -4.2375    0.0000 O   0  0  0  0  0  0           0  0  0
    0.0875    5.2292    0.0000 C   0  0  0  0  0  0           0  0  0
   -0.6208    3.9958    0.0000 C   0  0  0  0  0  0           0  0  0
    3.6625    1.5458    0.0000 C   0  0  0  0  0  0           0  0  0
   -0.6250    4.8167    0.0000 C   0  0  0  0  0  0           0  0  0
   -2.0458   -0.9417    0.0000 O   0  0  0  0  0  0           0  0  0
    2.2417   -0.1167    0.0000 O   0  0  0  0  0  0           0  0  0
    4.3875   -3.0000    0.0000 O   0  0  0  0  0  0           0  0  0
    0.0792    6.0625    0.0000 C   0  0  3  0  0  0           0  0  0
    3.6542    2.3708    0.0000 O   0  0  0  0  0  0           0  0  0
   -1.3333    0.2958    0.0000 C   0  0  0  0  0  0           0  0  0
   -0.6125   -0.9417    0.0000 C   0  0  0  0  0  0           0  0  0
    2.2417   -0.9417    0.0000 C   0  0  0  0  0  0           0  0  0
    4.3875   -2.1750    0.0000 C   0  0  0  0  0  0           0  0  0
    2.9542    0.3083    0.0000 C   0  0  0  0  0  0           0  0  0
    7.9542   -3.4000    0.0000 C   0  0  0  0  0  0           0  0  0
   -1.3250   -1.3542    0.0000 C   0  0  0  0  0  0           0  0  0
   -2.0458   -0.1167    0.0000 C   0  0  0  0  0  0           0  0  0
    6.5292   -4.2292    0.0000 C   0  0  0  0  0  0           0  0  0
    4.3792    1.1458    0.0000 C   0  0  0  0  0  0           0  0  0
   -0.6333    6.4667    0.0000 C   0  0  0  0  0  0           0  0  0
    0.7917    6.4792    0.0000 C   0  0  0  0  0  0           0  0  0
    2.9375    2.7750    0.0000 C   0  0  0  0  0  0           0  0  0
    7.9542   -4.2292    0.0000 C   0  0  0  0  0  0           0  0  0
    3.6667   -0.1042    0.0000 C   0  0  0  0  0  0           0  0  0
    7.2417   -4.6417    0.0000 C   0  0  0  0  0  0           0  0  0
    4.3875    0.3125    0.0000 C   0  0  0  0  0  0           0  0  0
  2  6  1  0     0  0
  3  2  1  0     0  0
  4  3  2  0     0  0
  5  8  2  0     0  0
  6  1  1  0     0  0
  7  2  2  0     0  0
  8  7  1  0     0  0
  9  1  1  0     0  0
 10  7  1  0     0  0
 11  4  1  0     0  0
 12 13  1  0     0  0
 13 30  1  0     0  0
 14  9  2  0     0  0
 15  1  2  0     0  0
 16  1  2  0     0  0
 17 10  1  0     0  0
 18 19  3  0     0  0
 19 35  1  0     0  0
 20 12  1  0     0  0
 21 20  1  0     0  0
 22 14  1  0     0  0
 23 13  2  0     0  0
 24 27  1  0     0  0
 25  9  1  0     0  0
 26 17  1  0     0  0
 27 25  2  0     0  0
 28 39  1  0     0  0
 29  8  1  0     0  0
 30 36  1  0     0  0
 31 24  1  0     0  0
 32 26  1  0     0  0
 33 11  1  0     0  0
 34 11  1  0     0  0
 35 29  1  0     0  0
 36 18  1  0     0  0
 37 17  2  0     0  0
 38 21  2  0     0  0
 39 34  1  0     0  0
 40 33  1  0     0  0
 41 20  2  0     0  0
 42 26  2  0     0  0
 43 31  1  0     0  0
 44 31  1  0     0  0
 45 32  1  0     0  0
 46 48  2  0     0  0
 47 37  1  0     0  0
 48 41  1  0     0  0
 49 47  2  0     0  0
 22 24  2  0     0  0
  4  5  1  0     0  0
 40 28  1  0     0  0
 49 42  1  0     0  0
 38 46  1  0     0  0
M  END