
  SciTegic09261414482D

 81 83  0  0  0  0            999 V2000
    9.7324  -18.2369    0.0000 N   0  0
   10.4428  -18.6432    0.0000 C   0  0  2  0  0  0
   11.1479  -17.4109    0.0000 O   0  0
   11.1506  -18.2322    0.0000 C   0  0
   10.4455  -19.4645    0.0000 C   0  0
   11.1559  -19.8707    0.0000 C   0  0
   11.1586  -20.6921    0.0000 O   0  0
   11.8637  -19.4598    0.0000 O   0  0
   13.9871  -15.7672    0.0000 N   0  0
   13.9844  -14.9459    0.0000 C   0  0
   13.2740  -14.5396    0.0000 N   0  0
   14.6963  -14.5350    0.0000 N   0  0
   11.8610  -18.6426    0.0000 N   0  0
   12.5729  -18.2276    0.0000 C   0  0  2  0  0  0
   13.2860  -19.4593    0.0000 O   0  0
   13.2833  -18.6380    0.0000 C   0  0
   12.5702  -17.4104    0.0000 C   0  0
   13.2779  -16.9995    0.0000 C   0  0
   13.2794  -16.1782    0.0000 C   0  0
   13.9910  -18.2271    0.0000 N   0  0
   14.7015  -18.6333    0.0000 C   0  0  2  0  0  0
   15.4107  -17.4011    0.0000 O   0  0
   15.4133  -18.2224    0.0000 C   0  0
   14.7042  -19.4546    0.0000 C   0  0
   15.4146  -19.8609    0.0000 C   0  0
   13.9964  -19.8656    0.0000 C   0  0
   16.1238  -18.6328    0.0000 N   0  0
   16.8315  -18.2177    0.0000 C   0  0  2  0  0  0
   18.2538  -18.2172    0.0000 O   0  0
   17.5419  -18.6281    0.0000 C   0  0
   16.8288  -17.4006    0.0000 C   0  0
   17.5380  -16.1683    0.0000 C   0  0
   17.5407  -16.9896    0.0000 C   0  0
   18.2511  -17.3959    0.0000 C   0  0
   18.9589  -16.9850    0.0000 C   0  0
   18.9603  -16.1637    0.0000 C   0  0
   18.2458  -15.7574    0.0000 C   0  0
   19.6681  -15.7527    0.0000 O   0  0
   17.5446  -19.4495    0.0000 N   0  0
   18.2551  -19.8557    0.0000 C   0  0  2  0  0  0
   18.9643  -18.6235    0.0000 O   0  0
   18.9669  -19.4448    0.0000 C   0  0
   18.2578  -20.6770    0.0000 C   0  0  1  0  0  0
   18.9682  -21.0833    0.0000 C   0  0
   17.5500  -21.0880    0.0000 C   0  0
   16.8355  -20.6776    0.0000 C   0  0
   19.6774  -19.8552    0.0000 N   0  0
   20.3851  -19.4401    0.0000 C   0  0  2  0  0  0
   21.8074  -19.4396    0.0000 O   0  0
   21.0955  -19.8505    0.0000 C   0  0
   20.3824  -18.6230    0.0000 C   0  0
   21.8427  -18.5440    0.0000 N   0  0
   22.3885  -17.9316    0.0000 C   0  0
   21.9776  -17.2238    0.0000 N   0  0
   21.1756  -17.3931    0.0000 C   0  0
   21.0902  -18.2120    0.0000 C   0  0
   21.0982  -20.6719    0.0000 N   0  0
   21.7631  -21.1498    0.0000 C   0  0  2  0  0  0
   23.0383  -20.4874    0.0000 O   0  0
   22.5789  -21.1662    0.0000 C   0  0
   21.5110  -21.9320    0.0000 C   0  0
   20.4365  -21.1542    0.0000 C   0  0
   20.6896  -21.9347    0.0000 C   0  0
   22.9411  -21.9028    0.0000 N   0  0
   22.5596  -22.6279    0.0000 C   0  0  2  0  0  0
   23.8149  -23.2892    0.0000 O   0  0
   22.9959  -23.3232    0.0000 C   0  0
   21.7366  -22.6610    0.0000 C   0  0
   21.3547  -23.3864    0.0000 C   0  0
   20.5367  -23.4164    0.0000 C   0  0
   21.7950  -24.0826    0.0000 C   0  0
   22.6140  -24.0486    0.0000 O   0  0
    9.0262  -18.6427    0.0000 C   0  0
    8.3205  -18.2341    0.0000 C   0  0
    7.6147  -18.6427    0.0000 C   0  0
    6.9090  -18.2341    0.0000 C   0  0
    6.2032  -18.6427    0.0000 C   0  0
    5.4975  -18.2341    0.0000 C   0  0
    4.7917  -18.6427    0.0000 C   0  0
    4.0860  -18.2341    0.0000 C   0  0
    9.0249  -19.4599    0.0000 O   0  0
  4 13  1  0
 16 20  1  0
 23 27  1  0
 30 39  1  0
 42 47  1  0
 50 57  1  0
 60 64  1  0
 67 72  2  0
  2  1  1  6
  2  4  1  0
  4  3  2  0
  2  5  1  0
  5  6  1  0
  6  7  2  0
  6  8  1  0
  9 10  1  0
 10 11  1  0
 10 12  2  0
 14 13  1  1
 14 16  1  0
 16 15  2  0
 14 17  1  0
 17 18  1  0
 18 19  1  0
 19  9  1  0
 21 20  1  6
 21 23  1  0
 23 22  2  0
 21 24  1  0
 24 25  1  0
 24 26  1  0
 28 27  1  1
 28 30  1  0
 30 29  2  0
 28 31  1  0
 31 33  1  0
 32 33  2  0
 33 34  1  0
 34 35  2  0
 35 36  1  0
 36 37  2  0
 37 32  1  0
 36 38  1  0
 40 39  1  6
 40 42  1  0
 42 41  2  0
 40 43  1  0
 43 44  1  1
 43 45  1  0
 45 46  1  0
 48 47  1  1
 48 50  1  0
 50 49  2  0
 48 51  1  0
 51 56  1  0
 52 53  1  0
 53 54  2  0
 54 55  1  0
 55 56  2  0
 56 52  1  0
 57 58  1  0
 58 60  1  6
 60 59  2  0
 58 61  1  0
 62 63  1  0
 63 61  1  0
 62 57  1  0
 65 64  1  6
 65 67  1  0
 67 66  1  0
 65 68  1  0
 68 69  1  0
 69 70  1  0
 69 71  1  0
  1 73  1  0
 73 74  1  0
 74 75  1  0
 75 76  1  0
 76 77  1  0
 77 78  1  0
 78 79  1  0
 79 80  1  0
 73 81  2  0
M  END