
  SciTegic12231509382D

 29 31  0  0  0  0            999 V2000
    2.2393   -1.8527    0.0000 O   0  0
    3.6682   -2.6777    0.0000 O   0  0
   12.2811    0.6992    0.0000 O   0  0
   10.8129   -0.2027    0.0000 O   0  0
    5.0972   -0.2027    0.0000 N   0  0
    4.3827    1.0348    0.0000 N   0  0
    5.8116    1.0348    0.0000 N   0  0
    2.9538    1.0348    0.0000 N   0  0
   10.0985    1.0348    0.0000 N   0  0
    3.6682   -0.2027    0.0000 C   0  0
    4.3827   -0.6152    0.0000 C   0  0
    3.6682    0.6223    0.0000 C   0  0
    2.9538   -1.4402    0.0000 C   0  0
    3.6682   -1.8527    0.0000 C   0  0
    2.9538   -0.6152    0.0000 C   0  0
    4.3827   -1.4402    0.0000 C   0  0
    5.0972    0.6223    0.0000 C   0  0
    6.5261    0.6223    0.0000 C   0  0
   11.5274    1.0348    0.0000 C   0  0
   10.8129    0.6223    0.0000 C   0  0
    2.2393   -2.6777    0.0000 C   0  0
    4.3827   -3.0902    0.0000 C   0  0
   11.6136    1.8552    0.0000 C   0  0
    7.2406    1.0348    0.0000 C   0  0
   12.8331    1.3123    0.0000 C   0  0
   12.4206    2.0268    0.0000 C   0  0
    7.9551    0.6223    0.0000 C   0  0
    9.3840    0.6223    0.0000 C   0  0
    8.6695    1.0348    0.0000 C   0  0
  1 13  1  0
  1 21  1  0
  2 14  1  0
  2 22  1  0
  3 19  1  0
  3 25  1  0
  4 20  2  0
  5 11  1  0
  5 17  2  0
  6 12  2  0
  6 17  1  0
  7 17  1  0
  7 18  1  0
  8 12  1  0
  9 20  1  0
  9 28  1  0
 10 11  1  0
 10 12  1  0
 10 15  2  0
 11 16  2  0
 13 14  2  0
 13 15  1  0
 14 16  1  0
 18 24  1  0
 19 20  1  0
 19 23  2  0
 23 26  1  0
 24 27  1  0
 25 26  2  0
 27 29  1  0
 28 29  1  0
M  END