
  SciTegic01161211242D

 27 29  0  0  0  0            999 V2000
    8.3715  -10.6343    0.0000 C   0  0
    9.0466  -11.1085    0.0000 N   0  0
    9.7075  -10.6145    0.0000 N   0  0
    9.4397   -9.8313    0.0000 C   0  0
    8.6156   -9.8475    0.0000 C   0  0
    9.8628   -9.1230    0.0000 C   0  0
   10.6877   -9.1352    0.0000 C   0  0
    9.4609   -8.4025    0.0000 C   0  0
   10.4374   -9.7149    0.0000 C   0  0
    7.5908  -10.9002    0.0000 N   0  0
    6.8898  -10.4653    0.0000 C   0  0
    6.1626  -10.8550    0.0000 N   0  0
    6.9159   -9.6407    0.0000 O   0  0
    5.4615  -10.4201    0.0000 C   0  0
    9.0588  -11.9334    0.0000 C   0  0
    5.4852   -9.5977    0.0000 C   0  0
    4.7850   -9.1629    0.0000 C   0  0
    4.0568   -9.5526    0.0000 C   0  0
    8.3480  -12.3541    0.0000 C   0  0
    8.3599  -13.1783    0.0000 C   0  0
    9.0809  -13.5810    0.0000 C   0  0
    9.7915  -13.1535    0.0000 C   0  0
    9.7762  -12.3308    0.0000 C   0  0
    4.7333  -10.8143    0.0000 C   0  0
    4.0324  -10.3830    0.0000 C   0  0
    3.3554   -9.1183    0.0000 Cl  0  0
   10.5134  -13.5528    0.0000 C   0  0
 12 14  1  0
  6  7  1  0
  2 15  1  0
  2  3  1  0
 14 16  2  0
  6  8  1  0
 16 17  1  0
  3  4  2  0
 17 18  2  0
 18 25  1  0
 24 14  1  0
  6  9  1  0
 15 19  2  0
  4  5  1  0
 19 20  1  0
  1 10  1  0
 20 21  2  0
  5  1  2  0
 21 22  1  0
 10 11  1  0
 22 23  2  0
 23 15  1  0
  1  2  1  0
 11 12  1  0
 24 25  2  0
  4  6  1  0
 18 26  1  0
 11 13  2  0
 22 27  1  0
M  END