
  SciTegic01061111512D

 21 22  0  0  0  0            999 V2000
   -3.4325  -17.7678    0.0000 C   0  0  2  0  0  0
   -3.4325  -18.5928    0.0000 C   0  0  1  0  0  0
   -2.7241  -18.9991    0.0000 C   0  0  1  0  0  0
   -2.0116  -18.5928    0.0000 C   0  0  2  0  0  0
   -2.0116  -17.7678    0.0000 C   0  0  1  0  0  0
   -2.7241  -17.3492    0.0000 O   0  0
   -1.2954  -17.3554    0.0000 S   0  0
   -0.5815  -17.7720    0.0000 C   0  0
   -1.2972  -19.0043    0.0000 O   0  0
   -2.7241  -19.8241    0.0000 N   0  0
   -3.3859  -20.3147    0.0000 N   0  0
   -3.1323  -21.0995    0.0000 N   0  0
   -2.3072  -21.0995    0.0000 C   0  0
   -2.0536  -20.3147    0.0000 C   0  0
   -1.8205  -21.7676    0.0000 C   0  0
   -2.1585  -22.5216    0.0000 O   0  0
   -1.0001  -21.6817    0.0000 N   0  0
   -0.5176  -22.3457    0.0000 C   0  0
   -4.1469  -19.0043    0.0000 O   0  0
   -4.1487  -17.3554    0.0000 C   0  0
   -4.1512  -16.5304    0.0000 O   0  0
 10 11  1  0
  3  4  1  0
  4  5  1  0
  5  6  1  0
 11 12  2  0
 12 13  1  0
 13 14  2  0
 14 10  1  0
  5  7  1  1
 13 15  1  0
  1  2  1  0
 15 16  2  0
  7  8  1  0
 15 17  1  0
  1  6  1  0
 17 18  1  0
  4  9  1  6
  2 19  1  1
  2  3  1  0
  1 20  1  1
  3 10  1  1
 20 21  1  0
M  END