
          11280715202D 1   1.00000     0.00000     0

 16 17  0     0  0            999 V2000
   -0.3333   -2.9167    0.0000 C   0  0  0  0  0  0           0  0  0
   -0.1500   -3.4792    0.0000 N   0  0  3  0  0  0           0  0  0
    0.5500   -4.2667    0.0000 C   0  0  0  0  0  0           0  0  0
    0.6750   -4.8542    0.0000 C   0  0  0  0  0  0           0  0  0
    1.3667   -5.6417    0.0000 N   0  0  3  0  0  0           0  0  0
    0.0250   -2.4292    0.0000 O   0  0  0  0  0  0           0  0  0
   -0.9333   -2.9125    0.0000 C   0  0  3  0  0  0           0  0  0
   -0.6375   -3.8292    0.0000 C   0  0  0  0  0  0           0  0  0
   -1.1125   -3.4792    0.0000 C   0  0  0  0  0  0           0  0  0
    0.4250   -3.6750    0.0000 C   0  0  0  0  0  0           0  0  0
    0.8000   -5.4500    0.0000 C   0  0  0  0  0  0           0  0  0
    1.6042   -6.1792    0.0000 C   0  0  0  0  0  0           0  0  0
    1.8167   -5.2417    0.0000 C   0  0  0  0  0  0           0  0  0
   -1.2833   -2.4292    0.0000 C   0  0  0  0  0  0           0  0  0
    2.2042   -6.1250    0.0000 C   0  0  0  0  0  0           0  0  0
    2.3292   -5.5417    0.0000 C   0  0  0  0  0  0           0  0  0
  2  1  1  0     0  0
  3 10  1  0     0  0
  4  3  3  0     0  0
  5 11  1  0     0  0
  6  1  2  0     0  0
  7  1  1  0     0  0
  8  2  1  0     0  0
  9  7  1  0     0  0
 10  2  1  0     0  0
 11  4  1  0     0  0
 12  5  1  0     0  0
 13  5  1  0     0  0
 14  7  1  0     0  0
 15 12  1  0     0  0
 16 13  1  0     0  0
  8  9  1  0     0  0
 16 15  1  0     0  0
M  END