
  SciTegic01161211242D

 25 28  0  0  0  0            999 V2000
    0.1103  -17.2511    0.0000 C   0  0
    0.5032  -17.9779    0.0000 C   0  0
    1.3606  -16.5653    0.0000 C   0  0
    0.5359  -16.5486    0.0000 C   0  0
    1.7638  -17.2885    0.0000 C   0  0
    1.3287  -17.9965    0.0000 C   0  0
    1.7270  -18.7180    0.0000 O   0  0
    2.5530  -18.7384    0.0000 C   0  0
    2.9789  -18.0350    0.0000 C   0  0
    2.5880  -17.3112    0.0000 O   0  0
   -0.7149  -17.2318    0.0000 N   0  0
   -1.1885  -16.5576    0.0000 C   0  0
   -1.9762  -16.7947    0.0000 N   0  0
   -1.9964  -17.6205    0.0000 N   0  0
   -1.2166  -17.8913    0.0000 C   0  0
   -0.9175  -15.7778    0.0000 O   0  0
   -0.8772  -18.6465    0.0000 S   0  0
   -1.3597  -19.3158    0.0000 C   0  0
   -2.1824  -19.3221    0.0000 S   0  0
   -2.4345  -20.1091    0.0000 C   0  0
   -1.7660  -20.5921    0.0000 C   0  0
   -1.1012  -20.1036    0.0000 N   0  0
   -3.1404  -20.5314    0.0000 N   0  3
   -3.1288  -21.3527    0.0000 O   0  0
   -3.8574  -20.1308    0.0000 O   0  5
  5  3  1  0
  1  2  2  0
 12 13  2  0
 13 14  1  0
 14 15  2  0
 15 11  1  0
  1 11  1  0
  3  4  2  0
 12 16  1  0
  4  1  1  0
 15 17  1  0
  5 10  1  0
 17 18  1  0
 18 19  1  0
  6  7  1  0
  7  8  1  0
  8  9  1  0
  9 10  1  0
 19 20  1  0
 20 21  2  0
 21 22  1  0
 22 18  2  0
 11 12  1  0
  5  6  2  0
  2  6  1  0
 23 24  2  0
 23 25  1  0
 20 23  1  0
M  CHG  2  23   1  25  -1
M  END