
          11280715242D 1   1.00000     0.00000     0

 45 50  0     0  0            999 V2000
    3.5042   -4.9917    0.0000 N   0  0  0  0  0  0           0  0  0
    3.0292   -3.7500    0.0000 N   0  0  3  0  0  0           0  0  0
    2.8167   -4.5417    0.0000 C   0  0  0  0  0  0           0  0  0
    4.1500   -4.4792    0.0000 C   0  0  0  0  0  0           0  0  0
    3.8542   -3.7042    0.0000 N   0  0  0  0  0  0           0  0  0
   -1.0833   -2.3167    0.0000 C   0  0  0  0  0  0           0  0  0
    8.4167   -6.9500    0.0000 C   0  0  0  0  0  0           0  0  0
    8.4167   -6.1250    0.0000 C   0  0  0  0  0  0           0  0  0
   -0.6708   -3.0292    0.0000 C   0  0  0  0  0  0           0  0  0
    7.7042   -7.3625    0.0000 C   0  0  0  0  0  0           0  0  0
   -0.6708   -1.6042    0.0000 C   0  0  0  0  0  0           0  0  0
    2.6250   -3.0292    0.0000 C   0  0  0  0  0  0           0  0  0
    4.8625   -4.8917    0.0000 S   0  0  0  0  0  0           0  0  0
    2.0417   -4.8375    0.0000 C   0  0  0  0  0  0           0  0  0
    7.7042   -5.7125    0.0000 C   0  0  0  0  0  0           0  0  0
    0.1542   -3.0292    0.0000 C   0  0  0  0  0  0           0  0  0
    6.9917   -6.9417    0.0000 O   0  0  0  0  0  0           0  0  0
    0.1542   -1.6042    0.0000 O   0  0  0  0  0  0           0  0  0
    7.7042   -4.8792    0.0000 C   0  0  0  0  0  0           0  0  0
    0.5542   -2.3167    0.0000 C   0  0  0  0  0  0           0  0  0
    6.9917   -6.1167    0.0000 C   0  0  0  0  0  0           0  0  0
    0.5625   -3.7500    0.0000 C   0  0  0  0  0  0           0  0  0
    1.8000   -3.0292    0.0000 C   0  0  0  0  0  0           0  0  0
    7.7042   -8.1875    0.0000 O   0  0  0  0  0  0           0  0  0
   -1.0875   -0.8917    0.0000 O   0  0  0  0  0  0           0  0  0
    5.5750   -4.4750    0.0000 C   0  0  0  0  0  0           0  0  0
    6.2875   -4.8875    0.0000 C   0  0  0  0  0  0           0  0  0
    1.9125   -5.6500    0.0000 C   0  0  0  0  0  0           0  0  0
    1.3792   -3.7500    0.0000 C   0  0  0  0  0  0           0  0  0
    1.3792   -2.3167    0.0000 C   0  0  0  0  0  0           0  0  0
    6.2792   -5.7042    0.0000 C   0  0  0  0  0  0           0  0  0
    6.9917   -4.4750    0.0000 C   0  0  0  0  0  0           0  0  0
   -1.9083   -2.3250    0.0000 C   0  0  0  0  0  0           0  0  0
    9.1292   -7.3625    0.0000 C   0  0  0  0  0  0           0  0  0
   -1.0833   -3.7417    0.0000 C   0  0  0  0  0  0           0  0  0
    9.1292   -5.7125    0.0000 C   0  0  0  0  0  0           0  0  0
    1.1417   -5.9417    0.0000 C   0  0  0  0  0  0           0  0  0
    2.5542   -6.1667    0.0000 C   0  0  0  0  0  0           0  0  0
    9.8417   -6.1167    0.0000 C   0  0  0  0  0  0           0  0  0
   -1.9083   -3.7417    0.0000 C   0  0  0  0  0  0           0  0  0
   -2.3208   -3.0375    0.0000 C   0  0  0  0  0  0           0  0  0
    9.8500   -6.9500    0.0000 C   0  0  0  0  0  0           0  0  0
    2.4250   -6.9792    0.0000 C   0  0  0  0  0  0           0  0  0
    1.0125   -6.7542    0.0000 C   0  0  0  0  0  0           0  0  0
    1.6500   -7.2750    0.0000 C   0  0  0  0  0  0           0  0  0
  2  3  1  0     0  0
  3  1  2  0     0  0
  4  1  1  0     0  0
  5  4  2  0     0  0
  6  9  2  0     0  0
  7  8  2  0     0  0
  8 15  1  0     0  0
  9 16  1  0     0  0
 10  7  1  0     0  0
 11  6  1  0     0  0
 12  2  1  0     0  0
 13  4  1  0     0  0
 14  3  1  0     0  0
 15 19  1  0     0  0
 16 20  1  0     0  0
 17 10  2  0     0  0
 18 11  2  0     0  0
 19 32  2  0     0  0
 20 30  2  0     0  0
 21 31  1  0     0  0
 22 29  1  0     0  0
 23 12  1  0     0  0
 24 10  1  0     0  0
 25 11  1  0     0  0
 26 13  1  0     0  0
 27 26  1  0     0  0
 28 14  1  0     0  0
 29 23  2  0     0  0
 30 23  1  0     0  0
 31 27  2  0     0  0
 32 27  1  0     0  0
 33  6  1  0     0  0
 34  7  1  0     0  0
 35  9  1  0     0  0
 36  8  1  0     0  0
 37 28  2  0     0  0
 38 28  1  0     0  0
 39 36  2  0     0  0
 40 35  2  0     0  0
 41 40  1  0     0  0
 42 39  1  0     0  0
 43 38  2  0     0  0
 44 37  1  0     0  0
 45 43  1  0     0  0
  2  5  1  0     0  0
 15 21  2  0     0  0
 45 44  2  0     0  0
 22 16  2  0     0  0
 42 34  2  0     0  0
 41 33  2  0     0  0
M  END