
  SciTegic11201309402D

 21 24  0  0  0  0            999 V2000
    2.6075    0.2394    0.0000 C   0  0
    2.0757    0.8702    0.0000 C   0  0
    1.2635    0.7249    0.0000 C   0  0
    0.9832   -0.0510    0.0000 C   0  0
    1.5151   -0.6817    0.0000 C   0  0
    2.3272   -0.5365    0.0000 C   0  0
    0.7317    1.3556    0.0000 C   0  0
   -0.0804    1.2104    0.0000 C   0  0
   -0.3607    0.4345    0.0000 C   0  0
    0.1711   -0.1962    0.0000 C   0  0
   -1.1728    0.2893    0.0000 C   0  0  1  0  0  0
   -1.4531   -0.4866    0.0000 C   0  0  2  0  0  0
   -0.9213   -1.1173    0.0000 C   0  0
   -0.1092   -0.9721    0.0000 C   0  0
   -1.8242    0.7956    0.0000 C   0  0
   -2.5070    0.3327    0.0000 C   0  0
   -2.2777   -0.4598    0.0000 C   0  0
   -1.8130   -1.2290    0.0000 C   0  0
    3.4196    0.3847    0.0000 O   0  0
   -2.7840   -1.1112    0.0000 O   0  0
   -0.9333    1.2602    0.0000 H   0  0
  1  2  2  0
  1  6  1  0
  1 19  1  0
  2  3  1  0
  3  4  2  0
  7  3  1  0
  4  5  1  0
 10  4  1  0
  5  6  2  0
  7  8  2  0
  8  9  1  0
  9 10  2  0
  9 11  1  0
 10 14  1  0
 11 12  1  0
 11 15  1  0
 12 13  1  0
 12 17  1  0
 12 18  1  1
 13 14  1  0
 15 16  1  0
 16 17  1  0
 17 20  2  0
 11 21  1  6
M  END