
          11280714452D 1   1.00000     0.00000     0

 25 27  0     0  0            999 V2000
    3.7917   -1.2417    0.0000 N   0  0  0  0  0  0           0  0  0
    3.6875   -1.8292    0.0000 C   0  0  0  0  0  0           0  0  0
    4.2167   -2.1167    0.0000 N   0  0  0  0  0  0           0  0  0
    4.3875   -1.1667    0.0000 C   0  0  0  0  0  0           0  0  0
    4.6500   -1.7042    0.0000 C   0  0  0  0  0  0           0  0  0
    2.1417   -2.1667    0.0000 C   0  0  3  0  0  0           0  0  0
    2.6500   -1.8542    0.0000 C   0  0  0  0  0  0           0  0  0
    4.6667   -0.6292    0.0000 C   0  0  0  0  0  0           0  0  0
    3.1792   -2.1417    0.0000 C   0  0  0  0  0  0           0  0  0
    1.6042   -1.8792    0.0000 C   0  0  0  0  0  0           0  0  0
    2.1625   -2.7750    0.0000 C   0  0  0  0  0  0           0  0  0
    4.6375    0.4083    0.0000 N   0  0  3  0  0  0           0  0  0
    4.3542   -0.1250    0.0000 C   0  0  0  0  0  0           0  0  0
    1.6542   -3.0875    0.0000 C   0  0  0  0  0  0           0  0  0
    2.6875   -3.0625    0.0000 C   0  0  0  0  0  0           0  0  0
    1.0792   -2.1875    0.0000 C   0  0  0  0  0  0           0  0  0
    1.6042   -1.2917    0.0000 C   0  0  0  0  0  0           0  0  0
    5.2375    0.4333    0.0000 C   0  0  0  0  0  0           0  0  0
    4.3167    0.9083    0.0000 C   0  0  0  0  0  0           0  0  0
    1.6667   -3.6917    0.0000 C   0  0  0  0  0  0           0  0  0
    2.7042   -3.6542    0.0000 C   0  0  0  0  0  0           0  0  0
    1.0792   -0.9875    0.0000 C   0  0  0  0  0  0           0  0  0
    0.5625   -1.8875    0.0000 C   0  0  0  0  0  0           0  0  0
    2.1917   -3.9667    0.0000 C   0  0  0  0  0  0           0  0  0
    0.5625   -1.2875    0.0000 C   0  0  0  0  0  0           0  0  0
  2  1  2  0     0  0
  3  2  1  0     0  0
  4  1  1  0     0  0
  5  4  2  0     0  0
  6  7  1  0     0  0
  7  9  1  0     0  0
  8  4  1  0     0  0
  9  2  1  0     0  0
 10  6  1  0     0  0
 11  6  1  0     0  0
 12 13  1  0     0  0
 13  8  1  0     0  0
 14 11  2  0     0  0
 15 11  1  0     0  0
 16 10  1  0     0  0
 17 10  2  0     0  0
 18 12  1  0     0  0
 19 12  1  0     0  0
 20 14  1  0     0  0
 21 15  2  0     0  0
 22 17  1  0     0  0
 23 16  2  0     0  0
 24 21  1  0     0  0
 25 22  2  0     0  0
  5  3  1  0     0  0
 24 20  2  0     0  0
 23 25  1  0     0  0
M  END