
  SciTegic12231509382D

 33 39  0  0  1  0            999 V2000
   -8.4114    1.0354    0.0000 C   0  0  2  0  0  0
   -8.7961    0.3216    0.0000 C   0  0  1  0  0  0
   -8.8217    1.7407    0.0000 C   0  0  2  0  0  0
   -7.5779    1.0354    0.0000 C   0  0
   -9.6424    1.7407    0.0000 C   0  0  2  0  0  0
   -7.1547    1.7578    0.0000 C   0  0
   -8.0139    2.2707    0.0000 O   0  0
   -8.4114   -0.3752    0.0000 C   0  0  2  0  0  0
  -10.0314    1.0225    0.0000 C   0  0  2  0  0  0
   -8.7320   -1.0633    0.0000 N   0  0
   -7.1547    0.3216    0.0000 C   0  0
   -9.6211    0.3216    0.0000 C   0  0
   -7.5779   -0.3752    0.0000 C   0  0
   -8.9372    1.0354    0.0000 C   0  0
   -9.4629    1.0354    0.0000 C   0  0
   -7.9498    0.4242    0.0000 C   0  0
  -10.8735    1.0354    0.0000 C   0  0
   -8.7320   -2.0550    0.0000 C   0  0
   -6.3084    1.7578    0.0000 C   0  0
   -7.9284   -2.0550    0.0000 C   0  0
   -7.9498   -1.0633    0.0000 C   0  0
   -7.1975   -2.5423    0.0000 C   0  0
   -7.1975   -1.5421    0.0000 C   0  0
   -6.3084    0.3216    0.0000 C   0  0
   -9.9930    2.3605    0.0000 O   0  0
   -5.9109    1.0225    0.0000 C   0  0
  -11.7583    1.0354    0.0000 O   0  0
   -5.8852    2.4716    0.0000 O   0  0
  -11.2710    0.2703    0.0000 C   0  0
  -11.3138    1.7278    0.0000 C   0  0
  -10.8735    2.3605    0.0000 C   0  0
   -7.8740   -1.2185    0.0000 H   0  0
   -9.1080    2.6989    0.0000 H   0  0
  2  1  1  0
  3  1  1  0
  4  1  1  0
  5  3  1  0
  6  4  1  0
  3  7  1  0
  8  2  1  0
  9  5  1  0
 10 21  1  0
 11  4  2  0
 12  2  1  0
 13 11  1  0
  2 14  1  6
  5 15  1  0
  1 16  1  1
  9 17  1  6
 18 10  1  0
 19  6  2  0
 20 18  1  0
 21 16  1  0
 22 20  1  0
 23 20  1  0
 24 11  1  0
  5 25  1  6
 26 24  2  0
 27 17  1  0
 28 19  1  0
 29 17  1  0
 30 17  1  0
 31 25  1  0
  6  7  1  0
 12  9  1  0
  8 10  1  0
  8 13  1  0
 14 15  1  0
 19 26  1  0
 22 23  1  0
  8 32  1  6
  3 33  1  1
M  END