
  SciTegic04091415032D

 36 39  0  0  0  0            999 V2000
   21.8357   -3.2770    0.0000 C   0  0
   21.8346   -4.0965    0.0000 C   0  0
   22.5426   -4.5055    0.0000 C   0  0
   22.5409   -2.8681    0.0000 C   0  0
   23.2495   -3.2734    0.0000 C   0  0
   23.2502   -4.0924    0.0000 C   0  0
   23.9588   -4.4995    0.0000 N   0  0
   24.6670   -4.0886    0.0000 C   0  0
   24.6623   -3.2665    0.0000 C   0  0
   23.9532   -2.8631    0.0000 C   0  0
   21.1320   -2.8643    0.0000 C   0  0
   23.9489   -2.0460    0.0000 C   0  0
   24.6544   -1.6336    0.0000 O   0  0
   23.2390   -1.6411    0.0000 O   0  0
   25.3763   -4.4945    0.0000 C   0  0
   25.3795   -5.3117    0.0000 N   0  0
   26.0824   -4.0831    0.0000 O   0  0
   26.0888   -5.7175    0.0000 C   0  0  2  0  0  0
   26.0920   -6.5347    0.0000 C   0  0
   26.7949   -5.3062    0.0000 C   0  0
   27.5042   -5.7120    0.0000 C   0  0
   26.8013   -6.9405    0.0000 O   0  0
   25.3859   -6.9460    0.0000 O   0  0
   26.8044   -7.7577    0.0000 C   0  0
   27.5043   -6.5262    0.0000 C   0  0
   28.2127   -6.9320    0.0000 C   0  0
   28.9198   -6.5206    0.0000 C   0  0
   28.9140   -5.6992    0.0000 C   0  0
   28.2050   -5.2971    0.0000 C   0  0
   29.6296   -6.9255    0.0000 O   0  0
   21.1407   -2.0475    0.0000 C   0  0
   20.4378   -1.6349    0.0000 C   0  0
   19.7275   -2.0382    0.0000 C   0  0
   19.7246   -2.8582    0.0000 C   0  0
   20.4282   -3.2671    0.0000 C   0  0
   20.4214   -4.0865    0.0000 Cl  0  0
  1  2  2  0
  2  3  1  0
  3  6  2  0
  5  4  2  0
  4  1  1  0
  5  6  1  0
  6  7  1  0
  7  8  2  0
  8  9  1  0
  9 10  2  0
 10  5  1  0
  1 11  1  0
 10 12  1  0
 12 13  2  0
 12 14  1  0
  8 15  1  0
 15 16  1  0
 15 17  2  0
 16 18  1  0
 18 19  1  1
 18 20  1  0
 20 21  1  0
 19 22  1  0
 19 23  2  0
 22 24  1  0
 21 25  2  0
 25 26  1  0
 26 27  2  0
 27 28  1  0
 28 29  2  0
 29 21  1  0
 27 30  1  0
 11 31  2  0
 31 32  1  0
 32 33  2  0
 33 34  1  0
 34 35  2  0
 35 11  1  0
 35 36  1  0
M  END