
  SciTegic11081110012D

 23 25  0  0  0  0            999 V2000
    1.1768   -0.9503    0.0000 C   0  0
    0.6248   -0.3372    0.0000 O   0  0
   -0.1289   -0.6728    0.0000 C   0  0
   -0.0427   -1.4932    0.0000 C   0  0
    0.7643   -1.6648    0.0000 C   0  0
   -0.8434   -0.2603    0.0000 C   0  0
   -0.8434    0.5647    0.0000 O   0  0
   -1.5579   -0.6728    0.0000 N   0  0
   -2.2723   -0.2603    0.0000 C   0  0
   -2.9868   -0.6728    0.0000 C   0  0
   -2.9868   -1.4978    0.0000 N   0  0
   -2.2723   -1.9103    0.0000 C   0  0
   -1.5579   -1.4978    0.0000 C   0  0
   -3.7013   -1.9103    0.0000 C   0  0
   -4.4157   -1.4978    0.0000 C   0  0
   -3.7013   -2.7353    0.0000 C   0  0
    2.0013   -0.9311    0.0000 C   0  0
    2.4304   -1.6358    0.0000 N   0  0
    2.0347   -2.3597    0.0000 C   0  0
    2.4637   -3.0644    0.0000 C   0  0
    3.2885   -3.0451    0.0000 C   0  0
    3.6842   -2.3212    0.0000 C   0  0
    3.2552   -1.6165    0.0000 C   0  0
  1  2  1  0
  2  3  1  0
  3  4  2  0
  4  5  1  0
  5  1  2  0
  3  6  1  0
  6  7  2  0
  6  8  1  0
  8  9  1  0
  8 13  1  0
  9 10  1  0
 10 11  1  0
 11 12  1  0
 12 13  1  0
 11 14  1  0
 14 15  1  0
 14 16  1  0
  1 17  1  0
 17 18  1  0
 18 19  1  0
 18 23  1  0
 19 20  1  0
 20 21  1  0
 21 22  1  0
 22 23  1  0
M  END