
  Mrv0541 04051115152D          

 12 13  0  0  0  0            999 V2000
   -0.5150    1.4242    0.0000 C   0  0  0  0  0  0  0  0  0  0  0  0
   -0.5150    0.5992    0.0000 N   0  0  0  0  0  0  0  0  0  0  0  0
    0.1995    0.1867    0.0000 C   0  0  0  0  0  0  0  0  0  0  0  0
    0.9139    0.5992    0.0000 C   0  0  0  0  0  0  0  0  0  0  0  0
    1.6284    0.1867    0.0000 C   0  0  0  0  0  0  0  0  0  0  0  0
    1.6284   -0.6383    0.0000 C   0  0  0  0  0  0  0  0  0  0  0  0
    0.9139   -1.0508    0.0000 C   0  0  0  0  0  0  0  0  0  0  0  0
    0.1995   -0.6383    0.0000 C   0  0  0  0  0  0  0  0  0  0  0  0
   -0.5150   -1.0508    0.0000 C   0  0  0  0  0  0  0  0  0  0  0  0
   -1.2295   -0.6383    0.0000 C   0  0  0  0  0  0  0  0  0  0  0  0
   -1.2295    0.1867    0.0000 C   0  0  0  0  0  0  0  0  0  0  0  0
   -1.9440    0.5992    0.0000 O   0  0  0  0  0  0  0  0  0  0  0  0
  1  2  1  0  0  0  0
  3  2  1  0  0  0  0
 11  2  1  0  0  0  0
  3  4  1  0  0  0  0
  3  8  2  0  0  0  0
  4  5  2  0  0  0  0
  5  6  1  0  0  0  0
  7  6  2  0  0  0  0
  8  7  1  0  0  0  0
  8  9  1  0  0  0  0
  9 10  2  0  0  0  0
 11 10  1  0  0  0  0
 11 12  2  0  0  0  0
M  END