
  SciTegic06051313522D

 36 41  0  0  0  0            999 V2000
   30.6721   -5.6790    0.0000 C   0  0
   30.6710   -6.4986    0.0000 C   0  0
   31.3790   -6.9075    0.0000 C   0  0
   31.3773   -5.2702    0.0000 C   0  0
   32.0859   -5.6754    0.0000 C   0  0
   32.0866   -6.4944    0.0000 C   0  0
   32.7952   -6.9015    0.0000 C   0  0
   33.5034   -6.4907    0.0000 C   0  0
   33.4987   -5.6686    0.0000 C   0  0
   32.7896   -5.2652    0.0000 C   0  0
   31.5911   -4.4739    0.0000 C   0  0
   32.5721   -4.4698    0.0000 C   0  0
   32.8713   -3.5355    0.0000 C   0  0
   32.0752   -2.9622    0.0000 C   0  0
   31.2841   -3.5422    0.0000 N   0  0
   32.0710   -1.9811    0.0000 O   0  0
   33.8031   -3.2284    0.0000 N   0  0
   34.5349   -3.8818    0.0000 C   0  0
   35.4666   -3.5748    0.0000 C   0  0
   36.1984   -4.2281    0.0000 C   0  0
   37.1302   -3.9211    0.0000 C   0  0
   37.8592   -4.5790    0.0000 C   0  0
   38.7902   -4.2727    0.0000 C   0  0
   38.9909   -3.3113    0.0000 C   0  0
   38.2532   -2.6569    0.0000 C   0  0
   37.3251   -2.9667    0.0000 C   0  0
   32.7969   -7.7187    0.0000 O   0  0
   33.5054   -8.1258    0.0000 C   0  0
   33.5038   -8.9407    0.0000 C   0  0
   34.2115   -9.3477    0.0000 C   0  0
   34.9193   -8.9376    0.0000 C   0  0
   34.9150   -8.1162    0.0000 C   0  0
   34.2067   -7.7128    0.0000 C   0  0
   35.6284   -9.3438    0.0000 C   0  0
   35.6312  -10.1610    0.0000 C   0  0
   36.3347   -8.9328    0.0000 C   0  0
  1  2  2  0
  2  3  1  0
  3  6  2  0
  5  4  2  0
  4  1  1  0
  5  6  1  0
  6  7  1  0
  7  8  2  0
  8  9  1  0
  9 10  2  0
 10  5  1  0
  4 11  1  0
 10 12  1  0
 11 12  1  0
 12 13  2  0
 13 14  1  0
 14 15  1  0
 15 11  2  0
 14 16  2  0
 13 17  1  0
 17 18  1  0
 18 19  1  0
 19 20  1  0
 20 21  1  0
 21 22  2  0
 22 23  1  0
 23 24  2  0
 24 25  1  0
 25 26  2  0
 26 21  1  0
  7 27  1  0
 27 28  1  0
 28 29  2  0
 29 30  1  0
 30 31  2  0
 31 32  1  0
 32 33  2  0
 33 28  1  0
 31 34  1  0
 34 35  1  0
 34 36  1  0
M  END