
  SciTegic12231509382D

 19 20  0  0  0  0            999 V2000
    1.2637   -1.7940    0.0000 C   0  0
    3.2747   -1.2096    0.0000 N   0  0
    2.6903   -1.7940    0.0000 C   0  0  1  0  0  0
    1.9798   -1.3815    0.0000 C   0  0
    1.2637   -2.6190    0.0000 C   0  0
    0.5419   -1.3815    0.0000 C   0  0
    2.6903   -2.6304    0.0000 C   0  0
    1.9798   -3.0429    0.0000 C   0  0
    0.5419   -3.0429    0.0000 C   0  0
   -0.1628   -1.8054    0.0000 C   0  0
   -0.1628   -2.6304    0.0000 C   0  0
    4.0653   -1.4159    0.0000 C   0  0
    3.2747   -0.3846    0.0000 C   0  0
   -0.8847   -1.3929    0.0000 O   0  0
    4.2887   -2.2065    0.0000 C   0  0
    3.9794    0.0279    0.0000 C   0  0
    5.0966   -2.4127    0.0000 C   0  0
    3.9794    0.8529    0.0000 C   0  0
    3.4064   -2.2065    0.0000 H   0  0
  3  2  1  6
  3  4  1  0
  4  1  1  0
  5  1  1  0
  6  1  2  0
  7  8  1  0
  8  5  1  0
  9  5  2  0
 10  6  1  0
 11 10  2  0
 12  2  1  0
 13  2  1  0
 14 10  1  0
 15 12  1  0
 16 13  1  0
 17 15  1  0
 18 16  1  0
  3 19  1  1
 11  9  1  0
  3  7  1  0
M  END