
  SciTegic12231509382D

 20 21  0  0  0  0            999 V2000
    4.1340    1.0000    0.0000 C   0  0
    5.0000    0.5000    0.0000 C   0  0
    4.1340    2.0000    0.0000 C   0  0
    6.7321    2.5000    0.0000 C   0  0
    7.5981    2.0000    0.0000 C   0  0
    2.5000    4.3660    0.0000 C   0  0
    3.5000    4.3660    0.0000 C   0  0
    6.7321    0.5000    0.0000 C   0  0
    5.8660    1.0000    0.0000 C   0  0
    5.8660    2.0000    0.0000 C   0  0
    5.0000    2.5000    0.0000 C   0  0
    1.0000    5.2321    0.0000 C   0  0
    0.5000    4.3660    0.0000 N   0  0
    0.5000    6.0981    0.0000 N   0  0
    7.5981    1.0000    0.0000 N   0  0
    2.0000    5.2321    0.0000 N   0  0
    4.0000    3.5000    0.0000 N   0  0
    5.0000    4.5000    0.0000 O   0  0
    6.0000    3.5000    0.0000 O   0  0
    5.0000    3.5000    0.0000 S   0  0
  1  2  2  0
  1  3  1  0
  2  9  1  0
  3 11  2  0
  4  5  1  0
  4 10  2  0
  5 15  2  0
  6  7  1  0
  6 16  1  0
  7 17  1  0
  8  9  2  0
  8 15  1  0
  9 10  1  0
 10 11  1  0
 11 20  1  0
 12 13  2  0
 12 14  1  0
 12 16  1  0
 17 20  1  0
 18 20  2  0
 19 20  2  0
M  END