
          11290715122D 1   1.00000     0.00000     0

 33 36  0     0  0            999 V2000
    7.9978  -21.1021    0.0000 C   0  0  0  0  0  0           0  0  0
    7.9966  -21.9294    0.0000 C   0  0  0  0  0  0           0  0  0
    8.7114  -22.3422    0.0000 C   0  0  0  0  0  0           0  0  0
    8.7096  -20.6894    0.0000 C   0  0  0  0  0  0           0  0  0
    9.4249  -21.0985    0.0000 C   0  0  0  0  0  0           0  0  0
    9.4283  -21.9269    0.0000 C   0  0  0  0  0  0           0  0  0
   10.1434  -22.3358    0.0000 C   0  0  0  0  0  0           0  0  0
   10.8598  -21.9210    0.0000 C   0  0  0  0  0  0           0  0  0
   10.8564  -21.0926    0.0000 C   0  0  0  0  0  0           0  0  0
   10.1366  -20.6790    0.0000 C   0  0  3  0  0  0           0  0  0
   10.1321  -19.8542    0.0000 N   0  0  0  0  0  0           0  0  0
   10.8443  -19.4377    0.0000 C   0  0  0  0  0  0           0  0  0
   10.8398  -18.6128    0.0000 O   0  0  0  0  0  0           0  0  0
   11.5609  -19.8463    0.0000 C   0  0  0  0  0  0           0  0  0
   12.2730  -19.4299    0.0000 C   0  0  0  0  0  0           0  0  0
   12.9896  -19.8385    0.0000 C   0  0  0  0  0  0           0  0  0
   13.7018  -19.4220    0.0000 C   0  0  0  0  0  0           0  0  0
   14.4185  -19.8306    0.0000 C   0  0  0  0  0  0           0  0  0
   15.1306  -19.4142    0.0000 N   0  0  3  0  0  0           0  0  0
   15.8421  -19.8258    0.0000 C   0  0  0  0  0  0           0  0  0
   16.5521  -19.4129    0.0000 C   0  0  0  0  0  0           0  0  0
   16.5519  -18.5876    0.0000 N   0  0  3  0  0  0           0  0  0
   15.8354  -18.1768    0.0000 C   0  0  0  0  0  0           0  0  0
   15.1191  -18.5914    0.0000 C   0  0  0  0  0  0           0  0  0
   17.2655  -18.1739    0.0000 C   0  0  0  0  0  0           0  0  0
   17.9794  -18.5882    0.0000 C   0  0  0  0  0  0           0  0  0
   18.6926  -18.1752    0.0000 C   0  0  0  0  0  0           0  0  0
   18.6916  -17.3494    0.0000 C   0  0  0  0  0  0           0  0  0
   17.9715  -16.9384    0.0000 C   0  0  0  0  0  0           0  0  0
   17.2612  -17.3537    0.0000 C   0  0  0  0  0  0           0  0  0
   16.5446  -16.9452    0.0000 C   0  0  0  0  0  0           0  0  0
   16.5401  -16.1202    0.0000 O   0  0  0  0  0  0           0  0  0
   15.8324  -17.3615    0.0000 C   0  0  0  0  0  0           0  0  0
 15 16  1  0     0  0
  4  1  1  0     0  0
 16 17  1  0     0  0
  5 10  1  0     0  0
 17 18  1  0     0  0
  6  7  1  0     0  0
 18 19  1  0     0  0
 19 20  1  0     0  0
  7  8  1  0     0  0
  8  9  1  0     0  0
  9 10  1  0     0  0
  5  6  1  0     0  0
 10 11  1  0     0  0
 19 24  1  0     0  0
 20 21  1  0     0  0
 21 22  1  0     0  0
 22 23  1  0     0  0
 23 24  1  0     0  0
 22 25  1  0     0  0
 11 12  1  0     0  0
 25 26  2  0     0  0
  2  3  1  0     0  0
 26 27  1  0     0  0
 12 13  2  0     0  0
 27 28  2  0     0  0
  3  6  2  0     0  0
 28 29  1  0     0  0
 12 14  1  0     0  0
 29 30  2  0     0  0
 30 25  1  0     0  0
  1  2  2  0     0  0
 30 31  1  0     0  0
 14 15  1  0     0  0
 31 32  2  0     0  0
  5  4  2  0     0  0
 31 33  1  0     0  0
M  END