
          11280715362D 1   1.00000     0.00000     0

 30 33  0     0  0            999 V2000
    2.1000  -19.0292    0.0000 N   0  0  0  0  0  0           0  0  0
    2.1042  -19.8625    0.0000 C   0  0  0  0  0  0           0  0  0
    0.6750  -19.0417    0.0000 C   0  0  0  0  0  0           0  0  0
    1.3792  -18.6250    0.0000 C   0  0  0  0  0  0           0  0  0
    0.6750  -19.8667    0.0000 C   0  0  0  0  0  0           0  0  0
    1.3917  -20.2792    0.0000 N   0  0  0  0  0  0           0  0  0
    4.9625  -21.5042    0.0000 C   0  0  0  0  0  0           0  0  0
   -0.0458  -18.6292    0.0000 C   0  0  0  0  0  0           0  0  0
    4.2417  -21.0917    0.0000 N   0  0  0  0  0  0           0  0  0
    5.6750  -21.0917    0.0000 C   0  0  0  0  0  0           0  0  0
   -0.0458  -20.2792    0.0000 C   0  0  0  0  0  0           0  0  0
    2.8167  -20.2667    0.0000 N   0  0  0  0  0  0           0  0  0
   -0.7583  -19.0417    0.0000 C   0  0  0  0  0  0           0  0  0
   -0.7583  -19.8667    0.0000 C   0  0  0  0  0  0           0  0  0
    3.5375  -21.5042    0.0000 C   0  0  3  0  0  0           0  0  0
    2.8167  -21.0917    0.0000 C   0  0  3  0  0  0           0  0  0
    6.4292  -21.4250    0.0000 O   0  0  0  0  0  0           0  0  0
    4.9625  -22.3292    0.0000 O   0  0  0  0  0  0           0  0  0
    5.7542  -20.2667    0.0000 C   0  0  0  0  0  0           0  0  0
    6.9792  -20.8125    0.0000 C   0  0  0  0  0  0           0  0  0
    6.5667  -20.0917    0.0000 C   0  0  0  0  0  0           0  0  0
    1.3792  -17.8000    0.0000 N   0  0  0  0  0  0           0  0  0
   -1.4708  -18.6292    0.0000 O   0  0  0  0  0  0           0  0  0
   -1.4708  -20.2792    0.0000 O   0  0  0  0  0  0           0  0  0
    3.5292  -22.3292    0.0000 C   0  0  0  0  0  0           0  0  0
    2.1042  -21.5042    0.0000 C   0  0  0  0  0  0           0  0  0
   -2.1833  -19.8667    0.0000 C   0  0  0  0  0  0           0  0  0
   -2.1833  -19.0417    0.0000 C   0  0  0  0  0  0           0  0  0
    2.1042  -22.3292    0.0000 C   0  0  0  0  0  0           0  0  0
    2.8167  -22.7417    0.0000 C   0  0  0  0  0  0           0  0  0
  2  1  1  0     0  0
  3  4  1  0     0  0
  4  1  2  0     0  0
  5  3  1  0     0  0
  6  2  2  0     0  0
  7  9  1  0     0  0
  8  3  2  0     0  0
 15  9  1  0     0  0
 10  7  1  0     0  0
 11  5  2  0     0  0
 12  2  1  0     0  0
 13  8  1  0     0  0
 14 13  2  0     0  0
 15 16  1  0     0  0
 12 16  1  0     0  0
 17 10  1  0     0  0
 18  7  2  0     0  0
 19 10  2  0     0  0
 20 17  1  0     0  0
 21 19  1  0     0  0
 22  4  1  0     0  0
 23 13  1  0     0  0
 24 14  1  0     0  0
 25 15  1  0     0  0
 26 16  1  0     0  0
 27 24  1  0     0  0
 28 23  1  0     0  0
 29 26  1  0     0  0
 30 29  1  0     0  0
  6  5  1  0     0  0
 14 11  1  0     0  0
 30 25  1  0     0  0
 21 20  2  0     0  0
M  END