
          11280715502D 1   1.00000     0.00000     0

 20 21  0     0  0            999 V2000
   10.8572  -19.8901    0.0000 C   0  0  0  0  0  0           0  0  0
   10.8560  -20.7185    0.0000 C   0  0  0  0  0  0           0  0  0
   11.5718  -21.1319    0.0000 C   0  0  0  0  0  0           0  0  0
   12.2890  -20.7180    0.0000 C   0  0  0  0  0  0           0  0  0
   12.2861  -19.8865    0.0000 C   0  0  0  0  0  0           0  0  0
   11.5700  -19.4769    0.0000 C   0  0  0  0  0  0           0  0  0
   11.5675  -18.6509    0.0000 O   0  0  0  0  0  0           0  0  0
   12.2770  -18.2298    0.0000 C   0  0  0  0  0  0           0  0  0
   12.9904  -18.6428    0.0000 C   0  0  0  0  0  0           0  0  0
   11.5716  -21.9579    0.0000 C   0  0  0  0  0  0           0  0  0
   12.2812  -22.3681    0.0000 N   0  0  3  0  0  0           0  0  0
   13.7037  -18.2257    0.0000 C   0  0  0  0  0  0           0  0  0
   14.4170  -18.6387    0.0000 N   0  0  3  0  0  0           0  0  0
   12.2787  -23.1888    0.0000 C   0  0  0  0  0  0           0  0  0
   12.9842  -23.5990    0.0000 C   0  0  0  0  0  0           0  0  0
   13.6969  -23.1930    0.0000 C   0  0  0  0  0  0           0  0  0
   13.6993  -22.3723    0.0000 C   0  0  0  0  0  0           0  0  0
   12.9893  -21.9577    0.0000 C   0  0  0  0  0  0           0  0  0
   14.4140  -19.4639    0.0000 C   0  0  0  0  0  0           0  0  0
   15.1293  -18.2263    0.0000 C   0  0  0  0  0  0           0  0  0
  3 10  1  0     0  0
  2  3  1  0     0  0
 10 11  1  0     0  0
  5  6  2  0     0  0
  9 12  1  0     0  0
  6  1  1  0     0  0
 12 13  1  0     0  0
 11 14  1  0     0  0
  1  2  2  0     0  0
  6  7  1  0     0  0
  3  4  2  0     0  0
  7  8  1  0     0  0
 11 18  1  0     0  0
 14 15  1  0     0  0
 15 16  1  0     0  0
 16 17  1  0     0  0
 17 18  1  0     0  0
 13 19  1  0     0  0
  8  9  1  0     0  0
  4  5  1  0     0  0
 13 20  1  0     0  0
M  END