
  CDK    9/16/09,9:52

 38 42  0  0  0  0  0  0  0  0999 V2000
   -1.6503  -22.0860    0.0000 C   0  0  0  0  0  0  0  0  0  0  0  0
   -0.9338  -21.6727    0.0000 C   0  0  0  0  0  0  0  0  0  0  0  0
   -0.9367  -20.8422    0.0000 C   0  0  0  0  0  0  0  0  0  0  0  0
   -1.6521  -20.4330    0.0000 C   0  0  0  0  0  0  0  0  0  0  0  0
   -2.3651  -21.6732    0.0000 C   0  0  0  0  0  0  0  0  0  0  0  0
   -2.3685  -20.8443    0.0000 C   0  0  0  0  0  0  0  0  0  0  0  0
   -0.2238  -20.4270    0.0000 C   0  0  0  0  0  0  0  0  0  0  0  0
    0.4922  -20.8368    0.0000 N   0  0  0  0  0  0  0  0  0  0  0  0
   -0.2269  -19.6020    0.0000 O   0  0  0  0  0  0  0  0  0  0  0  0
    1.2052  -20.4216    0.0000 C   0  0  0  0  0  0  0  0  0  0  0  0
    1.9212  -20.8314    0.0000 C   0  0  0  0  0  0  0  0  0  0  0  0
    1.9212  -21.6553    0.0000 C   0  0  0  0  0  0  0  0  0  0  0  0
    2.6363  -22.0650    0.0000 C   0  0  0  0  0  0  0  0  0  0  0  0
    3.3502  -21.6497    0.0000 C   0  0  0  0  0  0  0  0  0  0  0  0
    3.3445  -20.8205    0.0000 C   0  0  0  0  0  0  0  0  0  0  0  0
    2.6287  -20.4145    0.0000 C   0  0  0  0  0  0  0  0  0  0  0  0
    4.0519  -20.4041    0.0000 C   0  0  0  0  0  0  0  0  0  0  0  0
    4.7697  -20.8131    0.0000 C   0  0  0  0  0  0  0  0  0  0  0  0
    5.4806  -20.3961    0.0000 C   0  0  0  0  0  0  0  0  0  0  0  0
    5.4750  -19.5703    0.0000 C   0  0  0  0  0  0  0  0  0  0  0  0
    4.7526  -19.1632    0.0000 C   0  0  0  0  0  0  0  0  0  0  0  0
    4.0446  -19.5826    0.0000 C   0  0  0  0  0  0  0  0  0  0  0  0
    6.1979  -20.8038    0.0000 C   0  0  0  0  0  0  0  0  0  0  0  0
    6.9095  -20.3864    0.0000 N   0  0  0  0  0  0  0  0  0  0  0  0
    7.6231  -20.7957    0.0000 C   0  0  0  0  0  0  0  0  0  0  0  0
    8.3326  -20.3818    0.0000 C   0  0  0  0  0  0  0  0  0  0  0  0
    8.3313  -19.5565    0.0000 N   0  0  0  0  0  0  0  0  0  0  0  0
    7.6141  -19.1467    0.0000 C   0  0  0  0  0  0  0  0  0  0  0  0
    6.8984  -19.5622    0.0000 C   0  0  0  0  0  0  0  0  0  0  0  0
    4.0668  -22.0586    0.0000 F   0  0  0  0  0  0  0  0  0  0  0  0
    9.0483  -20.7922    0.0000 C   0  0  0  0  0  0  0  0  0  0  0  0
   -3.0833  -20.4323    0.0000 C   0  0  0  0  0  0  0  0  0  0  0  0
   -3.7974  -20.8454    0.0000 N   0  0  0  0  0  0  0  0  0  0  0  0
   -4.5094  -20.4348    0.0000 C   0  0  0  0  0  0  0  0  0  0  0  0
   -5.2214  -20.8444    0.0000 C   0  0  0  0  0  0  0  0  0  0  0  0
   -5.2250  -21.6697    0.0000 N   0  0  0  0  0  0  0  0  0  0  0  0
   -4.5103  -22.0839    0.0000 C   0  0  0  0  0  0  0  0  0  0  0  0
   -3.7921  -21.6726    0.0000 C   0  0  0  0  0  0  0  0  0  0  0  0
 18 19  1  0  0  0  0 
  4  6  1  0  0  0  0 
 19 20  2  0  0  0  0 
  8 10  1  0  0  0  0 
 20 21  1  0  0  0  0 
  5  6  2  0  0  0  0 
 21 22  2  0  0  0  0 
 22 17  1  0  0  0  0 
 15 17  1  0  0  0  0 
 10 11  1  0  0  0  0 
 19 23  1  0  0  0  0 
  1  2  2  0  0  0  0 
 23 24  1  0  0  0  0 
 24 25  1  0  0  0  0 
 11 12  2  0  0  0  0 
  5  1  1  0  0  0  0 
 12 13  1  0  0  0  0 
  2  3  1  0  0  0  0 
 13 14  2  0  0  0  0 
 24 29  1  0  0  0  0 
 25 26  1  0  0  0  0 
 26 27  1  0  0  0  0 
 27 28  1  0  0  0  0 
 28 29  1  0  0  0  0 
  3  7  1  0  0  0  0 
 14 30  1  0  0  0  0 
 14 15  1  0  0  0  0 
 26 31  1  1  0  0  0 
  6 32  1  0  0  0  0 
 15 16  2  0  0  0  0 
 32 33  1  0  0  0  0 
 33 34  1  0  0  0  0 
 16 11  1  0  0  0  0 
  7  8  1  0  0  0  0 
  3  4  2  0  0  0  0 
 17 18  2  0  0  0  0 
  7  9  2  0  0  0  0 
 33 38  1  0  0  0  0 
 34 35  1  0  0  0  0 
 35 36  1  0  0  0  0 
 36 37  1  0  0  0  0 
 37 38  1  0  0  0  0 
M  END