
  SciTegic10311217562D

 42 40  0  0  0  0            999 V2000
   -0.8041   -1.7792    0.0000 C   0  0  2  0  0  0
   -0.8041   -2.6042    0.0000 C   0  0  1  0  0  0
   -0.0921   -3.0125    0.0000 C   0  0  2  0  0  0
    0.6199   -2.6042    0.0000 O   0  0
    0.6199   -1.7792    0.0000 C   0  0  1  0  0  0
   -0.0921   -1.3625    0.0000 C   0  0  1  0  0  0
    1.3356   -1.3688    0.0000 C   0  0
   -1.5198   -1.3688    0.0000 O   0  0
   -1.5180   -3.0177    0.0000 O   0  0
   -0.0921   -0.5375    0.0000 O   0  0
   -0.0921   -3.8375    0.0000 O   0  0
    2.0488   -1.7834    0.0000 N   0  0
    0.6224   -4.2500    0.0000 C   0  0
    2.7645   -1.3729    0.0000 C   0  0
    3.4778   -1.7875    0.0000 C   0  0
    2.7669   -0.5480    0.0000 O   0  0
    4.1935   -1.3771    0.0000 N   0  0
    4.9067   -1.7917    0.0000 C   0  0
    5.6224   -1.3813    0.0000 O   0  0
   -0.8066   -0.1250    0.0000 S   0  0
   -1.5211   -0.5375    0.0000 O   0  5
   -1.2250    0.5917    0.0000 O   0  0
   -0.4000    0.5917    0.0000 O   0  0
   -2.2331   -1.7834    0.0000 S   0  0
   -2.9487   -1.3729    0.0000 O   0  5
   -2.6500   -2.4958    0.0000 O   0  0
   -1.8250   -2.4958    0.0000 O   0  0
   -1.5168   -3.8427    0.0000 S   0  0
   -2.2307   -4.2562    0.0000 O   0  5
   -0.6958   -3.8417    0.0000 O   0  0
   -1.1125   -4.5542    0.0000 O   0  0
    4.9043   -2.6167    0.0000 C   0  0
    5.6176   -3.0313    0.0000 C   0  0
    5.6115   -3.8552    0.0000 C   0  0
    6.3239   -4.2697    0.0000 C   0  0
    7.0406   -3.8593    0.0000 C   0  0
    7.0404   -3.0300    0.0000 C   0  0
    6.3274   -2.6192    0.0000 C   0  0
    7.7546   -2.6171    0.0000 Cl  0  0
   -4.0917   -1.2792    0.0000 Na  0  3
   -3.4375   -4.2458    0.0000 Na  0  3
   -4.0917    0.0958    0.0000 Na  0  3
 20 21  1  0
  3  4  1  0
  3 11  1  6
 20 22  2  0
  4  5  1  0
 20 23  2  0
  7 12  1  0
  8 24  1  0
  5  6  1  0
 24 25  1  0
 11 13  1  0
 24 26  2  0
 24 27  2  0
 12 14  1  0
  5  7  1  1
  9 28  1  0
 14 15  1  0
 28 29  1  0
  1  2  1  0
 28 30  2  0
 14 16  2  0
 28 31  2  0
  1  8  1  1
 15 17  1  0
 18 32  1  0
  1  6  1  0
 32 33  1  0
 17 18  1  0
 33 34  2  0
  2  9  1  1
 34 35  1  0
 18 19  2  0
 35 36  2  0
  2  3  1  0
 36 37  1  0
 10 20  1  0
 37 38  2  0
 38 33  1  0
  6 10  1  6
 37 39  1  0
M  CHG  6  21  -1  25  -1  29  -1  40   1  41   1  42   1
M  END