
  SciTegic11201309402D

 80 84  0  0  1  0            999 V2000
    6.9775   -5.8153    0.0000 N   0  0
    6.1735   -5.9903    0.0000 C   0  0
    4.3990   -0.8290    0.0000 N   0  0
    5.6154   -5.3779    0.0000 C   0  0  1  0  0  0
    5.8111   -1.6538    0.0000 C   0  0
    6.1360   -4.7406    0.0000 N   0  0
    6.2610   -2.3411    0.0000 N   0  0
    2.0787   -1.4539    0.0000 N   0  0
    3.5741   -0.7915    0.0000 C   0  0
    6.4360   -3.9658    0.0000 C   0  0
    1.5621   -2.1037    0.0000 C   0  0
    7.5107   -7.1900    0.0000 C   0  0
    5.1738   -1.1289    0.0000 C   0  0  2  0  0  0
    6.4777   -3.1410    0.0000 C   0  0  2  0  0  0
    1.2247   -3.6908    0.0000 N   0  0
    7.5899   -6.3652    0.0000 C   0  0  2  0  0  0
    2.7743   -1.0040    0.0000 C   0  0  2  0  0  0
    1.4372   -4.4906    0.0000 C   0  0
    1.2622   -2.8660    0.0000 C   0  0  2  0  0  0
    8.1773   -7.6774    0.0000 N   0  0
    7.2983   -3.0535    0.0000 C   0  0
   10.0976   -3.9033    0.0000 C   0  0
    1.8871   -5.1905    0.0000 C   0  0
    4.1240   -6.0403    0.0000 S   0  0
    9.6519   -7.7399    0.0000 C   0  0
    3.3242   -6.0528    0.0000 S   0  0
    7.8856   -3.6408    0.0000 C   0  0
    2.5244   -5.7028    0.0000 C   0  0
    8.9354   -7.3275    0.0000 C   0  0  2  0  0  0
    5.9111   -6.7776    0.0000 O   0  0
   10.1851   -4.7281    0.0000 N   0  0
    6.4277   -1.0914    0.0000 O   0  0
    4.9238   -5.8278    0.0000 C   0  0
    6.7609   -7.5274    0.0000 O   0  0
    3.4242   -0.1792    0.0000 O   0  0
    7.2400   -4.1407    0.0000 O   0  0
    0.8415   -1.6788    0.0000 O   0  0
    0.4541   -2.6911    0.0000 C   0  0
    2.4369   -0.2541    0.0000 C   0  0
    0.6748   -4.8281    0.0000 O   0  0
    9.6602   -8.5647    0.0000 O   0  0
    7.6982   -4.2532    0.0000 O   0  0
   10.3642   -7.3275    0.0000 N   0  0
   10.9388   -3.7426    0.0000 N   0  0
    9.7665   -3.1507    0.0000 N   0  0
    5.5862   -0.4166    0.0000 C   0  0  2  0  0  0
    7.3150   -5.0655    0.0000 C   0  0
    8.6979   -3.5534    0.0000 N   0  0
   -0.2624   -3.1035    0.0000 C   0  0
   -1.6996   -3.9158    0.0000 C   0  0
    2.9243    0.4207    0.0000 C   0  0
   -0.2624   -3.9283    0.0000 C   0  0
   -0.9748   -2.6786    0.0000 C   0  0
   12.5012   -7.5774    0.0000 N   0  0
   -1.6871   -3.0910    0.0000 C   0  0
   -0.9831   -4.3282    0.0000 C   0  0
    8.3105   -5.9528    0.0000 C   0  0
   -2.4119   -4.3282    0.0000 O   0  0
    8.1356   -5.1530    0.0000 C   0  0
    9.5144   -5.2030    0.0000 C   0  0
    2.9993   -6.3277    0.0000 C   0  0
    1.7538   -5.6029    0.0000 C   0  0
    8.9271   -6.5027    0.0000 C   0  0
   11.0849   -7.7274    0.0000 C   0  0
   11.7472   -7.2525    0.0000 C   0  0
    6.4110   -0.4166    0.0000 C   0  0
    5.1738    0.3082    0.0000 C   0  0
   -2.4202   -5.1530    0.0000 C   0  0
    3.7491    0.3332    0.0000 C   0  0
    2.5869    1.1705    0.0000 C   0  0
    9.5977   -6.0278    0.0000 C   0  0
    6.8234    0.2957    0.0000 C   0  0
   -1.7079   -5.5654    0.0000 C   0  0
    1.3414   -6.3277    0.0000 C   0  0
    2.5786   -7.0400    0.0000 C   0  0
    3.0743    1.8454    0.0000 C   0  0
    4.2282    1.0081    0.0000 C   0  0
    3.8908    1.7579    0.0000 C   0  0
    1.7538   -7.0400    0.0000 C   0  0
    4.8419   -0.1856    0.0000 H   0  0
  2  1  1  0
  3 13  1  0
  4  2  1  6
  5  7  1  0
  6  4  1  0
  7 14  1  0
  8 11  1  0
  9  3  1  0
 10  6  1  0
 11 19  1  0
 16 12  1  1
 13  5  1  0
 14 10  1  0
 15 18  1  0
 16  1  1  0
 17  9  1  0
 18 23  1  0
 19 15  1  0
 20 12  1  0
 14 21  1  1
 22 31  2  0
 23 28  1  0
 24 33  1  0
 25 29  1  0
 26 24  1  0
 27 21  1  0
 28 26  1  0
 29 20  1  1
 30  2  2  0
 31 60  1  0
 32  5  2  0
  4 33  1  0
 34 12  2  0
 35  9  2  0
 36 10  2  0
 37 11  2  0
 19 38  1  6
 17 39  1  1
 40 18  2  0
 41 25  2  0
 42 27  2  0
 43 25  1  0
 44 22  1  0
 45 22  1  0
 13 46  1  0
 47  1  1  0
 48 27  1  0
 49 38  1  0
 50 55  2  0
 51 39  1  0
 52 49  1  0
 53 49  2  0
 54 65  1  0
 55 53  1  0
 56 52  2  0
 57 16  1  0
 58 50  1  0
 59 47  1  0
 60 71  1  0
 61 28  1  0
 62 28  1  0
 29 63  1  0
 64 43  1  0
 65 64  1  0
 66 46  1  0
 46 67  1  1
 68 58  1  0
 69 51  1  0
 70 51  2  0
 71 63  1  0
 72 66  1  0
 73 68  1  0
 74 62  1  0
 75 61  1  0
 76 70  1  0
 77 69  2  0
 78 76  2  0
 79 74  1  0
 57 59  1  0
 75 79  1  0
  8 17  1  0
 56 50  1  0
 77 78  1  0
 13 80  1  6
M  END