
          11280715322D 1   1.00000     0.00000     0

 31 34  0     0  0            999 V2000
    5.9917   -3.4792    0.0000 C   0  0  0  0  0  0           0  0  0
    5.4667   -3.7792    0.0000 N   0  0  3  0  0  0           0  0  0
    5.9875   -2.8792    0.0000 C   0  0  0  0  0  0           0  0  0
    4.9542   -3.4792    0.0000 C   0  0  0  0  0  0           0  0  0
    4.9542   -2.8792    0.0000 N   0  0  3  0  0  0           0  0  0
    6.5625   -3.6625    0.0000 N   0  0  0  0  0  0           0  0  0
    5.4667   -2.5792    0.0000 C   0  0  0  0  0  0           0  0  0
    6.5542   -2.6917    0.0000 N   0  0  0  0  0  0           0  0  0
    6.9167   -3.1750    0.0000 C   0  0  0  0  0  0           0  0  0
    3.3875   -5.5667    0.0000 S   0  0  3  0  0  0           0  0  0
    5.4667   -4.3792    0.0000 C   0  0  0  0  0  0           0  0  0
    3.9042   -5.2667    0.0000 C   0  0  0  0  0  0           0  0  0
    4.4292   -3.7792    0.0000 O   0  0  0  0  0  0           0  0  0
    3.3792   -6.1667    0.0000 O   0  0  0  0  0  0           0  0  0
    2.8750   -5.2667    0.0000 O   0  0  0  0  0  0           0  0  0
    5.4667   -1.9792    0.0000 O   0  0  0  0  0  0           0  0  0
    2.8667   -5.8625    0.0000 F   0  0  0  0  0  0           0  0  0
    7.5167   -3.1667    0.0000 C   0  0  3  0  0  0           0  0  0
    4.4292   -2.5792    0.0000 C   0  0  0  0  0  0           0  0  0
    3.9167   -4.6667    0.0000 C   0  0  0  0  0  0           0  0  0
    4.4292   -5.5667    0.0000 C   0  0  0  0  0  0           0  0  0
    4.9500   -4.6750    0.0000 C   0  0  0  0  0  0           0  0  0
    4.4292   -4.3750    0.0000 C   0  0  0  0  0  0           0  0  0
    4.9500   -5.2750    0.0000 C   0  0  0  0  0  0           0  0  0
    7.8167   -3.6875    0.0000 C   0  0  0  0  0  0           0  0  0
    7.8042   -2.6500    0.0000 C   0  0  0  0  0  0           0  0  0
    4.4292   -1.9792    0.0000 C   0  0  0  0  0  0           0  0  0
    3.9042   -1.6792    0.0000 C   0  0  0  0  0  0           0  0  0
    8.4125   -2.6417    0.0000 C   0  0  0  0  0  0           0  0  0
    8.4167   -3.6792    0.0000 C   0  0  0  0  0  0           0  0  0
    8.7125   -3.1667    0.0000 C   0  0  0  0  0  0           0  0  0
  2  1  1  0     0  0
  3  1  2  0     0  0
  4  2  1  0     0  0
  5  7  1  0     0  0
  6  1  1  0     0  0
  7  3  1  0     0  0
  8  3  1  0     0  0
  9  6  1  0     0  0
 10 12  1  0     0  0
 11  2  1  0     0  0
 12 21  1  0     0  0
 13  4  2  0     0  0
 14 10  2  0     0  0
 15 10  2  0     0  0
 16  7  2  0     0  0
 17 10  1  0     0  0
 18  9  1  0     0  0
 19  5  1  0     0  0
 20 23  1  0     0  0
 21 24  2  0     0  0
 22 11  1  0     0  0
 23 22  2  0     0  0
 24 22  1  0     0  0
 25 18  1  0     0  0
 26 18  1  0     0  0
 27 19  1  0     0  0
 28 27  1  0     0  0
 29 26  1  0     0  0
 30 25  1  0     0  0
 31 29  1  0     0  0
  8  9  2  0     0  0
  4  5  1  0     0  0
 12 20  2  0     0  0
 31 30  1  0     0  0
M  END