
          11280715252D 1   1.00000     0.00000     0

 17 18  0     0  0            999 V2000
    0.6542   -2.5542    0.0000 N   0  3  0  0  0  0           0  0  0
    6.0000   -3.2750    0.0000 N   0  0  3  0  0  0           0  0  0
   -0.1708   -2.5500    0.0000 N   0  5  0  0  0  0           0  0  0
    7.2417   -3.7500    0.0000 N   0  0  0  0  0  0           0  0  0
    4.7625   -2.5625    0.0000 C   0  0  0  0  0  0           0  0  0
    6.4417   -3.9625    0.0000 C   0  0  0  0  0  0           0  0  0
    1.4792   -2.5500    0.0000 N   0  0  0  0  0  0           0  0  0
    5.1750   -3.2750    0.0000 C   0  0  0  0  0  0           0  0  0
    3.9375   -2.5625    0.0000 C   0  0  0  0  0  0           0  0  0
    7.2875   -2.9250    0.0000 C   0  0  0  0  0  0           0  0  0
    6.5167   -2.6292    0.0000 C   0  0  0  0  0  0           0  0  0
    5.1750   -1.8500    0.0000 O   0  0  0  0  0  0           0  0  0
    3.5250   -3.2667    0.0000 C   0  0  0  0  0  0           0  0  0
    3.5250   -1.8500    0.0000 C   0  0  0  0  0  0           0  0  0
    2.3042   -2.5542    0.0000 C   0  0  0  0  0  0           0  0  0
    2.7042   -3.2667    0.0000 C   0  0  0  0  0  0           0  0  0
    2.7125   -1.8500    0.0000 C   0  0  0  0  0  0           0  0  0
  2  8  1  0     0  0
  3  1  2  0     0  0
  4  6  2  0     0  0
  5  9  1  0     0  0
  6  2  1  0     0  0
  7  1  2  0     0  0
  8  5  1  0     0  0
  9 14  1  0     0  0
 10 11  2  0     0  0
 11  2  1  0     0  0
 12  5  2  0     0  0
 13 16  1  0     0  0
 14 17  2  0     0  0
 15  7  1  0     0  0
 16 15  2  0     0  0
 17 15  1  0     0  0
 13  9  2  0     0  0
  4 10  1  0     0  0
M  CHG  2   1   1   3  -1
M  END