
  SciTegic02271515072D

 28 31  0  0  0  0            999 V2000
    7.0561  -21.3047    0.0000 C   0  0
    7.0550  -22.1243    0.0000 C   0  0
    7.7630  -22.5332    0.0000 N   0  0
    7.7613  -20.8959    0.0000 N   0  0
    8.4699  -21.3011    0.0000 C   0  0
    8.4701  -22.1243    0.0000 C   0  0
    9.2531  -22.3785    0.0000 S   0  0
    9.7368  -21.7123    0.0000 C   0  0
    9.2527  -21.0466    0.0000 C   0  0
    8.9580  -19.6622    0.0000 C   0  0
    8.1587  -19.8323    0.0000 O   0  0
    6.3523  -20.8921    0.0000 C   0  0
    6.3611  -20.0752    0.0000 C   0  0
    5.6581  -19.6627    0.0000 C   0  0
    4.9479  -20.0659    0.0000 C   0  0
    4.9450  -20.8860    0.0000 C   0  0
    5.6486  -21.2948    0.0000 C   0  0
    4.2424  -19.6535    0.0000 O   0  0
    4.2360  -21.2923    0.0000 O   0  0
    3.5296  -20.8815    0.0000 C   0  0
    3.5325  -20.0583    0.0000 C   0  0
    9.5745  -20.2493    0.0000 N   0  0
    9.1831  -18.8160    0.0000 C   0  0
   10.0300  -18.5897    0.0000 C   0  0
   10.2561  -17.7478    0.0000 C   0  0
    9.6388  -17.1263    0.0000 C   0  0
    8.7920  -17.3526    0.0000 C   0  0
    8.5624  -18.2005    0.0000 C   0  0
  1  2  2  0
  2  3  1  0
  3  6  2  0
  5  4  2  0
  4  1  1  0
  5  6  1  0
  6  7  1  0
  7  8  1  0
  8  9  2  0
  9  5  1  0
  9 22  1  0
 22 10  1  0
 23 10  1  0
 10 11  2  0
  1 12  1  0
 12 13  2  0
 13 14  1  0
 14 15  2  0
 15 16  1  0
 16 17  2  0
 17 12  1  0
 15 18  1  0
 16 19  1  0
 19 20  1  0
 18 21  1  0
 23 24  1  0
 23 28  1  0
 24 25  1  0
 25 26  1  0
 26 27  1  0
 27 28  1  0
M  END