
  SciTegic01161211222D

 18 20  0  0  0  0            999 V2000
   -5.3049  -20.2791    0.0000 C   0  0
   -5.3059  -21.1038    0.0000 C   0  0
   -4.5935  -21.5152    0.0000 C   0  0
   -4.5953  -19.8676    0.0000 C   0  0
   -3.8822  -20.2755    0.0000 C   0  0
   -3.8788  -21.1058    0.0000 C   0  0
   -3.1620  -21.5157    0.0000 C   0  0
   -2.4440  -21.0999    0.0000 C   0  0
   -3.1725  -19.8529    0.0000 C   0  0  1  0  0  0
   -2.4470  -20.2715    0.0000 C   0  0  2  0  0  0
   -2.0283  -19.5460    0.0000 N   0  0
   -2.7538  -19.1274    0.0000 C   0  0
   -1.2341  -19.3329    0.0000 C   0  0
   -0.6525  -19.9142    0.0000 C   0  0
    0.1417  -19.7012    0.0000 C   0  0
   -1.7401  -20.6820    0.0000 H   0  0
   -3.8872  -19.4403    0.0000 H   0  0
   -4.5978  -19.0454    0.0000 O   0  0
  8 10  1  0
  9 10  1  0
  5  4  2  0
  4  1  1  0
  5  6  1  0
 10 11  1  0
 11 12  1  0
 12  9  1  0
  2  3  1  0
 11 13  1  0
  3  6  2  0
 13 14  1  0
  1  2  2  0
 14 15  2  0
  5  9  1  0
 10 16  1  1
  6  7  1  0
  9 17  1  1
  7  8  1  0
  4 18  1  0
M  END