
          11280714572D 1   1.00000     0.00000     0

 13 14  0     0  0            999 V2000
    2.0000   -4.9417    0.0000 C   0  0  0  0  0  0           0  0  0
    2.5167   -5.2417    0.0000 N   0  0  3  0  0  0           0  0  0
    1.4792   -5.2417    0.0000 N   0  0  0  0  0  0           0  0  0
    2.0000   -4.3417    0.0000 C   0  0  0  0  0  0           0  0  0
    3.5542   -5.8417    0.0000 N   0  0  0  0  0  0           0  0  0
    2.5167   -4.0375    0.0000 F   0  0  0  0  0  0           0  0  0
    3.0375   -4.9417    0.0000 C   0  0  0  0  0  0           0  0  0
    2.5167   -5.8417    0.0000 C   0  0  0  0  0  0           0  0  0
    3.0375   -6.1417    0.0000 C   0  0  0  0  0  0           0  0  0
    3.5542   -5.2417    0.0000 C   0  0  0  0  0  0           0  0  0
    0.9625   -4.9417    0.0000 C   0  0  0  0  0  0           0  0  0
    1.4792   -4.0417    0.0000 C   0  0  0  0  0  0           0  0  0
    0.9625   -4.3417    0.0000 C   0  0  0  0  0  0           0  0  0
  2  1  1  0     0  0
  3  1  2  0     0  0
  4  1  1  0     0  0
  5  9  1  0     0  0
  6  4  1  0     0  0
  7  2  1  0     0  0
  8  2  1  0     0  0
  9  8  1  0     0  0
 10  7  1  0     0  0
 11  3  1  0     0  0
 12  4  2  0     0  0
 13 12  1  0     0  0
 11 13  2  0     0  0
  5 10  1  0     0  0
M  END