
          01230816042D 1   1.00000     0.00000     0

 51 57  0     1  0            999 V2000
    6.4152   -4.0666    0.0000 C   0  0  0  0  0  0           0  0  0
    6.4141   -4.8940    0.0000 C   0  0  0  0  0  0           0  0  0
    7.1289   -5.3069    0.0000 C   0  0  0  0  0  0           0  0  0
    7.1271   -3.6539    0.0000 C   0  0  0  0  0  0           0  0  0
    7.8425   -4.0630    0.0000 C   0  0  0  0  0  0           0  0  0
    7.8459   -4.8961    0.0000 C   0  0  0  0  0  0           0  0  0
    8.5651   -5.3074    0.0000 C   0  0  0  0  0  0           0  0  0
    9.2855   -4.8902    0.0000 C   0  0  0  0  0  0           0  0  0
    7.3458   -6.0583    0.0000 N   0  0  0  0  0  0           0  0  0
    8.3458   -6.1000    0.0000 C   0  0  0  0  0  0           0  0  0
    8.5582   -3.6412    0.0000 C   0  0  0  0  0  0           0  0  0
    9.2840   -4.0565    0.0000 C   0  0  2  0  0  0           0  0  0
   10.0025   -3.6380    0.0000 N   0  0  3  0  0  0           0  0  0
   10.0016   -2.8025    0.0000 C   0  0  0  0  0  0           0  0  0
    9.2759   -2.3872    0.0000 C   0  0  1  0  0  0           0  0  0
    8.5511   -2.8074    0.0000 C   0  0  0  0  0  0           0  0  0
   10.7180   -4.0488    0.0000 C   0  0  0  0  0  0           0  0  0
    9.2736   -1.5622    0.0000 C   0  0  0  0  0  0           0  0  0
    9.9869   -1.1477    0.0000 N   0  0  0  0  0  0           0  0  0
    8.5580   -1.1517    0.0000 O   0  0  0  0  0  0           0  0  0
    9.9846   -0.3227    0.0000 C   0  0  2  0  0  0           0  0  0
   10.6979    0.0918    0.0000 C   0  0  0  0  0  0           0  0  0
    9.2690    0.0878    0.0000 C   0  0  3  0  0  0           0  0  0
    9.2667    0.9128    0.0000 C   0  0  0  0  0  0           0  0  0
   11.4136   -0.3187    0.0000 N   0  0  0  0  0  0           0  0  0
   10.6956    0.9168    0.0000 O   0  0  0  0  0  0           0  0  0
   12.1269    0.0958    0.0000 C   0  0  2  0  0  0           0  0  0
   12.7175   -0.3772    0.0000 C   0  0  0  0  0  0           0  0  0
   12.1246    0.9208    0.0000 C   0  0  0  0  0  0           0  0  0
   12.4042   -1.1250    0.0000 O   0  0  0  0  0  0           0  0  0
   13.5197   -0.1845    0.0000 N   0  0  3  0  0  0           0  0  0
    9.9958   -4.4667    0.0000 H   0  0  0  0  0  0           0  0  0
    8.5557   -0.3267    0.0000 C   0  0  0  0  0  0           0  0  0
   12.8379    1.3353    0.0000 C   0  0  0  0  0  0           0  0  0
   12.8356    2.1603    0.0000 C   0  0  3  0  0  0           0  0  0
   13.5538    2.5725    0.0000 C   0  0  0  0  0  0           0  0  0
   13.5535    3.3939    0.0000 C   0  0  0  0  0  0           0  0  0
   12.8397    3.8083    0.0000 C   0  0  0  0  0  0           0  0  0
   12.1245    3.3950    0.0000 C   0  0  0  0  0  0           0  0  0
   12.1232    2.5674    0.0000 C   0  0  0  0  0  0           0  0  0
   14.1424   -0.7206    0.0000 C   0  0  1  0  0  0           0  0  0
   14.8458   -0.2894    0.0000 C   0  0  0  0  0  0           0  0  0
   13.8307    0.5773    0.0000 C   0  0  0  0  0  0           0  0  0
   14.6515    0.5114    0.0000 C   0  0  0  0  0  0           0  0  0
   15.1171    1.1883    0.0000 C   0  0  0  0  0  0           0  0  0
   14.7630    1.9315    0.0000 C   0  0  0  0  0  0           0  0  0
   13.9388    1.9937    0.0000 C   0  0  0  0  0  0           0  0  0
   13.4768    1.3159    0.0000 C   0  0  0  0  0  0           0  0  0
   14.0761   -1.5429    0.0000 C   0  0  0  0  0  0           0  0  0
   13.3308   -1.8967    0.0000 O   0  0  0  0  0  0           0  0  0
   14.7551   -2.0115    0.0000 N   0  0  0  0  0  0           0  0  0
 23 24  1  0     0  0
 11 12  1  0     0  0
 22 25  1  0     0  0
  5  6  1  0     0  0
 22 26  2  0     0  0
 25 27  1  0     0  0
  2  3  1  0     0  0
 27 28  1  0     0  0
  3  6  2  0     0  0
 27 29  1  1     0  0
  1  2  2  0     0  0
 28 30  2  0     0  0
  5 11  1  0     0  0
 28 31  1  0     0  0
 11 16  2  0     0  0
 12 32  1  1     0  0
 12 13  1  0     0  0
 23 33  1  0     0  0
 13 14  1  0     0  0
 29 34  1  0     0  0
 14 15  1  0     0  0
 34 35  1  0     0  0
 35 36  1  0     0  0
 15 16  1  0     0  0
  6  7  1  0     0  0
 13 17  1  0     0  0
  7  8  1  0     0  0
 15 18  1  1     0  0
 35 40  1  0     0  0
 36 37  1  0     0  0
 37 38  1  0     0  0
 38 39  1  0     0  0
 39 40  1  0     0  0
 31 41  1  0     0  0
  8 12  1  0     0  0
 18 19  1  0     0  0
 41 42  1  0     0  0
 42 44  1  0     0  0
 43 31  1  0     0  0
  5  4  2  0     0  0
 18 20  2  0     0  0
 43 44  2  0     0  0
  3  9  1  0     0  0
 44 45  1  0     0  0
 19 21  1  0     0  0
 45 46  2  0     0  0
  4  1  1  0     0  0
 46 47  1  0     0  0
 21 22  1  0     0  0
 47 48  2  0     0  0
 48 43  1  0     0  0
  7 10  2  0     0  0
 41 49  1  1     0  0
 21 23  1  1     0  0
 49 50  2  0     0  0
  9 10  1  0     0  0
 49 51  1  0     0  0
M  END