
          05080814042D 1   1.00000     0.00000     0

 41 45  0     1  0            999 V2000
   -4.2482   -8.8197    0.0000 C   0  0  0  0  0  0           0  0  0
   -4.9590   -9.2345    0.0000 C   0  0  0  0  0  0           0  0  0
   -4.9520  -10.0609    0.0000 C   0  0  0  0  0  0           0  0  0
   -4.2381  -10.4643    0.0000 C   0  0  0  0  0  0           0  0  0
   -3.5349   -9.2269    0.0000 C   0  0  0  0  0  0           0  0  0
   -3.5289  -10.0545    0.0000 C   0  0  0  0  0  0           0  0  0
   -2.8130  -10.4609    0.0000 C   0  0  0  0  0  0           0  0  0
   -2.8251   -8.8055    0.0000 C   0  0  0  0  0  0           0  0  0
   -2.1047   -9.2164    0.0000 C   0  0  2  0  0  0           0  0  0
   -2.1001  -10.0460    0.0000 C   0  0  2  0  0  0           0  0  0
   -1.3834  -10.4546    0.0000 N   0  0  3  0  0  0           0  0  0
   -0.6665  -10.0382    0.0000 C   0  0  0  0  0  0           0  0  0
   -0.6711   -9.2086    0.0000 C   0  0  1  0  0  0           0  0  0
   -1.3925   -8.7954    0.0000 C   0  0  0  0  0  0           0  0  0
   -2.1125   -8.3875    0.0000 H   0  0  0  0  0  0           0  0  0
   -2.1083  -10.8708    0.0000 H   0  0  0  0  0  0           0  0  0
    0.0415   -8.7929    0.0000 C   0  0  0  0  0  0           0  0  0
    0.7578   -9.2022    0.0000 N   0  0  3  0  0  0           0  0  0
    0.0378   -7.9679    0.0000 O   0  0  0  0  0  0           0  0  0
    0.7555  -10.0303    0.0000 C   0  0  0  0  0  0           0  0  0
    1.4677  -10.4396    0.0000 C   0  0  0  0  0  0           0  0  0
    2.1828  -10.0274    0.0000 N   0  0  3  0  0  0           0  0  0
    2.1811   -9.2014    0.0000 C   0  0  0  0  0  0           0  0  0
    1.4643   -8.7876    0.0000 C   0  0  0  0  0  0           0  0  0
   -4.2522   -7.9947    0.0000 O   0  0  0  0  0  0           0  0  0
   -4.9686   -7.5856    0.0000 C   0  0  0  0  0  0           0  0  0
   -1.3800  -11.2796    0.0000 C   0  0  0  0  0  0           0  0  0
    2.8975  -10.4394    0.0000 C   0  0  0  0  0  0           0  0  0
    2.8936  -11.2636    0.0000 C   0  0  0  0  0  0           0  0  0
    3.6075  -11.6755    0.0000 C   0  0  0  0  0  0           0  0  0
    4.3227  -11.2625    0.0000 C   0  0  0  0  0  0           0  0  0
    4.3195  -10.4332    0.0000 C   0  0  0  0  0  0           0  0  0
    3.6050  -10.0250    0.0000 N   0  0  0  0  0  0           0  0  0
    2.1782  -11.6745    0.0000 O   0  0  0  0  0  0           0  0  0
    2.1764  -12.4995    0.0000 S   0  0  3  0  0  0           0  0  0
    2.1708  -13.3208    0.0000 C   0  0  3  0  0  0           0  0  0
    3.0014  -12.5032    0.0000 O   0  0  0  0  0  0           0  0  0
    1.3514  -12.4994    0.0000 O   0  0  0  0  0  0           0  0  0
    2.1667  -14.1458    0.0000 F   0  0  0  0  0  0           0  0  0
    1.3458  -13.3160    0.0000 F   0  0  0  0  0  0           0  0  0
    2.9958  -13.3221    0.0000 F   0  0  0  0  0  0           0  0  0
 18 20  1  0     0  0
  9 10  1  0     0  0
  3  4  2  0     0  0
  4  6  1  0     0  0
  5  6  2  0     0  0
  1  2  2  0     0  0
 18 24  1  0     0  0
 20 21  1  0     0  0
 21 22  1  0     0  0
 22 23  1  0     0  0
 23 24  1  0     0  0
  5  1  1  0     0  0
  1 25  1  0     0  0
  2  3  1  0     0  0
 25 26  1  0     0  0
  9 14  1  0     0  0
 11 27  1  0     0  0
 10 11  1  0     0  0
 22 28  1  0     0  0
 11 12  1  0     0  0
 28 29  2  0     0  0
 12 13  1  0     0  0
 29 30  1  0     0  0
 13 14  1  0     0  0
 30 31  2  0     0  0
 31 32  1  0     0  0
  9 15  1  6     0  0
 32 33  2  0     0  0
 33 28  1  0     0  0
  5  8  1  0     0  0
 29 34  1  0     0  0
 10 16  1  1     0  0
 34 35  1  0     0  0
  6  7  1  0     0  0
 35 36  1  0     0  0
 13 17  1  1     0  0
 35 37  2  0     0  0
  7 10  1  0     0  0
 35 38  2  0     0  0
 17 18  1  0     0  0
 36 39  1  0     0  0
  9  8  1  0     0  0
 36 40  1  0     0  0
 17 19  2  0     0  0
 36 41  1  0     0  0
M  END