
  CDK    9/16/09,9:55

 33 36  0  0  0  0  0  0  0  0999 V2000
   -3.9110    0.2782    0.0000 C   0  0  0  0  0  0  0  0  0  0  0  0
   -3.9124   -0.5496    0.0000 C   0  0  0  0  0  0  0  0  0  0  0  0
   -3.1968   -0.9580    0.0000 C   0  0  0  0  0  0  0  0  0  0  0  0
   -3.1989    0.6911    0.0000 C   0  0  0  0  0  0  0  0  0  0  0  0
   -2.4822    0.2827    0.0000 C   0  0  0  0  0  0  0  0  0  0  0  0
   -2.4816   -0.5496    0.0000 C   0  0  0  0  0  0  0  0  0  0  0  0
   -1.6895   -0.8042    0.0000 N   0  0  0  0  0  0  0  0  0  0  0  0
   -1.2026   -0.1326    0.0000 C   0  0  0  0  0  0  0  0  0  0  0  0
   -1.6905    0.5429    0.0000 N   0  0  0  0  0  0  0  0  0  0  0  0
   -1.4438   -1.5867    0.0000 C   0  0  0  0  0  0  0  0  0  0  0  0
   -2.0263   -2.1683    0.0000 C   0  0  0  0  0  0  0  0  0  0  0  0
   -2.8210   -1.9538    0.0000 C   0  0  0  0  0  0  0  0  0  0  0  0
   -3.4077   -2.5345    0.0000 C   0  0  0  0  0  0  0  0  0  0  0  0
   -3.1921   -3.3345    0.0000 C   0  0  0  0  0  0  0  0  0  0  0  0
   -2.3929   -3.5454    0.0000 C   0  0  0  0  0  0  0  0  0  0  0  0
   -1.8144   -2.9629    0.0000 C   0  0  0  0  0  0  0  0  0  0  0  0
   -3.7781   -3.9165    0.0000 C   0  0  0  0  0  0  0  0  0  0  0  0
   -4.5732   -3.7032    0.0000 C   0  0  0  0  0  0  0  0  0  0  0  0
   -5.1590   -4.2850    0.0000 C   0  0  0  0  0  0  0  0  0  0  0  0
   -4.9421   -5.0845    0.0000 C   0  0  0  0  0  0  0  0  0  0  0  0
   -4.1426   -5.2943    0.0000 C   0  0  0  0  0  0  0  0  0  0  0  0
   -3.5604   -4.7110    0.0000 C   0  0  0  0  0  0  0  0  0  0  0  0
   -4.7892   -2.9046    0.0000 C   0  0  0  0  0  0  0  0  0  0  0  0
   -4.2024   -2.3226    0.0000 O   0  0  0  0  0  0  0  0  0  0  0  0
   -5.5833   -2.6923    0.0000 O   0  0  0  0  0  0  0  0  0  0  0  0
   -5.3404    1.1032    0.0000 N   0  0  0  0  0  0  0  0  0  0  0  0
   -4.2123    1.4079    0.0000 O   0  0  0  0  0  0  0  0  0  0  0  0
   -5.0321   -0.0251    0.0000 O   0  0  0  0  0  0  0  0  0  0  0  0
   -4.6273    0.6907    0.0000 S   0  0  0  0  0  0  0  0  0  0  0  0
   -0.3776   -0.1333    0.0000 C   0  0  0  0  0  0  0  0  0  0  0  0
    0.0342   -0.8481    0.0000 C   0  0  0  0  0  0  0  0  0  0  0  0
    0.8592   -0.8489    0.0000 C   0  0  0  0  0  0  0  0  0  0  0  0
    1.2712   -1.5637    0.0000 C   0  0  0  0  0  0  0  0  0  0  0  0
  8  9  2  0  0  0  0 
 17 18  2  0  0  0  0 
  9  5  1  0  0  0  0 
 18 19  1  0  0  0  0 
  4  1  1  0  0  0  0 
 19 20  2  0  0  0  0 
 20 21  1  0  0  0  0 
  5  6  1  0  0  0  0 
 21 22  2  0  0  0  0 
 22 17  1  0  0  0  0 
 14 17  1  0  0  0  0 
  7 10  1  0  0  0  0 
 18 23  1  0  0  0  0 
 23 24  2  0  0  0  0 
 10 11  1  0  0  0  0 
 23 25  1  0  0  0  0 
  2  3  1  0  0  0  0 
 11 12  2  0  0  0  0 
  3  6  2  0  0  0  0 
 12 13  1  0  0  0  0 
  1  2  2  0  0  0  0 
  1 29  1  0  0  0  0 
 13 14  2  0  0  0  0 
 29 26  1  0  0  0  0 
  5  4  2  0  0  0  0 
 29 27  2  0  0  0  0 
 14 15  1  0  0  0  0 
  6  7  1  0  0  0  0 
 28 29  2  0  0  0  0 
  8 30  1  0  0  0  0 
 15 16  2  0  0  0  0 
 30 31  1  0  0  0  0 
 16 11  1  0  0  0  0 
 31 32  1  0  0  0  0 
  7  8  1  0  0  0  0 
 32 33  1  0  0  0  0 
M  END