
  SciTegic02011310422D

 37 40  0  0  0  0            999 V2000
   -1.5682  -22.5825    0.0000 N   0  0
   -0.8636  -22.1541    0.0000 C   0  0  2  0  0  0
   -0.1396  -22.5494    0.0000 C   0  0
   -0.1181  -23.3697    0.0000 O   0  0
    0.6068  -22.1942    0.0000 N   0  0
    1.3322  -22.5860    0.0000 C   0  0  1  0  0  0
    1.9302  -22.0185    0.0000 C   0  0
    1.5783  -21.2741    0.0000 C   0  0
    0.7584  -21.3788    0.0000 C   0  0
    1.3439  -23.4114    0.0000 C   0  0
    0.6352  -23.8337    0.0000 O   0  0
    2.0640  -23.8139    0.0000 N   0  0
    2.7727  -23.3915    0.0000 C   0  0
    3.4928  -23.7941    0.0000 C   0  0
    3.4994  -24.6201    0.0000 C   0  0
    4.2187  -25.0226    0.0000 C   0  0
    4.9284  -24.6002    0.0000 C   0  0
    4.9142  -23.7710    0.0000 C   0  0
    4.1944  -23.3723    0.0000 C   0  0
   -0.8828  -21.3293    0.0000 C   0  0
    5.6490  -25.0018    0.0000 C   0  0
    5.6615  -25.8267    0.0000 N   0  0
    6.3571  -24.5784    0.0000 N   0  0
   -1.6067  -20.9335    0.0000 C   0  0
   -1.6215  -20.1078    0.0000 C   0  0
   -2.3446  -19.7121    0.0000 C   0  0
   -3.0502  -20.1412    0.0000 C   0  0
   -3.0283  -20.9701    0.0000 C   0  0
   -2.3048  -21.3621    0.0000 C   0  0
   -1.5495  -23.4073    0.0000 C   0  0
   -2.2543  -23.8360    0.0000 C   0  0
   -2.2356  -24.6608    0.0000 C   0  0
   -2.9417  -25.0847    0.0000 C   0  0
   -2.9233  -25.9087    0.0000 C   0  0
   -2.1991  -26.3057    0.0000 C   0  0
   -1.4919  -25.8725    0.0000 C   0  0
   -1.5138  -25.0499    0.0000 C   0  0
  9  5  1  0
 18 19  2  0
 19 14  1  0
  2 20  1  1
  6 10  1  1
 17 21  1  0
  1  2  1  0
 21 22  2  0
 10 11  2  0
 21 23  1  0
  2  3  1  0
 20 24  1  0
 10 12  1  0
 24 25  2  0
  3  4  2  0
 25 26  1  0
 12 13  1  0
 26 27  2  0
  3  5  1  0
 27 28  1  0
 13 14  1  0
 28 29  2  0
 29 24  1  0
  5  6  1  0
  1 30  1  0
 14 15  2  0
 30 31  1  0
  6  7  1  0
 31 32  1  0
 15 16  1  0
 32 33  2  0
  7  8  1  0
 33 34  1  0
 16 17  2  0
 34 35  2  0
  8  9  1  0
 35 36  1  0
 17 18  1  0
 36 37  2  0
 37 32  1  0
M  END