
  SciTegic04151115542D

 24 25  0  0  0  0            999 V2000
   13.3402  -11.1958    0.0000 C   0  0
   13.3391  -12.0232    0.0000 C   0  0
   14.0539  -12.4360    0.0000 C   0  0
   14.7703  -12.0227    0.0000 C   0  0
   14.7675  -11.1922    0.0000 C   0  0
   14.0521  -10.7830    0.0000 C   0  0
   12.6243  -12.4351    0.0000 Cl  0  0
   15.4804  -10.7770    0.0000 N   0  0
   16.1964  -11.1868    0.0000 C   0  0
   16.9093  -10.7716    0.0000 C   0  0
   16.1995  -12.0118    0.0000 O   0  0
   17.6253  -11.1814    0.0000 N   0  0
   16.9062   -9.9466    0.0000 O   0  0
   18.3383  -10.7662    0.0000 C   0  0
   14.0537  -13.2610    0.0000 F   0  0
   19.0543  -11.1760    0.0000 C   0  0
   19.0553  -12.0009    0.0000 C   0  0
   19.7672  -12.4106    0.0000 C   0  0
   20.4826  -11.9989    0.0000 C   0  0
   20.4814  -11.1729    0.0000 N   0  0
   19.7649  -10.7587    0.0000 C   0  0
   21.1957  -10.7602    0.0000 C   0  0
   21.9104  -11.1724    0.0000 C   0  0
   22.6247  -10.7597    0.0000 O   0  0
 10 12  1  0
  6  1  1  0
 10 13  2  0
  1  2  2  0
 12 14  1  0
  2  7  1  0
  3 15  1  0
  3  4  2  0
 14 16  1  0
 16 17  1  0
  5  8  1  0
  8  9  1  0
  4  5  1  0
  9 10  1  0
 16 21  1  0
 17 18  1  0
 18 19  1  0
 19 20  1  0
 20 21  1  0
  2  3  1  0
 20 22  1  0
  9 11  2  0
 22 23  1  0
  5  6  2  0
 23 24  1  0
M  END