
  SciTegic04091414152D

 35 40  0  0  0  0            999 V2000
   11.8370  -11.9521    0.0000 C   0  0
   11.9814  -12.7605    0.0000 O   0  0
   12.5675  -11.5691    0.0000 N   0  0
   13.1584  -12.1378    0.0000 C   0  0
   12.7924  -12.8740    0.0000 N   0  0
   13.9678  -11.9988    0.0000 C   0  0
   14.4878  -12.6335    0.0000 C   0  0
   15.2966  -12.4949    0.0000 C   0  0
   15.5836  -11.7232    0.0000 C   0  0
   15.0517  -11.0896    0.0000 C   0  0
   14.2449  -11.2314    0.0000 C   0  0
   10.7225   -9.1906    0.0000 C   0  0
   10.0997   -9.7225    0.0000 C   0  0  2  0  0  0
   10.2535  -10.5256    0.0000 C   0  0
   11.0431  -10.7740    0.0000 N   0  3
   11.6520  -10.2597    0.0000 C   0  0
   11.4987   -9.4503    0.0000 C   0  0
   10.3265   -9.9095    0.0000 C   0  0
   11.1265  -10.0937    0.0000 C   0  0
    9.3239   -9.4536    0.0000 O   0  0
    7.9081   -9.2830    0.0000 C   0  0
    7.3679   -9.9050    0.0000 C   0  0
    8.5713   -9.7760    0.0000 C   0  0
    7.1504   -8.9575    0.0000 C   0  0
    6.9239   -8.1669    0.0000 C   0  0
    7.4052   -7.5002    0.0000 C   0  0
    8.2233   -7.4662    0.0000 C   0  0
    8.7657   -8.0774    0.0000 C   0  0
    8.6265   -8.8892    0.0000 C   0  0
    6.5501   -9.8309    0.0000 C   0  0
    6.2234  -10.5894    0.0000 C   0  0
    6.8453  -11.1336    0.0000 C   0  0
    7.5538  -10.7127    0.0000 C   0  0
    8.4744  -10.5916    0.0000 O   0  0
   11.0984  -11.5934    0.0000 C   0  0
  1  2  1  0
  2  5  1  0
  4  3  1  0
  3  1  2  0
  4  5  2  0
  4  6  1  0
  6  7  2  0
  7  8  1  0
  8  9  2  0
  9 10  1  0
 10 11  2  0
 11  6  1  0
 12 13  1  0
 12 17  1  0
 13 14  1  0
 14 15  1  0
 15 16  1  0
 16 17  1  0
 12 18  1  0
 15 19  1  0
 18 19  1  0
 13 20  1  6
 22 21  1  0
 21 23  1  0
 24 25  1  0
 25 26  1  0
 26 27  1  0
 24 21  1  0
 27 28  1  0
 21 29  1  0
 28 29  1  0
 22 30  2  0
 30 31  1  0
 31 32  2  0
 32 33  1  0
 33 22  1  0
 23 34  2  0
 23 20  1  0
 15 35  1  0
 35  1  1  0
M  CHG  1  15   1
M  END