
  SciTegic12231509382D

 39 43  0  0  0  0            999 V2000
    5.5483   -7.2257    0.0000 C   0  0
    5.3029   -8.0112    0.0000 C   0  0
    4.4786   -8.0173    0.0000 N   0  0
    4.2160   -7.2340    0.0000 C   0  0
    4.8702   -6.7484    0.0000 N   0  0
    3.4306   -6.9836    0.0000 O   0  0
    4.8702   -5.9318    0.0000 C   0  0
    4.1630   -5.5244    0.0000 C   0  0
    3.4452   -5.9379    0.0000 C   0  0
    2.7346   -5.5261    0.0000 N   0  0
    2.7272   -4.7004    0.0000 C   0  0
    2.0149   -4.2928    0.0000 C   0  0
    1.3009   -4.7092    0.0000 N   0  0
    1.3084   -5.5313    0.0000 C   0  0
    2.0235   -5.9416    0.0000 C   0  0
    0.5903   -4.2974    0.0000 C   0  0
    0.5872   -3.4768    0.0000 C   0  0
   -0.1235   -3.0662    0.0000 C   0  0
   -0.8365   -3.4821    0.0000 C   0  0
   -0.8316   -4.3071    0.0000 C   0  0
   -0.1154   -4.7126    0.0000 C   0  0
    4.1630   -4.6961    0.0000 O   0  0
    5.9602   -6.5110    0.0000 C   0  0
    6.7899   -6.5038    0.0000 C   0  0
    7.1978   -5.7767    0.0000 C   0  0
    6.7765   -5.0591    0.0000 C   0  0
    5.9370   -5.0716    0.0000 C   0  0
    5.5306   -5.7953    0.0000 C   0  0
    6.3071   -7.5512    0.0000 C   0  0
    6.3959   -8.3766    0.0000 C   0  0
    7.1518   -8.7042    0.0000 C   0  0
    7.8177   -8.2127    0.0000 C   0  0
    7.7205   -7.3876    0.0000 C   0  0
    6.9642   -7.0614    0.0000 C   0  0
    5.7911   -8.6736    0.0000 O   0  0
    3.9984   -8.6875    0.0000 C   0  0
    1.3020   -3.0650    0.0000 O   0  0
    2.0164   -3.4765    0.0000 C   0  0
    2.7321   -3.0642    0.0000 C   0  0
 18 19  2  0
  4  5  1  0
 19 20  1  0
  9 10  1  0
 20 21  2  0
 21 16  1  0
 10 11  1  0
  8 22  1  0
  5  1  1  0
  1 23  1  0
  1  2  1  0
 23 24  2  0
  4  6  2  0
 24 25  1  0
 25 26  2  0
  5  7  1  0
 26 27  1  0
 10 15  1  0
 27 28  2  0
 28 23  1  0
 11 12  1  0
  1 29  1  0
 12 13  1  0
 29 30  2  0
 13 14  1  0
 30 31  1  0
 14 15  1  0
 31 32  2  0
  2  3  1  0
 32 33  1  0
 13 16  1  0
 33 34  2  0
 34 29  1  0
  7  8  1  0
  2 35  2  0
 16 17  2  0
  3 36  1  0
  3  4  1  0
 17 37  1  0
 17 18  1  0
 37 38  1  0
  8  9  1  0
 38 39  1  0
M  END