
          05080814032D 1   1.00000     0.00000     0

 28 31  0     0  0            999 V2000
   12.0111  -17.0583    0.0000 C   0  0  0  0  0  0           0  0  0
   12.0099  -17.8857    0.0000 C   0  0  0  0  0  0           0  0  0
   12.7247  -18.2985    0.0000 C   0  0  0  0  0  0           0  0  0
   12.7229  -16.6455    0.0000 C   0  0  0  0  0  0           0  0  0
   13.4383  -17.0547    0.0000 C   0  0  0  0  0  0           0  0  0
   13.4386  -17.8811    0.0000 C   0  0  0  0  0  0           0  0  0
   14.2247  -18.1363    0.0000 N   0  0  3  0  0  0           0  0  0
   14.7103  -17.4675    0.0000 C   0  0  0  0  0  0           0  0  0
   14.2242  -16.7991    0.0000 N   0  0  0  0  0  0           0  0  0
   12.7266  -19.1258    0.0000 C   0  0  0  0  0  0           0  0  0
   12.0132  -19.5402    0.0000 O   0  0  0  0  0  0           0  0  0
   13.4421  -19.5364    0.0000 O   0  0  0  0  0  0           0  0  0
   14.4798  -18.9208    0.0000 C   0  0  0  0  0  0           0  0  0
   15.2868  -19.0921    0.0000 C   0  0  0  0  0  0           0  0  0
   15.5402  -19.8779    0.0000 C   0  0  0  0  0  0           0  0  0
   16.3464  -20.0494    0.0000 C   0  0  0  0  0  0           0  0  0
   16.8992  -19.4358    0.0000 C   0  0  0  0  0  0           0  0  0
   16.6401  -18.6480    0.0000 C   0  0  0  0  0  0           0  0  0
   15.8346  -18.4803    0.0000 C   0  0  0  0  0  0           0  0  0
   17.7064  -19.6060    0.0000 N   0  0  3  0  0  0           0  0  0
   18.0440  -20.3560    0.0000 C   0  0  0  0  0  0           0  0  0
   18.8644  -20.2685    0.0000 C   0  0  0  0  0  0           0  0  0
   19.0346  -19.4612    0.0000 C   0  0  0  0  0  0           0  0  0
   18.3194  -19.0499    0.0000 C   0  0  0  0  0  0           0  0  0
   18.2322  -18.2340    0.0000 C   0  0  0  0  0  0           0  0  0
   15.5353  -17.4672    0.0000 C   0  0  0  0  0  0           0  0  0
   18.8939  -17.7494    0.0000 O   0  0  0  0  0  0           0  0  0
   17.4807  -17.9005    0.0000 O   0  0  0  0  0  0           0  0  0
  3  6  2  0     0  0
 13 14  1  0     0  0
  1  2  2  0     0  0
 14 15  2  0     0  0
  5  4  2  0     0  0
 15 16  1  0     0  0
  6  7  1  0     0  0
 16 17  2  0     0  0
  7  8  1  0     0  0
 17 18  1  0     0  0
  8  9  2  0     0  0
 18 19  2  0     0  0
 19 14  1  0     0  0
  9  5  1  0     0  0
 17 20  1  0     0  0
 20 21  1  0     0  0
  4  1  1  0     0  0
  5  6  1  0     0  0
 10 11  1  0     0  0
 21 22  2  0     0  0
 22 23  1  0     0  0
 23 24  2  0     0  0
 24 20  1  0     0  0
 10 12  2  0     0  0
 24 25  1  0     0  0
  3 10  1  0     0  0
  8 26  1  0     0  0
  2  3  1  0     0  0
  7 13  1  0     0  0
 25 27  1  0     0  0
 25 28  2  0     0  0
M  END