
          11280715122D 1   1.00000     0.00000     0

 34 37  0     0  0            999 V2000
    6.6667   -6.5167    0.0000 C   0  0  0  0  0  0           0  0  0
    6.1417   -7.7417    0.0000 N   0  0  0  0  0  0           0  0  0
    6.8500   -7.3250    0.0000 N   0  0  0  0  0  0           0  0  0
    5.5250   -7.2125    0.0000 N   0  0  0  0  0  0           0  0  0
    5.8542   -6.4417    0.0000 N   0  0  0  0  0  0           0  0  0
    3.6542   -2.1792    0.0000 C   0  0  0  0  0  0           0  0  0
    7.2167   -5.9000    0.0000 C   0  0  0  0  0  0           0  0  0
    4.3667   -2.5917    0.0000 N   0  0  3  0  0  0           0  0  0
    4.3750   -0.0917    0.0000 C   0  0  0  0  0  0           0  0  0
    7.2167   -5.0667    0.0000 C   0  0  0  0  0  0           0  0  0
    3.6542   -1.3542    0.0000 C   0  0  0  0  0  0           0  0  0
    4.3792   -0.9292    0.0000 O   0  0  0  0  0  0           0  0  0
    2.9417   -2.5917    0.0000 N   0  0  0  0  0  0           0  0  0
    6.5042   -4.6542    0.0000 C   0  0  0  0  0  0           0  0  0
    4.3667   -3.4167    0.0000 C   0  0  0  0  0  0           0  0  0
    3.6417    0.3208    0.0000 O   0  0  0  0  0  0           0  0  0
    5.0917    0.3250    0.0000 N   0  0  0  0  0  0           0  0  0
    6.5042   -3.8292    0.0000 C   0  0  0  0  0  0           0  0  0
    5.7917   -5.0667    0.0000 C   0  0  0  0  0  0           0  0  0
    5.0792   -3.8292    0.0000 C   0  0  0  0  0  0           0  0  0
    5.7875   -3.4167    0.0000 C   0  0  0  0  0  0           0  0  0
    5.0792   -4.6542    0.0000 C   0  0  0  0  0  0           0  0  0
    5.0792   -2.1792    0.0000 C   0  0  0  0  0  0           0  0  0
    7.9292   -6.3042    0.0000 C   0  0  0  0  0  0           0  0  0
    7.9292   -4.6542    0.0000 C   0  0  0  0  0  0           0  0  0
    2.9417   -0.9417    0.0000 C   0  0  0  0  0  0           0  0  0
    2.2292   -2.1792    0.0000 C   0  0  0  0  0  0           0  0  0
    5.0917    1.1583    0.0000 C   0  0  0  0  0  0           0  0  0
    5.7875   -2.5917    0.0000 C   0  0  0  0  0  0           0  0  0
    2.2292   -1.3542    0.0000 C   0  0  0  0  0  0           0  0  0
    6.4917   -2.1875    0.0000 C   0  0  0  0  0  0           0  0  0
    8.6417   -5.8917    0.0000 C   0  0  0  0  0  0           0  0  0
    8.6417   -5.0667    0.0000 C   0  0  0  0  0  0           0  0  0
    7.2042   -2.5917    0.0000 C   0  0  0  0  0  0           0  0  0
  2  3  2  0     0  0
  3  1  1  0     0  0
  4  5  1  0     0  0
  5  1  2  0     0  0
  6  8  1  0     0  0
  7  1  1  0     0  0
  8 15  1  0     0  0
  9 12  1  0     0  0
 10  7  2  0     0  0
 11  6  1  0     0  0
 12 11  1  0     0  0
 13  6  2  0     0  0
 14 10  1  0     0  0
 15 20  1  0     0  0
 16  9  2  0     0  0
 17  9  1  0     0  0
 18 14  2  0     0  0
 19 14  1  0     0  0
 20 22  1  0     0  0
 21 18  1  0     0  0
 22 19  2  0     0  0
 23  8  1  0     0  0
 24  7  1  0     0  0
 25 10  1  0     0  0
 26 11  2  0     0  0
 27 13  1  0     0  0
 28 17  1  0     0  0
 29 23  1  0     0  0
 30 27  2  0     0  0
 31 29  1  0     0  0
 32 24  2  0     0  0
 33 32  1  0     0  0
 34 31  1  0     0  0
  4  2  1  0     0  0
 33 25  2  0     0  0
 21 20  2  0     0  0
 26 30  1  0     0  0
M  END