
  SciTegic12231509382D

 23 26  0  0  0  0            999 V2000
    0.1437   -1.5806    0.0000 C   0  0  1  0  0  0
   -2.4140    0.0000    0.0000 C   0  0
   -1.0921    0.6322    0.0000 C   0  0
    0.1437    0.0000    0.0000 C   0  0
   -2.4140   -1.5806    0.0000 C   0  0
   -1.0921   -2.3278    0.0000 C   0  0
    1.4657   -2.3278    0.0000 N   0  0
   -3.7072    0.6322    0.0000 C   0  0
    1.4657    0.6322    0.0000 C   0  0
   -5.0292    0.0000    0.0000 C   0  0
   -3.7072   -2.3278    0.0000 C   0  0
    2.8164   -1.5806    0.0000 C   0  0
    2.7876    0.0000    0.0000 C   0  0
   -5.0292   -1.5806    0.0000 C   0  0
   -3.7021    1.8322    0.0000 O   0  0
   -1.0921    2.1266    0.0000 C   0  0
   -6.0444    0.6398    0.0000 O   0  0
    1.4550   -3.8287    0.0000 C   0  0
    0.1437    2.8738    0.0000 C   0  0
    1.4657    2.1266    0.0000 C   0  0
    2.7488   -4.5892    0.0000 C   0  0
    2.7402   -5.7892    0.0000 C   0  0
    0.1584   -2.5805    0.0000 H   0  0
  2  3  1  0
  1  4  1  0
  3  4  2  0
  2  5  2  0
  1  6  1  0
  5  6  1  0
  1  7  1  0
  2  8  1  0
  4  9  1  0
  8 10  2  0
  5 11  1  0
  7 12  1  0
  9 13  1  0
 12 13  1  0
 10 14  1  0
 11 14  2  0
  8 15  1  0
  3 16  1  0
 10 17  1  0
  7 18  1  0
 16 19  2  0
  9 20  2  0
 19 20  1  0
 18 21  1  0
 21 22  1  0
  1 23  1  1
M  END