
  SciTegic06181315362D

 66 70  0  0  0  0            999 V2000
   20.5403   -6.1260    0.0000 N   0  0
   21.2561   -5.7135    0.0000 C   0  0  2  0  0  0
   21.9720   -6.9510    0.0000 O   0  0
   21.9720   -6.1260    0.0000 C   0  0
   21.2561   -4.8885    0.0000 C   0  0
   21.9720   -4.4760    0.0000 C   0  0
   21.9720   -3.6510    0.0000 C   0  0
   22.6879   -3.2385    0.0000 O   0  0
   21.2561   -3.2385    0.0000 O   0  0
   22.6879   -5.7135    0.0000 N   0  0
   23.3996   -6.1260    0.0000 C   0  0  2  0  0  0
   24.1154   -4.8885    0.0000 O   0  0
   24.1154   -5.7135    0.0000 C   0  0
   23.3996   -6.9510    0.0000 C   0  0
   24.1154   -7.3635    0.0000 C   0  0
   24.1154   -8.1885    0.0000 O   0  0
   24.8313   -6.9510    0.0000 O   0  0
   24.8313   -6.1260    0.0000 N   0  0
   25.5430   -5.7135    0.0000 C   0  0  2  0  0  0
   26.2589   -6.9510    0.0000 O   0  0
   26.2589   -6.1260    0.0000 C   0  0
   25.5430   -4.8885    0.0000 C   0  0
   26.2589   -4.4760    0.0000 C   0  0
   26.2589   -3.6510    0.0000 O   0  0
   26.9747   -4.8885    0.0000 O   0  0
   26.9747   -5.7135    0.0000 N   0  0
   19.8261   -5.7129    0.0000 C   0  0
   19.1113   -6.1248    0.0000 C   0  0
   19.8268   -4.8879    0.0000 O   0  0
   27.6888   -6.1266    0.0000 C   0  0
   27.6867   -6.9489    0.0000 C   0  0
   28.4000   -7.3619    0.0000 C   0  0
   29.1158   -6.9500    0.0000 C   0  0
   29.1111   -6.1230    0.0000 C   0  0
   28.4000   -5.7114    0.0000 C   0  0
   28.2748   -4.8936    0.0000 N   0  0
   29.8808   -5.8197    0.0000 C   0  0
   28.8317   -4.2861    0.0000 C   0  0  2  0  0  0
   30.1223   -5.0295    0.0000 N   0  0
   29.6536   -4.3486    0.0000 C   0  0
   28.5284   -3.5188    0.0000 C   0  0
   29.0412   -2.8648    0.0000 C   0  0
   30.9473   -5.0261    0.0000 C   0  0
   31.3628   -5.7388    0.0000 C   0  0
   30.9542   -6.4569    0.0000 N   0  0
   32.1887   -5.7373    0.0000 O   0  0
   29.8645   -2.9032    0.0000 C   0  0
   30.1525   -2.1239    0.0000 N   0  0
   28.8188   -2.0721    0.0000 C   0  0
   29.5068   -1.6182    0.0000 C   0  0
   29.4563   -0.7977    0.0000 C   0  0
   28.7186   -0.4236    0.0000 C   0  0
   28.0302   -0.8891    0.0000 C   0  0
   28.0841   -1.7029    0.0000 C   0  0
   31.3711   -7.1688    0.0000 C   0  0  2  0  0  0
   30.9631   -7.8858    0.0000 C   0  0
   30.1382   -7.8920    0.0000 O   0  0
   31.3802   -8.5987    0.0000 O   0  0
   32.1961   -7.1636    0.0000 C   0  0
   32.6131   -7.8755    0.0000 C   0  0
   32.2016   -8.5888    0.0000 C   0  0
   32.6179   -9.3002    0.0000 C   0  0
   33.4438   -9.2955    0.0000 C   0  0
   33.8516   -8.5734    0.0000 C   0  0
   33.4330   -7.8650    0.0000 C   0  0
   30.0649   -3.6334    0.0000 O   0  0
  4 10  1  0
 13 18  1  0
 21 26  1  0
  1  2  1  0
  2  4  1  0
  4  3  2  0
  2  5  1  1
  5  6  1  0
  6  7  1  0
  7  8  2  0
  7  9  1  0
 10 11  1  0
 11 13  1  0
 13 12  2  0
 11 14  1  6
 14 15  1  0
 15 16  2  0
 15 17  1  0
 18 19  1  0
 19 21  1  0
 21 20  2  0
 19 22  1  1
 22 23  1  0
 23 24  2  0
 23 25  1  0
  1 27  1  0
 27 28  1  0
 27 29  2  0
 26 30  1  0
 30 31  2  0
 31 32  1  0
 32 33  2  0
 33 34  1  0
 35 30  1  0
 34 35  2  0
 35 36  1  0
 34 37  1  0
 36 38  1  0
 37 39  1  0
 38 40  1  0
 39 40  1  0
 38 41  1  1
 41 42  1  0
 39 43  1  0
 43 44  1  0
 44 45  1  0
 44 46  2  0
 42 47  2  0
 47 48  1  0
 48 50  1  0
 49 42  1  0
 49 50  2  0
 50 51  1  0
 51 52  2  0
 52 53  1  0
 53 54  2  0
 54 49  1  0
 45 55  1  0
 55 56  1  0
 56 57  1  0
 56 58  2  0
 55 59  1  1
 59 60  1  0
 60 61  2  0
 61 62  1  0
 62 63  2  0
 63 64  1  0
 64 65  2  0
 65 60  1  0
 40 66  2  0
M  END