
  Mrv0541 04051115152D          

 23 24  0  0  0  0            999 V2000
    0.3037    0.6002    0.0000 C   0  0  1  0  0  0  0  0  0  0  0  0
   -0.5032    0.7717    0.0000 C   0  0  1  0  0  0  0  0  0  0  0  0
   -0.7582    1.5563    0.0000 C   0  0  2  0  0  0  0  0  0  0  0  0
   -0.2061    2.1694    0.0000 C   0  0  1  0  0  0  0  0  0  0  0  0
    0.6008    1.9979    0.0000 C   0  0  1  0  0  0  0  0  0  0  0  0
    1.1529    2.6110    0.0000 C   0  0  0  0  0  0  0  0  0  0  0  0
    0.5587   -0.1845    0.0000 O   0  0  0  0  0  0  0  0  0  0  0  0
   -1.0553    0.1586    0.0000 O   0  0  0  0  0  0  0  0  0  0  0  0
   -1.5651    1.7278    0.0000 O   0  0  0  0  0  0  0  0  0  0  0  0
   -0.4611    2.9540    0.0000 O   0  0  0  0  0  0  0  0  0  0  0  0
    0.8558    1.2133    0.0000 O   0  0  0  0  0  0  0  0  0  0  0  0
    1.9598    2.4394    0.0000 O   0  0  0  0  0  0  0  0  0  0  0  0
   -0.5454   -0.1845    0.0000 C   0  0  0  0  0  0  0  0  0  0  0  0
    0.0067   -0.7976    0.0000 C   0  0  1  0  0  0  0  0  0  0  0  0
    0.6741   -1.2825    0.0000 C   0  0  2  0  0  0  0  0  0  0  0  0
    0.4192   -2.0671    0.0000 C   0  0  1  0  0  0  0  0  0  0  0  0
   -0.4058   -2.0671    0.0000 C   0  0  1  0  0  0  0  0  0  0  0  0
   -0.8908   -2.7345    0.0000 C   0  0  0  0  0  0  0  0  0  0  0  0
   -1.3523   -0.3560    0.0000 O   0  0  0  0  0  0  0  0  0  0  0  0
   -0.6608   -1.2825    0.0000 O   0  0  0  0  0  0  0  0  0  0  0  0
    1.4587   -1.0275    0.0000 O   0  0  0  0  0  0  0  0  0  0  0  0
    0.9041   -2.7345    0.0000 O   0  0  0  0  0  0  0  0  0  0  0  0
   -0.5552   -3.4882    0.0000 O   0  0  0  0  0  0  0  0  0  0  0  0
  1  2  1  0  0  0  0
  1  7  1  6  0  0  0
  1 11  1  0  0  0  0
  2  3  1  0  0  0  0
  2  8  1  6  0  0  0
  3  4  1  0  0  0  0
  3  9  1  1  0  0  0
  4  5  1  0  0  0  0
  4 10  1  6  0  0  0
  5  6  1  1  0  0  0
  5 11  1  0  0  0  0
  6 12  1  0  0  0  0
 14  7  1  1  0  0  0
 14 13  1  6  0  0  0
 13 19  1  0  0  0  0
 14 15  1  0  0  0  0
 14 20  1  0  0  0  0
 15 16  1  0  0  0  0
 15 21  1  1  0  0  0
 16 17  1  0  0  0  0
 16 22  1  6  0  0  0
 17 18  1  1  0  0  0
 17 20  1  0  0  0  0
 18 23  1  0  0  0  0
M  END