
          11280714542D 1   1.00000     0.00000     0

 35 37  0     1  0            999 V2000
    6.1417   -6.7375    0.0000 C   0  0  0  0  0  0           0  0  0
    6.1417   -7.5542    0.0000 N   0  0  3  0  0  0           0  0  0
    7.4125   -7.1500    0.0000 C   0  0  0  0  0  0           0  0  0
    6.9292   -6.4792    0.0000 C   0  0  0  0  0  0           0  0  0
    6.9250   -7.8125    0.0000 N   0  0  0  0  0  0           0  0  0
    5.4292   -6.3167    0.0000 C   0  0  0  0  0  0           0  0  0
    9.4625  -10.1167    0.0000 S   0  0  3  0  0  0           0  0  0
    4.7167   -6.7292    0.0000 N   0  0  3  0  0  0           0  0  0
    8.2375   -7.1500    0.0000 C   0  0  0  0  0  0           0  0  0
    9.8792   -8.5792    0.0000 C   0  0  2  0  0  0           0  0  0
    9.4667   -9.2917    0.0000 N   0  0  0  0  0  0           0  0  0
   10.7042   -8.5792    0.0000 C   0  0  0  0  0  0           0  0  0
    5.4250   -7.9667    0.0000 C   0  0  0  0  0  0           0  0  0
    8.6417   -7.8667    0.0000 N   0  0  0  0  0  0           0  0  0
    8.6375  -10.1125    0.0000 O   0  0  0  0  0  0           0  0  0
   10.2875  -10.1167    0.0000 O   0  0  0  0  0  0           0  0  0
    5.4292   -5.4917    0.0000 O   0  0  0  0  0  0           0  0  0
    4.7167   -7.5542    0.0000 C   0  0  0  0  0  0           0  0  0
    9.4667   -7.8667    0.0000 C   0  0  0  0  0  0           0  0  0
    4.0042   -6.3167    0.0000 C   0  0  0  0  0  0           0  0  0
    1.1542   -5.4917    0.0000 N   0  0  0  0  0  0           0  0  0
    8.6500   -6.4375    0.0000 O   0  0  0  0  0  0           0  0  0
   11.1167   -7.8667    0.0000 O   0  0  0  0  0  0           0  0  0
    9.4542  -10.9417    0.0000 C   0  0  0  0  0  0           0  0  0
   11.1167   -9.2917    0.0000 O   0  0  0  0  0  0           0  0  0
    3.2917   -6.7292    0.0000 C   0  0  0  0  0  0           0  0  0
    2.5750   -6.3167    0.0000 C   0  0  3  0  0  0           0  0  0
    1.8625   -5.0792    0.0000 C   0  0  0  0  0  0           0  0  0
    1.1542   -6.3167    0.0000 C   0  0  0  0  0  0           0  0  0
    1.8625   -6.7292    0.0000 C   0  0  0  0  0  0           0  0  0
    2.5750   -5.4917    0.0000 C   0  0  0  0  0  0           0  0  0
    8.7417  -11.3500    0.0000 C   0  0  0  0  0  0           0  0  0
    8.7375  -12.1750    0.0000 C   0  0  0  0  0  0           0  0  0
    8.0167  -12.5792    0.0000 C   0  0  0  0  0  0           0  0  0
   10.2917   -9.2917    0.0000 H   0  0  0  0  0  0           0  0  0
  2  1  1  0     0  0
  3  4  1  0     0  0
  4  1  2  0     0  0
  5  2  1  0     0  0
  6  1  1  0     0  0
  7 11  1  0     0  0
  8  6  1  0     0  0
  9  3  1  0     0  0
 10 19  1  0     0  0
 10 11  1  1     0  0
 12 10  1  0     0  0
 13  2  1  0     0  0
 14  9  1  0     0  0
 15  7  2  0     0  0
 16  7  2  0     0  0
 17  6  2  0     0  0
 18  8  1  0     0  0
 19 14  1  0     0  0
 20  8  1  0     0  0
 21 28  1  0     0  0
 22  9  2  0     0  0
 23 12  2  0     0  0
 24  7  1  0     0  0
 25 12  1  0     0  0
 26 20  1  0     0  0
 27 26  1  0     0  0
 28 31  1  0     0  0
 29 30  1  0     0  0
 30 27  1  0     0  0
 31 27  1  0     0  0
 32 24  1  0     0  0
 33 32  1  0     0  0
 34 33  1  0     0  0
 10 35  1  6     0  0
  3  5  2  0     0  0
 18 13  1  0     0  0
 29 21  1  0     0  0
M  END