
  SciTegic11201309402D

 32 36  0  0  0  0            999 V2000
   -3.0938   -0.0295    0.0000 N   0  0
   -2.3793    0.3830    0.0000 C   0  0
   -2.8802    0.7674    0.0000 C   0  0
   -3.0938    1.5643    0.0000 C   0  0
   -2.2969    1.3508    0.0000 C   0  0
   -1.4719    1.3508    0.0000 C   0  0
   -1.2583    0.5539    0.0000 C   0  0  1  0  0  0
   -1.9728    0.9664    0.0000 C   0  0
   -1.2583   -0.2711    0.0000 O   0  0
   -1.8417   -0.8545    0.0000 C   0  0
   -1.6282   -1.6514    0.0000 C   0  0
   -2.6386   -0.6409    0.0000 O   0  0
   -2.2115   -2.2347    0.0000 C   0  0
   -0.8313   -1.8649    0.0000 C   0  0
   -1.2157   -0.9369    0.0000 C   0  0
   -3.0084   -2.0212    0.0000 C   0  0
   -3.5918   -2.6045    0.0000 C   0  0
   -3.3783   -3.4014    0.0000 C   0  0
   -2.5814   -3.6150    0.0000 C   0  0
   -1.9980   -3.0316    0.0000 C   0  0
   -0.6178   -2.6618    0.0000 C   0  0
    0.1791   -2.8753    0.0000 C   0  0
    0.7625   -2.2919    0.0000 C   0  0
    0.5490   -1.4950    0.0000 C   0  0
   -0.2479   -1.2815    0.0000 C   0  0
   -3.5063   -0.7439    0.0000 C   0  0
   -4.3313   -0.7439    0.0000 C   0  0
   -4.7438   -0.0294    0.0000 C   0  0
   -5.5688   -0.0294    0.0000 C   0  0
   -5.9813   -0.7439    0.0000 C   0  0
   -5.5688   -1.4584    0.0000 C   0  0
   -4.7438   -1.4584    0.0000 C   0  0
  1  2  1  0
  1  3  1  0
  3  4  1  0
  4  5  1  0
  2  5  1  0
  5  6  1  0
  6  7  1  0
  7  8  1  0
  8  3  1  0
  7  9  1  6
  9 10  1  0
 10 11  1  0
 10 12  2  0
 11 13  1  0
 11 14  1  0
 11 15  1  0
 13 16  1  0
 13 20  2  0
 16 17  2  0
 17 18  1  0
 18 19  2  0
 19 20  1  0
 14 21  1  0
 14 25  2  0
 21 22  2  0
 22 23  1  0
 23 24  2  0
 24 25  1  0
  1 26  1  0
 26 27  1  0
 27 28  1  0
 27 32  2  0
 28 29  2  0
 29 30  1  0
 30 31  2  0
 31 32  1  0
M  END