
  CDK    9/16/09,9:51

 14 15  0  0  0  0  0  0  0  0999 V2000
    3.6973  -24.7111    0.0000 C   0  0  0  0  0  0  0  0  0  0  0  0
    3.6961  -25.5377    0.0000 C   0  0  0  0  0  0  0  0  0  0  0  0
    5.1235  -24.7071    0.0000 C   0  0  0  0  0  0  0  0  0  0  0  0
    4.4062  -24.2989    0.0000 C   0  0  0  0  0  0  0  0  0  0  0  0
    5.1267  -25.5372    0.0000 C   0  0  0  0  0  0  0  0  0  0  0  0
    4.4074  -25.9480    0.0000 C   0  0  0  0  0  0  0  0  0  0  0  0
    4.4044  -26.7744    0.0000 N   0  0  0  0  0  0  0  0  0  0  0  0
    5.1201  -27.1910    0.0000 N   0  0  0  0  0  0  0  0  0  0  0  0
    5.8400  -26.7752    0.0000 C   0  0  0  0  0  0  0  0  0  0  0  0
    5.8395  -25.9502    0.0000 C   0  0  0  0  0  0  0  0  0  0  0  0
    6.5539  -27.1870    0.0000 C   0  0  0  0  0  0  0  0  0  0  0  0
    6.5542  -28.0110    0.0000 N   0  0  0  0  0  0  0  0  0  0  0  0
    7.2673  -26.7746    0.0000 O   0  0  0  0  0  0  0  0  0  0  0  0
    6.5532  -25.5384    0.0000 N   0  0  0  0  0  0  0  0  0  0  0  0
  6  7  1  0  0  0  0 
  1  2  2  0  0  0  0 
  7  8  2  0  0  0  0 
  3  4  2  0  0  0  0 
  8  9  1  0  0  0  0 
  4  1  1  0  0  0  0 
  9 10  2  0  0  0  0 
 10  5  1  0  0  0  0 
  2  6  1  0  0  0  0 
  9 11  1  0  0  0  0 
 11 12  1  0  0  0  0 
  5  6  2  0  0  0  0 
 11 13  2  0  0  0  0 
  5  3  1  0  0  0  0 
 10 14  1  0  0  0  0 
M  END