
          11280715362D 1   1.00000     0.00000     0

 33 35  0     0  0            999 V2000
    5.2542   -0.4167    0.0000 S   0  0  3  0  0  0           0  0  0
    1.6792   -2.5000    0.0000 C   0  0  0  0  0  0           0  0  0
    1.6792   -1.6750    0.0000 C   0  0  0  0  0  0           0  0  0
    6.0792   -0.4167    0.0000 C   0  0  0  0  0  0           0  0  0
    5.2500   -1.2417    0.0000 O   0  0  0  0  0  0           0  0  0
    5.2500    0.4083    0.0000 O   0  0  0  0  0  0           0  0  0
    5.2542   -2.9125    0.0000 C   0  0  0  0  0  0           0  0  0
    0.9667   -2.9125    0.0000 C   0  0  0  0  0  0           0  0  0
    4.5375   -0.0125    0.0000 N   0  0  0  0  0  0           0  0  0
    2.3917   -2.9125    0.0000 N   0  0  0  0  0  0           0  0  0
    2.3917   -1.2625    0.0000 C   0  0  0  0  0  0           0  0  0
    0.2542   -4.1417    0.0000 N   0  0  0  0  0  0           0  0  0
    4.5375   -2.5000    0.0000 C   0  0  0  0  0  0           0  0  0
    5.2542   -3.7375    0.0000 O   0  0  0  0  0  0           0  0  0
    6.4792    0.2958    0.0000 C   0  0  0  0  0  0           0  0  0
    6.4875   -1.1292    0.0000 C   0  0  0  0  0  0           0  0  0
    7.7250   -0.4167    0.0000 C   0  0  0  0  0  0           0  0  0
    5.9667   -2.5000    0.0000 O   0  0  0  0  0  0           0  0  0
    2.3917   -0.4292    0.0000 C   0  0  0  0  0  0           0  0  0
    7.3042    0.3000    0.0000 C   0  0  0  0  0  0           0  0  0
    7.3125   -1.1292    0.0000 C   0  0  0  0  0  0           0  0  0
    3.1042   -2.5000    0.0000 O   0  0  0  0  0  0           0  0  0
    0.9667   -3.7292    0.0000 C   0  0  0  0  0  0           0  0  0
    8.5500   -0.4125    0.0000 I   0  0  0  0  0  0           0  0  0
    3.8250   -0.4250    0.0000 C   0  0  0  0  0  0           0  0  0
    0.9667   -1.2625    0.0000 C   0  0  0  0  0  0           0  0  0
    3.8250   -2.9125    0.0000 C   0  0  0  0  0  0           0  0  0
    0.9667   -0.4375    0.0000 C   0  0  0  0  0  0           0  0  0
    0.2542   -2.4917    0.0000 C   0  0  0  0  0  0           0  0  0
   -0.4583   -3.7292    0.0000 C   0  0  0  0  0  0           0  0  0
    3.1042   -0.0167    0.0000 C   0  0  0  0  0  0           0  0  0
    1.6792   -0.0167    0.0000 C   0  0  0  0  0  0           0  0  0
   -0.4583   -2.9042    0.0000 C   0  0  0  0  0  0           0  0  0
  2  3  1  0     0  0
  3 11  2  0     0  0
  4  1  1  0     0  0
  5  1  2  0     0  0
  6  1  2  0     0  0
  7 13  1  0     0  0
  8  2  1  0     0  0
  9  1  1  0     0  0
 10  2  2  0     0  0
 11 19  1  0     0  0
 12 23  2  0     0  0
 13 27  1  0     0  0
 14  7  2  0     0  0
 15  4  1  0     0  0
 16  4  2  0     0  0
 17 21  2  0     0  0
 18  7  1  0     0  0
 19 31  1  0     0  0
 20 15  2  0     0  0
 21 16  1  0     0  0
 10 22  1  0     0  0
 23  8  1  0     0  0
 24 17  1  0     0  0
 25  9  1  0     0  0
 26 28  2  0     0  0
 27 22  1  0     0  0
 28 32  1  0     0  0
 29  8  2  0     0  0
 30 33  2  0     0  0
 31 25  1  0     0  0
 32 19  2  0     0  0
 33 29  1  0     0  0
 17 20  1  0     0  0
  3 26  1  0     0  0
 12 30  1  0     0  0
M  END