
  SciTegic12231509382D

 26 28  0  0  0  0            999 V2000
   10.6665  -21.5818    0.0000 C   0  0
   11.4915  -21.5818    0.0000 C   0  0
   11.9038  -20.8707    0.0000 C   0  0
   11.4915  -20.1551    0.0000 C   0  0
   10.6665  -20.1551    0.0000 C   0  0
   10.2497  -20.8707    0.0000 N   0  0
   12.7288  -20.8718    0.0000 C   0  0
   13.1382  -21.5874    0.0000 O   0  0
   13.9631  -21.5886    0.0000 C   0  0
   14.3767  -22.3041    0.0000 C   0  0
   14.3787  -20.8741    0.0000 O   0  0
   13.9588  -23.0173    0.0000 C   0  0
   14.3717  -23.7324    0.0000 C   0  0
   15.1975  -23.7340    0.0000 C   0  0
   15.1977  -22.3023    0.0000 C   0  0
   15.6067  -23.0125    0.0000 C   0  0
   16.4224  -23.0113    0.0000 O   0  0
   16.8351  -22.3015    0.0000 C   0  0
   16.4219  -21.5914    0.0000 C   0  0
   15.6002  -21.5910    0.0000 O   0  0
   13.9558  -24.4465    0.0000 Cl  0  0
   15.6091  -24.4482    0.0000 N   0  0
    9.4247  -20.8718    0.0000 C   0  0
    9.0153  -21.5874    0.0000 C   0  0
    8.1903  -21.5886    0.0000 C   0  0
    7.7768  -22.3041    0.0000 C   0  0
  5  6  1  0
 13 14  2  0
 14 16  1  0
 15 10  1  0
 15 16  2  0
  3  7  1  0
  7  8  1  0
  1  2  1  0
  8  9  1  0
 15 20  1  0
 16 17  1  0
 17 18  1  0
 18 19  1  0
 19 20  1  0
  1  6  1  0
 13 21  1  0
  9 10  1  0
 14 22  1  0
  2  3  1  0
  6 23  1  0
  9 11  2  0
 23 24  1  0
  3  4  1  0
 24 25  1  0
 10 12  2  0
 25 26  1  0
  4  5  1  0
 12 13  1  0
M  END