
  SciTegic05071316162D

 17 18  0  0  0  0            999 V2000
   11.5383   -6.8677    0.0000 C   0  0
   11.5372   -7.6872    0.0000 C   0  0
   12.2452   -8.0962    0.0000 C   0  0
   12.9549   -7.6867    0.0000 C   0  0
   12.9520   -6.8641    0.0000 C   0  0
   12.2434   -6.4588    0.0000 C   0  0
   10.8305   -6.4592    0.0000 C   0  0  2  0  0  0
   10.1229   -6.8680    0.0000 C   0  0
    9.4151   -6.4596    0.0000 C   0  0
    8.7075   -6.8683    0.0000 N   0  0
    7.9615   -6.5322    0.0000 N   0  0
    7.4148   -7.1396    0.0000 C   0  0
    7.8236   -7.8473    0.0000 N   0  0
    8.6229   -7.6771    0.0000 C   0  0
   10.8303   -5.6421    0.0000 C   0  0
   11.5379   -5.2333    0.0000 C   0  0
   13.6632   -8.0942    0.0000 Cl  0  0
  1  2  2  0
  2  3  1  0
  3  4  2  0
  4  5  1  0
  5  6  2  0
  6  1  1  0
  1  7  1  0
  7  8  1  0
  8  9  1  0
  9 10  1  0
 10 11  1  0
 11 12  2  0
 12 13  1  0
 13 14  2  0
 14 10  1  0
  7 15  1  6
 15 16  1  0
  4 17  1  0
M  END