
          11280715042D 1   1.00000     0.00000     0

 18 18  0     0  0            999 V2000
   17.1792   -4.1125    0.0000 N   0  0  0  0  0  0           0  0  0
   16.4667   -4.5250    0.0000 C   0  0  0  0  0  0           0  0  0
   15.7542   -4.1125    0.0000 C   0  0  3  0  0  0           0  0  0
   15.7542   -3.2875    0.0000 O   0  0  0  0  0  0           0  0  0
   11.4667   -4.1125    0.0000 C   0  0  0  0  0  0           0  0  0
   17.8917   -4.5250    0.0000 C   0  0  3  0  0  0           0  0  0
   14.3250   -4.1125    0.0000 O   0  0  0  0  0  0           0  0  0
   15.0417   -4.5250    0.0000 C   0  0  0  0  0  0           0  0  0
   12.1792   -4.5250    0.0000 C   0  0  0  0  0  0           0  0  0
   13.6125   -4.5250    0.0000 C   0  0  0  0  0  0           0  0  0
   11.4667   -3.2792    0.0000 C   0  0  0  0  0  0           0  0  0
   10.7542   -4.5167    0.0000 C   0  0  0  0  0  0           0  0  0
   12.8917   -4.1125    0.0000 C   0  0  0  0  0  0           0  0  0
   17.8917   -5.3500    0.0000 C   0  0  0  0  0  0           0  0  0
   18.6125   -4.1125    0.0000 C   0  0  0  0  0  0           0  0  0
   10.0417   -4.1125    0.0000 C   0  0  0  0  0  0           0  0  0
   10.7542   -2.8667    0.0000 C   0  0  0  0  0  0           0  0  0
   10.0417   -3.2792    0.0000 C   0  0  0  0  0  0           0  0  0
  2  1  1  0     0  0
  3  2  1  0     0  0
  4  3  1  0     0  0
  5  9  1  0     0  0
  6  1  1  0     0  0
  7  8  1  0     0  0
  8  3  1  0     0  0
  9 13  1  0     0  0
 10  7  1  0     0  0
 11  5  2  0     0  0
 12  5  1  0     0  0
 13 10  1  0     0  0
 14  6  1  0     0  0
 15  6  1  0     0  0
 16 12  2  0     0  0
 17 11  1  0     0  0
 18 16  1  0     0  0
 18 17  2  0     0  0
M  END