
  CDK    9/16/09,10:4

 35 38  0  0  0  0  0  0  0  0999 V2000
   11.8707  -16.2797    0.0000 Br  0  0  0  0  0  0  0  0  0  0  0  0
   13.5379  -20.5827    0.0000 C   0  0  0  0  0  0  0  0  0  0  0  0
   14.3673  -20.5638    0.0000 C   0  0  0  0  0  0  0  0  0  0  0  0
   14.7633  -19.8400    0.0000 C   0  0  0  0  0  0  0  0  0  0  0  0
   14.3345  -19.1307    0.0000 C   0  0  0  0  0  0  0  0  0  0  0  0
   13.5052  -19.1496    0.0000 C   0  0  0  0  0  0  0  0  0  0  0  0
   13.1046  -19.8780    0.0000 N   0  0  0  0  0  0  0  0  0  0  0  0
   13.7401  -20.2021    0.0000 C   0  0  0  0  0  0  0  0  0  0  0  0
   14.0635  -19.5071    0.0000 C   0  0  0  0  0  0  0  0  0  0  0  0
   12.2801  -19.9054    0.0000 C   0  0  0  0  0  0  0  0  0  0  0  0
   15.5883  -19.8299    0.0000 C   0  0  0  0  0  0  0  0  0  0  0  0
   16.4132  -19.8156    0.0000 C   0  0  0  0  0  0  0  0  0  0  0  0
   15.6005  -20.6548    0.0000 O   0  0  0  0  0  0  0  0  0  0  0  0
   15.5761  -19.0050    0.0000 C   0  0  0  0  0  0  0  0  0  0  0  0
   16.2851  -18.5847    0.0000 C   0  0  0  0  0  0  0  0  0  0  0  0
   16.2733  -17.7606    0.0000 C   0  0  0  0  0  0  0  0  0  0  0  0
   15.5523  -17.3579    0.0000 C   0  0  0  0  0  0  0  0  0  0  0  0
   14.8417  -17.7854    0.0000 C   0  0  0  0  0  0  0  0  0  0  0  0
   14.8570  -18.6081    0.0000 C   0  0  0  0  0  0  0  0  0  0  0  0
   16.8361  -20.5252    0.0000 C   0  0  0  0  0  0  0  0  0  0  0  0
   17.6602  -20.5114    0.0000 C   0  0  0  0  0  0  0  0  0  0  0  0
   18.0611  -19.7893    0.0000 C   0  0  0  0  0  0  0  0  0  0  0  0
   17.6319  -19.0798    0.0000 C   0  0  0  0  0  0  0  0  0  0  0  0
   16.8093  -19.0972    0.0000 C   0  0  0  0  0  0  0  0  0  0  0  0
   11.8440  -19.2050    0.0000 C   0  0  0  0  0  0  0  0  0  0  0  0
   11.0195  -19.2325    0.0000 O   0  0  0  0  0  0  0  0  0  0  0  0
   10.5835  -18.5322    0.0000 C   0  0  0  0  0  0  0  0  0  0  0  0
    9.7589  -18.5597    0.0000 C   0  0  0  0  0  0  0  0  0  0  0  0
    9.3265  -17.8580    0.0000 C   0  0  0  0  0  0  0  0  0  0  0  0
    8.5027  -17.8850    0.0000 C   0  0  0  0  0  0  0  0  0  0  0  0
    8.1135  -18.6133    0.0000 C   0  0  0  0  0  0  0  0  0  0  0  0
    8.5540  -19.3159    0.0000 C   0  0  0  0  0  0  0  0  0  0  0  0
    9.3764  -19.2853    0.0000 C   0  0  0  0  0  0  0  0  0  0  0  0
    8.1681  -20.0451    0.0000 O   0  0  0  0  0  0  0  0  0  0  0  0
    7.3437  -20.0754    0.0000 C   0  0  0  0  0  0  0  0  0  0  0  0
 16 17  2  0  0  0  0 
 17 18  1  0  0  0  0 
  8  9  1  0  0  0  0 
 18 19  2  0  0  0  0 
 19 14  1  0  0  0  0 
  4  9  1  0  0  0  0 
 12 20  2  0  0  0  0 
  2  3  1  0  0  0  0 
 20 21  1  0  0  0  0 
  7 10  1  0  0  0  0 
 21 22  2  0  0  0  0 
  2  7  1  0  0  0  0 
 22 23  1  0  0  0  0 
  4 11  1  0  0  0  0 
 23 24  2  0  0  0  0 
 24 12  1  0  0  0  0 
  3  4  1  0  0  0  0 
 10 25  1  0  0  0  0 
 11 12  1  0  0  0  0 
 25 26  1  0  0  0  0 
  4  5  1  0  0  0  0 
 26 27  1  0  0  0  0 
 11 13  1  0  0  0  0 
 27 28  1  0  0  0  0 
  5  6  1  0  0  0  0 
 28 29  2  0  0  0  0 
 11 14  1  0  0  0  0 
 29 30  1  0  0  0  0 
  6  7  1  0  0  0  0 
 30 31  2  0  0  0  0 
 14 15  2  0  0  0  0 
 31 32  1  0  0  0  0 
 32 33  2  0  0  0  0 
 33 28  1  0  0  0  0 
 15 16  1  0  0  0  0 
 32 34  1  0  0  0  0 
  7  8  1  0  0  0  0 
 34 35  1  0  0  0  0 
M  CHG  1   1  -1
M  CHG  1   7   1
M  END