
  SciTegic11201309402D

 58 63  0  0  0  0            999 V2000
   10.5989   -9.7247    0.0000 N   0  0
    9.5018  -11.8502    0.0000 N   0  0
   10.4617  -10.5303    0.0000 C   0  0
   10.0846  -11.2674    0.0000 C   0  0  1  0  0  0
   10.4617   -8.9019    0.0000 C   0  0  2  0  0  0
    8.7762  -12.2273    0.0000 C   0  0
   10.0846   -8.1649    0.0000 C   0  0
    7.1364  -12.2273    0.0000 N   0  0
    6.4107  -11.8502    0.0000 C   0  0
    7.9592  -12.3586    0.0000 C   0  0  1  0  0  0
    9.5018   -7.5934    0.0000 N   0  0
    9.7189  -12.6558    0.0000 C   0  0
   11.4045   -9.8447    0.0000 C   0  0
    5.4508  -10.5303    0.0000 N   0  0
    5.8279  -11.2674    0.0000 C   0  0  1  0  0  0
   11.1988   -8.5362    0.0000 C   0  0
   10.8903  -11.4844    0.0000 C   0  0
    7.9592   -7.0850    0.0000 C   0  0
   11.7816   -9.1190    0.0000 C   0  0
    7.3706   -4.5938    0.0000 C   0  0
    8.7762   -7.2163    0.0000 C   0  0  2  0  0  0
    5.3195   -9.7247    0.0000 C   0  0
   10.5132  -12.8615    0.0000 C   0  0
   11.0960  -12.2787    0.0000 C   0  0
   11.2502  -10.7874    0.0000 O   0  0
    7.1364   -7.2163    0.0000 N   0  0
    9.0219  -13.0157    0.0000 O   0  0
    6.8221   -3.9825    0.0000 N   0  0
   10.7531   -7.6849    0.0000 O   0  0
    5.9194  -12.5187    0.0000 O   0  0
    7.9592   -6.2622    0.0000 O   0  0
    5.1594  -11.7587    0.0000 C   0  0
    4.4967   -9.7247    0.0000 O   0  0
    8.1820   -4.4224    0.0000 N   0  0
    7.1193   -5.3709    0.0000 N   0  0
    7.9592  -13.1872    0.0000 C   0  0
   11.8615  -10.5474    0.0000 C   0  0
    8.6733  -13.5985    0.0000 O   0  0
   12.6044   -9.0733    0.0000 C   0  0
    5.4508   -8.9019    0.0000 C   0  0
    6.4107   -7.5934    0.0000 C   0  0
    9.0219   -6.4336    0.0000 C   0  0
   10.7302  -13.6671    0.0000 C   0  0
   11.9016  -12.4958    0.0000 C   0  0
    5.2451  -12.5701    0.0000 C   0  0
    4.4052  -11.4216    0.0000 C   0  0
    8.7305   -5.0281    0.0000 C   0  0
    8.4734   -5.8165    0.0000 C   0  0
    5.8279   -8.1649    0.0000 C   0  0
   12.6843  -10.4960    0.0000 C   0  0
   13.0614   -9.7590    0.0000 C   0  0
   11.5245  -13.8728    0.0000 C   0  0
   12.1073  -13.2900    0.0000 C   0  0
    3.7367  -11.9016    0.0000 C   0  0
    4.5824  -13.0614    0.0000 C   0  0
    3.8282  -12.7243    0.0000 C   0  0
   10.7750   -7.9522    0.0000 H   0  0
   10.9987  -10.8620    0.0000 H   0  0
  4  2  1  0
  3  1  1  0
  4  3  1  0
  5  1  1  0
  6  2  1  0
  7  5  1  0
  8 10  1  0
  9  8  1  0
 10  6  1  0
 11  7  1  0
 12  2  1  0
 13  1  1  0
 14 15  1  0
 15  9  1  0
 16  5  1  0
 17  4  1  0
 18 21  1  0
 19 13  1  0
 20 34  1  0
 21 11  1  0
 22 40  1  0
 23 24  2  0
 24 17  1  0
 25  3  2  0
 26 18  1  0
 27  6  2  0
 28 20  2  0
 29  7  2  0
 30  9  2  0
 31 18  2  0
 15 32  1  6
 33 22  2  0
 34 47  1  0
 35 20  1  0
 10 36  1  6
 37 13  1  0
 38 36  1  0
 39 19  1  0
 40 49  1  0
 41 26  1  0
 21 42  1  6
 43 23  1  0
 44 24  1  0
 45 32  2  0
 46 32  1  0
 47 48  1  0
 48 42  1  0
 49 41  1  0
 50 37  1  0
 51 50  1  0
 52 53  1  0
 53 44  2  0
 54 46  2  0
 55 45  1  0
 56 54  1  0
 16 19  1  0
 39 51  1  0
 12 23  1  0
 52 43  2  0
 14 22  1  0
 55 56  2  0
  5 57  1  1
  4 58  1  6
M  END