
  Mrv0541 04051115152D          

 20 22  0  0  0  0            999 V2000
    0.9209    1.0463    0.0000 O   0  0  0  0  0  0  0  0  0  0  0  0
    0.0959    1.0463    0.0000 C   0  0  2  0  0  0  0  0  0  0  0  0
   -0.3890    1.7138    0.0000 C   0  0  2  0  0  0  0  0  0  0  0  0
   -0.1341    2.4984    0.0000 O   0  0  0  0  0  0  0  0  0  0  0  0
   -1.1736    1.4588    0.0000 C   0  0  1  0  0  0  0  0  0  0  0  0
   -1.8411    1.9438    0.0000 C   0  0  0  0  0  0  0  0  0  0  0  0
   -1.7548    2.7642    0.0000 O   0  0  0  0  0  0  0  0  0  0  0  0
   -1.1736    0.6338    0.0000 O   0  0  0  0  0  0  0  0  0  0  0  0
   -0.3890    0.3789    0.0000 C   0  0  1  0  0  0  0  0  0  0  0  0
   -0.1341   -0.4057    0.0000 N   0  0  0  0  0  0  0  0  0  0  0  0
    0.6506   -0.6607    0.0000 C   0  0  0  0  0  0  0  0  0  0  0  0
    1.3650   -0.2482    0.0000 N   0  0  0  0  0  0  0  0  0  0  0  0
    2.0795   -0.6607    0.0000 C   0  0  0  0  0  0  0  0  0  0  0  0
    2.0795   -1.4857    0.0000 N   0  0  0  0  0  0  0  0  0  0  0  0
    1.3650   -1.8982    0.0000 C   0  0  0  0  0  0  0  0  0  0  0  0
    1.3650   -2.7232    0.0000 N   0  0  0  0  0  0  0  0  0  0  0  0
    0.6506   -1.4857    0.0000 C   0  0  0  0  0  0  0  0  0  0  0  0
   -0.1341   -1.7406    0.0000 N   0  0  0  0  0  0  0  0  0  0  0  0
   -0.6190   -1.0732    0.0000 C   0  0  0  0  0  0  0  0  0  0  0  0
   -1.4440   -1.0732    0.0000 N   0  0  0  0  0  0  0  0  0  0  0  0
  2  1  1  1  0  0  0
  3  2  1  0  0  0  0
  9  2  1  0  0  0  0
  3  4  1  1  0  0  0
  5  3  1  0  0  0  0
  5  6  1  6  0  0  0
  5  8  1  0  0  0  0
  6  7  1  0  0  0  0
  9  8  1  0  0  0  0
  9 10  1  6  0  0  0
 11 10  1  0  0  0  0
 19 10  1  0  0  0  0
 11 12  2  0  0  0  0
 11 17  1  0  0  0  0
 13 12  1  0  0  0  0
 13 14  2  0  0  0  0
 15 14  1  0  0  0  0
 15 16  1  0  0  0  0
 15 17  2  0  0  0  0
 17 18  1  0  0  0  0
 19 18  2  0  0  0  0
 19 20  1  0  0  0  0
M  END