
  SciTegic06051315212D

 32 37  0  0  0  0            999 V2000
   11.9180   -5.3777    0.0000 C   0  0
   11.9169   -6.1973    0.0000 N   0  0
   12.6249   -6.6062    0.0000 C   0  0
   13.3346   -6.1968    0.0000 C   0  0
   13.3318   -5.3741    0.0000 C   0  0
   12.6231   -4.9689    0.0000 C   0  0
   13.9770   -4.8725    0.0000 N   0  0
   14.7178   -3.7746    0.0000 N   0  0
   13.9494   -4.0547    0.0000 C   0  0
   15.2211   -4.4199    0.0000 C   0  0
   14.7617   -5.0949    0.0000 C   0  0
   15.1166   -5.8281    0.0000 C   0  0
   15.9307   -5.8876    0.0000 C   0  0
   16.3885   -5.2078    0.0000 C   0  0
   16.0311   -4.4773    0.0000 C   0  0
   12.6247   -7.4234    0.0000 N   0  0
   11.9169   -7.8319    0.0000 C   0  0
   13.2265   -3.6773    0.0000 C   0  0
   13.1959   -2.8596    0.0000 C   0  0
   11.8161   -3.7356    0.0000 C   0  0
   12.5388   -4.1125    0.0000 C   0  0
   11.7815   -2.9149    0.0000 C   0  0
   12.4762   -2.4796    0.0000 C   0  0
   12.4456   -1.6622    0.0000 C   0  0
   11.7211   -1.2791    0.0000 C   0  0
   11.0258   -1.7195    0.0000 C   0  0
   11.0598   -2.5354    0.0000 C   0  0
   11.2127   -7.4208    0.0000 C   0  0
   10.5070   -7.8257    0.0000 C   0  0
   10.5026   -8.6433    0.0000 O   0  0
   11.2100   -9.0542    0.0000 C   0  0
   11.9219   -8.6476    0.0000 C   0  0
  1  2  2  0
  2  3  1  0
  3  4  2  0
  4  5  1  0
  5  6  2  0
  6  1  1  0
  5  7  1  0
  7 11  1  0
 10  8  1  0
  8  9  2  0
  9  7  1  0
 10 11  2  0
 11 12  1  0
 12 13  2  0
 13 14  1  0
 14 15  2  0
 15 10  1  0
  3 16  1  0
 16 17  1  0
 18 19  2  0
 19 23  1  0
 22 20  1  0
 20 21  2  0
 21 18  1  0
  9 18  1  0
 22 23  1  0
 23 24  2  0
 24 25  1  0
 25 26  2  0
 26 27  1  0
 27 22  2  0
 17 28  1  0
 17 32  1  0
 28 29  1  0
 29 30  1  0
 30 31  1  0
 31 32  1  0
M  END