
  SciTegic12231509382D

 29 33  0  0  1  0            999 V2000
    8.8916   -1.1296    0.0000 O   0  0
    6.4600   -1.5908    0.0000 O   0  0
    7.8089   -2.0622    0.0000 O   0  0
    5.9275    1.2170    0.0000 N   0  0
    4.4166   -0.4208    0.0000 N   0  0
    4.8448    0.2845    0.0000 C   0  0
    5.6553    0.4382    0.0000 C   0  0  2  0  0  0
    4.3064    0.9096    0.0000 C   0  0
    7.0043   -0.0332    0.0000 C   0  0  2  0  0  0
    3.5455    0.5907    0.0000 C   0  0
    7.2764    0.7456    0.0000 C   0  0  2  0  0  0
    6.1937   -0.1869    0.0000 C   0  0
    3.6136   -0.2315    0.0000 C   0  0
    7.5427   -0.6583    0.0000 C   0  0  1  0  0  0
    6.7380    1.3707    0.0000 C   0  0
    4.5785    1.6884    0.0000 C   0  0
    5.3891    1.8421    0.0000 C   0  0
    8.3532   -0.5045    0.0000 C   0  0  2  0  0  0
    8.0870    0.8994    0.0000 C   0  0
    2.7994    0.9427    0.0000 C   0  0
    7.2705   -1.4371    0.0000 C   0  0
    2.9357   -0.7016    0.0000 C   0  0
    8.6254    0.2743    0.0000 C   0  0
    2.1214    0.4726    0.0000 C   0  0
    2.1896   -0.3496    0.0000 C   0  0
    6.1878   -2.3696    0.0000 C   0  0
    7.6062    1.6896    0.0000 H   0  0
    6.6744   -0.9772    0.0000 H   0  0
    5.3254   -0.5058    0.0000 H   0  0
 18  1  1  6
  2 21  1  0
  2 26  1  0
  3 21  2  0
  4  7  1  0
  4 15  1  0
  4 17  1  0
  5  6  1  0
  5 13  1  0
  6  7  1  0
  6  8  2  0
  7 12  1  0
  8 10  1  0
  8 16  1  0
  9 11  1  0
  9 12  1  0
  9 14  1  0
 10 13  1  0
 10 20  2  0
 11 15  1  0
 11 19  1  0
 13 22  2  0
 14 18  1  0
 14 21  1  1
 16 17  1  0
 18 23  1  0
 19 23  1  0
 20 24  1  0
 22 25  1  0
 24 25  2  0
 11 27  1  1
  9 28  1  6
  7 29  1  6
M  END