
  CDK    9/16/09,9:50

 42 45  0  0  0  0  0  0  0  0999 V2000
    3.9881   -1.0940    0.0000 C   0  0  0  0  0  0  0  0  0  0  0  0
    4.7047   -1.5027    0.0000 C   0  0  0  0  0  0  0  0  0  0  0  0
   -1.0351    0.9383    0.0000 C   0  0  0  0  0  0  0  0  0  0  0  0
   -0.3203    1.3549    0.0000 C   0  0  0  0  0  0  0  0  0  0  0  0
   -0.3247    2.1804    0.0000 C   0  0  0  0  0  0  0  0  0  0  0  0
   -1.0432    2.5902    0.0000 C   0  0  0  0  0  0  0  0  0  0  0  0
   -1.7587    2.1685    0.0000 C   0  0  0  0  0  0  0  0  0  0  0  0
   -1.7507    1.3444    0.0000 C   0  0  0  0  0  0  0  0  0  0  0  0
   -2.4770    2.5743    0.0000 O   0  0  0  0  0  0  0  0  0  0  0  0
    0.3998    0.9403    0.0000 C   0  0  0  0  0  0  0  0  0  0  0  0
   -1.0303    0.1133    0.0000 C   0  0  0  0  0  0  0  0  0  0  0  0
    0.3875    2.5967    0.0000 C   0  0  0  0  0  0  0  0  0  0  0  0
    0.4069    0.1153    0.0000 C   0  0  0  0  0  0  0  0  0  0  0  0
   -0.3040   -0.3033    0.0000 N   0  0  0  0  0  0  0  0  0  0  0  0
    1.1249   -0.2910    0.0000 C   0  0  0  0  0  0  0  0  0  0  0  0
    1.8391    0.1274    0.0000 O   0  0  0  0  0  0  0  0  0  0  0  0
    1.1311   -1.1160    0.0000 N   0  0  0  0  0  0  0  0  0  0  0  0
    0.4135   -1.5322    0.0000 C   0  0  0  0  0  0  0  0  0  0  0  0
    1.8466   -2.3480    0.0000 C   0  0  0  0  0  0  0  0  0  0  0  0
    1.8440   -1.5204    0.0000 C   0  0  0  0  0  0  0  0  0  0  0  0
    1.1334   -2.7646    0.0000 C   0  0  0  0  0  0  0  0  0  0  0  0
    0.4224   -2.3517    0.0000 C   0  0  0  0  0  0  0  0  0  0  0  0
   -0.2886   -2.7609    0.0000 C   0  0  0  0  0  0  0  0  0  0  0  0
   -0.2898   -3.5828    0.0000 C   0  0  0  0  0  0  0  0  0  0  0  0
    0.4259   -3.9939    0.0000 C   0  0  0  0  0  0  0  0  0  0  0  0
    1.1340   -3.5823    0.0000 C   0  0  0  0  0  0  0  0  0  0  0  0
    2.5591   -1.1017    0.0000 C   0  0  0  0  0  0  0  0  0  0  0  0
    3.2758   -1.5104    0.0000 N   0  0  0  0  0  0  0  0  0  0  0  0
    2.5547   -0.2767    0.0000 O   0  0  0  0  0  0  0  0  0  0  0  0
    4.7128   -2.3280    0.0000 N   0  0  0  0  0  0  0  0  0  0  0  0
    5.4206   -1.0867    0.0000 O   0  0  0  0  0  0  0  0  0  0  0  0
    5.4313   -2.7335    0.0000 C   0  0  0  0  0  0  0  0  0  0  0  0
    5.4345   -3.5594    0.0000 C   0  0  0  0  0  0  0  0  0  0  0  0
    6.1521   -3.9648    0.0000 C   0  0  0  0  0  0  0  0  0  0  0  0
    6.8635   -3.5453    0.0000 C   0  0  0  0  0  0  0  0  0  0  0  0
    6.8527   -2.7161    0.0000 C   0  0  0  0  0  0  0  0  0  0  0  0
    6.1345   -2.3144    0.0000 C   0  0  0  0  0  0  0  0  0  0  0  0
    3.9836   -0.2690    0.0000 C   0  0  0  0  0  0  0  0  0  0  0  0
    4.6959    0.1473    0.0000 C   0  0  0  0  0  0  0  0  0  0  0  0
    5.4147   -0.2588    0.0000 O   0  0  0  0  0  0  0  0  0  0  0  0
    4.6936    0.9749    0.0000 O   0  0  0  0  0  0  0  0  0  0  0  0
    4.0024   -2.7475    0.0000 C   0  0  0  0  0  0  0  0  0  0  0  0
  5  6  2  0  0  0  0 
  3 11  1  0  0  0  0 
 21 22  2  0  0  0  0 
  3  4  2  0  0  0  0 
 22 23  1  0  0  0  0 
  5 12  1  0  0  0  0 
 23 24  2  0  0  0  0 
  6  7  1  0  0  0  0 
 24 25  1  0  0  0  0 
 13 10  1  1  0  0  0 
 25 26  2  0  0  0  0 
 26 21  1  0  0  0  0 
 13 14  1  0  0  0  0 
  7  8  2  0  0  0  0 
 27 28  1  0  0  0  0 
 27 29  2  0  0  0  0 
 20 27  1  6  0  0  0 
 28  1  1  0  0  0  0 
 13 15  1  0  0  0  0 
  8  3  1  0  0  0  0 
  2 30  1  0  0  0  0 
  2 31  2  0  0  0  0 
 15 16  2  0  0  0  0 
 30 32  1  0  0  0  0 
  4  5  1  0  0  0  0 
 32 33  2  0  0  0  0 
 15 17  1  0  0  0  0 
 33 34  1  0  0  0  0 
 17 18  1  0  0  0  0 
 34 35  2  0  0  0  0 
  7  9  1  0  0  0  0 
 35 36  1  0  0  0  0 
  1  2  1  0  0  0  0 
 36 37  2  0  0  0  0 
 37 32  1  0  0  0  0 
  4 10  1  0  0  0  0 
  1 38  1  1  0  0  0 
 17 20  1  0  0  0  0 
 38 39  1  0  0  0  0 
 18 22  1  0  0  0  0 
 21 19  1  0  0  0  0 
 39 40  1  0  0  0  0 
 39 41  2  0  0  0  0 
 19 20  1  0  0  0  0 
 30 42  1  0  0  0  0 
M  END