
  SciTegic04071410272D

 30 32  0  0  0  0            999 V2000
   -1.5699    1.1135    0.0000 C   0  0  1  0  0  0
   -0.5029    0.3116    0.0000 C   0  0  2  0  0  0
   -1.0191    0.7403    0.0000 C   0  0
   -1.9908    0.7403    0.0000 C   0  0  1  0  0  0
   -2.1305    1.5534    0.0000 N   0  3
   -0.6411    1.1290    0.0000 C   0  0
   -2.5107    0.0280    0.0000 C   0  0
   -1.8904    0.4049    0.0000 C   0  0
   -0.0911   -0.4033    0.0000 C   0  0
    0.7339   -0.4041    0.0000 C   0  0
    0.7331   -1.2291    0.0000 C   0  0
    1.5589   -0.4049    0.0000 C   0  0
   -1.7598    1.9164    0.0000 H   0  0
   -2.5936    1.3036    0.0000 H   0  0
    0.7347    0.4209    0.0000 C   0  0
    1.9721    0.3092    0.0000 C   0  0
    2.7971    0.3084    0.0000 C   0  0
    3.2089   -0.4065    0.0000 C   0  0
    2.7957   -1.1206    0.0000 C   0  0
    1.9707   -1.1198    0.0000 C   0  0
    1.4471   -1.6423    0.0000 C   0  0
    1.4463   -2.4673    0.0000 C   0  0
    0.7314   -2.8791    0.0000 C   0  0
    0.0174   -2.4659    0.0000 C   0  0
    0.0182   -1.6409    0.0000 C   0  0
   -2.8949    1.8638    0.0000 C   0  0
   -2.0404    2.3735    0.0000 C   0  0
    1.4496    0.8327    0.0000 N   0  0
    0.0206    0.8341    0.0000 O   0  0
    5.3303    0.0000    0.0000 I   0  5
  4  5  1  0
  4 14  1  1
  1  5  1  0
 10 15  1  0
  1  6  1  0
 12 16  2  0
  6  2  1  0
 16 17  1  0
  4  7  1  0
 17 18  2  0
  1  8  1  0
 18 19  1  0
  7  8  1  0
 19 20  2  0
 20 12  1  0
 11 21  2  0
  2  9  1  6
 21 22  1  0
 22 23  2  0
  9 10  1  0
 23 24  1  0
 24 25  2  0
 25 11  1  0
 10 11  1  0
  5 26  1  0
  2  3  1  0
  5 27  1  0
 10 12  1  0
 15 28  1  0
  3  4  1  0
 15 29  2  0
  1 13  1  6
M  CHG  2   5   1  30  -1
M  END