
  CDK    9/16/09,9:59

 26 29  0  0  0  0  0  0  0  0999 V2000
    1.4699    1.9924    0.0000 C   0  0  0  0  0  0  0  0  0  0  0  0
    1.4687    1.1647    0.0000 C   0  0  0  0  0  0  0  0  0  0  0  0
    2.1839    0.7518    0.0000 C   0  0  0  0  0  0  0  0  0  0  0  0
    2.9005    1.1652    0.0000 C   0  0  0  0  0  0  0  0  0  0  0  0
    2.8976    1.9960    0.0000 C   0  0  0  0  0  0  0  0  0  0  0  0
    2.1821    2.4054    0.0000 C   0  0  0  0  0  0  0  0  0  0  0  0
    2.1837   -0.0735    0.0000 C   0  0  0  0  0  0  0  0  0  0  0  0
    1.4636   -0.4821    0.0000 C   0  0  0  0  0  0  0  0  0  0  0  0
    1.4614   -1.3038    0.0000 C   0  0  0  0  0  0  0  0  0  0  0  0
    2.1742   -1.7205    0.0000 N   0  0  0  0  0  0  0  0  0  0  0  0
    2.8908   -1.3093    0.0000 C   0  0  0  0  0  0  0  0  0  0  0  0
    2.8947   -0.4813    0.0000 C   0  0  0  0  0  0  0  0  0  0  0  0
    2.1709   -2.5457    0.0000 C   0  0  0  0  0  0  0  0  0  0  0  0
    1.4538   -2.9493    0.0000 C   0  0  0  0  0  0  0  0  0  0  0  0
    2.8779   -3.7819    0.0000 C   0  0  0  0  0  0  0  0  0  0  0  0
    2.8849   -2.9540    0.0000 C   0  0  0  0  0  0  0  0  0  0  0  0
    3.6005   -2.5427    0.0000 O   0  0  0  0  0  0  0  0  0  0  0  0
    2.8927    0.3459    0.0000 C   0  0  0  0  0  0  0  0  0  0  0  0
    3.6118   -0.0590    0.0000 N   0  0  0  0  0  0  0  0  0  0  0  0
    2.1598   -4.1903    0.0000 C   0  0  0  0  0  0  0  0  0  0  0  0
    1.4494   -3.7707    0.0000 C   0  0  0  0  0  0  0  0  0  0  0  0
    0.7330   -4.1761    0.0000 C   0  0  0  0  0  0  0  0  0  0  0  0
    0.7257   -5.0008    0.0000 C   0  0  0  0  0  0  0  0  0  0  0  0
    1.4407   -5.4185    0.0000 C   0  0  0  0  0  0  0  0  0  0  0  0
    2.1543   -5.0109    0.0000 C   0  0  0  0  0  0  0  0  0  0  0  0
    0.0219   -3.7571    0.0000 I   0  0  0  0  0  0  0  0  0  0  0  0
  6  1  1  0  0  0  0 
 13 10  1  1  0  0  0 
 13 14  1  0  0  0  0 
  1  2  2  0  0  0  0 
  3  7  1  0  0  0  0 
  7  8  1  0  0  0  0 
 13 16  1  0  0  0  0 
 14 21  1  0  0  0  0 
 20 15  1  0  0  0  0 
 15 16  1  0  0  0  0 
  3  4  2  0  0  0  0 
 16 17  1  6  0  0  0 
  7 18  1  0  0  0  0 
  4  5  1  0  0  0  0 
 18 19  1  0  0  0  0 
  2  3  1  0  0  0  0 
  5  6  2  0  0  0  0 
 20 21  2  0  0  0  0 
  7 12  1  0  0  0  0 
 21 22  1  0  0  0  0 
  8  9  1  0  0  0  0 
 22 23  2  0  0  0  0 
  9 10  1  0  0  0  0 
 23 24  1  0  0  0  0 
 10 11  1  0  0  0  0 
 24 25  2  0  0  0  0 
 25 20  1  0  0  0  0 
 11 12  1  0  0  0  0 
 22 26  1  0  0  0  0 
M  END