
  SciTegic05071317032D

 33 34  0  0  0  0            999 V2000
   19.0788   -6.1289    0.0000 C   0  0
   19.0776   -6.9484    0.0000 C   0  0
   19.7857   -7.3574    0.0000 C   0  0
   20.4953   -6.9480    0.0000 C   0  0
   20.4925   -6.1253    0.0000 C   0  0
   19.7839   -5.7200    0.0000 C   0  0
   21.1987   -5.7140    0.0000 O   0  0
   21.9079   -6.1200    0.0000 C   0  0
   22.6141   -5.7087    0.0000 C   0  0
   23.3233   -6.1146    0.0000 C   0  0
   24.0295   -5.7034    0.0000 C   0  0
   24.7387   -6.1093    0.0000 C   0  0
   25.4449   -5.6980    0.0000 C   0  0
   26.1541   -6.1040    0.0000 C   0  0
   26.8603   -5.6927    0.0000 C   0  0
   27.5695   -6.0986    0.0000 C   0  0
   28.2757   -5.6874    0.0000 N   0  0
   28.9847   -6.0955    0.0000 C   0  0
   29.6888   -5.6877    0.0000 C   0  0
   29.6899   -4.8702    0.0000 N   0  0
   28.9808   -4.4621    0.0000 C   0  0
   28.2706   -4.8715    0.0000 C   0  0
   30.3976   -4.4616    0.0000 C   0  0
   31.1053   -4.8702    0.0000 C   0  0
   31.8130   -4.4616    0.0000 C   0  0
   32.5207   -4.8702    0.0000 C   0  0
   33.2285   -4.4616    0.0000 N   0  0
   33.9358   -4.8725    0.0000 C   0  0
   34.6414   -4.4674    0.0000 C   0  0
   34.6457   -3.6498    0.0000 C   0  0
   33.9381   -3.2391    0.0000 C   0  0
   33.2264   -3.6458    0.0000 C   0  0
   27.8996   -7.5501    0.0000 Cl  0  0
  1  2  2  0
  2  3  1  0
  3  4  2  0
  4  5  1  0
  5  6  2  0
  6  1  1  0
  5  7  1  0
  7  8  1  0
  8  9  1  0
  9 10  1  0
 10 11  1  0
 11 12  1  0
 12 13  1  0
 13 14  1  0
 14 15  1  0
 15 16  1  0
 16 17  1  0
 17 18  1  0
 17 22  1  0
 18 19  1  0
 19 20  1  0
 20 21  1  0
 21 22  1  0
 20 23  1  0
 23 24  1  0
 24 25  1  0
 25 26  1  0
 26 27  1  0
 27 28  1  0
 27 32  1  0
 28 29  1  0
 29 30  1  0
 30 31  1  0
 31 32  1  0
M  END