
  SciTegic03291108552D

 20 22  0  0  0  0            999 V2000
    0.8475   -0.2374    0.0000 O   0  0
    2.2765    2.2376    0.0000 O   0  0
   -0.5814    2.2376    0.0000 N   0  0
    1.5620    1.0001    0.0000 N   0  0
   -0.5814    0.5876    0.0000 N   0  0
    0.8475    2.2376    0.0000 N   0  0
   -1.2959    1.8251    0.0000 N   0  0
    0.1331    1.0001    0.0000 C   0  0
    0.1331    1.8251    0.0000 C   0  0
    0.8475    0.5876    0.0000 C   0  0
   -1.2959    1.0001    0.0000 C   0  0
    1.5620    1.8251    0.0000 C   0  0
   -2.0103    0.5876    0.0000 C   0  0
   -0.5814    3.0626    0.0000 C   0  0
    2.2765    0.5876    0.0000 C   0  0
   -2.0103   -0.2375    0.0000 C   0  0
   -2.7248    1.0000    0.0000 C   0  0
   -2.7248   -0.6500    0.0000 C   0  0
   -3.4393    0.5875    0.0000 C   0  0
   -3.4393   -0.2375    0.0000 C   0  0
  1 10  2  0
  2 12  2  0
  3  7  1  0
  3  9  1  0
  3 14  1  0
  4 10  1  0
  4 12  1  0
  4 15  1  0
  5  8  2  0
  5 11  1  0
  6  9  2  0
  6 12  1  0
  7 11  2  0
  8  9  1  0
  8 10  1  0
 11 13  1  0
 13 16  2  0
 13 17  1  0
 16 18  1  0
 17 19  2  0
 18 20  2  0
 19 20  1  0
M  END