
  SciTegic05071316502D

 13 14  0  0  0  0            999 V2000
    2.0801   -8.4319    0.0000 C   0  0
    2.0801   -9.2491    0.0000 C   0  0
    2.7854   -9.6536    0.0000 C   0  0
    2.7854   -8.0192    0.0000 C   0  0
    3.4907   -8.4319    0.0000 C   0  0
    3.4952   -9.2501    0.0000 N   0  0
    4.2747   -9.4987    0.0000 C   0  0
    4.7521   -8.8341    0.0000 C   0  0
    4.2674   -8.1749    0.0000 N   0  0
    5.5705   -8.8296    0.0000 C   0  0
    5.9830   -9.5350    0.0000 O   0  0
    5.9751   -8.1196    0.0000 O   0  0
    4.5315  -10.2745    0.0000 N   0  0
  1  2  1  0
  1  4  2  0
  2  3  2  0
  3  6  1  0
  5  4  1  0
  5  6  1  0
  6  7  1  0
  7  8  2  0
  8  9  1  0
  9  5  2  0
 10 11  1  0
 10 12  2  0
  8 10  1  0
  7 13  1  0
M  END