
  SciTegic05281310212D

 28 29  0  0  0  0            999 V2000
   -4.6223   -8.5583    0.0000 C   0  0
   -4.6234   -9.3857    0.0000 C   0  0
   -3.9086   -9.7985    0.0000 C   0  0
   -3.9104   -8.1455    0.0000 C   0  0
   -3.1950   -8.5547    0.0000 C   0  0
   -3.1943   -9.3815    0.0000 C   0  0
   -2.4790   -9.7925    0.0000 O   0  0
   -1.7639   -9.3777    0.0000 C   0  0
   -1.7687   -8.5477    0.0000 C   0  0  1  0  0  0
   -2.4846   -8.1405    0.0000 O   0  0
   -1.0568   -8.1309    0.0000 C   0  0
   -0.3398   -8.5390    0.0000 N   0  0
    0.3722   -8.1222    0.0000 C   0  0
    1.0891   -8.5303    0.0000 C   0  0
    1.8011   -8.1135    0.0000 O   0  0
    2.5180   -8.5216    0.0000 C   0  0
    2.5189   -9.3469    0.0000 C   0  0
    3.2350   -9.7550    0.0000 C   0  0
    3.9480   -9.3381    0.0000 C   0  0
    3.9403   -8.5089    0.0000 C   0  0
    3.2236   -8.1045    0.0000 C   0  0
    1.8058   -9.7618    0.0000 O   0  0
    1.8086  -10.5868    0.0000 C   0  0
    3.2152   -7.2796    0.0000 O   0  0
    3.9255   -6.8598    0.0000 C   0  0
   -3.9129   -7.3205    0.0000 O   0  0
   -3.1996   -6.9059    0.0000 C   0  0
    1.0333   -6.8125    0.0000 Cl  0  0
  5  6  1  0
 13 14  1  0
  2  3  1  0
 14 15  1  0
  6  7  1  0
 15 16  1  0
  3  6  2  0
 16 17  2  0
  7  8  1  0
 17 18  1  0
 18 19  2  0
  8  9  1  0
 19 20  1  0
  5  4  2  0
 20 21  2  0
 21 16  1  0
  9 10  1  0
 17 22  1  0
 10  5  1  0
 22 23  1  0
  4  1  1  0
 21 24  1  0
  9 11  1  1
 24 25  1  0
  1  2  2  0
  4 26  1  0
 11 12  1  0
 26 27  1  0
 12 13  1  0
M  END