
          11280715012D 1   1.00000     0.00000     0

 35 39  0     0  0            999 V2000
   -0.4750   -1.2875    0.0000 N   0  0  3  0  0  0           0  0  0
   -0.9583   -0.6167    0.0000 C   0  0  0  0  0  0           0  0  0
   -1.7625   -0.7000    0.0000 N   0  0  3  0  0  0           0  0  0
   -1.6250   -2.1167    0.0000 N   0  0  0  0  0  0           0  0  0
   -0.8083   -2.0375    0.0000 C   0  0  0  0  0  0           0  0  0
   -2.1083   -1.4500    0.0000 C   0  0  0  0  0  0           0  0  0
    4.0750   -0.5542    0.0000 C   0  0  0  0  0  0           0  0  0
    0.3542   -1.2792    0.0000 C   0  0  0  0  0  0           0  0  0
    3.2500   -0.5667    0.0000 C   0  0  0  0  0  0           0  0  0
    1.5917   -0.5667    0.0000 N   0  0  3  0  0  0           0  0  0
   -0.7000    0.1708    0.0000 O   0  0  0  0  0  0           0  0  0
   -0.3208   -2.7042    0.0000 O   0  0  0  0  0  0           0  0  0
    4.4792    0.1625    0.0000 C   0  0  0  0  0  0           0  0  0
    4.4917   -1.2667    0.0000 C   0  0  0  0  0  0           0  0  0
    2.8375   -1.2792    0.0000 C   0  0  0  0  0  0           0  0  0
    2.8375    0.1458    0.0000 C   0  0  0  0  0  0           0  0  0
    0.7667   -0.5667    0.0000 C   0  0  0  0  0  0           0  0  0
   -2.2375   -0.0292    0.0000 C   0  0  0  0  0  0           0  0  0
    5.3125   -1.2542    0.0000 C   0  0  0  0  0  0           0  0  0
    4.0625    0.8833    0.0000 C   0  0  0  0  0  0           0  0  0
    5.3042    0.1708    0.0000 C   0  0  0  0  0  0           0  0  0
    4.0875   -1.9792    0.0000 C   0  0  0  0  0  0           0  0  0
    2.0042    0.1458    0.0000 C   0  0  0  0  0  0           0  0  0
    2.0042   -1.2792    0.0000 C   0  0  0  0  0  0           0  0  0
    5.3000    1.6083    0.0000 C   0  0  0  0  0  0           0  0  0
    5.3292   -2.6792    0.0000 C   0  0  0  0  0  0           0  0  0
   -2.9250   -1.5292    0.0000 C   0  0  0  0  0  0           0  0  0
    4.5042   -2.6917    0.0000 C   0  0  0  0  0  0           0  0  0
    4.4667    1.6000    0.0000 C   0  0  0  0  0  0           0  0  0
    5.7375   -1.9542    0.0000 C   0  0  0  0  0  0           0  0  0
    5.7167    0.8833    0.0000 C   0  0  0  0  0  0           0  0  0
    5.7042    2.3333    0.0000 F   0  0  0  0  0  0           0  0  0
    5.7500   -3.3917    0.0000 F   0  0  0  0  0  0           0  0  0
   -3.0583   -0.1042    0.0000 C   0  0  0  0  0  0           0  0  0
   -3.4000   -0.8542    0.0000 C   0  0  0  0  0  0           0  0  0
  2  1  1  0     0  0
  3  2  1  0     0  0
  4  5  1  0     0  0
  5  1  1  0     0  0
  6  4  2  0     0  0
  7  9  2  0     0  0
  8  1  1  0     0  0
  9 15  1  0     0  0
 10 17  1  0     0  0
 11  2  2  0     0  0
 12  5  2  0     0  0
 13  7  1  0     0  0
 14  7  1  0     0  0
 15 24  1  0     0  0
 16 23  1  0     0  0
 17  8  1  0     0  0
 18  3  1  0     0  0
 19 14  1  0     0  0
 20 13  1  0     0  0
 21 13  2  0     0  0
 22 14  2  0     0  0
 23 10  1  0     0  0
 24 10  1  0     0  0
 25 31  2  0     0  0
 26 28  2  0     0  0
 27  6  1  0     0  0
 28 22  1  0     0  0
 29 20  2  0     0  0
 30 19  2  0     0  0
 31 21  1  0     0  0
 32 25  1  0     0  0
 33 26  1  0     0  0
 34 18  1  0     0  0
 35 27  1  0     0  0
  6  3  1  0     0  0
 16  9  1  0     0  0
 34 35  1  0     0  0
 30 26  1  0     0  0
 25 29  1  0     0  0
M  END