
  SciTegic11161115462D

 31 32  0  0  0  0            999 V2000
    9.3875    0.9083    0.0000 C   0  0
    9.3875    0.0833    0.0000 C   0  0
   10.0995   -0.3250    0.0000 C   0  0
   10.8115    0.0833    0.0000 C   0  0
   10.8115    0.9083    0.0000 C   0  0
   10.0995    1.3250    0.0000 C   0  0
    9.6792    2.0417    0.0000 C   0  0
   10.5042    2.0417    0.0000 C   0  0
   11.5272    1.3187    0.0000 C   0  0
   12.2405    0.9041    0.0000 C   0  0
   12.9562    1.3146    0.0000 C   0  0
   13.6694    0.9000    0.0000 C   0  0
   14.3851    1.3104    0.0000 C   0  0
   15.0983    0.8958    0.0000 C   0  0
   15.8140    1.3062    0.0000 C   0  0
   16.5273    0.8916    0.0000 C   0  0
   17.2430    1.3020    0.0000 C   0  0
   17.9562    0.8874    0.0000 N   0  0
   17.2454    2.1270    0.0000 O   0  0
   11.5254   -0.3302    0.0000 C   0  0
   12.9586    2.1395    0.0000 C   0  0
   15.8164    2.1312    0.0000 C   0  0
   18.6719    1.2978    0.0000 C   0  0
   19.3823    0.8805    0.0000 C   0  0
   20.0974    1.2902    0.0000 C   0  0
   20.1003    2.1161    0.0000 C   0  0
   19.3820    2.5305    0.0000 C   0  0
   18.6698    2.1184    0.0000 C   0  0
   20.8154    2.5274    0.0000 N   0  0
   21.5293    2.1138    0.0000 C   0  0
   20.8168    3.3524    0.0000 C   0  0
  1  2  1  0
 15 16  2  0
  6  8  1  0
 16 17  1  0
  1  6  1  0
 17 18  1  0
  5  9  1  0
 17 19  2  0
  2  3  1  0
  4 20  1  0
  9 10  2  0
 11 21  1  0
  3  4  1  0
 15 22  1  0
 10 11  1  0
 18 23  1  0
  4  5  2  0
 23 24  2  0
 11 12  2  0
 24 25  1  0
  5  6  1  0
 25 26  2  0
 12 13  1  0
 26 27  1  0
 27 28  2  0
 28 23  1  0
 13 14  2  0
 26 29  1  0
  6  7  1  0
 29 30  1  0
 14 15  1  0
 29 31  1  0
M  END