
          11280715422D 1   1.00000     0.00000     0

 35 38  0     0  0            999 V2000
   -1.3750    0.3458    0.0000 C   0  0  0  0  0  0           0  0  0
   -0.3833    1.2458    0.0000 C   0  0  0  0  0  0           0  0  0
   -1.2000    1.1500    0.0000 N   0  0  0  0  0  0           0  0  0
   -0.6625   -0.0750    0.0000 N   0  0  3  0  0  0           0  0  0
   -0.0458    0.4833    0.0000 C   0  0  0  0  0  0           0  0  0
   -2.1000    0.2625    0.0000 C   0  0  0  0  0  0           0  0  0
    0.0292    1.9583    0.0000 C   0  0  0  0  0  0           0  0  0
    3.3292   -0.9000    0.0000 C   0  0  3  0  0  0           0  0  0
   -2.5083    0.9833    0.0000 C   0  0  0  0  0  0           0  0  0
   -0.6708   -0.8917    0.0000 C   0  0  0  0  0  0           0  0  0
   -2.5208   -0.4542    0.0000 C   0  0  0  0  0  0           0  0  0
    0.8542    1.9583    0.0000 N   0  0  0  0  0  0           0  0  0
   -3.3375    0.9833    0.0000 C   0  0  0  0  0  0           0  0  0
    2.9167   -0.1792    0.0000 C   0  0  0  0  0  0           0  0  0
   -0.0083    2.7833    0.0000 O   0  0  0  0  0  0           0  0  0
    3.7042   -1.5500    0.0000 F   0  0  0  0  0  0           0  0  0
    3.0250   -1.7000    0.0000 F   0  0  0  0  0  0           0  0  0
    4.1792   -1.0375    0.0000 F   0  0  0  0  0  0           0  0  0
    0.0375   -1.3000    0.0000 C   0  0  0  0  0  0           0  0  0
   -1.3833   -1.2917    0.0000 C   0  0  0  0  0  0           0  0  0
    3.3250    0.5375    0.0000 C   0  0  0  0  0  0           0  0  0
    2.0917   -0.1792    0.0000 C   0  0  0  0  0  0           0  0  0
   -3.7583    0.2708    0.0000 C   0  0  0  0  0  0           0  0  0
   -2.1000    1.7000    0.0000 Cl  0  0  0  0  0  0           0  0  0
    0.7542    0.3208    0.0000 C   0  0  0  0  0  0           0  0  0
    1.6792    1.9583    0.0000 C   0  0  0  0  0  0           0  0  0
   -3.3458   -0.4500    0.0000 C   0  0  0  0  0  0           0  0  0
   -0.6833   -2.5292    0.0000 C   0  0  0  0  0  0           0  0  0
    2.0917    1.2458    0.0000 C   0  0  0  0  0  0           0  0  0
    0.0292   -2.1167    0.0000 C   0  0  0  0  0  0           0  0  0
   -1.3958   -2.1167    0.0000 C   0  0  0  0  0  0           0  0  0
    2.9167    1.2458    0.0000 C   0  0  0  0  0  0           0  0  0
    1.6792    0.5250    0.0000 C   0  0  0  0  0  0           0  0  0
   -4.5833    0.2708    0.0000 Cl  0  0  0  0  0  0           0  0  0
   -0.6958   -3.3542    0.0000 Cl  0  0  0  0  0  0           0  0  0
  2  3  1  0     0  0
  3  1  2  0     0  0
  4  1  1  0     0  0
  5  4  1  0     0  0
  6  1  1  0     0  0
  7  2  1  0     0  0
  8 14  1  0     0  0
  9  6  2  0     0  0
 10  4  1  0     0  0
 11  6  1  0     0  0
 12  7  1  0     0  0
 13  9  1  0     0  0
 14 22  2  0     0  0
 15  7  2  0     0  0
 16  8  1  0     0  0
 17  8  1  0     0  0
 18  8  1  0     0  0
 19 10  1  0     0  0
 20 10  2  0     0  0
 21 32  2  0     0  0
 22 33  1  0     0  0
 23 27  1  0     0  0
 24  9  1  0     0  0
 25  5  1  0     0  0
 26 12  1  0     0  0
 27 11  2  0     0  0
 28 31  2  0     0  0
 29 26  1  0     0  0
 30 19  2  0     0  0
 31 20  1  0     0  0
 32 29  1  0     0  0
 33 29  2  0     0  0
 34 23  1  0     0  0
 35 28  1  0     0  0
  2  5  2  0     0  0
 23 13  2  0     0  0
 28 30  1  0     0  0
 14 21  1  0     0  0
M  END