
          03140815512D 1   1.00000     0.00000     0

 28 32  0     0  0            999 V2000
    2.6886  -24.0583    0.0000 C   0  0  0  0  0  0           0  0  0
    3.3298  -23.3746    0.0000 C   0  0  3  0  0  0           0  0  0
    3.4930  -23.8332    0.0000 C   0  0  3  0  0  0           0  0  0
    4.0412  -23.6373    0.0000 C   0  0  0  0  0  0           0  0  0
    4.2457  -24.1360    0.0000 C   0  0  0  0  0  0           0  0  0
    4.7890  -23.4518    0.0000 C   0  0  3  0  0  0           0  0  0
    3.4862  -22.9849    0.0000 C   0  0  0  0  0  0           0  0  0
    4.0469  -22.3228    0.0000 C   0  0  3  0  0  0           0  0  0
    3.3253  -22.5792    0.0000 C   0  0  0  0  0  0           0  0  0
    4.7948  -22.6329    0.0000 C   0  0  0  0  0  0           0  0  0
    4.0417  -21.4958    0.0000 C   0  0  0  0  0  0           0  0  0
    4.7535  -21.0788    0.0000 N   0  0  0  0  0  0           0  0  0
    5.4706  -21.4868    0.0000 C   0  0  0  0  0  0           0  0  0
    6.1824  -21.0698    0.0000 C   0  0  0  0  0  0           0  0  0
    5.4758  -22.3118    0.0000 O   0  0  0  0  0  0           0  0  0
    6.8968  -21.4784    0.0000 C   0  0  0  0  0  0           0  0  0
    7.6082  -21.0621    0.0000 C   0  0  0  0  0  0           0  0  0
    7.6034  -20.2362    0.0000 C   0  0  0  0  0  0           0  0  0
    6.8813  -19.8284    0.0000 C   0  0  0  0  0  0           0  0  0
    6.1729  -20.2471    0.0000 C   0  0  0  0  0  0           0  0  0
    6.9009  -22.3034    0.0000 Cl  0  0  0  0  0  0           0  0  0
    8.3147  -19.8182    0.0000 C   0  0  0  0  0  0           0  0  0
    9.0323  -20.2252    0.0000 N   0  0  3  0  0  0           0  0  0
    9.0332  -21.0509    0.0000 C   0  0  0  0  0  0           0  0  0
    9.7467  -21.4579    0.0000 C   0  0  0  0  0  0           0  0  0
   10.4605  -21.0434    0.0000 C   0  0  0  0  0  0           0  0  0
   10.4561  -20.2175    0.0000 C   0  0  0  0  0  0           0  0  0
    9.7380  -19.8060    0.0000 C   0  0  0  0  0  0           0  0  0
 12 13  1  0     0  0
  2  4  1  0     0  0
 13 14  1  0     0  0
  3  5  1  0     0  0
 13 15  2  0     0  0
  4  6  1  0     0  0
 14 16  2  0     0  0
  5  6  1  0     0  0
 16 17  1  0     0  0
  7  8  1  0     0  0
 17 18  2  0     0  0
  3  7  1  0     0  0
 18 19  1  0     0  0
  2  9  1  0     0  0
 19 20  2  0     0  0
 20 14  1  0     0  0
  6 10  1  0     0  0
 16 21  1  0     0  0
 10  8  1  0     0  0
 18 22  1  0     0  0
  8  9  1  0     0  0
 22 23  1  0     0  0
 23 24  1  0     0  0
  8 11  1  0     0  0
  1  2  1  0     0  0
 11 12  1  0     0  0
  1  3  1  0     0  0
 23 28  1  0     0  0
 24 25  1  0     0  0
 25 26  1  0     0  0
 26 27  1  0     0  0
 27 28  1  0     0  0
M  END