
  SciTegic04191613082D

187198  0  0  1  0            999 V2000
    2.2503    7.7170    0.0000 C   0  0
    3.5251    6.9321    0.0000 C   0  0
    4.8425    7.6436    0.0000 C   0  0
    4.8851    9.1401    0.0000 C   0  0
    3.6017    9.9411    0.0000 C   0  0
    2.2843    9.2296    0.0000 C   0  0
    6.1173    6.8587    0.0000 C   0  0
    6.0749    5.3621    0.0000 C   0  0
    4.7572    4.6507    0.0000 C   0  0
    3.4825    5.4357    0.0000 C   0  0
    7.3513    4.5725    0.0000 C   0  0
    8.6842    5.2878    0.0000 C   0  0  2  0  0  0
    8.1011    6.6699    0.0000 N   0  0
    7.7901    8.1373    0.0000 C   0  0
    6.5978    8.0012    0.0000 O   0  0
    7.7624    9.6370    0.0000 C   0  0  2  0  0  0
    8.0190   11.1149    0.0000 N   0  0
    6.8576   12.0778    0.0000 C   0  0
    5.4494   11.5611    0.0000 C   0  0
    5.1927   10.0833    0.0000 C   0  0
    6.3443    9.1221    0.0000 C   0  0
    8.5507   12.5175    0.0000 C   0  0
    9.3383   13.7941    0.0000 C   0  0  1  0  0  0
    8.5196   15.0662    0.0000 C   0  0  1  0  0  0
    7.3209   15.0090    0.0000 O   0  0
    9.0691   16.1330    0.0000 C   0  0
   10.3532   14.8986    0.0000 N   0  0
   11.5588   15.7911    0.0000 C   0  0
   10.9397   16.8191    0.0000 O   0  0
   12.9115   16.4393    0.0000 C   0  0  2  0  0  0
   12.9047   17.9521    0.0000 C   0  0
   11.6020   18.6974    0.0000 C   0  0
   12.5593   19.8522    0.0000 C   0  0
   12.0379   21.2587    0.0000 C   0  0
   10.5592   21.5104    0.0000 C   0  0
    9.6018   20.3557    0.0000 C   0  0
   10.1232   18.9492    0.0000 C   0  0
   10.1421   22.6356    0.0000 F   0  0
   14.3624   16.8198    0.0000 N   0  0
   15.8592   16.9188    0.0000 C   0  0
   17.3476   16.7328    0.0000 C   0  0  2  0  0  0
   18.7739   16.2684    0.0000 N   0  0
   20.0866   15.5425    0.0000 C   0  0
   21.2381   14.5813    0.0000 C   0  0
   20.8506   15.0493    0.0000 C   0  0
   21.1313   14.5077    0.0000 C   0  0
   19.9284   15.4039    0.0000 C   0  0
   20.4416   16.2621    0.0000 O   0  0
   18.5697   16.0395    0.0000 N   0  0
   17.1109   16.3886    0.0000 C   0  0
   15.6117   16.4369    0.0000 C   0  0  1  0  0  0
   14.9947   17.8179    0.0000 C   0  0
   13.8011   17.9415    0.0000 O   0  0
   15.8746   19.0338    0.0000 N   0  0
   15.2625   20.4041    0.0000 C   0  0  2  0  0  0
   13.7700   20.5617    0.0000 C   0  0
   13.2817   21.6579    0.0000 O   0  0
   13.0644   19.5910    0.0000 O   0  0
   16.1424   21.6199    0.0000 C   0  0
   15.5303   22.9902    0.0000 C   0  0
   16.4102   24.2061    0.0000 C   0  0
   15.7980   25.5764    0.0000 C   0  0
   16.5015   26.5485    0.0000 N   0  0
   14.1334   16.1824    0.0000 N   0  0
   12.7367   15.6356    0.0000 C   0  0
   12.1884   16.7030    0.0000 O   0  0
   11.4785   14.8188    0.0000 C   0  0  2  0  0  0
   10.1863   15.6048    0.0000 C   0  0
   10.2197   17.1053    0.0000 C   0  0
    8.7492   17.4017    0.0000 C   0  0
    8.2706   18.8233    0.0000 C   0  0
    9.2624   19.9486    0.0000 C   0  0
   10.7329   19.6523    0.0000 C   0  0
   11.2115   18.2307    0.0000 C   0  0
   10.4106   13.7654    0.0000 N   0  0
    9.5766   12.5187    0.0000 C   0  0
    8.5168   13.0816    0.0000 O   0  0
    9.0106   11.1296    0.0000 C   0  0  1  0  0  0
    8.7358    9.6549    0.0000 N   0  0
    8.7635    8.1552    0.0000 C   0  0
    7.7707    8.0357    0.0000 O   0  0
    9.0925    6.6917    0.0000 C   0  0  2  0  0  0
    7.5806    6.7349    0.0000 C   0  0
    7.2770    5.2650    0.0000 C   0  0
    6.1003    4.3335    0.0000 C   0  0
    5.7968    2.8637    0.0000 N   0  0
    4.3724    2.3908    0.0000 C   0  0
    3.4757    3.1883    0.0000 N   0  0
    4.1297    1.2156    0.0000 N   0  0
    9.7094    5.3244    0.0000 N   0  0
   10.5889    4.1093    0.0000 C   0  0
    9.6930    3.3110    0.0000 O   0  0
   11.6950    3.0961    0.0000 C   0  0  1  0  0  0
   12.9824    2.3263    0.0000 N   0  0
   14.3984    1.8314    0.0000 C   0  0
   14.1191    0.6644    0.0000 O   0  0
   15.8850    1.6317    0.0000 C   0  0  1  0  0  0
   17.3814    1.7353    0.0000 N   0  0
   18.8264    2.1380    0.0000 C   0  0
   20.1606    2.8233    0.0000 C   0  0  2  0  0  0
   20.4979    1.3488    0.0000 C   0  0
   19.3988    0.3269    0.0000 C   0  0
   19.7333   -1.1362    0.0000 C   0  0
   18.6342   -2.1582    0.0000 N   0  0
   18.9688   -3.6212    0.0000 C   0  0
   18.0900   -4.4384    0.0000 N   0  0
   20.1158   -3.9741    0.0000 N   0  0
   21.3297    3.7632    0.0000 N   0  0
   22.2855    4.9192    0.0000 C   0  0
   23.2785    4.2454    0.0000 O   0  0
   23.0070    6.2353    0.0000 C   0  0  1  0  0  0
   22.3444    4.8896    0.0000 N   0  0
   21.4391    3.6936    0.0000 C   0  0
   20.3238    2.6906    0.0000 C   0  0  2  0  0  0
   19.0388    1.9167    0.0000 N   0  0
   17.6306    1.4000    0.0000 C   0  0
   17.9350    0.2393    0.0000 O   0  0
   16.1501    1.1592    0.0000 C   0  0  1  0  0  0
   14.6507    1.2029    0.0000 N   0  0
   13.1867    1.5296    0.0000 C   0  0
   11.8110    2.1274    0.0000 C   0  0  1  0  0  0
   10.5733    2.9748    0.0000 N   0  0
    9.5183    4.0411    0.0000 C   0  0
    8.5889    3.2820    0.0000 O   0  0
   10.6722    1.1316    0.0000 C   0  0
   10.4409   -0.3513    0.0000 C   0  0
    9.0413   -0.8933    0.0000 C   0  0
    8.8100   -2.3761    0.0000 N   0  0
    7.4105   -2.9181    0.0000 C   0  0
    6.4759   -2.1654    0.0000 N   0  0
    7.2255   -4.1038    0.0000 N   0  0
   12.8152    0.3885    0.0000 O   0  0
   16.2161    0.1614    0.0000 C   0  0
   21.2262    1.4765    0.0000 C   0  0
   22.7171    1.6486    0.0000 C   0  0
   23.6137    0.4461    0.0000 C   0  0
   25.1035    0.6212    0.0000 C   0  0
   25.6967    1.9989    0.0000 C   0  0
   24.8002    3.2015    0.0000 C   0  0
   23.3105    3.0264    0.0000 C   0  0
   22.3227    2.8817    0.0000 O   0  0
   23.4030    7.6821    0.0000 C   0  0
   23.5180    9.1777    0.0000 N   0  0
   23.3479   10.6680    0.0000 C   0  0
   24.5218   10.9168    0.0000 O   0  0
   22.8988   12.0992    0.0000 C   0  0
   22.1870   13.4196    0.0000 C   0  0
   22.1292   13.3878    0.0000 C   0  0
   19.2638    1.0206    0.0000 O   0  0
   15.3195    0.2288    0.0000 C   0  0
   13.8335    0.0179    0.0000 C   0  0
   13.2724   -1.3741    0.0000 C   0  0
   11.7864   -1.5850    0.0000 N   0  0
   11.2252   -2.9770    0.0000 C   0  0
   11.9650   -3.9218    0.0000 N   0  0
   10.0372   -3.1456    0.0000 N   0  0
   10.7890    1.8849    0.0000 C   0  0
    9.2986    2.0615    0.0000 C   0  0
    8.3997    0.8597    0.0000 C   0  0
    6.9093    1.0364    0.0000 N   0  0
    6.0103   -0.1654    0.0000 C   0  0
    4.8187   -0.0242    0.0000 N   0  0
    6.4835   -1.2682    0.0000 N   0  0
    7.5009   11.0365    0.0000 C   0  0
    6.6712   12.2871    0.0000 C   0  0
    5.1619   12.2032    0.0000 C   0  0
    4.3355   13.4515    0.0000 C   0  0
    2.8413   13.3597    0.0000 C   0  0
    2.0149   14.6080    0.0000 C   0  0
    2.6828   15.9481    0.0000 C   0  0
    4.1770   16.0399    0.0000 C   0  0
    5.0034   14.7916    0.0000 C   0  0
    6.4976   14.8833    0.0000 C   0  0
    7.3403   13.6269    0.0000 C   0  0
   20.6515   16.3677    0.0000 O   0  0
   17.6742   18.2099    0.0000 C   0  0
   19.1050   18.6628    0.0000 C   0  0
   19.4310   20.1270    0.0000 C   0  0
   20.8620   20.5768    0.0000 C   0  0
   21.9670   19.5625    0.0000 C   0  0
   21.6411   18.0983    0.0000 C   0  0
   20.2102   17.6485    0.0000 C   0  0
   15.8883   17.9184    0.0000 O   0  0
    7.6536   12.9592    0.0000 O   0  0
   22.5457    5.3481    0.0000 H   0  0
    9.4238   14.7905    0.0000 H   0  0
    7.1961    8.8128    0.0000 H   0  0
  1  2  2  0
  2  3  1  0
  3  4  2  0
  4  5  1  0
  5  6  2  0
  6  1  1  0
  7  3  1  0
  8  7  2  0
  9  8  1  0
 10  9  2  0
  2 10  1  0
 11  8  1  0
 12 11  1  6
 12 13  1  0
 13 14  1  0
 14 15  2  0
 16 14  1  0
 16 17  1  0
 18 17  1  0
 19 18  1  0
 20 19  1  0
 21 20  1  0
 16 21  1  0
 17 22  1  0
 23 22  1  0
 23 24  1  0
 24 25  1  1
 24 26  1  0
 23 27  1  0
 27 28  1  0
 28 29  2  0
 28 30  1  0
 30 31  1  6
 31 32  1  0
 33 32  1  0
 34 33  2  0
 35 34  1  0
 36 35  2  0
 37 36  1  0
 32 37  2  0
 35 38  1  0
 30 39  1  0
 39 40  1  0
 41 40  1  0
 42 41  1  0
 42 43  1  0
 43 44  1  0
 44 45  2  0
 45 46  1  0
 46 47  1  0
 47 48  2  0
 47 49  1  0
 49 50  1  0
 51 50  1  0
 51 52  1  6
 52 53  2  0
 52 54  1  0
 55 54  1  6
 55 56  1  0
 56 57  2  0
 56 58  1  0
 55 59  1  0
 59 60  1  0
 60 61  1  0
 61 62  1  0
 62 63  1  0
 51 64  1  0
 64 65  1  0
 65 66  2  0
 65 67  1  0
 67 68  1  1
 68 69  1  0
 70 69  1  0
 71 70  2  0
 72 71  1  0
 73 72  2  0
 74 73  1  0
 69 74  2  0
 67 75  1  0
 75 76  1  0
 76 77  2  0
 76 78  1  0
 78 79  1  0
 80 79  1  0
 80 81  2  0
 82 80  1  0
 82 83  1  1
 83 84  1  0
 84 85  1  0
 85 86  1  0
 86 87  1  0
 87 88  1  0
 87 89  2  0
 90 82  1  0
 91 90  1  0
 91 92  2  0
 93 91  1  0
 94 93  1  0
 95 94  1  0
 95 96  2  0
 97 95  1  0
 98 97  1  0
 99 98  1  0
100 99  1  0
100101  1  1
101102  1  0
102103  1  0
103104  1  0
104105  1  0
105106  2  0
105107  1  0
108100  1  0
109108  1  0
109110  2  0
111109  1  0
112111  1  0
113112  1  0
114113  1  0
115114  1  0
116115  1  0
116117  2  0
118116  1  0
119118  1  0
120119  1  0
121120  1  0
122121  1  0
123122  1  0
 12123  1  0
123124  2  0
121125  1  6
125126  1  0
126127  1  0
127128  1  0
128129  1  0
129130  1  0
129131  2  0
120132  2  0
118133  1  6
114134  1  1
134135  1  0
135136  2  0
136137  1  0
137138  2  0
138139  1  0
139140  2  0
140135  1  0
113141  2  0
111142  1  0
142143  1  0
144143  1  0
144145  2  0
146144  1  0
146147  2  0
147 44  1  0
148146  1  0
 46148  2  0
 99149  2  0
 97150  1  1
150151  1  0
151152  1  0
152153  1  0
153154  1  0
154155  1  0
154156  2  0
 93157  1  1
157158  1  0
158159  1  0
159160  1  0
160161  1  0
161162  2  0
161163  1  0
 78164  1  1
164165  1  0
166165  1  0
167166  2  0
168167  1  0
169168  2  0
170169  1  0
171170  2  0
172171  1  0
167172  1  0
173172  2  0
174173  1  0
165174  2  0
 43175  2  0
 41176  1  1
176177  1  0
178177  1  0
179178  2  0
180179  1  0
181180  2  0
182181  1  0
177182  2  0
 40183  2  0
 22184  2  0
111185  1  1
 23186  1  6
 16187  1  6
M  END