
  SciTegic01161211252D

 17 17  0  0  0  0            999 V2000
    2.2420   -0.6491    0.0000 C   0  0  2  0  0  0
    2.2420   -1.4768    0.0000 C   0  0  1  0  0  0
    2.9572   -1.8880    0.0000 C   0  0  2  0  0  0
    3.6727   -1.4768    0.0000 C   0  0  1  0  0  0
    3.6727   -0.6491    0.0000 O   0  0
    2.9572   -0.2327    0.0000 C   0  0  2  0  0  0
    1.5315   -1.8880    0.0000 O   0  0
    1.5304   -0.2397    0.0000 O   0  0
    4.3872   -1.8891    0.0000 S   0  0
    5.0984   -1.4789    0.0000 C   0  0
    2.9559   -2.7107    0.0000 O   0  0
    2.9559    0.5899    0.0000 C   0  0
    3.6658    1.0023    0.0000 O   0  0
    3.6658   -3.1231    0.0000 S   0  0
    4.3746   -3.5333    0.0000 O   0  0
    4.0787   -2.4089    0.0000 O   0  0
    3.2543   -3.8301    0.0000 O   0  0
  1  6  1  0
  4  9  1  1
  2  3  1  0
  9 10  1  0
  3  4  1  0
  3 11  1  6
  4  5  1  0
  6 12  1  1
  5  6  1  0
 12 13  1  0
 11 14  1  0
  2  7  1  1
 14 15  1  0
  1  2  1  0
 14 16  2  0
  1  8  1  1
 14 17  2  0
M  END