
  CDK    9/16/09,10:4

 26 28  0  0  0  0  0  0  0  0999 V2000
   18.4293   -7.9657    0.0000 Br  0  0  0  0  0  0  0  0  0  0  0  0
   17.1953  -11.8379    0.0000 C   0  0  0  0  0  0  0  0  0  0  0  0
   18.0247  -11.8190    0.0000 C   0  0  0  0  0  0  0  0  0  0  0  0
   18.4207  -11.0952    0.0000 C   0  0  0  0  0  0  0  0  0  0  0  0
   17.9919  -10.3858    0.0000 C   0  0  0  0  0  0  0  0  0  0  0  0
   17.1627  -10.4047    0.0000 C   0  0  0  0  0  0  0  0  0  0  0  0
   16.7621  -11.1331    0.0000 N   0  0  0  0  0  0  0  0  0  0  0  0
   17.3975  -11.4573    0.0000 C   0  0  0  0  0  0  0  0  0  0  0  0
   17.7209  -10.7622    0.0000 C   0  0  0  0  0  0  0  0  0  0  0  0
   15.9375  -11.1605    0.0000 C   0  0  0  0  0  0  0  0  0  0  0  0
   19.2457  -11.0851    0.0000 C   0  0  0  0  0  0  0  0  0  0  0  0
   20.0706  -11.0708    0.0000 C   0  0  0  0  0  0  0  0  0  0  0  0
   19.2579  -11.9099    0.0000 O   0  0  0  0  0  0  0  0  0  0  0  0
   19.2335  -10.2602    0.0000 C   0  0  0  0  0  0  0  0  0  0  0  0
   19.9425   -9.8399    0.0000 C   0  0  0  0  0  0  0  0  0  0  0  0
   19.9308   -9.0158    0.0000 C   0  0  0  0  0  0  0  0  0  0  0  0
   19.2097   -8.6131    0.0000 C   0  0  0  0  0  0  0  0  0  0  0  0
   18.4991   -9.0405    0.0000 C   0  0  0  0  0  0  0  0  0  0  0  0
   18.5144   -9.8632    0.0000 C   0  0  0  0  0  0  0  0  0  0  0  0
   20.4935  -11.7804    0.0000 C   0  0  0  0  0  0  0  0  0  0  0  0
   21.3176  -11.7665    0.0000 C   0  0  0  0  0  0  0  0  0  0  0  0
   21.7186  -11.0445    0.0000 C   0  0  0  0  0  0  0  0  0  0  0  0
   21.2894  -10.3350    0.0000 C   0  0  0  0  0  0  0  0  0  0  0  0
   20.4667  -10.3524    0.0000 C   0  0  0  0  0  0  0  0  0  0  0  0
   15.5015  -10.4602    0.0000 C   0  0  0  0  0  0  0  0  0  0  0  0
   14.6769  -10.4877    0.0000 N   0  0  0  0  0  0  0  0  0  0  0  0
  4  5  1  0  0  0  0 
 11 13  1  0  0  0  0 
  5  6  1  0  0  0  0 
 11 14  1  0  0  0  0 
  6  7  1  0  0  0  0 
 14 15  2  0  0  0  0 
 15 16  1  0  0  0  0 
  7  8  1  0  0  0  0 
 16 17  2  0  0  0  0 
 17 18  1  0  0  0  0 
  8  9  1  0  0  0  0 
 18 19  2  0  0  0  0 
 19 14  1  0  0  0  0 
  4  9  1  0  0  0  0 
 12 20  2  0  0  0  0 
  2  3  1  0  0  0  0 
 20 21  1  0  0  0  0 
  7 10  1  0  0  0  0 
 21 22  2  0  0  0  0 
  2  7  1  0  0  0  0 
 22 23  1  0  0  0  0 
  4 11  1  0  0  0  0 
 23 24  2  0  0  0  0 
 24 12  1  0  0  0  0 
  3  4  1  0  0  0  0 
 10 25  1  0  0  0  0 
 11 12  1  0  0  0  0 
 25 26  1  0  0  0  0 
M  CHG  1   1  -1
M  CHG  1   7   1
M  END