
          11280715502D 1   1.00000     0.00000     0

 30 33  0     0  0            999 V2000
    1.5303   -2.8383    0.0000 C   0  0  0  0  0  0           0  0  0
   -0.6132   -4.0758    0.0000 C   0  0  3  0  0  0           0  0  0
    0.1027   -4.4883    0.0000 C   0  0  0  0  0  0           0  0  0
    0.8144   -4.0758    0.0000 C   0  0  0  0  0  0           0  0  0
    0.8144   -3.2508    0.0000 N   0  0  3  0  0  0           0  0  0
    0.1027   -2.8383    0.0000 C   0  0  0  0  0  0           0  0  0
   -0.6132   -3.2508    0.0000 C   0  0  0  0  0  0           0  0  0
   -1.3290   -4.4883    0.0000 C   0  0  0  0  0  0           0  0  0
   -2.0407   -4.0758    0.0000 C   0  0  0  0  0  0           0  0  0
   -2.1297   -3.2576    0.0000 C   0  0  0  0  0  0           0  0  0
   -2.9357   -3.0852    0.0000 N   0  0  0  0  0  0           0  0  0
   -3.3482   -3.7969    0.0000 C   0  0  0  0  0  0           0  0  0
   -2.7952   -4.4133    0.0000 N   0  0  0  0  0  0           0  0  0
    2.2444   -3.2514    0.0000 C   0  0  0  0  0  0           0  0  0
    2.9542   -2.8333    0.0000 C   0  0  0  0  0  0           0  0  0
    3.6722   -3.2396    0.0000 O   0  0  0  0  0  0           0  0  0
    4.3831   -2.8210    0.0000 C   0  0  0  0  0  0           0  0  0
    5.1007   -3.2299    0.0000 N   0  0  0  0  0  0           0  0  0
    5.8111   -2.8119    0.0000 C   0  0  0  0  0  0           0  0  0
    5.8044   -1.9861    0.0000 C   0  0  0  0  0  0           0  0  0
    5.0813   -1.5800    0.0000 C   0  0  0  0  0  0           0  0  0
    4.3739   -2.0003    0.0000 C   0  0  0  0  0  0           0  0  0
    6.5147   -1.5665    0.0000 C   0  0  0  0  0  0           0  0  0
    7.2332   -1.9718    0.0000 N   0  0  3  0  0  0           0  0  0
    7.2351   -2.8013    0.0000 C   0  0  0  0  0  0           0  0  0
    7.9495   -3.2066    0.0000 C   0  0  0  0  0  0           0  0  0
    8.6623   -2.7904    0.0000 C   0  0  0  0  0  0           0  0  0
    8.6560   -1.9645    0.0000 C   0  0  0  0  0  0           0  0  0
    7.9370   -1.5547    0.0000 C   0  0  0  0  0  0           0  0  0
    6.5064   -0.7415    0.0000 O   0  0  0  0  0  0           0  0  0
  4  5  1  0     0  0
 14 15  1  0     0  0
  5  6  1  0     0  0
 15 16  1  0     0  0
  6  7  1  0     0  0
 16 17  1  0     0  0
  2  8  1  0     0  0
 17 18  2  0     0  0
  8  9  1  0     0  0
 18 19  1  0     0  0
  9 10  2  0     0  0
 19 20  2  0     0  0
  2  3  1  0     0  0
 20 21  1  0     0  0
 10 11  1  0     0  0
 21 22  2  0     0  0
 22 17  1  0     0  0
 11 12  1  0     0  0
 20 23  1  0     0  0
 12 13  2  0     0  0
 23 24  1  0     0  0
 24 25  1  0     0  0
 13  9  1  0     0  0
  5  1  1  0     0  0
  2  7  1  0     0  0
  3  4  1  0     0  0
 24 29  1  0     0  0
 25 26  1  0     0  0
 26 27  1  0     0  0
 27 28  1  0     0  0
 28 29  1  0     0  0
  1 14  1  0     0  0
 23 30  2  0     0  0
M  END