
  CDK    9/16/09,10:4

 22 24  0  0  0  0  0  0  0  0999 V2000
   -0.6618  -15.4914    0.0000 C   0  0  0  0  0  0  0  0  0  0  0  0
    0.0519  -15.0793    0.0000 N   0  0  0  0  0  0  0  0  0  0  0  0
   -1.3755  -15.0793    0.0000 N   0  0  0  0  0  0  0  0  0  0  0  0
   -0.6618  -16.3155    0.0000 S   0  0  0  0  0  0  0  0  0  0  0  0
   -2.0891  -15.4914    0.0000 C   0  0  0  0  0  0  0  0  0  0  0  0
   -2.8022  -15.0763    0.0000 C   0  0  0  0  0  0  0  0  0  0  0  0
   -3.5155  -15.4876    0.0000 C   0  0  0  0  0  0  0  0  0  0  0  0
   -3.5160  -16.3126    0.0000 C   0  0  0  0  0  0  0  0  0  0  0  0
   -2.7972  -16.7245    0.0000 C   0  0  0  0  0  0  0  0  0  0  0  0
   -2.0869  -16.3107    0.0000 C   0  0  0  0  0  0  0  0  0  0  0  0
    0.7656  -15.4914    0.0000 C   0  0  0  0  0  0  0  0  0  0  0  0
    0.7631  -16.3166    0.0000 C   0  0  0  0  0  0  0  0  0  0  0  0
    1.4759  -16.7285    0.0000 C   0  0  0  0  0  0  0  0  0  0  0  0
    1.4745  -15.0798    0.0000 C   0  0  0  0  0  0  0  0  0  0  0  0
    2.1879  -15.4881    0.0000 C   0  0  0  0  0  0  0  0  0  0  0  0
    2.1916  -16.3150    0.0000 C   0  0  0  0  0  0  0  0  0  0  0  0
    2.9791  -16.5671    0.0000 C   0  0  0  0  0  0  0  0  0  0  0  0
    3.4622  -15.8960    0.0000 O   0  0  0  0  0  0  0  0  0  0  0  0
    2.9733  -15.2292    0.0000 C   0  0  0  0  0  0  0  0  0  0  0  0
    3.2244  -14.4443    0.0000 O   0  0  0  0  0  0  0  0  0  0  0  0
   -4.2291  -16.7256    0.0000 O   0  0  0  0  0  0  0  0  0  0  0  0
   -4.9376  -16.3145    0.0000 C   0  0  0  0  0  0  0  0  0  0  0  0
  2 11  1  0  0  0  0 
  5  6  2  0  0  0  0 
 11 12  2  0  0  0  0 
  1  2  1  0  0  0  0 
 12 13  1  0  0  0  0 
 13 16  2  0  0  0  0 
  6  7  1  0  0  0  0 
 15 14  2  0  0  0  0 
 14 11  1  0  0  0  0 
 15 16  1  0  0  0  0 
  1  4  2  0  0  0  0 
  7  8  2  0  0  0  0 
  8  9  1  0  0  0  0 
  3  5  1  0  0  0  0 
 16 17  1  0  0  0  0 
 17 18  1  0  0  0  0 
 18 19  1  0  0  0  0 
 19 15  1  0  0  0  0 
  9 10  2  0  0  0  0 
 19 20  2  0  0  0  0 
 10  5  1  0  0  0  0 
  8 21  1  0  0  0  0 
  1  3  1  0  0  0  0 
 21 22  1  0  0  0  0 
M  END