
  SciTegic01161211252D

 14 14  0  0  0  0            999 V2000
    6.8792   -6.8792    0.0000 N   0  0
    7.4792   -6.8792    0.0000 C   0  0
    6.2792   -6.8917    0.0000 C   0  0
    5.9667   -6.3792    0.0000 C   0  0
    5.3667   -6.3917    0.0000 C   0  0
    6.2542   -5.8542    0.0000 O   0  0
    7.7792   -7.4000    0.0000 C   0  0
    7.7750   -6.3625    0.0000 C   0  0
    8.0792   -6.8792    0.0000 C   0  0
    5.0542   -5.8750    0.0000 C   0  0
    5.0792   -6.9125    0.0000 C   0  0
    4.4792   -6.9292    0.0000 C   0  0
    4.4542   -5.8792    0.0000 C   0  0
    4.1667   -6.4125    0.0000 C   0  0
  2  1  1  0
  3  1  1  0
  4  3  1  0
  5  4  1  0
  6  4  1  0
  7  2  1  0
  8  2  1  0
  9  2  1  0
 10  5  2  0
 11  5  1  0
 12 11  2  0
 13 10  1  0
 14 12  1  0
 14 13  2  0
M  END