
  SciTegic01161211262D

 17 18  0  0  0  0            999 V2000
   -2.6111    0.7486    0.0000 C   0  0
   -1.2964    1.4973    0.0000 O   0  0
   -2.5721    2.2286    0.0000 C   0  0
   -1.3364    3.0561    0.0000 N   0  0
   -1.2964   -1.4973    0.0000 O   0  0
    0.0000    0.7486    0.0000 C   0  0
   -2.6111   -0.7486    0.0000 C   0  0
   -3.7626    3.1200    0.0000 N   0  0
    0.0000   -0.7486    0.0000 C   0  0
   -3.6380    0.1277    0.0000 C   0  0
    5.0929    1.5183    0.0000 Cl  0  0
   -1.7622    4.4944    0.0000 C   0  0
   -3.2617    4.5339    0.0000 C   0  0
    1.2964    1.4973    0.0000 C   0  0
    1.2964   -1.4973    0.0000 C   0  0
    2.5929    0.7486    0.0000 C   0  0
    2.5929   -0.7486    0.0000 C   0  0
  1  2  1  0
  1  3  1  0
  3  4  2  0
  2  6  1  0
  1  7  1  0
  5  7  1  0
  3  8  1  0
  5  9  1  0
  6  9  1  0
  1 10  1  0
  4 12  1  0
  8 13  1  0
 12 13  1  0
  6 14  2  0
  9 15  2  0
 14 16  1  0
 15 17  1  0
 16 17  2  0
M  END