
          03140815512D 1   1.00000     0.00000     0

 27 31  0     0  0            999 V2000
   -5.2994   -4.0003    0.0000 C   0  0  0  0  0  0           0  0  0
   -4.6582   -3.3166    0.0000 C   0  0  3  0  0  0           0  0  0
   -4.4950   -3.7753    0.0000 C   0  0  3  0  0  0           0  0  0
   -3.9467   -3.5793    0.0000 C   0  0  0  0  0  0           0  0  0
   -3.7422   -4.0781    0.0000 C   0  0  0  0  0  0           0  0  0
   -3.1988   -3.3937    0.0000 C   0  0  3  0  0  0           0  0  0
   -4.5018   -2.9269    0.0000 C   0  0  0  0  0  0           0  0  0
   -3.9410   -2.2647    0.0000 C   0  0  3  0  0  0           0  0  0
   -4.6627   -2.5212    0.0000 C   0  0  0  0  0  0           0  0  0
   -3.1930   -2.5748    0.0000 C   0  0  0  0  0  0           0  0  0
   -3.9462   -1.4376    0.0000 C   0  0  0  0  0  0           0  0  0
   -3.2343   -1.0206    0.0000 N   0  0  0  0  0  0           0  0  0
   -2.5172   -1.4286    0.0000 C   0  0  0  0  0  0           0  0  0
   -1.8053   -1.0115    0.0000 C   0  0  0  0  0  0           0  0  0
   -2.5120   -2.2536    0.0000 O   0  0  0  0  0  0           0  0  0
   -1.0908   -1.4201    0.0000 C   0  0  0  0  0  0           0  0  0
   -0.3793   -1.0038    0.0000 C   0  0  0  0  0  0           0  0  0
   -0.3841   -0.1778    0.0000 C   0  0  0  0  0  0           0  0  0
   -1.1063    0.2299    0.0000 C   0  0  0  0  0  0           0  0  0
   -1.8148   -0.1887    0.0000 C   0  0  0  0  0  0           0  0  0
   -1.0867   -2.2452    0.0000 Cl  0  0  0  0  0  0           0  0  0
   -1.1144    1.0550    0.0000 N   0  0  3  0  0  0           0  0  0
   -0.4025    1.4754    0.0000 C   0  0  0  0  0  0           0  0  0
   -0.4086    2.2969    0.0000 C   0  0  0  0  0  0           0  0  0
   -1.1254    2.7063    0.0000 N   0  0  0  0  0  0           0  0  0
   -1.8377    2.2879    0.0000 C   0  0  0  0  0  0           0  0  0
   -1.8332    1.4602    0.0000 C   0  0  0  0  0  0           0  0  0
  1  3  1  0     0  0
 12 13  1  0     0  0
  2  4  1  0     0  0
 13 14  1  0     0  0
  3  5  1  0     0  0
 13 15  2  0     0  0
  4  6  1  0     0  0
 14 16  2  0     0  0
  5  6  1  0     0  0
 16 17  1  0     0  0
  7  8  1  0     0  0
 17 18  2  0     0  0
  3  7  1  0     0  0
 18 19  1  0     0  0
  2  9  1  0     0  0
 19 20  2  0     0  0
 20 14  1  0     0  0
  6 10  1  0     0  0
 16 21  1  0     0  0
 10  8  1  0     0  0
 19 22  1  0     0  0
 22 23  1  0     0  0
  8  9  1  0     0  0
  8 11  1  0     0  0
  1  2  1  0     0  0
 11 12  1  0     0  0
 22 27  1  0     0  0
 23 24  1  0     0  0
 24 25  1  0     0  0
 25 26  1  0     0  0
 26 27  1  0     0  0
M  END