
  SciTegic09261414552D

 30 33  0  0  0  0            999 V2000
    8.6709   -8.0583    0.0000 N   0  0
    9.3867   -8.4708    0.0000 C   0  0
    9.3867   -9.2957    0.0000 O   0  0
   10.0984   -8.0583    0.0000 N   0  0
   10.8142   -8.4708    0.0000 C   0  0
   11.5260   -8.0583    0.0000 C   0  0
   12.2418   -8.4708    0.0000 C   0  0
   12.2418   -9.2957    0.0000 C   0  0
   11.5260   -9.7082    0.0000 C   0  0
   10.8142   -9.2957    0.0000 C   0  0
   12.9577   -9.7082    0.0000 O   0  0
   13.6736   -9.2957    0.0000 C   0  0
    7.9550   -8.4708    0.0000 C   0  0
    7.2391   -8.0583    0.0000 C   0  0
    6.5274   -8.4708    0.0000 C   0  0
    5.8115   -8.0583    0.0000 C   0  0
    5.8115   -7.2333    0.0000 C   0  0
    6.5274   -6.8208    0.0000 C   0  0
    7.2391   -7.2333    0.0000 C   0  0
    4.3455   -8.1373    0.0000 S   0  0
    5.0999   -8.4708    0.0000 C   0  0
    5.0109   -9.2931    0.0000 N   0  0
    4.2049   -9.4654    0.0000 C   0  0
    3.7925   -8.7496    0.0000 C   0  0
    8.6709   -7.2333    0.0000 C   0  0
    8.2584   -6.5174    0.0000 C   0  0
    9.0834   -6.5174    0.0000 C   0  0
   14.3876   -9.7088    0.0000 F   0  0
   13.6742   -8.4708    0.0000 F   0  0
   14.3832   -8.8790    0.0000 F   0  0
  1  2  1  0
  2  3  2  0
  2  4  1  0
  5  6  1  0
  6  7  2  0
  7  8  1  0
  8  9  2  0
  9 10  1  0
  5 10  2  0
 11 12  1  0
  8 11  1  0
  4  5  1  0
 13 14  1  0
 14 15  1  0
 15 16  2  0
 16 17  1  0
 17 18  2  0
 18 19  1  0
 14 19  2  0
 20 21  1  0
 21 22  2  0
 22 23  1  0
 23 24  2  0
 20 24  1  0
 16 21  1  0
  1 13  1  0
 25 26  1  0
 26 27  1  0
 25 27  1  0
  1 25  1  0
 12 28  1  0
 12 29  1  0
 12 30  1  0
M  END