
  Mrv0541 04051115152D          

 20 21  0  0  0  0            999 V2000
    2.1600   -2.3808    0.0000 F   0  0  0  0  0  0  0  0  0  0  0  0
    1.4456   -1.9683    0.0000 C   0  0  0  0  0  0  0  0  0  0  0  0
    1.8581   -1.2538    0.0000 F   0  0  0  0  0  0  0  0  0  0  0  0
    1.0331   -2.6827    0.0000 F   0  0  0  0  0  0  0  0  0  0  0  0
    0.7311   -1.5558    0.0000 C   0  0  0  0  0  0  0  0  0  0  0  0
    0.7311   -0.7308    0.0000 C   0  0  0  0  0  0  0  0  0  0  0  0
    0.0166   -0.3183    0.0000 C   0  0  0  0  0  0  0  0  0  0  0  0
   -0.6979   -0.7308    0.0000 C   0  0  0  0  0  0  0  0  0  0  0  0
   -0.6979   -1.5558    0.0000 C   0  0  0  0  0  0  0  0  0  0  0  0
    0.0166   -1.9683    0.0000 C   0  0  0  0  0  0  0  0  0  0  0  0
    0.0166    0.5067    0.0000 N   0  0  0  0  0  0  0  0  0  0  0  0
   -0.6979    0.9192    0.0000 C   0  0  0  0  0  0  0  0  0  0  0  0
   -1.4123    0.5067    0.0000 N   0  0  0  0  0  0  0  0  0  0  0  0
   -0.6979    1.7442    0.0000 C   0  0  0  0  0  0  0  0  0  0  0  0
    0.0166    2.1567    0.0000 C   0  0  0  0  0  0  0  0  0  0  0  0
    0.0166    2.9817    0.0000 O   0  0  0  0  0  0  0  0  0  0  0  0
    0.7311    1.7442    0.0000 O   0  0  0  0  0  0  0  0  0  0  0  0
   -1.4123    2.1567    0.0000 C   0  0  0  0  0  0  0  0  0  0  0  0
   -2.1268    1.7442    0.0000 C   0  0  0  0  0  0  0  0  0  0  0  0
   -2.1268    0.9192    0.0000 C   0  0  0  0  0  0  0  0  0  0  0  0
  2  1  1  0  0  0  0
  2  3  1  0  0  0  0
  2  4  1  0  0  0  0
  2  5  1  0  0  0  0
  6  5  2  0  0  0  0
 10  5  1  0  0  0  0
  6  7  1  0  0  0  0
  7  8  2  0  0  0  0
  7 11  1  0  0  0  0
  8  9  1  0  0  0  0
  9 10  2  0  0  0  0
 12 11  1  0  0  0  0
 12 13  2  0  0  0  0
 12 14  1  0  0  0  0
 20 13  1  0  0  0  0
 14 15  1  0  0  0  0
 14 18  2  0  0  0  0
 15 16  1  0  0  0  0
 15 17  2  0  0  0  0
 18 19  1  0  0  0  0
 19 20  2  0  0  0  0
M  END