
  SciTegic01161211232D

 12 12  0  0  0  0            999 V2000
   -4.9427    0.8250    0.0000 C   0  0
   -5.6571    1.2375    0.0000 O   0  0
   -6.3716    0.8250    0.0000 C   0  0  1  0  0  0
   -6.3716    0.0000    0.0000 C   0  0  2  0  0  0
   -5.6572   -0.4125    0.0000 C   0  0  1  0  0  0
   -4.9427    0.0000    0.0000 C   0  0  2  0  0  0
   -7.0861    1.2375    0.0000 C   0  0
   -4.2282   -0.4125    0.0000 O   0  0
   -5.6571   -1.2375    0.0000 O   0  0
   -7.0861   -0.4125    0.0000 O   0  0
   -4.2282    1.2375    0.0000 O   0  0
   -7.8006    0.8250    0.0000 O   0  0
  1  2  1  0
  6  1  1  0
  2  3  1  0
  3  4  1  0
  4  5  1  0
  5  6  1  0
  3  7  1  1
  6  8  1  1
  5  9  1  1
  4 10  1  6
  1 11  1  0
  7 12  1  0
M  END