
  SciTegic12231509382D

 28 32  0  0  0  0            999 V2000
  -10.1962    7.5886    0.0000 C   0  0
   -8.8996    8.3375    0.0000 C   0  0
   -7.5938    7.5736    0.0000 C   0  0
  -10.1868    6.0758    0.0000 C   0  0
   -8.8901    5.3276    0.0000 C   0  0
   -7.5936    6.0765    0.0000 C   0  0
   -6.2969    5.3284    0.0000 N   0  3
   -6.2964    3.8312    0.0000 C   0  0
   -7.5932    3.0824    0.0000 C   0  0
   -8.8899    3.8306    0.0000 C   0  0
   -5.2578    5.9287    0.0000 C   0  0
   -4.9980    3.0784    0.0000 C   0  0
   -4.9998    1.5775    0.0000 C   0  0
   -3.7006    0.8244    0.0000 C   0  0
   -3.7006   -0.6045    0.0000 C   0  0
   -2.4915   -1.3190    0.0000 C   0  0
   -2.4915    1.5389    0.0000 C   0  0
   -1.2274    0.8244    0.0000 C   0  0
   -1.2274   -0.6045    0.0000 C   0  0
    0.0000   -1.3190    0.0000 N   0  0
    1.2274    0.8244    0.0000 C   0  0
    1.2274   -0.6045    0.0000 C   0  0
    2.4732   -1.3190    0.0000 C   0  0
    3.7372   -0.6045    0.0000 C   0  0
    3.7372    0.8244    0.0000 C   0  0
    2.4732    1.5389    0.0000 C   0  0
    0.0031   -2.8205    0.0000 C   0  0
    1.0432   -3.4191    0.0000 C   0  0
  1  2  2  0
  2  3  1  0
  3  6  2  0
  5  4  2  0
  4  1  1  0
  5  6  1  0
  6  7  1  0
  7  8  2  0
  8  9  1  0
  9 10  2  0
 10  5  1  0
  7 11  1  0
  8 12  1  0
 12 13  2  0
 13 14  1  0
 14 15  2  0
 15 16  1  0
 16 19  2  0
 18 17  2  0
 17 14  1  0
 18 19  1  0
 19 20  1  0
 20 22  1  0
 21 18  1  0
 21 22  2  0
 22 23  1  0
 23 24  2  0
 24 25  1  0
 25 26  2  0
 26 21  1  0
 20 27  1  0
 27 28  1  0
M  CHG  1   7   1
M  END