
          05080814042D 1   1.00000     0.00000     0

 34 38  0     1  0            999 V2000
    7.3406   -9.4825    0.0000 C   0  0  0  0  0  0           0  0  0
    6.6301   -9.8973    0.0000 C   0  0  0  0  0  0           0  0  0
    6.6371  -10.7232    0.0000 C   0  0  0  0  0  0           0  0  0
    7.3507  -11.1266    0.0000 C   0  0  0  0  0  0           0  0  0
    8.0536   -9.8896    0.0000 C   0  0  0  0  0  0           0  0  0
    8.0596  -10.7169    0.0000 C   0  0  0  0  0  0           0  0  0
    8.7751  -11.1232    0.0000 C   0  0  0  0  0  0           0  0  0
    8.7630   -9.4684    0.0000 C   0  0  0  0  0  0           0  0  0
    9.4832   -9.8792    0.0000 C   0  0  2  0  0  0           0  0  0
    9.4877  -10.7084    0.0000 C   0  0  2  0  0  0           0  0  0
   10.2042  -11.1169    0.0000 N   0  0  3  0  0  0           0  0  0
   10.9207  -10.7005    0.0000 C   0  0  0  0  0  0           0  0  0
   10.9162   -9.8713    0.0000 C   0  0  1  0  0  0           0  0  0
   10.1951   -9.4583    0.0000 C   0  0  0  0  0  0           0  0  0
    9.4754   -9.0506    0.0000 H   0  0  0  0  0  0           0  0  0
    9.4795  -11.5329    0.0000 H   0  0  0  0  0  0           0  0  0
   11.6286   -9.4557    0.0000 C   0  0  0  0  0  0           0  0  0
   12.3446   -9.8649    0.0000 N   0  0  3  0  0  0           0  0  0
   11.6249   -8.6311    0.0000 O   0  0  0  0  0  0           0  0  0
    7.3366   -8.6578    0.0000 O   0  0  0  0  0  0           0  0  0
    6.6204   -8.2490    0.0000 C   0  0  0  0  0  0           0  0  0
   10.2076  -11.9415    0.0000 C   0  0  0  0  0  0           0  0  0
   13.0195   -9.3969    0.0000 C   0  0  0  0  0  0           0  0  0
   13.8110   -9.6353    0.0000 C   0  0  0  0  0  0           0  0  0
   12.2857  -10.6860    0.0000 C   0  0  0  0  0  0           0  0  0
   14.1198  -10.3986    0.0000 N   0  0  3  0  0  0           0  0  0
   12.8951  -11.2438    0.0000 C   0  0  0  0  0  0           0  0  0
   13.7103  -11.1130    0.0000 C   0  0  0  0  0  0           0  0  0
   14.9446  -10.4032    0.0000 C   0  0  0  0  0  0           0  0  0
   15.3485  -11.1230    0.0000 N   0  0  0  0  0  0           0  0  0
   16.1724  -11.1281    0.0000 C   0  0  0  0  0  0           0  0  0
   16.5896  -10.4156    0.0000 C   0  0  0  0  0  0           0  0  0
   16.1770   -9.6967    0.0000 C   0  0  0  0  0  0           0  0  0
   15.3544   -9.6952    0.0000 C   0  0  0  0  0  0           0  0  0
 10 16  1  1     0  0
  6  7  1  0     0  0
 13 17  1  1     0  0
  7 10  1  0     0  0
 17 18  1  0     0  0
  9  8  1  0     0  0
 17 19  2  0     0  0
  9 10  1  0     0  0
  1 20  1  0     0  0
  3  4  2  0     0  0
 20 21  1  0     0  0
  4  6  1  0     0  0
 11 22  1  0     0  0
  5  6  2  0     0  0
 18 23  1  0     0  0
  1  2  2  0     0  0
 23 24  1  0     0  0
  5  1  1  0     0  0
 18 25  1  0     0  0
  2  3  1  0     0  0
 24 26  1  0     0  0
  9 14  1  0     0  0
 25 27  1  0     0  0
 10 11  1  0     0  0
 26 28  1  0     0  0
 27 28  1  0     0  0
 11 12  1  0     0  0
 26 29  1  0     0  0
 12 13  1  0     0  0
 29 30  2  0     0  0
 13 14  1  0     0  0
 30 31  1  0     0  0
 31 32  2  0     0  0
  9 15  1  6     0  0
 32 33  1  0     0  0
  5  8  1  0     0  0
 33 34  2  0     0  0
 34 29  1  0     0  0
M  END