


 30 33  0     0  0  0  0  0  0999 V2000
    1.4227   -0.6166    0.0000 S   0  0  0  0  0  0  0  0  0  0  0  0
   -0.7157    2.2680    0.0000 S   0  0  0  0  0  0  0  0  0  0  0  0
    2.0061   -0.0332    0.0000 O   0  0  0  0  0  0  0  0  0  0  0  0
    2.1372   -1.0291    0.0000 O   0  0  0  0  0  0  0  0  0  0  0  0
    0.7108    3.0916    0.0000 O   0  0  0  0  0  0  0  0  0  0  0  0
   -2.1422    3.0887    0.0000 O   0  0  0  0  0  0  0  0  0  0  0  0
   -2.8542    1.8555    0.0000 O   0  0  0  0  0  0  0  0  0  0  0  0
    0.7108   -0.2055    0.0000 N   0  0  0  0  0  0  0  0  0  0  0  0
   -0.0062   -1.4416    0.0000 N   0  0  0  0  0  0  0  0  0  0  0  0
    0.7108    0.6195    0.0000 C   0  0  0  0  0  0  0  0  0  0  0  0
    1.4227   -1.4416    0.0000 C   0  0  0  0  0  0  0  0  0  0  0  0
    1.4252    1.0320    0.0000 C   0  0  0  0  0  0  0  0  0  0  0  0
    1.4252    1.8570    0.0000 C   0  0  0  0  0  0  0  0  0  0  0  0
    0.7083   -1.8541    0.0000 C   0  0  0  0  0  0  0  0  0  0  0  0
    0.7108    2.2695    0.0000 C   0  0  0  0  0  0  0  0  0  0  0  0
   -0.0037    1.8570    0.0000 C   0  0  0  0  0  0  0  0  0  0  0  0
   -0.0037    1.0320    0.0000 C   0  0  0  0  0  0  0  0  0  0  0  0
    0.7083   -2.6791    0.0000 C   0  0  0  0  0  0  0  0  0  0  0  0
    2.1372   -1.8541    0.0000 C   0  0  0  0  0  0  0  0  0  0  0  0
    2.1397    0.6195    0.0000 C   0  0  0  0  0  0  0  0  0  0  0  0
    2.1397    2.2695    0.0000 C   0  0  0  0  0  0  0  0  0  0  0  0
    1.4227   -3.0916    0.0000 C   0  0  0  0  0  0  0  0  0  0  0  0
    2.1372   -2.6791    0.0000 C   0  0  0  0  0  0  0  0  0  0  0  0
   -0.0062   -3.0916    0.0000 C   0  0  0  0  0  0  0  0  0  0  0  0
    2.8542    1.0320    0.0000 C   0  0  0  0  0  0  0  0  0  0  0  0
    2.8542    1.8570    0.0000 C   0  0  0  0  0  0  0  0  0  0  0  0
   -0.7207   -1.8541    0.0000 C   0  0  0  0  0  0  0  0  0  0  0  0
   -0.7207   -2.6791    0.0000 C   0  0  0  0  0  0  0  0  0  0  0  0
   -1.4302    1.8555    0.0000 C   0  0  0  0  0  0  0  0  0  0  0  0
   -2.1422    2.2666    0.0000 C   0  0  0  0  0  0  0  0  0  0  0  0
  1  3  2  0  0  0  0
  1  4  2  0  0  0  0
  1  8  1  0  0  0  0
  1 11  1  0  0  0  0
  2 16  1  0  0  0  0
  2 29  1  0  0  0  0
  5 15  1  0  0  0  0
  6 30  2  0  0  0  0
  7 30  1  0  0  0  0
  8 10  1  0  0  0  0
  9 14  1  0  0  0  0
  9 27  2  0  0  0  0
 10 12  2  0  0  0  0
 10 17  1  0  0  0  0
 11 14  2  0  0  0  0
 11 19  1  0  0  0  0
 12 13  1  0  0  0  0
 12 20  1  0  0  0  0
 13 15  2  0  0  0  0
 13 21  1  0  0  0  0
 14 18  1  0  0  0  0
 15 16  1  0  0  0  0
 16 17  2  0  0  0  0
 18 22  2  0  0  0  0
 18 24  1  0  0  0  0
 19 23  2  0  0  0  0
 20 25  2  0  0  0  0
 21 26  2  0  0  0  0
 22 23  1  0  0  0  0
 24 28  2  0  0  0  0
 25 26  1  0  0  0  0
 27 28  1  0  0  0  0
 29 30  1  0  0  0  0
M  END