
  SciTegic12231509382D

 15 15  0  0  0  0            999 V2000
    1.4999  -13.9087    0.0000 C   0  0
    0.7850  -13.4968    0.0000 C   0  0
    0.7850  -12.6729    0.0000 C   0  0
    0.0701  -13.9087    0.0000 N   0  0
    2.2106  -13.4968    0.0000 C   0  0
    2.2106  -12.6729    0.0000 C   0  0
    2.9254  -12.2610    0.0000 C   0  0
    3.6403  -12.6729    0.0000 C   0  0
    3.6403  -13.4968    0.0000 C   0  0
    2.9254  -13.9087    0.0000 C   0  0
    4.3510  -13.9087    0.0000 O   0  0
    5.0659  -13.4968    0.0000 C   0  0
    1.4999  -12.2610    0.0000 O   0  0
    1.4999  -11.4371    0.0000 C   0  0
    4.3510  -12.2610    0.0000 I   0  0
  1  2  1  0
  2  3  1  0
  2  4  1  0
  5  6  1  0
  6  7  2  0
  7  8  1  0
  8  9  2  0
  9 10  1  0
  5 10  2  0
 11 12  1  0
  9 11  1  0
 13 14  1  0
  6 13  1  0
  8 15  1  0
  1  5  1  0
M  END