
  SciTegic11201309402D

 19 20  0  0  1  0            999 V2000
    3.8470   -5.6745    0.0000 N   0  0
    3.1418   -6.0875    0.0000 C   0  0  2  0  0  0
    2.4200   -5.6745    0.0000 C   0  0  2  0  0  0
    0.9931   -5.6745    0.0000 O   0  0
    2.4200   -4.8483    0.0000 O   0  0
   -0.4381   -5.6745    0.0000 C   0  0
    1.7065   -6.0875    0.0000 C   0  0
    4.5604   -6.0875    0.0000 C   0  0
    0.2754   -6.0875    0.0000 C   0  0
    3.1418   -6.9137    0.0000 C   0  0
   -0.4381   -4.8567    0.0000 C   0  0
   -1.1474   -6.0959    0.0000 C   0  0
    4.5604   -6.9137    0.0000 C   0  0
    3.8470   -7.3267    0.0000 C   0  0
   -1.8651   -5.6870    0.0000 C   0  0
   -1.1516   -4.4436    0.0000 C   0  0
   -1.8734   -4.8609    0.0000 C   0  0
    1.7065   -5.2614    0.0000 H   0  0
    3.1335   -5.2614    0.0000 H   0  0
  2  1  1  0
  3  2  1  0
  4  7  1  0
  3  5  1  0
  6  9  1  0
  7  3  1  0
  8  1  1  0
  9  4  1  0
 10  2  1  0
 11  6  2  0
 12  6  1  0
 13  8  1  0
 14 13  1  0
 15 12  2  0
 16 11  1  0
 17 15  1  0
  3 18  1  6
  2 19  1  6
 14 10  1  0
 17 16  2  0
M  END