
  SciTegic01311317052D

 21 23  0  0  0  0            999 V2000
   -0.4407   -0.2216    0.0000 C   0  0
   -0.9234   -0.8941    0.0000 O   0  0
   -0.4297   -1.5587    0.0000 C   0  0
    0.3516   -1.2997    0.0000 C   0  0
    0.3449   -0.4719    0.0000 O   0  0
    1.9566    1.0742    0.0000 C   0  0
    2.0079    0.2483    0.0000 N   0  0
    1.2404   -0.0513    0.0000 C   0  0
    0.7118    0.5857    0.0000 N   0  0
    1.1570    1.2824    0.0000 N   0  0
   -0.1098    0.5344    0.0000 C   0  0
   -1.1630    0.1844    0.0000 C   0  0
   -1.1698    1.0122    0.0000 C   0  0
   -1.8879    1.4182    0.0000 C   0  0
   -2.5992    1.0006    0.0000 C   0  0
   -2.5925    0.1726    0.0000 C   0  0
   -1.8743   -0.2333    0.0000 C   0  0
   -0.4542    1.4300    0.0000 Cl  0  0
   -3.3174    1.4065    0.0000 Cl  0  0
    1.0214   -1.7792    0.0000 C   0  0
    0.9411   -2.5990    0.0000 C   0  0
  2  3  1  0
  3  4  1  0
  4  5  1  0
  5  1  1  0
  6  7  1  0
  7  8  2  0
  8  9  1  0
  9 10  1  0
 10  6  2  0
  9 11  1  0
  1 11  1  0
  1 12  1  0
 12 13  2  0
 13 14  1  0
 14 15  2  0
 15 16  1  0
 16 17  2  0
 17 12  1  0
 13 18  1  0
 15 19  1  0
  4 20  1  0
  1  2  1  0
 20 21  1  0
M  END