
  SciTegic01181116592D

 27 29  0  0  0  0            999 V2000
   -4.9306  -12.5500    0.0000 C   0  0
   -4.9318  -13.3773    0.0000 C   0  0
   -4.2169  -13.7902    0.0000 C   0  0
   -3.5005  -13.3769    0.0000 C   0  0
   -3.5034  -12.5463    0.0000 C   0  0
   -4.2187  -12.1372    0.0000 C   0  0
   -5.6466  -13.7893    0.0000 Cl  0  0
   -2.7904  -12.1311    0.0000 C   0  0
   -2.0744  -12.5409    0.0000 C   0  0
   -2.7936  -11.3061    0.0000 O   0  0
   -4.2171  -14.6152    0.0000 S   0  0
   -3.5028  -15.0279    0.0000 N   0  0
   -5.0208  -14.3958    0.0000 O   0  0
   -4.8083  -15.1958    0.0000 O   0  0
   -1.3614  -12.1256    0.0000 N   0  0
   -0.6166  -11.0225    0.0000 N   0  0
   -1.3919  -11.3041    0.0000 C   0  0
   -0.1090  -11.6729    0.0000 C   0  0
   -0.5717  -12.3550    0.0000 C   0  0
   -0.2122  -13.0947    0.0000 C   0  0
    0.6097  -13.1534    0.0000 C   0  0
    1.0708  -12.4665    0.0000 C   0  0
    0.7088  -11.7296    0.0000 C   0  0
   -2.1110  -10.8997    0.0000 C   0  0
   -2.1202  -10.0748    0.0000 C   0  0
   -2.8393   -9.6703    0.0000 C   0  0
   -2.8486   -8.8454    0.0000 C   0  0
  1  2  2  0
 11 14  2  0
  2  7  1  0
  9 15  1  0
 15 19  1  0
  3  4  2  0
  5  8  1  0
 18 16  1  0
 16 17  2  0
 17 15  1  0
  8  9  1  0
 18 19  2  0
  4  5  1  0
 19 20  1  0
  8 10  2  0
 20 21  2  0
  2  3  1  0
 21 22  1  0
  3 11  1  0
 22 23  2  0
 23 18  1  0
  5  6  2  0
 17 24  1  0
 11 12  1  0
 24 25  1  0
  6  1  1  0
 25 26  1  0
 11 13  2  0
 26 27  1  0
M  END