
  SciTegic02211115552D

 15 15  0  0  0  0            999 V2000
   -2.1223   -0.1250    0.0000 C   0  0
   -2.1234   -0.9523    0.0000 C   0  0
   -1.4086   -1.3652    0.0000 C   0  0
   -0.6922   -0.9519    0.0000 C   0  0
   -0.6950   -0.1213    0.0000 C   0  0
   -1.4104    0.2878    0.0000 C   0  0
   -1.4088   -2.1902    0.0000 N   0  0
   -0.6944   -2.6029    0.0000 C   0  0
   -0.6946   -3.4279    0.0000 O   0  0
    0.0201   -2.1906    0.0000 C   0  0
    0.0203   -1.3656    0.0000 C   0  0
    0.7349   -0.9532    0.0000 C   0  0
    0.7351   -0.1282    0.0000 O   0  0
    1.4493   -1.3659    0.0000 O   0  0
   -1.4129    1.1128    0.0000 O   0  0
  3  4  2  0
  7  8  1  0
  8  9  2  0
  4  5  1  0
  8 10  1  0
  2  3  1  0
 10 11  1  0
  5  6  2  0
 11 12  1  0
  6  1  1  0
 12 13  2  0
  1  2  2  0
 12 14  1  0
  3  7  1  0
  6 15  1  0
M  END