
  SciTegic10311316322D

 34 37  0  0  0  0            999 V2000
   25.6231  -11.6517    0.0000 S   0  0
   26.0289  -10.9377    0.0000 O   0  0
   25.2031  -10.9401    0.0000 O   0  0
   21.3353  -10.8363    0.0000 S   0  0
   20.9236  -11.5520    0.0000 O   0  0
   21.7494  -11.5507    0.0000 O   0  0
   19.1881   -9.5968    0.0000 C   0  0
   19.1868  -10.4250    0.0000 C   0  0
   19.9024  -10.8382    0.0000 C   0  0
   20.6195  -10.4245    0.0000 C   0  0
   20.6167   -9.5931    0.0000 C   0  0
   19.9006   -9.1837    0.0000 C   0  0
   18.4728   -9.1841    0.0000 O   0  0
   17.7576   -9.5972    0.0000 C   0  0
   22.0498  -10.4223    0.0000 N   0  0
   22.7657  -10.8340    0.0000 C   0  0
   24.1927  -11.6558    0.0000 C   0  0
   24.1888  -10.8258    0.0000 C   0  0
   23.4732  -10.4178    0.0000 C   0  0
   23.4773  -12.0699    0.0000 C   0  0
   22.7654  -11.6588    0.0000 C   0  0
   22.0554  -12.0695    0.0000 C   0  0
   22.0562  -12.8915    0.0000 C   0  0
   22.7727  -13.3008    0.0000 C   0  0
   23.4798  -12.8876    0.0000 C   0  0
   24.9091  -12.0667    0.0000 N   0  0
   26.3394  -12.0626    0.0000 C   0  0
   26.3377  -12.8886    0.0000 C   0  0
   27.0532  -13.2994    0.0000 C   0  0
   27.7681  -12.8843    0.0000 C   0  0
   27.7631  -12.0543    0.0000 C   0  0
   27.0470  -11.6472    0.0000 C   0  0
   28.4807  -13.2940    0.0000 O   0  0
   29.1942  -12.8781    0.0000 C   0  0
  2  1  2  0
  1  3  2  0
  5  4  2  0
  4  6  2  0
  7  8  2  0
  8  9  1  0
  9 10  2  0
 10 11  1  0
 11 12  2  0
 12  7  1  0
  7 13  1  0
 13 14  1  0
 10  4  1  0
  4 15  1  0
 15 16  1  0
 16 21  2  0
 20 17  2  0
 17 18  1  0
 18 19  2  0
 19 16  1  0
 20 21  1  0
 21 22  1  0
 22 23  2  0
 23 24  1  0
 24 25  2  0
 25 20  1  0
 17 26  1  0
 26  1  1  0
  1 27  1  0
 27 28  2  0
 28 29  1  0
 29 30  2  0
 30 31  1  0
 31 32  2  0
 32 27  1  0
 33 34  1  0
 30 33  1  0
M  END