
          11280715122D 1   1.00000     0.00000     0

 33 36  0     0  0            999 V2000
    7.2542   -2.7042    0.0000 C   0  0  0  0  0  0           0  0  0
    7.2542   -3.3125    0.0000 C   0  0  0  0  0  0           0  0  0
    6.7292   -2.4042    0.0000 C   0  0  0  0  0  0           0  0  0
    6.7292   -3.6042    0.0000 N   0  0  3  0  0  0           0  0  0
    7.7750   -3.6125    0.0000 N   0  0  0  0  0  0           0  0  0
    3.0167   -3.3625    0.0000 C   0  0  0  0  0  0           0  0  0
    6.7292   -1.8042    0.0000 N   0  0  3  0  0  0           0  0  0
    3.5375   -3.0542    0.0000 C   0  0  0  0  0  0           0  0  0
    6.2125   -2.7125    0.0000 O   0  0  0  0  0  0           0  0  0
    6.2125   -3.3042    0.0000 C   0  0  0  0  0  0           0  0  0
    6.7292   -4.2042    0.0000 C   0  0  0  0  0  0           0  0  0
    3.9667   -2.1042    0.0000 N   0  0  0  0  0  0           0  0  0
    4.5792   -2.9500    0.0000 N   0  0  0  0  0  0           0  0  0
    3.0167   -3.9625    0.0000 C   0  0  0  0  0  0           0  0  0
    4.5167   -2.3500    0.0000 C   0  0  0  0  0  0           0  0  0
    5.6917   -3.6042    0.0000 C   0  0  0  0  0  0           0  0  0
    6.2125   -4.5042    0.0000 C   0  0  0  0  0  0           0  0  0
    5.6917   -4.2042    0.0000 C   0  0  3  0  0  0           0  0  0
    7.7667   -2.4042    0.0000 C   0  0  0  0  0  0           0  0  0
    5.1167   -4.3667    0.0000 N   0  0  0  0  0  0           0  0  0
    3.4792   -2.4542    0.0000 C   0  0  0  0  0  0           0  0  0
    4.0917   -3.3042    0.0000 C   0  0  0  0  0  0           0  0  0
    3.5375   -4.2542    0.0000 O   0  0  0  0  0  0           0  0  0
    2.4917   -3.0625    0.0000 C   0  0  0  0  0  0           0  0  0
    8.2917   -3.3125    0.0000 C   0  0  0  0  0  0           0  0  0
    7.2542   -1.5042    0.0000 C   0  0  0  0  0  0           0  0  0
    6.2125   -1.5125    0.0000 C   0  0  0  0  0  0           0  0  0
    2.4917   -4.2542    0.0000 C   0  0  0  0  0  0           0  0  0
    4.5417   -4.5292    0.0000 C   0  0  0  0  0  0           0  0  0
    4.1125   -4.1042    0.0000 C   0  0  0  0  0  0           0  0  0
    8.2917   -2.7042    0.0000 C   0  0  0  0  0  0           0  0  0
    1.9750   -3.3625    0.0000 C   0  0  0  0  0  0           0  0  0
    1.9750   -3.9625    0.0000 C   0  0  0  0  0  0           0  0  0
  2  1  2  0     0  0
  3  1  1  0     0  0
  4  2  1  0     0  0
  5  2  1  0     0  0
  6 14  1  0     0  0
  7  3  1  0     0  0
  8  6  1  0     0  0
  9  3  2  0     0  0
 10  4  1  0     0  0
 11  4  1  0     0  0
 12 21  1  0     0  0
 13 22  2  0     0  0
 14 23  1  0     0  0
 15 13  1  0     0  0
 16 10  1  0     0  0
 17 11  1  0     0  0
 18 17  1  0     0  0
 19  1  1  0     0  0
 20 18  1  0     0  0
 21  8  2  0     0  0
 22  8  1  0     0  0
 23 30  1  0     0  0
 24  6  2  0     0  0
 25 31  1  0     0  0
 26  7  1  0     0  0
 27  7  1  0     0  0
 28 14  2  0     0  0
 29 20  1  0     0  0
 30 29  1  0     0  0
 31 19  2  0     0  0
 32 33  2  0     0  0
 33 28  1  0     0  0
 25  5  2  0     0  0
 18 16  1  0     0  0
 32 24  1  0     0  0
 15 12  2  0     0  0
M  END