
  SciTegic10311217562D

 28 31  0  0  0  0            999 V2000
   -3.4014  -16.9083    0.0000 C   0  0
   -3.4026  -17.7357    0.0000 C   0  0
   -2.6878  -18.1485    0.0000 C   0  0
   -2.6896  -16.4955    0.0000 C   0  0
   -1.9742  -16.9047    0.0000 C   0  0
   -1.9693  -17.7357    0.0000 C   0  0
   -1.1774  -17.9879    0.0000 N   0  0
   -0.6929  -17.3127    0.0000 C   0  0
   -1.1853  -16.6433    0.0000 C   0  0
   -0.9350  -15.8572    0.0000 C   0  0
   -0.1291  -15.6809    0.0000 C   0  0
    0.4884  -16.2278    0.0000 N   0  0
    0.2032  -14.9238    0.0000 N   0  0
    1.0242  -15.0051    0.0000 C   0  0
    1.1974  -15.8113    0.0000 C   0  0
    1.9807  -16.0629    0.0000 C   0  0
    2.5916  -15.5092    0.0000 C   0  0
    2.4138  -14.7008    0.0000 C   0  0
    1.6306  -14.4530    0.0000 C   0  0
    3.3775  -15.7601    0.0000 N   0  0
    3.9877  -15.2049    0.0000 C   0  0
    4.7737  -15.4558    0.0000 C   0  0  2  0  0  0
    3.8120  -14.3989    0.0000 O   0  0
    4.9494  -16.2619    0.0000 C   0  0  1  0  0  0
    5.3839  -14.9006    0.0000 N   0  0
    4.3391  -16.8171    0.0000 C   0  0
    5.7353  -16.5128    0.0000 C   0  0
    5.9110  -17.3188    0.0000 C   0  0
 14 13  1  0
 13 11  2  0
  3  6  2  0
  1  2  2  0
 14 15  2  0
  5  4  2  0
 15 16  1  0
  6  7  1  0
 16 17  2  0
  7  8  1  0
 17 18  1  0
  8  9  2  0
 18 19  2  0
 19 14  1  0
  9  5  1  0
 17 20  1  0
  4  1  1  0
 20 21  1  0
  9 10  1  0
 21 22  1  0
  5  6  1  0
 21 23  2  0
 10 11  1  0
 22 24  1  0
 11 12  1  0
 22 25  1  1
 24 26  1  6
  2  3  1  0
 24 27  1  0
 12 15  1  0
 27 28  1  0
M  END