
          11280714462D 1   1.00000     0.00000     0

 26 29  0     1  0            999 V2000
    4.1542   -1.7417    0.0000 C   0  0  0  0  0  0           0  0  0
    4.1542   -2.3417    0.0000 C   0  0  0  0  0  0           0  0  0
    3.6292   -1.4417    0.0000 C   0  0  0  0  0  0           0  0  0
    4.7667   -2.7042    0.0000 S   0  0  0  0  0  0           0  0  0
    5.4542   -1.7417    0.0000 C   0  0  0  0  0  0           0  0  0
    5.4292   -2.2917    0.0000 C   0  0  0  0  0  0           0  0  0
    0.3875   -1.6292    0.0000 C   0  0  2  0  0  0           0  0  0
    0.8875   -1.3042    0.0000 C   0  0  1  0  0  0           0  0  0
    3.1167   -1.7417    0.0000 C   0  0  3  0  0  0           0  0  0
    1.9542   -1.6792    0.0000 N   0  0  0  0  0  0           0  0  0
   -0.2125   -1.6292    0.0000 O   0  0  0  0  0  0           0  0  0
    1.3542   -1.6792    0.0000 C   0  0  1  0  0  0           0  0  0
    3.6292   -2.6417    0.0000 C   0  0  0  0  0  0           0  0  0
    3.6292   -0.8417    0.0000 O   0  0  0  0  0  0           0  0  0
    2.5542   -1.4167    0.0000 C   0  0  0  0  0  0           0  0  0
    0.5417   -2.2042    0.0000 C   0  0  0  0  0  0           0  0  0
    3.1167   -2.3417    0.0000 C   0  0  0  0  0  0           0  0  0
    1.1375   -2.2417    0.0000 C   0  0  0  0  0  0           0  0  0
    0.8792   -0.7042    0.0000 O   0  0  0  0  0  0           0  0  0
   -0.8125   -1.6292    0.0000 C   0  0  0  0  0  0           0  0  0
    6.1042   -2.8750    0.0000 C   0  0  0  0  0  0           0  0  0
   -1.1458   -1.1292    0.0000 C   0  0  0  0  0  0           0  0  0
   -1.0708   -2.1542    0.0000 C   0  0  0  0  0  0           0  0  0
   -1.6625   -2.2000    0.0000 C   0  0  0  0  0  0           0  0  0
   -1.7333   -1.1667    0.0000 C   0  0  0  0  0  0           0  0  0
   -1.9958   -1.7042    0.0000 C   0  0  0  0  0  0           0  0  0
  2  1  2  0     0  0
  3  1  1  0     0  0
  4  2  1  0     0  0
  5  1  1  0     0  0
  6  5  2  0     0  0
  7  8  1  0     0  0
  8 12  1  0     0  0
  9  3  1  0     0  0
 10 15  1  0     0  0
  7 11  1  1     0  0
 12 10  1  1     0  0
 13  2  1  0     0  0
 14  3  2  0     0  0
 15  9  1  0     0  0
 16 18  1  0     0  0
 17  9  1  0     0  0
 18 12  1  0     0  0
  8 19  1  6     0  0
 20 11  1  0     0  0
 21  6  1  0     0  0
 22 20  2  0     0  0
 23 20  1  0     0  0
 24 23  2  0     0  0
 25 22  1  0     0  0
 26 24  1  0     0  0
  6  4  1  0     0  0
 17 13  1  0     0  0
 16  7  1  0     0  0
 26 25  2  0     0  0
M  END