
  Mrv0541 04051115152D          

 11 12  0  0  0  0            999 V2000
    0.6870   -1.0734    0.0000 N   0  0  0  0  0  0  0  0  0  0  0  0
    0.0196   -0.5885    0.0000 C   0  0  0  0  0  0  0  0  0  0  0  0
   -0.6479   -1.0734    0.0000 N   0  0  0  0  0  0  0  0  0  0  0  0
    0.4321   -1.8581    0.0000 C   0  0  0  0  0  0  0  0  0  0  0  0
   -0.3929   -1.8581    0.0000 C   0  0  0  0  0  0  0  0  0  0  0  0
    0.0196    0.2365    0.0000 C   0  0  0  0  0  0  0  0  0  0  0  0
   -0.6949    0.6490    0.0000 C   0  0  0  0  0  0  0  0  0  0  0  0
   -0.6949    1.4740    0.0000 C   0  0  0  0  0  0  0  0  0  0  0  0
    0.0196    1.8865    0.0000 C   0  0  0  0  0  0  0  0  0  0  0  0
    0.7340    1.4740    0.0000 C   0  0  0  0  0  0  0  0  0  0  0  0
    0.7340    0.6490    0.0000 C   0  0  0  0  0  0  0  0  0  0  0  0
  2  1  1  0  0  0  0
  4  1  1  0  0  0  0
  2  6  1  0  0  0  0
  2  3  2  0  0  0  0
  5  3  1  0  0  0  0
  4  5  2  0  0  0  0
  6  7  2  0  0  0  0
 11  6  1  0  0  0  0
  7  8  1  0  0  0  0
  8  9  2  0  0  0  0
 10  9  1  0  0  0  0
 10 11  2  0  0  0  0
M  END