
          11280715062D 1   1.00000     0.00000     0

 20 21  0     0  0            999 V2000
   -1.4208    1.0833    0.0000 C   0  0  0  0  0  0           0  0  0
   -1.6708    1.8708    0.0000 C   0  0  0  0  0  0           0  0  0
   -2.0750    0.6000    0.0000 N   0  0  0  0  0  0           0  0  0
    2.1625    1.4333    0.0000 N   0  3  0  0  0  0           0  0  0
    3.5500    1.7333    0.0000 C   0  0  0  0  0  0           0  0  0
    4.1625    2.2875    0.0000 C   0  0  0  0  0  0           0  0  0
   -0.6333    0.8333    0.0000 C   0  0  0  0  0  0           0  0  0
   -2.4958    1.8708    0.0000 C   0  0  0  0  0  0           0  0  0
    2.7667    1.9833    0.0000 C   0  0  0  0  0  0           0  0  0
   -2.7458    1.0833    0.0000 C   0  0  0  0  0  0           0  0  0
    4.9417    2.0333    0.0000 O   0  5  0  0  0  0           0  0  0
    3.9875    3.0958    0.0000 O   0  0  0  0  0  0           0  0  0
   -0.4583    0.0250    0.0000 O   0  0  0  0  0  0           0  0  0
   -0.0208    1.3833    0.0000 O   0  0  0  0  0  0           0  0  0
   -2.9833    2.5375    0.0000 Br  0  0  0  0  0  0           0  0  0
    1.3750    1.6833    0.0000 C   0  0  0  0  0  0           0  0  0
    2.3292    0.6208    0.0000 C   0  0  0  0  0  0           0  0  0
    3.7250    0.9208    0.0000 C   0  0  0  0  0  0           0  0  0
    0.7667    1.1333    0.0000 C   0  0  0  0  0  0           0  0  0
    3.1125    0.3708    0.0000 C   0  0  0  0  0  0           0  0  0
  2  1  2  0     0  0
  3  1  1  0     0  0
  4 16  1  0     0  0
  5  9  2  0     0  0
  6  5  1  0     0  0
  7  1  1  0     0  0
  8  2  1  0     0  0
  9  4  1  0     0  0
 10  3  1  0     0  0
 11  6  1  0     0  0
 12  6  2  0     0  0
 13  7  2  0     0  0
 14  7  1  0     0  0
 15  8  1  0     0  0
 16 19  1  0     0  0
 17  4  2  0     0  0
 18 20  2  0     0  0
 19 14  1  0     0  0
 20 17  1  0     0  0
 10  8  2  0     0  0
 18  5  1  0     0  0
M  CHG  2   4   1  11  -1
M  END