
          11280715112D 1   1.00000     0.00000     0

 19 21  0     0  0            999 V2000
    9.1042   -3.5875    0.0000 N   0  0  0  0  0  0           0  0  0
    8.8042   -3.0667    0.0000 C   0  0  0  0  0  0           0  0  0
    9.2042   -2.6292    0.0000 N   0  0  0  0  0  0           0  0  0
    9.6875   -3.4667    0.0000 C   0  0  0  0  0  0           0  0  0
    9.7500   -2.8750    0.0000 C   0  0  0  0  0  0           0  0  0
    6.8375   -3.9417    0.0000 N   0  0  0  0  0  0           0  0  0
    6.6542   -3.3667    0.0000 C   0  0  0  0  0  0           0  0  0
    5.8667   -3.9375    0.0000 N   0  0  0  0  0  0           0  0  0
    6.3500   -4.2917    0.0000 C   0  0  0  0  0  0           0  0  0
    6.0542   -3.3667    0.0000 C   0  0  0  0  0  0           0  0  0
   10.1292   -3.8667    0.0000 C   0  0  0  0  0  0           0  0  0
    8.2042   -3.0667    0.0000 S   0  0  0  0  0  0           0  0  0
    7.1750   -3.0750    0.0000 C   0  0  0  0  0  0           0  0  0
    7.6917   -3.3750    0.0000 C   0  0  0  0  0  0           0  0  0
   10.1250   -4.4667    0.0000 C   0  0  0  0  0  0           0  0  0
   10.6417   -3.5750    0.0000 C   0  0  0  0  0  0           0  0  0
   11.1625   -3.8750    0.0000 C   0  0  0  0  0  0           0  0  0
   10.6375   -4.7667    0.0000 C   0  0  0  0  0  0           0  0  0
   11.1542   -4.4792    0.0000 C   0  0  0  0  0  0           0  0  0
  2  1  2  0     0  0
  3  2  1  0     0  0
  4  1  1  0     0  0
  5  4  2  0     0  0
  6  7  1  0     0  0
  7 13  1  0     0  0
  8 10  1  0     0  0
  9  6  2  0     0  0
 10  7  2  0     0  0
 11  4  1  0     0  0
 12  2  1  0     0  0
 13 14  1  0     0  0
 14 12  1  0     0  0
 15 11  2  0     0  0
 16 11  1  0     0  0
 17 16  2  0     0  0
 18 15  1  0     0  0
 19 17  1  0     0  0
  3  5  1  0     0  0
 19 18  2  0     0  0
  9  8  1  0     0  0
M  END