
  SciTegic11201309402D

102111  0  0  0  0            999 V2000
   -1.7952  -27.0418    0.0000 C   0  0
   -1.7487  -28.6959    0.0000 O   0  0
    2.0175  -24.9247    0.0000 N   0  0
    1.1944  -24.9377    0.0000 C   0  0
    0.7940  -25.6590    0.0000 N   0  0
    0.7700  -24.2303    0.0000 S   0  0
   -0.0308  -25.6729    0.0000 C   0  0
   -0.4496  -24.9649    0.0000 C   0  0
   -1.2737  -24.9785    0.0000 C   0  0
   -0.4233  -26.3930    0.0000 C   0  0
   -1.2460  -26.4101    0.0000 C   0  0
   -1.6766  -25.6960    0.0000 C   0  0
   -2.4889  -25.8849    0.0000 C   0  0
   -2.5602  -26.7158    0.0000 O   0  0
   -3.1124  -25.3446    0.0000 O   0  0
   -1.0658  -27.4306    0.0000 C   0  0
   -1.0465  -28.2600    0.0000 C   0  0
   -0.3198  -28.6562    0.0000 C   0  0
    0.3881  -28.2241    0.0000 C   0  0
    0.3647  -27.3917    0.0000 C   0  0
   -0.3625  -26.9993    0.0000 C   0  0
   -2.4766  -28.3008    0.0000 C   0  0
   -2.4980  -27.4787    0.0000 C   0  0
   -3.2195  -27.0879    0.0000 C   0  0
   -3.9202  -27.5181    0.0000 C   0  0
   -3.8947  -28.3433    0.0000 C   0  0
   -3.1727  -28.7304    0.0000 C   0  0
    1.1131  -28.6178    0.0000 O   0  0
   -4.5960  -28.7778    0.0000 O   0  0
   11.2818  -26.0880    0.0000 C   0  0
   12.1066  -26.0711    0.0000 N   0  0
   10.8840  -26.8107    0.0000 O   0  0
   12.5336  -26.7770    0.0000 C   0  0  2  0  0  0
   13.3585  -26.7601    0.0000 C   0  0
   12.1358  -27.4998    0.0000 C   0  0  1  0  0  0
   11.3110  -27.5166    0.0000 C   0  0
   12.5629  -28.2056    0.0000 O   0  0
   13.7855  -27.4660    0.0000 N   0  0
   13.7563  -26.0374    0.0000 O   0  0
   10.0350  -25.3980    0.0000 N   0  0
   10.8552  -25.3823    0.0000 C   0  0  1  0  0  0
   11.0936  -24.5973    0.0000 C   0  0
   10.4206  -24.1279    0.0000 C   0  0
    9.7663  -24.6230    0.0000 C   0  0
   14.6103  -27.4491    0.0000 C   0  0  2  0  0  0
   15.0374  -28.1550    0.0000 C   0  0
   15.0081  -26.7264    0.0000 C   0  0
   14.6396  -28.8778    0.0000 O   0  0
   15.8597  -28.1381    0.0000 N   0  0
   15.8726  -28.9618    0.0000 C   0  0
   16.6597  -29.2088    0.0000 C   0  0
   17.1379  -28.5365    0.0000 C   0  0
   16.6465  -27.8724    0.0000 C   0  0  1  0  0  0
   17.0177  -27.1357    0.0000 C   0  0
   17.8406  -27.0889    0.0000 N   0  0
   16.5653  -26.4458    0.0000 O   0  0
   18.1391  -27.8573    0.0000 C   0  0
   18.9629  -27.8131    0.0000 C   0  0
   19.1754  -27.0159    0.0000 C   0  0
   18.4832  -26.5663    0.0000 C   0  0  1  0  0  0
   18.1743  -25.8013    0.0000 C   0  0
   18.6807  -25.1428    0.0000 N   0  0
   17.3573  -25.6864    0.0000 O   0  0
   11.5338  -26.7974    0.0000 H   0  0
    9.6430  -26.1239    0.0000 C   0  0
    8.8183  -26.1473    0.0000 C   0  0
   10.0756  -26.8263    0.0000 O   0  0
    8.3857  -25.4449    0.0000 N   0  0
   18.2604  -24.4330    0.0000 C   0  0  2  0  0  0
   17.4354  -24.4417    0.0000 C   0  0
   18.6644  -23.7144    0.0000 C   0  0
   19.4887  -23.6802    0.0000 C   0  0
   19.9306  -24.3769    0.0000 C   0  0
   19.5496  -25.1089    0.0000 O   0  0
   20.7564  -24.3436    0.0000 O   0  0
   17.0151  -23.7317    0.0000 N   0  0
   17.0304  -25.1604    0.0000 O   0  0
   17.3163  -22.9626    0.0000 C   0  0
   18.1324  -22.8422    0.0000 C   0  0
   18.4363  -22.0752    0.0000 N   0  0
   18.6448  -23.4888    0.0000 O   0  0
    7.5610  -25.4683    0.0000 C   0  0
    7.1285  -24.7656    0.0000 C   0  0  2  0  0  0
    7.1690  -26.1942    0.0000 O   0  0
   16.1903  -23.7472    0.0000 C   0  0
   14.5727  -22.6407    0.0000 C   0  0
    7.3950  -23.9893    0.0000 C   0  0
    6.7369  -23.4919    0.0000 C   0  0
    6.0603  -23.9641    0.0000 C   0  0
    6.2993  -24.7533    0.0000 N   0  0
    5.6015  -25.1934    0.0000 C   0  0
    4.8714  -24.8092    0.0000 C   0  0
    5.6338  -26.0178    0.0000 O   0  0
    4.1736  -25.2494    0.0000 C   0  0
    3.4436  -24.8652    0.0000 C   0  0
    2.7458  -25.3053    0.0000 C   0  0
    8.3792  -24.6167    0.0000 C   0  0
    9.4529  -23.3944    0.0000 C   0  0
   12.1964  -22.6444    0.0000 C   0  0
   19.2549  -25.9303    0.0000 H   0  0
   17.6429  -27.7874    0.0000 H   0  0
   11.8475  -25.2582    0.0000 H   0  0
  3  4  1  0
 46 48  2  0
 11 10  2  0
 46 49  1  0
 49 50  1  0
 22 23  2  0
 10  7  1  0
 23 24  1  0
 11 12  1  0
 50 51  1  0
 51 52  1  0
 52 53  1  0
 53 49  1  0
 24 25  2  0
 53 54  1  0
  1 16  1  0
 54 55  1  0
 25 26  1  0
 54 56  2  0
 55 57  1  0
  4  5  1  0
 26 27  2  0
 27 22  1  0
 22  2  1  0
 57 58  1  0
 58 59  1  0
 59 60  1  0
 60 55  1  0
 19 28  1  0
 60 61  1  0
  4  6  2  0
 61 62  1  0
 26 29  1  0
 61 63  2  0
 12 13  1  0
 33 64  1  1
 41 30  1  0
 40 65  1  0
 13 14  1  0
 65 66  1  0
 30 31  1  0
 65 67  2  0
 14  1  1  0
 66 68  1  0
 30 32  2  0
 62 69  1  0
  1 11  1  0
 69 70  1  0
 31 33  1  0
 69 71  1  6
  2 17  1  0
 71 72  1  0
 33 34  1  0
 72 73  1  0
 13 15  2  0
 33 35  1  0
 73 74  1  0
 73 75  2  0
  5  7  1  0
 70 76  1  0
 35 36  1  6
 70 77  2  0
 76 78  1  0
 35 37  1  0
 78 79  1  0
 16 17  2  0
 79 80  1  0
 34 38  1  0
 79 81  2  0
  7  8  2  0
 68 82  1  0
 34 39  2  0
 83 82  1  1
 40 41  1  0
 82 84  2  0
 17 18  1  0
 76 85  1  0
  1 23  1  0
 85 86  1  0
 83 87  1  0
 18 19  2  0
  8  9  1  0
 19 20  1  0
 41 42  1  0
 87 88  1  0
 88 89  1  0
 89 90  1  0
 90 83  1  0
 42 43  1  0
 90 91  1  0
 43 44  1  0
 91 92  1  0
 44 40  1  0
 91 93  2  0
  9 12  2  0
 92 94  1  0
 38 45  1  0
 94 95  1  0
 20 21  2  0
 95 96  1  0
 96  3  1  0
 45 46  1  0
 68 97  1  0
 21 16  1  0
 97 98  1  0
 45 47  1  1
 98 99  1  0
 99 86  2  0
 60100  1  1
 53101  1  1
 41102  1  6
M  END