
  Mrv0541 05211314572D          

 37 41  0  0  0  0            999 V2000
   -0.5853   -9.3887    0.0000 C   0  0  0  0  0  0  0  0  0  0  0  0
    0.1291   -9.8012    0.0000 C   0  0  0  0  0  0  0  0  0  0  0  0
    0.8436   -9.3887    0.0000 C   0  0  0  0  0  0  0  0  0  0  0  0
    1.5581   -9.8012    0.0000 N   0  0  0  0  0  0  0  0  0  0  0  0
    0.8436   -8.5637    0.0000 O   0  0  0  0  0  0  0  0  0  0  0  0
    2.2726   -9.3887    0.0000 C   0  0  0  0  0  0  0  0  0  0  0  0
    2.9870   -9.8012    0.0000 C   0  0  0  0  0  0  0  0  0  0  0  0
    2.9870  -10.6262    0.0000 N   0  0  0  0  0  0  0  0  0  0  0  0
    2.2726  -11.0387    0.0000 C   0  0  0  0  0  0  0  0  0  0  0  0
    1.5581  -10.6262    0.0000 C   0  0  0  0  0  0  0  0  0  0  0  0
    3.7015  -11.0387    0.0000 C   0  0  0  0  0  0  0  0  0  0  0  0
    4.4160  -10.6262    0.0000 C   0  0  0  0  0  0  0  0  0  0  0  0
    5.1304  -11.0387    0.0000 C   0  0  0  0  0  0  0  0  0  0  0  0
    5.1304  -11.8637    0.0000 C   0  0  0  0  0  0  0  0  0  0  0  0
    4.4160  -12.2762    0.0000 C   0  0  0  0  0  0  0  0  0  0  0  0
    3.7015  -11.8637    0.0000 C   0  0  0  0  0  0  0  0  0  0  0  0
    5.8449  -12.2762    0.0000 N   0  3  0  0  0  0  0  0  0  0  0  0
    5.8449  -13.1012    0.0000 O   0  0  0  0  0  0  0  0  0  0  0  0
    6.5594  -11.8637    0.0000 O   0  5  0  0  0  0  0  0  0  0  0  0
   -1.2998   -9.8012    0.0000 N   0  0  0  0  0  0  0  0  0  0  0  0
   -1.2998  -10.6262    0.0000 C   0  0  0  0  0  0  0  0  0  0  0  0
   -2.0143   -9.3887    0.0000 C   0  0  0  0  0  0  0  0  0  0  0  0
   -2.7287   -9.8012    0.0000 C   0  0  0  0  0  0  0  0  0  0  0  0
   -3.4432   -9.3887    0.0000 C   0  0  0  0  0  0  0  0  0  0  0  0
   -4.8722   -8.5637    0.0000 O   0  0  0  0  0  0  0  0  0  0  0  0
   -4.8722   -9.3887    0.0000 C   0  0  0  0  0  0  0  0  0  0  0  0
   -4.1577   -9.8012    0.0000 C   0  0  0  0  0  0  0  0  0  0  0  0
   -4.1577  -10.6262    0.0000 C   0  0  0  0  0  0  0  0  0  0  0  0
   -4.8722  -11.0387    0.0000 C   0  0  0  0  0  0  0  0  0  0  0  0
   -5.5866  -10.6262    0.0000 C   0  0  0  0  0  0  0  0  0  0  0  0
   -5.5866   -9.8012    0.0000 C   0  0  0  0  0  0  0  0  0  0  0  0
   -3.4432   -8.5637    0.0000 C   0  0  0  0  0  0  0  0  0  0  0  0
   -4.1577   -8.1512    0.0000 C   0  0  0  0  0  0  0  0  0  0  0  0
   -4.1577   -7.3262    0.0000 C   0  0  0  0  0  0  0  0  0  0  0  0
   -3.4432   -6.9137    0.0000 C   0  0  0  0  0  0  0  0  0  0  0  0
   -2.7287   -7.3262    0.0000 C   0  0  0  0  0  0  0  0  0  0  0  0
   -2.7287   -8.1512    0.0000 C   0  0  0  0  0  0  0  0  0  0  0  0
 17 18  2  0  0  0  0
 17 19  1  0  0  0  0
 14 17  1  0  0  0  0
  8  9  1  0  0  0  0
  1 20  1  0  0  0  0
  9 10  1  0  0  0  0
 20 21  1  0  0  0  0
  4  6  1  0  0  0  0
 20 22  1  0  0  0  0
  8 11  1  0  0  0  0
 22 23  1  0  0  0  0
  2  3  1  0  0  0  0
 23 24  1  0  0  0  0
 24 27  1  0  0  0  0
 11 12  2  0  0  0  0
 24 32  1  0  0  0  0
 26 25  1  0  0  0  0
 25 33  1  0  0  0  0
  1  2  1  0  0  0  0
 12 13  1  0  0  0  0
 26 27  2  0  0  0  0
  3  4  1  0  0  0  0
 27 28  1  0  0  0  0
 13 14  2  0  0  0  0
 28 29  2  0  0  0  0
 29 30  1  0  0  0  0
 14 15  1  0  0  0  0
 30 31  2  0  0  0  0
 31 26  1  0  0  0  0
  3  5  2  0  0  0  0
 15 16  2  0  0  0  0
 32 33  2  0  0  0  0
 16 11  1  0  0  0  0
 33 34  1  0  0  0  0
  4 10  1  0  0  0  0
 34 35  2  0  0  0  0
  6  7  1  0  0  0  0
 35 36  1  0  0  0  0
  7  8  1  0  0  0  0
 36 37  2  0  0  0  0
 37 32  1  0  0  0  0
M  CHG  2  17   1  19  -1
M  END