
  SciTegic07291412072D

 61 67  0  0  0  0            999 V2000
   -0.0356   -2.7893    0.0000 N   0  0
    2.0465   -7.4535    0.0000 N   0  0
    0.7459   -3.0536    0.0000 C   0  0
    0.4223   -1.4357    0.0000 C   0  0
    1.3930   -6.2895    0.0000 C   0  0
    2.1426   -6.6342    0.0000 C   0  0
    1.2038   -1.7000    0.0000 N   0  0
    1.3656   -2.5090    0.0000 C   0  0  1  0  0  0
   -0.1974   -1.9803    0.0000 C   0  0  2  0  0  0
    1.2375   -7.6153    0.0000 C   0  0
    2.6529   -8.0129    0.0000 C   0  0
    4.6533   -4.3755    0.0000 C   0  0
    0.8337   -6.8959    0.0000 C   0  0
    2.6324   -5.2003    0.0000 C   0  0
    4.0336   -4.9201    0.0000 C   0  0  1  0  0  0
    3.2521   -4.6557    0.0000 N   0  0
    2.1471   -2.7734    0.0000 C   0  0
    5.4348   -4.6398    0.0000 N   0  0
    2.3089   -3.5824    0.0000 C   0  0
    1.8510   -4.9360    0.0000 C   0  0  1  0  0  0
    1.2313   -5.4806    0.0000 C   0  0
    1.6892   -4.1270    0.0000 N   0  0
   -0.7841   -2.4424    0.0000 C   0  0
    0.2605   -0.6267    0.0000 O   0  0
    0.9077   -3.8626    0.0000 O   0  0
   -0.9268   -1.6940    0.0000 C   0  0
    6.0545   -4.0952    0.0000 C   0  0
    4.1954   -5.7291    0.0000 C   0  0
    3.4406   -7.7674    0.0000 O   0  0
    4.4915   -3.5665    0.0000 O   0  0
    2.7942   -6.0093    0.0000 O   0  0
    4.3536  -13.4698    0.0000 N   0  0
    3.0903   -3.8467    0.0000 O   0  0
   -0.6444   -1.4038    0.0000 C   0  0
   -1.6234   -2.8013    0.0000 C   0  0
   -1.7306   -2.0459    0.0000 C   0  0
   -0.8891   -0.7979    0.0000 C   0  0
    2.4717   -8.8178    0.0000 O   0  0
    6.8360   -4.3596    0.0000 C   0  0
    4.9769   -5.9934    0.0000 C   0  0
    0.8165   -8.3248    0.0000 C   0  0
    0.0087   -6.8860    0.0000 C   0  0
    6.0412   -5.1992    0.0000 C   0  0
    3.7472  -12.9104    0.0000 C   0  0
    3.0781   -9.3771    0.0000 C   0  0
    5.1387   -6.8024    0.0000 C   0  0
    6.9978   -5.1686    0.0000 C   0  0
    7.4557   -3.8150    0.0000 C   0  0
    5.5966   -5.4488    0.0000 C   0  0
    3.9284  -12.1056    0.0000 C   0  0
    2.8969  -10.1820    0.0000 C   0  0
    3.5033  -10.7414    0.0000 C   0  0
    3.3220  -11.5462    0.0000 C   0  0
   -0.0085   -8.3148    0.0000 C   0  0
   -0.4123   -7.5955    0.0000 C   0  0
    8.2372   -4.0794    0.0000 C   0  0
    7.7793   -5.4330    0.0000 C   0  0
    6.3781   -5.7132    0.0000 C   0  0
    5.9202   -7.0668    0.0000 C   0  0
    6.5399   -6.5222    0.0000 C   0  0
    8.3990   -4.8884    0.0000 C   0  0
  2  6  1  0
  3  1  1  0
  9  4  1  1
  5 21  1  0
  6  5  2  0
  7  4  1  0
  8  3  1  0
  9  1  1  0
 10 13  2  0
 11  2  1  0
 12 15  1  0
 13  5  1  0
 14 20  1  0
 15 16  1  0
 16 14  1  0
  8 17  1  1
 18 12  1  0
 19 17  1  0
 20 22  1  0
 20 21  1  1
 22 19  1  0
 23  1  1  0
 24  4  2  0
 25  3  2  0
 26  9  1  0
 27 18  1  0
 15 28  1  6
 29 11  2  0
 30 12  2  0
 31 14  2  0
 32 44  1  0
 33 19  2  0
 34 23  1  0
 35 23  1  0
 36 35  1  0
 37 34  1  0
 38 11  1  0
 39 27  1  0
 40 28  1  0
 41 10  1  0
 42 13  1  0
 43 18  1  0
 44 50  1  0
 45 38  1  0
 46 40  1  0
 47 39  2  0
 48 39  1  0
 49 40  2  0
 50 53  1  0
 51 45  1  0
 52 51  1  0
 53 52  1  0
 54 55  1  0
 55 42  2  0
 56 48  2  0
 57 47  1  0
 58 49  1  0
 59 46  2  0
 60 58  2  0
 61 56  1  0
  7  8  1  0
 36 26  1  0
 37 26  1  0
  2 10  1  0
 54 41  2  0
 60 59  1  0
 61 57  2  0
M  END