
  SciTegic04091416462D

 44 46  0  0  0  0            999 V2000
   28.3304  -29.6259    0.0000 C   0  0
   28.7415  -30.3411    0.0000 N   0  3
   28.3256  -31.0504    0.0000 C   0  0
   28.7360  -31.7652    0.0000 C   0  0
   29.5619  -31.7673    0.0000 C   0  0
   29.9755  -31.0487    0.0000 C   0  0
   29.5627  -30.3367    0.0000 C   0  0
   29.9741  -32.4820    0.0000 N   0  0
   30.8019  -32.5146    0.0000 C   0  0
   25.8594  -29.6178    0.0000 C   0  0
   26.2662  -30.3356    0.0000 C   0  0
   27.0904  -30.3376    0.0000 C   0  0
   27.5051  -29.6234    0.0000 C   0  0
   27.0896  -28.9058    0.0000 C   0  0
   26.2667  -28.9073    0.0000 C   0  0
   20.9097  -28.1885    0.0000 C   0  0
   21.3203  -28.9053    0.0000 C   0  0
   22.1446  -28.9057    0.0000 C   0  0
   22.5579  -28.1906    0.0000 C   0  0
   22.1410  -27.4737    0.0000 C   0  0
   21.3181  -27.4770    0.0000 C   0  0
   20.0847  -28.1881    0.0000 C   0  0
   19.6724  -27.4735    0.0000 N   0  3
   20.0901  -26.7611    0.0000 C   0  0
   19.6786  -26.0469    0.0000 C   0  0
   18.8527  -26.0461    0.0000 C   0  0
   18.4401  -26.7655    0.0000 C   0  0
   18.8539  -27.4767    0.0000 C   0  0
   18.4396  -25.3320    0.0000 N   0  0
   23.3829  -28.1895    0.0000 C   0  0
   23.7963  -28.9034    0.0000 C   0  0
   24.6213  -28.9023    0.0000 C   0  0
   25.0348  -29.6162    0.0000 C   0  0
   17.6141  -25.3044    0.0000 C   0  0
   29.5475  -33.1881    0.0000 C   0  0
   31.1844  -33.2483    0.0000 C   0  0
   32.0114  -33.2812    0.0000 C   0  0
   32.4544  -32.5801    0.0000 C   0  0
   32.0644  -31.8444    0.0000 C   0  0
   31.2386  -31.8151    0.0000 C   0  0
   33.2788  -32.6115    0.0000 Cl  0  0
   18.8637  -24.6243    0.0000 C   0  0
   22.2455  -26.7241    0.0000 Br  0  5
   29.2580  -29.4054    0.0000 Br  0  5
  1  2  1  0
  2  3  2  0
  3  4  1  0
  4  5  2  0
  5  6  1  0
  6  7  2  0
  7  2  1  0
  5  8  1  0
  9  8  1  0
 10 11  2  0
 11 12  1  0
 12 13  2  0
 13 14  1  0
 14 15  2  0
 15 10  1  0
 13  1  1  0
 16 17  2  0
 17 18  1  0
 18 19  2  0
 19 20  1  0
 20 21  2  0
 21 16  1  0
 16 22  1  0
 22 23  1  0
 23 24  2  0
 24 25  1  0
 25 26  2  0
 26 27  1  0
 27 28  2  0
 28 23  1  0
 26 29  1  0
 19 30  1  0
 30 31  1  0
 31 32  1  0
 32 33  1  0
 33 10  1  0
 34 29  1  0
  8 35  1  0
  9 36  2  0
 36 37  1  0
 37 38  2  0
 38 39  1  0
 39 40  2  0
 40  9  1  0
 38 41  1  0
 29 42  1  0
M  CHG  4   2   1  23   1  43  -1  44  -1
M  END