
  SciTegic01091216402D

 21 22  0  0  0  0            999 V2000
    8.0567   -4.7515    0.0000 N   0  0
    8.1336   -5.5678    0.0000 N   0  0
    8.9372   -5.7497    0.0000 C   0  0
    9.3549   -5.0424    0.0000 C   0  0
    8.8104   -4.4250    0.0000 C   0  0
    7.3474   -4.3302    0.0000 C   0  0
    6.6292   -4.7338    0.0000 N   0  0
    7.3562   -3.5051    0.0000 N   0  0
    9.2620   -6.5090    0.0000 C   0  0
    8.0744   -3.1015    0.0000 C   0  0
    8.7838   -3.5228    0.0000 C   0  0
    5.9199   -4.3125    0.0000 S   0  0
    6.3412   -3.6031    0.0000 O   0  0
    5.2074   -4.7176    0.0000 C   0  0
    5.2037   -5.5415    0.0000 C   0  0
    4.4870   -5.9502    0.0000 C   0  0
    3.7740   -5.5352    0.0000 C   0  0
    3.7775   -4.7113    0.0000 C   0  0
    4.4943   -4.3026    0.0000 C   0  0
    4.4834   -6.7741    0.0000 Cl  0  0
    5.3301   -3.7240    0.0000 O   0  0
  1  2  1  0
  2  3  2  0
  3  4  1  0
  4  5  1  0
  1  5  1  0
  6  7  2  0
  6  8  1  0
  1  6  1  0
  3  9  1  0
 10 11  1  0
  8 10  1  0
 12 13  2  0
 14 15  1  0
 15 16  2  0
 16 17  1  0
 17 18  2  0
 18 19  1  0
 14 19  2  0
 12 14  1  0
 16 20  1  0
  7 12  1  0
 12 21  2  0
M  END