
          11280715502D 1   1.00000     0.00000     0

 18 20  0     0  0            999 V2000
    1.0611    2.1417    0.0000 C   0  0  0  0  0  0           0  0  0
    1.0599    1.3143    0.0000 C   0  0  0  0  0  0           0  0  0
    1.7747    0.9015    0.0000 C   0  0  0  0  0  0           0  0  0
    1.7729    2.5545    0.0000 C   0  0  0  0  0  0           0  0  0
    2.4883    2.1453    0.0000 C   0  0  0  0  0  0           0  0  0
    2.4891    1.3185    0.0000 C   0  0  0  0  0  0           0  0  0
    3.2044    0.9075    0.0000 N   0  0  0  0  0  0           0  0  0
    3.9194    1.3223    0.0000 C   0  0  0  0  0  0           0  0  0
    3.9146    2.1523    0.0000 C   0  0  0  0  0  0           0  0  0
    3.1987    2.5595    0.0000 C   0  0  0  0  0  0           0  0  0
    4.6355    0.9126    0.0000 N   0  0  0  0  0  0           0  0  0
    5.3483    1.3278    0.0000 C   0  0  0  0  0  0           0  0  0
    5.3451    2.1528    0.0000 C   0  0  0  0  0  0           0  0  0
    6.0588    2.5662    0.0000 C   0  0  0  0  0  0           0  0  0
    6.0560    3.3904    0.0000 C   0  0  0  0  0  0           0  0  0
    5.3394    3.8010    0.0000 C   0  0  0  0  0  0           0  0  0
    4.6241    3.3812    0.0000 C   0  0  0  0  0  0           0  0  0
    4.6305    2.5584    0.0000 C   0  0  0  0  0  0           0  0  0
  8  9  2  0     0  0
  4  1  2  0     0  0
  9 10  1  0     0  0
 10  5  2  0     0  0
  8 11  1  0     0  0
  2  3  2  0     0  0
 11 12  1  0     0  0
  5  6  1  0     0  0
 12 13  1  0     0  0
  3  6  1  0     0  0
 13 14  2  0     0  0
  6  7  2  0     0  0
 14 15  1  0     0  0
  1  2  1  0     0  0
 15 16  2  0     0  0
  7  8  1  0     0  0
 16 17  1  0     0  0
  5  4  1  0     0  0
 17 18  2  0     0  0
 18 13  1  0     0  0
M  END