
          11280715362D 1   1.00000     0.00000     0

 34 36  0     0  0            999 V2000
    4.1292   -0.8542    0.0000 S   0  0  3  0  0  0           0  0  0
    0.5542   -2.9292    0.0000 C   0  0  0  0  0  0           0  0  0
    0.5542   -2.1042    0.0000 C   0  0  0  0  0  0           0  0  0
    4.9542   -0.8500    0.0000 C   0  0  0  0  0  0           0  0  0
    4.1292   -1.6750    0.0000 O   0  0  0  0  0  0           0  0  0
    4.1292   -0.0250    0.0000 O   0  0  0  0  0  0           0  0  0
   -0.1583   -3.3417    0.0000 C   0  0  0  0  0  0           0  0  0
    3.4167   -0.4417    0.0000 N   0  0  0  0  0  0           0  0  0
    1.2750   -3.3417    0.0000 N   0  0  0  0  0  0           0  0  0
    4.8417   -2.9292    0.0000 C   0  0  0  0  0  0           0  0  0
    1.2750   -1.6917    0.0000 C   0  0  0  0  0  0           0  0  0
   -0.8625   -4.5792    0.0000 N   0  0  0  0  0  0           0  0  0
    4.8417   -2.1042    0.0000 O   0  0  0  0  0  0           0  0  0
    5.3667   -1.5667    0.0000 C   0  0  0  0  0  0           0  0  0
    5.3625   -0.1417    0.0000 C   0  0  0  0  0  0           0  0  0
    6.6042   -0.8500    0.0000 C   0  0  0  0  0  0           0  0  0
    5.5625   -3.3417    0.0000 O   0  0  0  0  0  0           0  0  0
    1.2750   -0.8667    0.0000 C   0  0  0  0  0  0           0  0  0
    6.1917   -1.5667    0.0000 C   0  0  0  0  0  0           0  0  0
    6.1792   -0.1292    0.0000 C   0  0  0  0  0  0           0  0  0
    1.9875   -2.9292    0.0000 O   0  0  0  0  0  0           0  0  0
   -0.1500   -4.1667    0.0000 C   0  0  0  0  0  0           0  0  0
    7.4292   -0.8417    0.0000 I   0  0  0  0  0  0           0  0  0
    2.7042   -0.8542    0.0000 C   0  0  0  0  0  0           0  0  0
   -0.1583   -1.6917    0.0000 C   0  0  0  0  0  0           0  0  0
   -0.1583   -0.8667    0.0000 C   0  0  0  0  0  0           0  0  0
   -0.8708   -2.9292    0.0000 C   0  0  0  0  0  0           0  0  0
    4.1292   -3.3417    0.0000 C   0  0  0  0  0  0           0  0  0
   -1.5833   -4.1667    0.0000 C   0  0  0  0  0  0           0  0  0
    1.9875   -0.4500    0.0000 C   0  0  0  0  0  0           0  0  0
    0.5542   -0.4542    0.0000 C   0  0  0  0  0  0           0  0  0
    2.7042   -3.3417    0.0000 C   0  0  0  0  0  0           0  0  0
    3.4167   -2.9292    0.0000 C   0  0  0  0  0  0           0  0  0
   -1.5833   -3.3417    0.0000 C   0  0  0  0  0  0           0  0  0
  2  3  1  0     0  0
  3 11  2  0     0  0
  4  1  1  0     0  0
  5  1  2  0     0  0
  6  1  2  0     0  0
  7  2  1  0     0  0
  8  1  1  0     0  0
  9  2  2  0     0  0
 10 28  1  0     0  0
 11 18  1  0     0  0
 12 22  2  0     0  0
 13 10  2  0     0  0
 14  4  2  0     0  0
 15  4  1  0     0  0
 16 20  1  0     0  0
 17 10  1  0     0  0
 18 30  1  0     0  0
 19 14  1  0     0  0
 20 15  2  0     0  0
  9 21  1  0     0  0
 22  7  1  0     0  0
 23 16  1  0     0  0
 24  8  1  0     0  0
 25 26  2  0     0  0
 26 31  1  0     0  0
 27  7  2  0     0  0
 28 33  1  0     0  0
 29 34  2  0     0  0
 30 24  1  0     0  0
 31 18  2  0     0  0
 32 21  1  0     0  0
 33 32  1  0     0  0
 34 27  1  0     0  0
 16 19  2  0     0  0
 25  3  1  0     0  0
 12 29  1  0     0  0
M  END