
  SciTegic01311317052D

 19 20  0  0  0  0            999 V2000
   10.4111   -9.7666    0.0000 N   0  0
   10.4099  -10.5940    0.0000 C   0  0
   11.1248  -11.0069    0.0000 C   0  0
   11.1230   -9.3539    0.0000 C   0  0
   11.8383   -9.7630    0.0000 C   0  0
   11.8386  -10.5940    0.0000 C   0  0
   12.5946   -9.4336    0.0000 C   0  0
   13.2581   -9.9239    0.0000 N   0  3
   13.2486  -10.7482    0.0000 C   0  0
   14.0311  -11.0095    0.0000 C   0  0
   14.5214  -10.3459    0.0000 S   0  0
   14.0418   -9.6747    0.0000 C   0  0
    9.6951  -11.0059    0.0000 C   0  0
   11.1205   -8.5289    0.0000 N   0  0
   12.5764  -11.2265    0.0000 C   0  0
   14.2797  -11.7962    0.0000 C   0  0
   15.0852  -11.9742    0.0000 C   0  0
   15.3338  -12.7608    0.0000 O   0  0
   13.7227  -12.4048    0.0000 O   0  0
 10 11  1  0
 11 12  1  0
 12  8  2  0
  2  3  1  0
  3  6  2  0
  5  7  1  0
  1  2  2  0
  7  8  1  0
  2 13  1  0
  8  9  1  0
  4 14  1  0
  9 15  1  0
  5  4  2  0
 10 16  1  0
  4  1  1  0
 16 17  1  0
  5  6  1  0
 17 18  1  0
  9 10  2  0
 16 19  1  0
M  CHG  1   8   1
M  END