
  SciTegic01161211252D

 40 46  0  0  0  0            999 V2000
    5.0006  -13.9261    0.0000 C   0  0
    4.3144  -14.3763    0.0000 C   0  0
    4.3647  -15.1965    0.0000 C   0  0
    5.1016  -15.5638    0.0000 C   0  0
    5.7355  -14.2863    0.0000 C   0  0
    5.7893  -15.1035    0.0000 C   0  0
    6.5833  -15.3049    0.0000 N   0  0
    7.0202  -14.6120    0.0000 O   0  0
    6.4961  -13.9826    0.0000 N   0  0
   -0.6468  -12.9920    0.0000 N   0  0
    0.7798  -12.9991    0.0000 C   0  0
    0.0683  -12.5817    0.0000 C   0  0
   -2.0209  -11.2986    0.0000 C   0  0
   -1.3200  -11.7346    0.0000 C   0  0
   -1.3437  -12.5615    0.0000 C   0  0
    1.5148  -12.6433    0.0000 C   0  0
    2.2157  -13.0752    0.0000 N   0  0
    1.5342  -11.8164    0.0000 O   0  0
    2.1876  -13.8985    0.0000 C   0  0
    2.8844  -14.3342    0.0000 C   0  0
    3.6110  -13.9427    0.0000 N   0  0
    3.6407  -13.1148    0.0000 C   0  0
    2.9356  -12.6785    0.0000 C   0  0
   -0.5957  -11.3395    0.0000 C   0  0
   -2.7452  -11.6937    0.0000 C   0  0
   -3.4467  -11.2555    0.0000 C   0  0
   -3.4888  -12.9096    0.0000 C   0  0
   -2.7636  -12.5169    0.0000 C   0  0
   -0.6510  -13.8193    0.0000 C   0  0
    0.7756  -13.8265    0.0000 C   0  0
    0.0573  -14.2377    0.0000 C   0  0
    0.0528  -15.0594    0.0000 C   0  0
    0.7649  -15.4759    0.0000 C   0  0
    1.4833  -15.0689    0.0000 C   0  0
    1.4894  -14.2410    0.0000 C   0  0
   -4.1916  -12.4839    0.0000 C   0  0
   -4.1713  -11.6518    0.0000 C   0  0
   -4.9563  -11.3753    0.0000 O   0  0
   -5.4619  -12.0365    0.0000 C   0  0
   -4.9893  -12.7216    0.0000 O   0  0
  8  9  1  0
  9  5  2  0
  5  1  1  0
  5  6  1  0
  2  3  1  0
 17 19  1  0
 14 24  1  0
 13 25  1  0
 13 14  1  0
 25 26  2  0
 26 37  1  0
 10 12  1  0
 36 27  1  0
 14 15  1  0
 27 28  2  0
 28 25  1  0
 15 10  1  0
 17 23  1  0
 31 29  1  0
 19 20  1  0
 20 21  1  0
 30 31  1  0
 21 22  1  0
 22 23  1  0
 30 11  1  0
 11 16  1  0
 11 12  1  0
 30 35  1  0
 31 32  1  0
 32 33  1  0
 33 34  1  0
 34 35  1  0
 16 17  1  0
 10 29  1  0
 16 18  2  0
 36 37  2  0
  1  2  2  0
  3  4  2  0
  4  6  1  0
  6  7  2  0
  7  8  1  0
 37 38  1  0
 38 39  1  0
 39 40  1  0
 40 36  1  0
 21  2  1  0
M  END