
  SciTegic07101214422D

 27 30  0  0  0  0            999 V2000
   19.5069   -0.2208    0.0000 C   0  0
   19.5057   -1.0482    0.0000 C   0  0
   20.2206   -1.4610    0.0000 C   0  0
   20.9370   -1.0477    0.0000 C   0  0
   20.2188    0.1920    0.0000 C   0  0
   20.9305   -0.2189    0.0000 C   0  0
   20.9227    1.4225    0.0000 C   0  0
   20.2161    1.0093    0.0000 N   0  0
   21.6391    1.0135    0.0000 C   0  0
   21.6443    0.1902    0.0000 N   0  0
   22.4290   -0.0593    0.0000 C   0  0
   22.9087    0.6098    0.0000 N   0  0
   22.4205    1.2727    0.0000 N   0  0
   22.6888   -0.8424    0.0000 O   0  0
   20.9185    2.2475    0.0000 N   0  0
   21.6308    2.6636    0.0000 C   0  0
   21.6265    3.4886    0.0000 O   0  0
   22.3474    2.2548    0.0000 C   0  0
   23.7313    0.6156    0.0000 C   0  0
   24.1477   -0.0979    0.0000 C   0  0
   24.9720   -0.0930    0.0000 C   0  0
   25.3807    0.6246    0.0000 C   0  0
   24.9593    1.3388    0.0000 C   0  0
   24.1364    1.3304    0.0000 C   0  0
   26.2057    0.6309    0.0000 O   0  0
   26.6237   -0.0804    0.0000 C   0  0
   23.0597    2.6710    0.0000 N   0  0
 12 13  1  0
 13  9  2  0
  6 10  1  0
 11 14  2  0
  1  2  2  0
  7 15  1  0
  9  7  1  0
 15 16  1  0
  3  4  2  0
 16 17  2  0
  7  8  2  0
 16 18  1  0
  8  5  1  0
  9 10  1  0
 19 20  2  0
  4  6  1  0
 20 21  1  0
  5  1  1  0
 21 22  2  0
 22 23  1  0
  2  3  1  0
 23 24  2  0
 24 19  1  0
 12 19  1  0
  5  6  2  0
 22 25  1  0
 10 11  1  0
 25 26  1  0
 11 12  1  0
 18 27  1  0
M  END