
  SciTegic09291413392D

 42 44  0  0  0  0            999 V2000
    8.3210   -9.6326    0.0000 Na  0  3
    7.6607   -6.8048    0.0000 O   0  0
    8.3239   -8.0650    0.0000 O   0  5
    6.8152   -7.5969    0.0000 O   0  0
    7.1981   -8.3122    0.0000 O   0  0
    7.6305   -7.6271    0.0000 S   0  0
    8.4123   -6.4801    0.0000 C   0  0
   10.5710   -5.3280    0.0000 O   0  0
    8.3757   -5.5929    0.0000 C   0  0
   13.5032   -5.9779    0.0000 C   0  0
   11.8894   -8.3765    0.0000 C   0  0
   13.0928   -5.2747    0.0000 C   0  0
   15.5243   -5.0831    0.0000 O   0  0
    9.0793   -5.1843    0.0000 C   0  0
   12.2760   -5.2797    0.0000 O   0  0
   14.8513   -3.9415    0.0000 C   0  0
    9.0811   -6.8206    0.0000 C   0  0
   13.8932   -2.8971    0.0000 O   0  0
   14.3071   -4.5540    0.0000 C   0  0
   14.3191   -5.9733    0.0000 C   0  0
    9.7906   -5.5892    0.0000 C   0  0
   15.2755   -2.5907    0.0000 O   0  0
   10.2900   -8.0470    0.0000 O   0  0
    7.6692   -4.3680    0.0000 C   0  0
   10.5790   -6.6600    0.0000 C   0  0
    7.6694   -5.1847    0.0000 O   0  0
   12.2816   -6.6899    0.0000 C   0  0
   15.6030   -4.2667    0.0000 C   0  0
   14.6761   -3.1444    0.0000 C   0  0
    9.7913   -6.4120    0.0000 C   0  0
   10.8343   -7.4349    0.0000 C   0  0
   15.1003   -1.7937    0.0000 C   0  0
   11.8719   -5.9883    0.0000 C   0  0
   14.7241   -5.2631    0.0000 C   0  0
   16.3092   -3.8515    0.0000 C   0  0
   11.0553   -5.9931    0.0000 C   0  0
   11.6340   -7.6017    0.0000 O   0  0
   13.0983   -6.6860    0.0000 O   0  0
   13.4925   -4.5620    0.0000 C   0  0
    6.9614   -3.9596    0.0000 C   0  0
   11.3452   -8.9862    0.0000 C   0  0
   14.3214   -1.5465    0.0000 C   0  0
  2  6  1  0
  7  2  1  0
  6  4  2  0
  6  3  1  0
  5  6  2  0
 21 14  2  0
  7 17  1  0
 14  9  1  0
 25 31  1  0
  9  7  2  0
 10 20  1  0
 30 25  1  0
 17 30  2  0
 15 12  1  0
 37 11  1  0
 16 19  1  0
 22 32  1  0
 36  8  1  0
 10 38  1  0
 25 36  2  0
 13 28  1  0
 19 34  1  0
 31 37  1  0
 36 33  1  0
 34 13  1  0
 29 18  2  0
  9 26  1  0
 28 35  1  0
 28 16  2  0
 33 15  1  0
 16 29  1  0
 39 12  1  0
 19 39  2  0
 12 10  2  0
  8 21  1  0
 26 24  1  0
 29 22  1  0
 31 23  2  0
 20 34  2  0
 21 30  1  0
 38 27  1  0
 24 40  1  0
 11 41  1  0
 32 42  1  0
M  CHG  2   1   1   3  -1
M  END