
  Mrv0541 04051115152D          

 22 23  0  0  0  0            999 V2000
   -1.5193    3.4066    0.0000 O   0  0  0  0  0  0  0  0  0  0  0  0
   -0.8048    2.9941    0.0000 C   0  0  0  0  0  0  0  0  0  0  0  0
   -0.0903    3.4066    0.0000 N   0  0  0  0  0  0  0  0  0  0  0  0
   -0.8048    2.1691    0.0000 C   0  0  0  0  0  0  0  0  0  0  0  0
   -0.1374    1.6842    0.0000 C   0  0  0  0  0  0  0  0  0  0  0  0
    0.6473    1.9391    0.0000 N   0  0  0  0  0  0  0  0  0  0  0  0
   -1.4722    1.6842    0.0000 N   0  0  0  0  0  0  0  0  0  0  0  0
   -1.2173    0.8996    0.0000 C   0  0  0  0  0  0  0  0  0  0  0  0
   -0.3923    0.8996    0.0000 N   0  0  0  0  0  0  0  0  0  0  0  0
    0.0926    0.2321    0.0000 C   0  0  1  0  0  0  0  0  0  0  0  0
    0.9176    0.2321    0.0000 C   0  0  1  0  0  0  0  0  0  0  0  0
    1.1726   -0.5525    0.0000 C   0  0  2  0  0  0  0  0  0  0  0  0
    1.9572   -0.8074    0.0000 O   0  0  0  0  0  0  0  0  0  0  0  0
    1.4025    0.8996    0.0000 O   0  0  0  0  0  0  0  0  0  0  0  0
   -0.1623   -0.5525    0.0000 O   0  0  0  0  0  0  0  0  0  0  0  0
    0.5051   -1.0374    0.0000 C   0  0  2  0  0  0  0  0  0  0  0  0
    0.5051   -1.8624    0.0000 C   0  0  0  0  0  0  0  0  0  0  0  0
   -0.2093   -2.2749    0.0000 O   0  0  0  0  0  0  0  0  0  0  0  0
   -0.2093   -3.0999    0.0000 P   0  0  0  0  0  0  0  0  0  0  0  0
   -0.2093   -3.9249    0.0000 O   0  0  0  0  0  0  0  0  0  0  0  0
   -1.0343   -3.0999    0.0000 O   0  0  0  0  0  0  0  0  0  0  0  0
    0.6157   -3.0999    0.0000 O   0  0  0  0  0  0  0  0  0  0  0  0
  2  1  2  0  0  0  0
  2  3  1  0  0  0  0
  4  2  1  0  0  0  0
  4  5  2  0  0  0  0
  4  7  1  0  0  0  0
  5  6  1  0  0  0  0
  5  9  1  0  0  0  0
  8  7  2  0  0  0  0
  8  9  1  0  0  0  0
 10  9  1  1  0  0  0
 10 11  1  0  0  0  0
 10 15  1  0  0  0  0
 11 12  1  0  0  0  0
 11 14  1  6  0  0  0
 12 13  1  6  0  0  0
 16 12  1  0  0  0  0
 16 15  1  0  0  0  0
 16 17  1  1  0  0  0
 17 18  1  0  0  0  0
 18 19  1  0  0  0  0
 20 19  1  0  0  0  0
 21 19  1  0  0  0  0
 22 19  2  0  0  0  0
M  END