
  SciTegic01161211252D

 59 59  0  0  0  0            999 V2000
   -1.5538   -1.1184    0.0000 N   0  0
   -0.8393   -0.7059    0.0000 C   0  0  1  0  0  0
   -0.1249   -1.1184    0.0000 C   0  0
   -0.8393    0.1191    0.0000 C   0  0
   -1.5538    0.5316    0.0000 C   0  0
   -1.5538    1.3567    0.0000 C   0  0
   -0.8393    1.7692    0.0000 C   0  0
   -0.8393    2.5942    0.0000 N   0  0
   -0.1249   -1.9434    0.0000 O   0  0
    0.5897   -0.7059    0.0000 N   0  0
    1.3042   -1.1184    0.0000 C   0  0
    2.0187   -0.7059    0.0000 C   0  0
    2.7331   -1.1184    0.0000 C   0  0
    3.4476   -0.7059    0.0000 C   0  0
    4.1622   -1.1184    0.0000 C   0  0
    4.8766   -0.7059    0.0000 C   0  0
    5.5911   -1.1184    0.0000 N   0  0
    4.8766    0.1191    0.0000 O   0  0
    6.3056   -0.7059    0.0000 C   0  0  1  0  0  0
    7.0200   -1.1184    0.0000 C   0  0
    6.3056    0.1191    0.0000 C   0  0
    7.0200    0.5316    0.0000 C   0  0
    7.0200    1.3567    0.0000 C   0  0
    6.3056    1.7692    0.0000 N   0  0
    6.3056    2.5942    0.0000 C   0  0
    5.5911    3.0067    0.0000 N   0  0
    7.0200    3.0067    0.0000 N   0  0
    7.0200   -1.9434    0.0000 O   0  0
    7.7345   -0.7059    0.0000 N   0  0
    8.4491   -1.1184    0.0000 C   0  0  1  0  0  0
    9.1635   -0.7059    0.0000 C   0  0
    8.4491   -1.9434    0.0000 C   0  0
    9.1635   -2.3559    0.0000 C   0  0
    9.1635   -3.1809    0.0000 C   0  0
    9.8780   -3.5934    0.0000 N   0  0
    9.8780   -4.4185    0.0000 C   0  0
   10.5925   -4.8310    0.0000 N   0  0
    9.1635   -4.8310    0.0000 N   0  0
    9.8780   -1.1184    0.0000 N   0  0
    9.1635    0.1191    0.0000 O   0  0
   -2.2682   -0.7059    0.0000 C   0  0
   -2.9827   -1.1184    0.0000 C   0  0
   -2.2682    0.1191    0.0000 O   0  0
   -2.9827   -1.9434    0.0000 C   0  0
   -2.2682   -2.3559    0.0000 C   0  0
   -2.2682   -3.1809    0.0000 C   0  0
   -1.5538   -3.5934    0.0000 C   0  0
   -1.5538   -4.4185    0.0000 N   0  0
   -0.8393   -4.8310    0.0000 C   0  0
   -0.8393   -5.6560    0.0000 O   0  0
   -0.1249   -4.4185    0.0000 C   0  0
    0.5897   -4.8331    0.0000 C   0  0
    1.3037   -4.4212    0.0000 C   0  0
    1.3042   -3.5953    0.0000 C   0  0
    0.5847   -3.1830    0.0000 C   0  0
   -0.1264   -3.5972    0.0000 C   0  0
    2.0181   -3.1818    0.0000 C   0  0
    2.7331   -3.5934    0.0000 N   0  0
    2.0170   -2.3569    0.0000 O   0  0
 29 30  1  0
  7  8  1  0
 30 31  1  0
 15 16  1  0
 30 32  1  1
 32 33  1  0
 16 17  1  0
 33 34  1  0
  3  9  2  0
 34 35  1  0
 16 18  2  0
 35 36  1  0
  4  5  1  0
 36 37  1  0
 17 19  1  0
 36 38  2  0
  3 10  1  0
 31 39  1  0
 19 20  1  0
 31 40  2  0
  2  3  1  0
  1 41  1  0
 19 21  1  6
 41 42  1  0
 10 11  1  0
 41 43  2  0
 21 22  1  0
 42 44  1  0
  5  6  1  0
 44 45  1  0
 22 23  1  0
 45 46  1  0
 11 12  1  0
 46 47  1  0
 23 24  1  0
 47 48  1  0
  1  2  1  0
 48 49  1  0
 24 25  1  0
 49 50  2  0
 12 13  1  0
 49 51  1  0
 25 26  2  0
 51 52  2  0
  6  7  1  0
 52 53  1  0
 25 27  1  0
 53 54  2  0
 13 14  1  0
 54 55  1  0
 20 28  2  0
 55 56  2  0
 56 51  1  0
  2  4  1  6
 54 57  1  0
 20 29  1  0
 57 58  1  0
 14 15  1  0
 57 59  2  0
M  END