
  Mrv0541 09061316592D          

 46 49  0  0  0  0            999 V2000
   -1.5462   -7.1029    0.0000 N   0  0  0  0  0  0  0  0  0  0  0  0
   -1.5462   -7.9326    0.0000 C   0  0  0  0  0  0  0  0  0  0  0  0
   -0.8318   -8.3451    0.0000 N   0  0  0  0  0  0  0  0  0  0  0  0
   -0.8318   -6.6858    0.0000 C   0  0  0  0  0  0  0  0  0  0  0  0
   -0.1127   -7.1029    0.0000 C   0  0  0  0  0  0  0  0  0  0  0  0
   -0.1127   -7.9336    0.0000 C   0  0  0  0  0  0  0  0  0  0  0  0
    0.6772   -8.1903    0.0000 N   0  0  0  0  0  0  0  0  0  0  0  0
    1.1655   -7.5183    0.0000 C   0  0  0  0  0  0  0  0  0  0  0  0
    0.6773   -6.8464    0.0000 N   0  0  0  0  0  0  0  0  0  0  0  0
   -0.8329   -5.8608    0.0000 O   0  0  0  0  0  0  0  0  0  0  0  0
   -2.2617   -6.6922    0.0000 C   0  0  0  0  0  0  0  0  0  0  0  0
   -2.2607   -8.3451    0.0000 O   0  0  0  0  0  0  0  0  0  0  0  0
   -0.8333   -9.1701    0.0000 C   0  0  0  0  0  0  0  0  0  0  0  0
    1.9905   -7.5183    0.0000 C   0  0  0  0  0  0  0  0  0  0  0  0
    2.4011   -8.2321    0.0000 C   0  0  0  0  0  0  0  0  0  0  0  0
    3.2253   -8.2325    0.0000 C   0  0  0  0  0  0  0  0  0  0  0  0
    3.6386   -7.5175    0.0000 C   0  0  0  0  0  0  0  0  0  0  0  0
    3.2217   -6.8007    0.0000 C   0  0  0  0  0  0  0  0  0  0  0  0
    2.3988   -6.8039    0.0000 C   0  0  0  0  0  0  0  0  0  0  0  0
    4.4636   -7.5164    0.0000 O   0  0  0  0  0  0  0  0  0  0  0  0
   -2.9751   -7.1064    0.0000 C   0  0  0  0  0  0  0  0  0  0  0  0
    4.8771   -8.2303    0.0000 C   0  0  0  0  0  0  0  0  0  0  0  0
    5.7021   -8.2292    0.0000 C   0  0  0  0  0  0  0  0  0  0  0  0
    6.1156   -8.9431    0.0000 O   0  0  0  0  0  0  0  0  0  0  0  0
    6.1136   -7.5142    0.0000 N   0  0  0  0  0  0  0  0  0  0  0  0
    6.9386   -7.5131    0.0000 C   0  0  0  0  0  0  0  0  0  0  0  0
    7.3483   -8.2281    0.0000 C   0  0  0  0  0  0  0  0  0  0  0  0
    8.1726   -8.2274    0.0000 C   0  0  0  0  0  0  0  0  0  0  0  0
    8.5849   -7.5118    0.0000 C   0  0  0  0  0  0  0  0  0  0  0  0
    8.1671   -6.7955    0.0000 C   0  0  0  0  0  0  0  0  0  0  0  0
    7.3442   -6.7998    0.0000 C   0  0  0  0  0  0  0  0  0  0  0  0
    9.4079   -7.5063    0.0000 C   0  0  0  0  0  0  0  0  0  0  0  0
   10.2329   -7.5041    0.0000 N   0  0  0  0  0  0  0  0  0  0  0  0
   -2.5655   -7.8225    0.0000 H   0  0  0  0  0  0  0  0  0  0  0  0
   -3.3827   -6.3891    0.0000 H   0  0  0  0  0  0  0  0  0  0  0  0
   -3.6958   -7.5125    0.0000 C   0  0  0  0  0  0  0  0  0  0  0  0
   -4.4126   -7.9209    0.0000 H   0  0  0  0  0  0  0  0  0  0  0  0
   -4.1025   -6.7947    0.0000 H   0  0  0  0  0  0  0  0  0  0  0  0
   -3.2913   -8.2315    0.0000 H   0  0  0  0  0  0  0  0  0  0  0  0
   -0.1196   -9.5839    0.0000 C   0  0  0  0  0  0  0  0  0  0  0  0
    0.5917   -9.9958    0.0000 C   0  0  0  0  0  0  0  0  0  0  0  0
   -0.5332  -10.2977    0.0000 H   0  0  0  0  0  0  0  0  0  0  0  0
    0.2967   -8.8716    0.0000 H   0  0  0  0  0  0  0  0  0  0  0  0
    1.3057  -10.4092    0.0000 H   0  0  0  0  0  0  0  0  0  0  0  0
    0.1782  -10.7097    0.0000 H   0  0  0  0  0  0  0  0  0  0  0  0
    1.0039   -9.2812    0.0000 H   0  0  0  0  0  0  0  0  0  0  0  0
  1 11  1  0  0  0  0
 22 23  1  0  0  0  0
 23 24  2  0  0  0  0
  2 12  2  0  0  0  0
 23 25  1  0  0  0  0
  1  2  1  0  0  0  0
 25 26  1  0  0  0  0
  3 13  1  0  0  0  0
  1  4  1  0  0  0  0
  8 14  1  0  0  0  0
 26 27  2  0  0  0  0
  2  3  1  0  0  0  0
 27 28  1  0  0  0  0
 14 15  2  0  0  0  0
 28 29  2  0  0  0  0
  3  6  1  0  0  0  0
 29 30  1  0  0  0  0
 15 16  1  0  0  0  0
 30 31  2  0  0  0  0
 31 26  1  0  0  0  0
  6  7  1  0  0  0  0
 16 17  2  0  0  0  0
 32 33  3  0  0  0  0
 29 32  1  0  0  0  0
 21 34  1  0  0  0  0
  7  8  2  0  0  0  0
 21 35  1  0  0  0  0
 17 18  1  0  0  0  0
 21 36  1  0  0  0  0
  8  9  1  0  0  0  0
 36 37  1  0  0  0  0
 18 19  2  0  0  0  0
 36 38  1  0  0  0  0
 19 14  1  0  0  0  0
 36 39  1  0  0  0  0
  9  5  1  0  0  0  0
 13 40  1  0  0  0  0
 17 20  1  0  0  0  0
 40 41  1  0  0  0  0
  5  4  1  0  0  0  0
 40 42  1  0  0  0  0
 11 21  1  0  0  0  0
 40 43  1  0  0  0  0
  4 10  2  0  0  0  0
 41 44  1  0  0  0  0
  5  6  2  0  0  0  0
 41 45  1  0  0  0  0
 20 22  1  0  0  0  0
 41 46  1  0  0  0  0
M  ISO  8  34   3  35   3  37   3  38   3  39   3  42   3  43   3  44   3
M  ISO  2  45   3  46   3
M  END