
          11280714462D 1   1.00000     0.00000     0

 37 38  0     1  0            999 V2000
    7.6792   -4.8167    0.0000 P   0  0  3  0  0  0           0  0  0
   12.1875   -9.5000    0.0000 C   0  0  0  0  0  0           0  0  0
   13.0875   -8.9792    0.0000 N   0  0  0  0  0  0           0  0  0
   11.2875   -8.9792    0.0000 C   0  0  1  0  0  0           0  0  0
   14.8875   -8.9792    0.0000 C   0  0  0  0  0  0           0  0  0
   10.3792   -9.5000    0.0000 N   0  0  0  0  0  0           0  0  0
   13.9875   -9.5000    0.0000 C   0  0  2  0  0  0           0  0  0
   10.3792  -10.5375    0.0000 C   0  0  0  0  0  0           0  0  0
    7.6792   -5.8542    0.0000 O   0  0  0  0  0  0           0  0  0
   14.8875  -12.1000    0.0000 C   0  0  0  0  0  0           0  0  0
    8.7250   -4.8167    0.0000 O   0  0  0  0  0  0           0  0  0
   12.1875  -10.5375    0.0000 O   0  0  0  0  0  0           0  0  0
   11.2875   -7.9375    0.0000 C   0  0  0  0  0  0           0  0  0
   14.8875   -7.9375    0.0000 O   0  0  0  0  0  0           0  0  0
   11.2875  -11.0542    0.0000 O   0  0  0  0  0  0           0  0  0
   15.7875  -12.6167    0.0000 O   0  0  0  0  0  0           0  0  0
   15.7875   -9.5000    0.0000 N   0  0  0  0  0  0           0  0  0
   13.9875  -10.5375    0.0000 C   0  0  0  0  0  0           0  0  0
    6.6417   -4.8167    0.0000 O   0  0  0  0  0  0           0  0  0
    7.6792   -3.7792    0.0000 O   0  0  0  0  0  0           0  0  0
   14.8875  -11.0542    0.0000 C   0  0  0  0  0  0           0  0  0
    8.5792   -6.3792    0.0000 C   0  0  0  0  0  0           0  0  0
   10.3792   -7.4167    0.0000 C   0  0  0  0  0  0           0  0  0
   13.9875  -12.6167    0.0000 O   0  0  0  0  0  0           0  0  0
   10.3792   -6.3792    0.0000 C   0  0  0  0  0  0           0  0  0
    9.4792   -7.9375    0.0000 C   0  0  0  0  0  0           0  0  0
    9.4792   -5.8542    0.0000 C   0  0  0  0  0  0           0  0  0
    8.5792   -7.4167    0.0000 C   0  0  0  0  0  0           0  0  0
   16.6917   -8.9792    0.0000 C   0  0  0  0  0  0           0  0  0
   17.5917  -10.5375    0.0000 C   0  0  0  0  0  0           0  0  0
    9.4792  -11.0542    0.0000 C   0  0  0  0  0  0           0  0  0
   17.5917   -9.5000    0.0000 C   0  0  0  0  0  0           0  0  0
   18.4917  -11.0542    0.0000 C   0  0  0  0  0  0           0  0  0
   16.6875  -11.0542    0.0000 C   0  0  0  0  0  0           0  0  0
   18.4917  -12.1000    0.0000 C   0  0  0  0  0  0           0  0  0
   16.6875  -12.1000    0.0000 C   0  0  0  0  0  0           0  0  0
   17.5917  -12.6167    0.0000 C   0  0  0  0  0  0           0  0  0
  2  4  1  0     0  0
  3  2  1  0     0  0
  4 13  1  1     0  0
  5  7  1  0     0  0
  6  4  1  0     0  0
  7  3  1  0     0  0
  8  6  1  0     0  0
  9  1  1  0     0  0
 10 21  1  0     0  0
 11  1  2  0     0  0
 12  2  2  0     0  0
 13 23  1  0     0  0
 14  5  2  0     0  0
 15  8  2  0     0  0
 16 10  2  0     0  0
 17  5  1  0     0  0
  7 18  1  6     0  0
 19  1  1  0     0  0
 20  1  1  0     0  0
 21 18  1  0     0  0
 22  9  1  0     0  0
 23 26  1  0     0  0
 24 10  1  0     0  0
 25 27  1  0     0  0
 26 28  2  0     0  0
 27 22  2  0     0  0
 28 22  1  0     0  0
 29 17  1  0     0  0
 30 32  1  0     0  0
 31  8  1  0     0  0
 32 29  1  0     0  0
 33 30  1  0     0  0
 34 30  2  0     0  0
 35 33  2  0     0  0
 36 34  1  0     0  0
 37 36  2  0     0  0
 23 25  2  0     0  0
 37 35  1  0     0  0
M  END