
  SciTegic02011310462D

 34 37  0  0  0  0            999 V2000
   25.4532   -2.1828    0.0000 C   0  0
   24.7421   -2.6056    0.0000 C   0  0
   24.7536   -3.4310    0.0000 N   0  0
   25.4756   -3.8346    0.0000 C   0  0
   26.1874   -3.4067    0.0000 C   0  0
   26.1723   -2.5828    0.0000 C   0  0
   25.4886   -4.6595    0.0000 C   0  0
   26.2094   -5.0607    0.0000 N   0  0
   26.2225   -5.8856    0.0000 O   0  0
   26.9092   -3.8064    0.0000 O   0  0
   18.2900   -1.5965    0.0000 C   0  0
   18.2916   -2.4239    0.0000 C   0  0
   19.0077   -2.8344    0.0000 C   0  0
   19.0005   -1.1815    0.0000 C   0  0
   19.7173   -1.5882    0.0000 C   0  0
   19.7233   -2.4167    0.0000 C   0  0
   20.4399   -2.8234    0.0000 C   0  0
   21.1549   -2.4061    0.0000 N   0  0
   21.1488   -1.5777    0.0000 C   0  0
   20.4277   -1.1664    0.0000 C   0  0
   20.4441   -3.6462    0.0000 C   0  0
   19.7305   -4.0623    0.0000 C   0  0
   19.7350   -4.8865    0.0000 C   0  0
   20.4525   -5.2956    0.0000 C   0  0
   21.1669   -4.8744    0.0000 C   0  0
   21.1588   -4.0515    0.0000 C   0  0
   17.5741   -1.1865    0.0000 O   0  0
   17.5713   -0.3615    0.0000 C   0  0
   17.5782   -2.8381    0.0000 O   0  0
   16.8627   -2.4273    0.0000 C   0  0
   21.8925   -2.7758    0.0000 C   0  0
   22.5814   -2.3219    0.0000 C   0  0
   23.3190   -2.6916    0.0000 C   0  0
   24.0079   -2.2378    0.0000 C   0  0
  1  2  2  0
  2  3  1  0
  3  4  2  0
  4  5  1  0
  5  6  2  0
  6  1  1  0
  4  7  1  0
  7  8  2  0
  8  9  1  0
  5 10  1  0
 11 12  2  0
 12 13  1  0
 13 16  2  0
 15 14  2  0
 14 11  1  0
 15 16  1  0
 15 20  1  0
 16 17  1  0
 17 18  1  0
 18 19  1  0
 19 20  1  0
 21 22  2  0
 22 23  1  0
 23 24  2  0
 24 25  1  0
 25 26  2  0
 26 21  1  0
 17 21  1  0
 11 27  1  0
 27 28  1  0
 12 29  1  0
 29 30  1  0
 18 31  1  0
 31 32  1  0
 32 33  1  0
 33 34  1  0
 34  2  1  0
M  END