
          11280715162D 1   1.00000     0.00000     0

 39 42  0     0  0            999 V2000
    4.2250   -0.2792    0.0000 C   0  0  0  0  0  0           0  0  0
   -0.4583   -0.4667    0.0000 N   0  0  3  0  0  0           0  0  0
    4.7375   -0.5875    0.0000 N   0  0  0  0  0  0           0  0  0
   -0.9708   -0.1542    0.0000 C   0  0  0  0  0  0           0  0  0
    0.5667   -1.1000    0.0000 N   0  0  3  0  0  0           0  0  0
    5.2667   -0.2917    0.0000 C   0  0  0  0  0  0           0  0  0
    3.7000   -0.5667    0.0000 C   0  0  0  0  0  0           0  0  0
    7.8417   -1.2500    0.0000 C   0  0  0  0  0  0           0  0  0
    4.2375    0.3208    0.0000 O   0  0  0  0  0  0           0  0  0
   -0.4708   -1.0750    0.0000 C   0  0  0  0  0  0           0  0  0
    0.0667   -0.1792    0.0000 C   0  0  0  0  0  0           0  0  0
   -0.9583    0.4375    0.0000 C   0  0  0  0  0  0           0  0  0
    5.7792   -0.6042    0.0000 C   0  0  0  0  0  0           0  0  0
    7.8542   -0.6500    0.0000 O   0  0  0  0  0  0           0  0  0
    3.1792   -0.2542    0.0000 C   0  0  0  0  0  0           0  0  0
    3.6875   -1.1667    0.0000 C   0  0  0  0  0  0           0  0  0
    0.5792   -0.4917    0.0000 C   0  0  0  0  0  0           0  0  0
    0.0417   -1.3917    0.0000 C   0  0  0  0  0  0           0  0  0
    2.6500   -1.1417    0.0000 C   0  0  0  0  0  0           0  0  0
    8.3625   -1.5542    0.0000 O   0  0  0  0  0  0           0  0  0
    3.1625   -1.4542    0.0000 C   0  0  0  0  0  0           0  0  0
    2.6542   -0.5500    0.0000 C   0  0  0  0  0  0           0  0  0
   -0.4208    0.7208    0.0000 O   0  0  0  0  0  0           0  0  0
    5.7667   -1.2042    0.0000 O   0  0  0  0  0  0           0  0  0
    2.1167   -1.4292    0.0000 O   0  0  0  0  0  0           0  0  0
    1.0792   -1.4125    0.0000 C   0  0  0  0  0  0           0  0  0
    1.6042   -1.1167    0.0000 C   0  0  0  0  0  0           0  0  0
   -1.4958   -0.4500    0.0000 C   0  0  0  0  0  0           0  0  0
    5.2750    0.3083    0.0000 C   0  0  0  0  0  0           0  0  0
    7.3167   -1.5375    0.0000 C   0  0  0  0  0  0           0  0  0
   -1.4625    0.7500    0.0000 C   0  0  0  0  0  0           0  0  0
    6.3042   -0.3167    0.0000 C   0  0  0  0  0  0           0  0  0
    6.2792   -1.5167    0.0000 C   0  0  0  0  0  0           0  0  0
   -0.4083    1.3208    0.0000 C   0  0  0  0  0  0           0  0  0
    6.8042   -1.2250    0.0000 C   0  0  0  0  0  0           0  0  0
   -2.0083   -0.1375    0.0000 C   0  0  0  0  0  0           0  0  0
    5.8000    0.5958    0.0000 C   0  0  0  0  0  0           0  0  0
    6.3167    0.2875    0.0000 C   0  0  0  0  0  0           0  0  0
   -1.9958    0.4625    0.0000 C   0  0  0  0  0  0           0  0  0
  2 10  1  0     0  0
  3  1  1  0     0  0
  4  2  1  0     0  0
  5 26  1  0     0  0
  6  3  1  0     0  0
  7  1  1  0     0  0
  8 30  1  0     0  0
  9  1  2  0     0  0
 10 18  1  0     0  0
 11 17  1  0     0  0
 12  4  2  0     0  0
 13  6  2  0     0  0
 14  8  2  0     0  0
 15  7  1  0     0  0
 16  7  2  0     0  0
 17  5  1  0     0  0
 18  5  1  0     0  0
 19 21  2  0     0  0
 20  8  1  0     0  0
 21 16  1  0     0  0
 22 15  2  0     0  0
 23 12  1  0     0  0
 24 13  1  0     0  0
 25 19  1  0     0  0
 26 27  1  0     0  0
 27 25  1  0     0  0
 28  4  1  0     0  0
 29  6  1  0     0  0
 30 35  1  0     0  0
 31 12  1  0     0  0
 32 13  1  0     0  0
 33 24  1  0     0  0
 34 23  1  0     0  0
 35 33  1  0     0  0
 36 28  2  0     0  0
 37 29  2  0     0  0
 38 37  1  0     0  0
 39 36  1  0     0  0
 22 19  1  0     0  0
 32 38  2  0     0  0
 11  2  1  0     0  0
 31 39  2  0     0  0
M  END