
  SciTegic01061111512D

 27 30  0  0  0  0            999 V2000
    5.5312  -10.6043    0.0000 S   0  0
    4.8167  -11.0168    0.0000 C   0  0  1  0  0  0
    4.8167  -11.8418    0.0000 C   0  0  2  0  0  0
    5.5312  -12.2543    0.0000 O   0  0
    4.1022  -12.2543    0.0000 C   0  0  2  0  0  0
    3.3877  -11.8418    0.0000 C   0  0  1  0  0  0
    2.6733  -12.2543    0.0000 O   0  0
    3.3877  -11.0168    0.0000 C   0  0  2  0  0  0
    4.1022  -10.6043    0.0000 O   0  0
    2.6733  -10.6043    0.0000 C   0  0
    2.6733   -9.7793    0.0000 O   0  0
    4.1022  -13.0793    0.0000 N   0  0
    4.7697  -13.5642    0.0000 N   0  0
    4.5147  -14.3488    0.0000 N   0  0
    3.6897  -14.3488    0.0000 C   0  0
    3.4348  -13.5642    0.0000 C   0  0
    3.2048  -15.0163    0.0000 C   0  0
    3.5403  -15.7700    0.0000 C   0  0
    3.0554  -16.4374    0.0000 C   0  0
    2.2349  -16.3512    0.0000 C   0  0
    1.8994  -15.5975    0.0000 C   0  0
    1.0789  -15.5113    0.0000 C   0  0
    0.7433  -14.7576    0.0000 C   0  0
    1.2282  -14.0901    0.0000 C   0  0
    2.0487  -14.1764    0.0000 C   0  0
    2.3843  -14.9300    0.0000 C   0  0
    5.5312   -9.7793    0.0000 C   0  0
  2  1  1  1
  2  3  1  0
  3  4  1  6
  3  5  1  0
  5  6  1  0
  6  7  1  1
  6  8  1  0
  8  9  1  0
  8 10  1  1
 10 11  1  0
  2  9  1  0
 12 13  1  0
 13 14  2  0
 14 15  1  0
 15 16  2  0
 12 16  1  0
 17 18  1  0
 18 19  2  0
 19 20  1  0
 20 21  2  0
 21 22  1  0
 22 23  2  0
 23 24  1  0
 24 25  2  0
 25 26  1  0
 17 26  2  0
 21 26  1  0
 15 17  1  0
  5 12  1  1
  1 27  1  0
M  END