
          11280714512D 1   1.00000     0.00000     0

 37 40  0     0  0            999 V2000
    1.6917   -1.7792    0.0000 C   0  0  0  0  0  0           0  0  0
    2.3542   -1.3042    0.0000 N   0  0  0  0  0  0           0  0  0
    1.4250   -1.1042    0.0000 C   0  0  3  0  0  0           0  0  0
    3.0250   -1.7792    0.0000 C   0  0  0  0  0  0           0  0  0
    1.5750   -0.4167    0.0000 C   0  0  3  0  0  0           0  0  0
    0.1167   -1.1917    0.0000 C   0  0  3  0  0  0           0  0  0
    0.4542   -1.9792    0.0000 O   0  0  0  0  0  0           0  0  0
    1.9417   -2.5667    0.0000 O   0  0  0  0  0  0           0  0  0
    0.7917   -0.6417    0.0000 C   0  0  3  0  0  0           0  0  0
    2.7667   -2.5667    0.0000 C   0  0  0  0  0  0           0  0  0
    2.0542   -0.8917    0.0000 C   0  0  0  0  0  0           0  0  0
    3.6917   -1.5042    0.0000 C   0  0  0  0  0  0           0  0  0
    2.5250   -0.4167    0.0000 C   0  0  0  0  0  0           0  0  0
    0.1917    1.0583    0.0000 C   0  0  0  0  0  0           0  0  0
   -0.1583   -0.6542    0.0000 C   0  0  0  0  0  0           0  0  0
    0.3167   -0.1667    0.0000 C   0  0  0  0  0  0           0  0  0
    2.0917    0.2833    0.0000 C   0  0  0  0  0  0           0  0  0
    3.7792   -0.7542    0.0000 O   0  0  0  0  0  0           0  0  0
   -0.6083    0.8458    0.0000 O   0  0  0  0  0  0           0  0  0
    4.3417   -1.9167    0.0000 N   0  0  0  0  0  0           0  0  0
    1.5042    0.8708    0.0000 C   0  0  0  0  0  0           0  0  0
    0.7875    0.4625    0.0000 C   0  0  0  0  0  0           0  0  0
    0.4125    1.8583    0.0000 O   0  0  0  0  0  0           0  0  0
    3.3542   -0.3917    0.0000 C   0  0  0  0  0  0           0  0  0
    2.4917    1.0208    0.0000 C   0  0  0  0  0  0           0  0  0
    5.1375   -1.7000    0.0000 C   0  0  0  0  0  0           0  0  0
    5.7167   -2.2792    0.0000 C   0  0  0  0  0  0           0  0  0
   10.6625   -3.1542    0.0000 C   0  0  0  0  0  0           0  0  0
    9.8667   -3.3667    0.0000 C   0  0  0  0  0  0           0  0  0
    7.9000   -2.4250    0.0000 C   0  0  0  0  0  0           0  0  0
    8.4792   -3.0042    0.0000 C   0  0  0  0  0  0           0  0  0
    9.2792   -2.7917    0.0000 C   0  0  0  0  0  0           0  0  0
    6.5167   -2.0625    0.0000 C   0  0  0  0  0  0           0  0  0
    7.1042   -2.6417    0.0000 C   0  0  0  0  0  0           0  0  0
    3.7500    0.3333    0.0000 C   0  0  0  0  0  0           0  0  0
   11.2500   -3.7375    0.0000 C   0  0  0  0  0  0           0  0  0
    3.3167    1.0333    0.0000 C   0  0  0  0  0  0           0  0  0
  2  1  2  0     0  0
  3  1  1  0     0  0
  4  2  1  0     0  0
  5  3  1  0     0  0
  6  3  1  0     0  0
  7  6  1  0     0  0
  8  1  1  0     0  0
  9  5  1  0     0  0
 10  8  1  0     0  0
 11  5  1  0     0  0
 12  4  1  0     0  0
 13 11  1  0     0  0
 14 22  1  0     0  0
 15  6  1  0     0  0
 16 15  1  0     0  0
 17 13  2  0     0  0
 18 12  2  0     0  0
 19 14  2  0     0  0
 20 12  1  0     0  0
 21 17  1  0     0  0
 22 21  1  0     0  0
 23 14  1  0     0  0
 24 13  1  0     0  0
 25 17  1  0     0  0
 26 20  1  0     0  0
 27 26  1  0     0  0
 28 29  1  0     0  0
 29 32  1  0     0  0
 30 34  1  0     0  0
 31 30  1  0     0  0
 32 31  1  0     0  0
 33 27  1  0     0  0
 34 33  1  0     0  0
 35 24  2  0     0  0
 36 28  1  0     0  0
 37 35  1  0     0  0
  4 10  2  0     0  0
  7  9  1  0     0  0
 16  9  1  0     0  0
 25 37  2  0     0  0
M  END