
  SciTegic07061118172D

 31 32  0  0  0  0            999 V2000
   -4.4999   -6.9251    0.0000 C   0  0
   -3.7861   -6.5118    0.0000 C   0  0  1  0  0  0
   -3.0723   -6.9209    0.0000 C   0  0
   -2.3585   -6.5076    0.0000 N   0  0
   -1.6447   -6.9168    0.0000 C   0  0  2  0  0  0
   -0.9309   -6.5035    0.0000 C   0  0
   -0.2171   -6.9126    0.0000 N   0  0
    0.4967   -6.4993    0.0000 C   0  0
    1.2105   -6.9083    0.0000 C   0  0
    1.9243   -6.4951    0.0000 C   0  0
    2.6381   -6.9042    0.0000 C   0  0
    3.3519   -6.4910    0.0000 C   0  0
   -3.7879   -5.6853    0.0000 N   0  0
   -3.0705   -7.7474    0.0000 O   0  0
   -0.9327   -5.6770    0.0000 O   0  0
   -1.6429   -7.7433    0.0000 C   0  0
   -0.9262   -8.1549    0.0000 C   0  0
   -0.9277   -8.9799    0.0000 C   0  0
   -0.2118   -9.3915    0.0000 C   0  0
    0.5040   -8.9766    0.0000 C   0  0
    0.4995   -8.1459    0.0000 C   0  0
   -0.2169   -7.7380    0.0000 C   0  0
   -5.2162   -6.5128    0.0000 C   0  0
   -5.2305   -5.6874    0.0000 N   0  0
   -6.0265   -5.4440    0.0000 C   0  0
   -6.5026   -6.1199    0.0000 N   0  0
   -6.0001   -6.7811    0.0000 C   0  0
    4.0682   -6.9033    0.0000 N   0  0
    4.7835   -6.4893    0.0000 C   0  0
    4.0692   -7.7298    0.0000 C   0  0
    5.4997   -6.9016    0.0000 C   0  0
  5 16  1  6
 16 17  1  0
  8  9  1  0
 17 18  2  0
  4  5  1  0
 18 19  1  0
  9 10  1  0
 19 20  2  0
  2  3  1  0
 20 21  1  0
 10 11  1  0
 21 22  2  0
 22 17  1  0
  5  6  1  0
  1 23  1  0
 26 27  1  0
 11 12  1  0
 24 25  2  0
  1  2  1  0
  2 13  1  6
  6  7  1  0
 23 24  1  0
 25 26  1  0
 27 23  2  0
  3 14  2  0
 12 28  1  0
  3  4  1  0
 28 29  1  0
  6 15  2  0
 28 30  1  0
  7  8  1  0
 29 31  1  0
M  END