
  SciTegic12171313022D

 20 22  0  0  0  0            999 V2000
    2.7721  -21.1066    0.0000 C   0  0
    2.7709  -21.9261    0.0000 C   0  0
    3.4790  -22.3351    0.0000 C   0  0
    4.1886  -21.9257    0.0000 C   0  0
    4.1858  -21.1030    0.0000 C   0  0
    3.4772  -20.6977    0.0000 C   0  0
    2.0643  -20.6982    0.0000 Br  0  0
    4.8920  -20.6918    0.0000 C   0  0
    5.6012  -21.0977    0.0000 N   0  0
    4.8889  -19.8746    0.0000 O   0  0
    5.6017  -21.9121    0.0000 C   0  0
    6.3069  -22.3179    0.0000 C   0  0
    7.0155  -21.9101    0.0000 C   0  0
    7.0143  -21.0920    0.0000 C   0  0
    6.3046  -20.6816    0.0000 C   0  0
    7.7261  -22.3172    0.0000 N   0  0
    7.8115  -23.1299    0.0000 C   0  0
    8.6109  -23.2998    0.0000 C   0  0
    9.0195  -22.5920    0.0000 C   0  0
    8.4726  -21.9848    0.0000 C   0  0
  1  2  2  0
  2  3  1  0
  3  4  2  0
  4  5  1  0
  5  6  2  0
  6  1  1  0
  1  7  1  0
  5  8  1  0
  8  9  1  0
  8 10  2  0
  9 11  1  0
  9 15  1  0
 11 12  1  0
 12 13  1  0
 13 14  1  0
 14 15  1  0
 16 17  1  0
 17 18  1  0
 18 19  1  0
 19 20  1  0
 20 16  1  0
 13 16  1  0
M  END