
  SciTegic05061116452D

 40 44  0  0  0  0            999 V2000
    9.7171   -9.3790    0.0000 N   0  0
   10.4288   -8.9703    0.0000 C   0  0
   10.4288   -8.1452    0.0000 N   0  0
    9.7171   -7.7289    0.0000 C   0  0
    9.0054   -8.9703    0.0000 C   0  0
    9.0054   -8.1407    0.0000 C   0  0
    8.2164   -7.8843    0.0000 N   0  0
    7.7287   -8.5554    0.0000 C   0  0
    8.2163   -9.2265    0.0000 N   0  0
    7.9613  -10.0112    0.0000 C   0  0
    7.1544  -10.1828    0.0000 C   0  0
    6.8994  -10.9673    0.0000 O   0  0
    6.6023   -9.5696    0.0000 O   0  0
    9.7190   -6.9039    0.0000 N   0  0
   11.1428   -9.3837    0.0000 N   0  0
   11.8578   -8.9720    0.0000 C   0  0
   12.5717   -9.3854    0.0000 C   0  0
   11.1418  -10.2087    0.0000 C   0  0
   10.4268  -10.6203    0.0000 O   0  0
   11.8557  -10.6221    0.0000 O   0  0
   11.8548  -11.4471    0.0000 C   0  0
   12.5688  -11.8605    0.0000 C   0  0
   11.1398  -11.8588    0.0000 C   0  0
   11.8501  -12.2704    0.0000 C   0  0
   10.4372   -6.4958    0.0000 C   0  0
   10.4411   -5.6743    0.0000 C   0  0
    9.7295   -5.2563    0.0000 O   0  0
    9.0122   -5.6658    0.0000 C   0  0
    9.0066   -6.4935    0.0000 C   0  0
   12.5662  -10.2087    0.0000 C   0  0
   13.2793  -10.6220    0.0000 C   0  0
   13.9953  -10.2103    0.0000 C   0  0
   13.9937   -9.3810    0.0000 C   0  0
   13.2799   -8.9715    0.0000 C   0  0
   14.7060  -10.6200    0.0000 C   0  0
   14.7042  -11.4459    0.0000 C   0  0
   15.4147  -11.8583    0.0000 C   0  0
   16.1315  -11.4492    0.0000 C   0  0
   16.1334  -10.6232    0.0000 C   0  0
   15.4184  -10.2063    0.0000 C   0  0
  9  5  1  0
 18 20  1  0
  3  4  2  0
 20 21  1  0
  9 10  1  0
 21 22  1  0
  5  6  2  0
 21 23  1  0
 10 11  1  0
 21 24  1  0
 14 25  1  0
 11 12  1  0
  6  4  1  0
 11 13  2  0
  5  1  1  0
 14 29  1  0
 25 26  1  0
 26 27  1  0
 27 28  1  0
 28 29  1  0
  4 14  1  0
 17 30  2  0
  1  2  2  0
 30 31  1  0
  2 15  1  0
 31 32  2  0
  2  3  1  0
 32 33  1  0
 15 16  1  0
 33 34  2  0
 34 17  1  0
 35 36  1  0
  6  7  1  0
 16 17  1  0
  7  8  2  0
 15 18  1  0
  8  9  1  0
 18 19  2  0
 35 40  1  0
 36 37  1  0
 37 38  1  0
 38 39  1  0
 39 40  1  0
 32 35  1  0
M  END