
  CDK    9/16/09,9:48

 33 36  0  0  0  0  0  0  0  0999 V2000
   11.5729   -7.3621    0.0000 C   0  0  0  0  0  0  0  0  0  0  0  0
   11.1562   -8.0771    0.0000 C   0  0  0  0  0  0  0  0  0  0  0  0
   11.5656   -8.7923    0.0000 C   0  0  0  0  0  0  0  0  0  0  0  0
   12.3953   -8.7959    0.0000 C   0  0  0  0  0  0  0  0  0  0  0  0
   12.8098   -8.0755    0.0000 C   0  0  0  0  0  0  0  0  0  0  0  0
   12.3940   -7.3613    0.0000 C   0  0  0  0  0  0  0  0  0  0  0  0
   13.6349   -8.0734    0.0000 C   0  0  0  0  0  0  0  0  0  0  0  0
   14.0477   -8.7872    0.0000 C   0  0  0  0  0  0  0  0  0  0  0  0
   14.8720   -8.7855    0.0000 C   0  0  0  0  0  0  0  0  0  0  0  0
   15.2835   -8.0694    0.0000 C   0  0  0  0  0  0  0  0  0  0  0  0
   14.8647   -7.3536    0.0000 C   0  0  0  0  0  0  0  0  0  0  0  0
   14.0418   -7.3589    0.0000 C   0  0  0  0  0  0  0  0  0  0  0  0
   13.6249   -6.6469    0.0000 C   0  0  0  0  0  0  0  0  0  0  0  0
   10.3313   -8.0741    0.0000 C   0  0  0  0  0  0  0  0  0  0  0  0
    9.9214   -7.3579    0.0000 O   0  0  0  0  0  0  0  0  0  0  0  0
    9.9160   -8.7869    0.0000 N   0  0  0  0  0  0  0  0  0  0  0  0
    9.0910   -8.7838    0.0000 C   0  0  0  0  0  0  0  0  0  0  0  0
    8.6757   -9.4967    0.0000 C   0  0  0  0  0  0  0  0  0  0  0  0
    7.9606   -9.9105    0.0000 C   0  0  0  0  0  0  0  0  0  0  0  0
    8.6735  -10.3258    0.0000 C   0  0  0  0  0  0  0  0  0  0  0  0
   15.2860   -9.4992    0.0000 C   0  0  0  0  0  0  0  0  0  0  0  0
   14.8749  -10.2146    0.0000 O   0  0  0  0  0  0  0  0  0  0  0  0
   16.1110   -9.4974    0.0000 N   0  0  0  0  0  0  0  0  0  0  0  0
   16.5250  -10.2112    0.0000 C   0  0  0  0  0  0  0  0  0  0  0  0
   16.1117  -10.9229    0.0000 C   0  0  0  0  0  0  0  0  0  0  0  0
   16.5250  -11.6361    0.0000 C   0  0  0  0  0  0  0  0  0  0  0  0
   17.3509  -11.6348    0.0000 C   0  0  0  0  0  0  0  0  0  0  0  0
   17.7618  -10.9143    0.0000 C   0  0  0  0  0  0  0  0  0  0  0  0
   17.3462  -10.2041    0.0000 C   0  0  0  0  0  0  0  0  0  0  0  0
   16.1137  -12.3512    0.0000 C   0  0  0  0  0  0  0  0  0  0  0  0
   15.6943  -13.0587    0.0000 C   0  0  0  0  0  0  0  0  0  0  0  0
   16.8261  -12.7673    0.0000 C   0  0  0  0  0  0  0  0  0  0  0  0
   15.3998  -11.9374    0.0000 C   0  0  0  0  0  0  0  0  0  0  0  0
 14 16  1  0  0  0  0 
  7  8  2  0  0  0  0 
 16 17  1  0  0  0  0 
 17 18  1  0  0  0  0 
 19 18  1  0  0  0  0 
 20 19  1  0  0  0  0 
 18 20  1  0  0  0  0 
  8  9  1  0  0  0  0 
  4  5  1  0  0  0  0 
  9 10  2  0  0  0  0 
  9 21  1  0  0  0  0 
  2  3  1  0  0  0  0 
 21 22  2  0  0  0  0 
 10 11  1  0  0  0  0 
 21 23  1  0  0  0  0 
  5  6  2  0  0  0  0 
 23 24  1  0  0  0  0 
 11 12  2  0  0  0  0 
 24 25  2  0  0  0  0 
 12  7  1  0  0  0  0 
 25 26  1  0  0  0  0 
  6  1  1  0  0  0  0 
 26 27  2  0  0  0  0 
 12 13  1  0  0  0  0 
 27 28  1  0  0  0  0 
  1  2  2  0  0  0  0 
 28 29  2  0  0  0  0 
 29 24  1  0  0  0  0 
  2 14  1  0  0  0  0 
 26 30  1  0  0  0  0 
  5  7  1  0  0  0  0 
 30 31  1  0  0  0  0 
 14 15  2  0  0  0  0 
 30 32  1  0  0  0  0 
  3  4  2  0  0  0  0 
 30 33  1  0  0  0  0 
M  END