
  SciTegic09081514172D

 21 24  0  0  0  0            999 V2000
   -3.9031   -3.9341    0.0000 C   0  0
   -2.6330   -4.6620    0.0000 C   0  0
   -1.4095   -3.9031    0.0000 C   0  0
   -3.9341   -2.5091    0.0000 C   0  0
   -2.7105   -1.7347    0.0000 C   0  0
   -1.4095   -2.4627    0.0000 C   0  0
   -2.2458   -2.4627    0.0000 C   0  0
   -0.1212   -1.7035    0.0000 N   0  0
    1.1577    0.5607    0.0000 N   0  0
   -0.1335   -0.2027    0.0000 C   0  0
   -1.4402    0.5340    0.0000 C   0  0
   -1.4557    2.0339    0.0000 C   0  0
   -0.1644    2.7972    0.0000 C   0  0
    1.1423    2.0607    0.0000 C   0  0
   -2.7630    2.7708    0.0000 N   0  0
   -4.1090    2.1381    0.0000 C   0  0
   -5.1223    3.2440    0.0000 C   0  0
   -4.3837    4.5495    0.0000 C   0  0  2  0  0  0
   -2.9138    4.2504    0.0000 C   0  0
   -5.0078    5.9116    0.0000 N   0  0
   -6.2025    6.0249    0.0000 C   0  0
  1  2  1  0
  2  3  1  0
  1  4  1  0
  4  5  1  0
  5  6  1  0
  3  6  1  0
  3  7  1  0
  7  4  1  0
  6  8  1  0
  9 10  2  0
 10 11  1  0
 11 12  2  0
 12 13  1  0
 13 14  2  0
 14  9  1  0
 10  8  1  0
 12 15  1  0
 15 16  1  0
 16 17  1  0
 17 18  1  0
 18 19  1  0
 19 15  1  0
 18 20  1  1
 20 21  1  0
M  END