
          11280714472D 1   1.00000     0.00000     0

 14 16  0     0  0            999 V2000
    7.3542   -6.1917    0.0000 C   0  0  0  0  0  0           0  0  0
    6.5875   -6.6292    0.0000 C   0  0  0  0  0  0           0  0  0
    7.3625   -5.3167    0.0000 C   0  0  0  0  0  0           0  0  0
    8.7042   -5.7667    0.0000 N   0  0  0  0  0  0           0  0  0
    8.1792   -6.4750    0.0000 N   0  0  0  0  0  0           0  0  0
    5.8292   -6.1792    0.0000 C   0  0  0  0  0  0           0  0  0
    6.5792   -7.5042    0.0000 C   0  0  0  0  0  0           0  0  0
    8.2000   -5.0542    0.0000 C   0  0  0  0  0  0           0  0  0
    6.6042   -4.8667    0.0000 C   0  0  0  0  0  0           0  0  0
    5.0625   -6.6125    0.0000 C   0  0  0  0  0  0           0  0  0
    5.8292   -5.3000    0.0000 C   0  0  0  0  0  0           0  0  0
    5.0542   -7.4917    0.0000 C   0  0  0  0  0  0           0  0  0
    5.8167   -7.9417    0.0000 C   0  0  0  0  0  0           0  0  0
    4.2792   -7.9250    0.0000 O   0  0  0  0  0  0           0  0  0
  2  1  1  0     0  0
  3  1  1  0     0  0
  4  5  1  0     0  0
  5  1  2  0     0  0
  6  2  2  0     0  0
  7  2  1  0     0  0
  8  3  2  0     0  0
  9  3  1  0     0  0
 10  6  1  0     0  0
 11  9  1  0     0  0
 12 13  1  0     0  0
 13  7  2  0     0  0
 14 12  1  0     0  0
  8  4  1  0     0  0
 11  6  1  0     0  0
 12 10  2  0     0  0
M  END