
  CDK    9/16/09,10:0

 25 27  0  0  0  0  0  0  0  0999 V2000
   16.1371  -14.4200    0.0000 N   0  0  0  0  0  0  0  0  0  0  0  0
   15.7326  -13.7037    0.0000 C   0  0  0  0  0  0  0  0  0  0  0  0
   14.9113  -13.6983    0.0000 C   0  0  0  0  0  0  0  0  0  0  0  0
   14.4919  -14.4092    0.0000 C   0  0  0  0  0  0  0  0  0  0  0  0
   14.9002  -15.1271    0.0000 C   0  0  0  0  0  0  0  0  0  0  0  0
   15.7277  -15.1342    0.0000 C   0  0  0  0  0  0  0  0  0  0  0  0
   16.9620  -14.4228    0.0000 C   0  0  0  0  0  0  0  0  0  0  0  0
   17.3722  -15.1385    0.0000 C   0  0  0  0  0  0  0  0  0  0  0  0
   17.3769  -13.7097    0.0000 C   0  0  0  0  0  0  0  0  0  0  0  0
    8.2572  -14.8446    0.0000 C   0  0  0  0  0  0  0  0  0  0  0  0
    8.2559  -15.6722    0.0000 C   0  0  0  0  0  0  0  0  0  0  0  0
    8.9688  -16.0850    0.0000 C   0  0  0  0  0  0  0  0  0  0  0  0
    9.6881  -15.6717    0.0000 C   0  0  0  0  0  0  0  0  0  0  0  0
    9.6850  -14.8407    0.0000 C   0  0  0  0  0  0  0  0  0  0  0  0
    8.9669  -14.4318    0.0000 C   0  0  0  0  0  0  0  0  0  0  0  0
   10.3973  -14.4246    0.0000 C   0  0  0  0  0  0  0  0  0  0  0  0
   11.1138  -14.8335    0.0000 C   0  0  0  0  0  0  0  0  0  0  0  0
   11.2068  -15.6534    0.0000 C   0  0  0  0  0  0  0  0  0  0  0  0
   12.0146  -15.8209    0.0000 N   0  0  0  0  0  0  0  0  0  0  0  0
   12.4231  -15.1048    0.0000 C   0  0  0  0  0  0  0  0  0  0  0  0
   11.8684  -14.4942    0.0000 N   0  0  0  0  0  0  0  0  0  0  0  0
   12.0364  -13.6865    0.0000 C   0  0  0  0  0  0  0  0  0  0  0  0
   13.2481  -15.1122    0.0000 O   0  0  0  0  0  0  0  0  0  0  0  0
   10.3933  -13.5997    0.0000 O   0  0  0  0  0  0  0  0  0  0  0  0
   13.6670  -14.4016    0.0000 C   0  0  0  0  0  0  0  0  0  0  0  0
 12 13  2  0  0  0  0 
  1  2  1  0  0  0  0 
 13 14  1  0  0  0  0 
  1  7  1  0  0  0  0 
 14 15  2  0  0  0  0 
 15 10  1  0  0  0  0 
 14 16  1  0  0  0  0 
  7  8  1  0  0  0  0 
 16 17  1  0  0  0  0 
 17 18  2  0  0  0  0 
  1  6  1  0  0  0  0 
  7  9  1  0  0  0  0 
  2  3  1  0  0  0  0 
  3  4  1  0  0  0  0 
 18 19  1  0  0  0  0 
 19 20  2  0  0  0  0 
 20 21  1  0  0  0  0 
 21 17  1  0  0  0  0 
 10 11  2  0  0  0  0 
 21 22  1  0  0  0  0 
  4  5  1  0  0  0  0 
 20 23  1  0  0  0  0 
 11 12  1  0  0  0  0 
 16 24  2  0  0  0  0 
  5  6  1  0  0  0  0 
 23 25  1  0  0  0  0 
 25  4  1  0  0  0  0 
M  END