
          11280714492D 1   1.00000     0.00000     0

 27 29  0     0  0            999 V2000
    2.6167   -1.7667    0.0000 C   0  0  0  0  0  0           0  0  0
    3.3292   -1.3542    0.0000 C   0  0  3  0  0  0           0  0  0
    2.6167   -2.6000    0.0000 C   0  0  0  0  0  0           0  0  0
    4.0500   -1.7667    0.0000 N   0  0  0  0  0  0           0  0  0
    3.7417   -0.6417    0.0000 C   0  0  0  0  0  0           0  0  0
    4.0500   -2.6000    0.0000 C   0  0  0  0  0  0           0  0  0
    5.8917   -1.0625    0.0000 N   0  3  0  0  0  0           0  0  0
    3.3292   -3.0125    0.0000 N   0  0  0  0  0  0           0  0  0
    1.7917   -1.7667    0.0000 C   0  0  0  0  0  0           0  0  0
    4.4542   -1.0542    0.0000 C   0  0  0  0  0  0           0  0  0
    5.1750   -0.6417    0.0000 C   0  0  0  0  0  0           0  0  0
    3.7417    0.1875    0.0000 C   0  0  0  0  0  0           0  0  0
    5.8917   -1.8917    0.0000 O   0  5  0  0  0  0           0  0  0
    6.6042   -0.6500    0.0000 O   0  0  0  0  0  0           0  0  0
    3.3292    0.9000    0.0000 S   0  0  0  0  0  0           0  0  0
    1.0792   -1.3542    0.0000 O   0  0  0  0  0  0           0  0  0
    1.5625   -2.5792    0.0000 O   0  0  0  0  0  0           0  0  0
    5.1750    0.1875    0.0000 C   0  0  0  0  0  0           0  0  0
    4.7667   -3.0167    0.0000 S   0  0  0  0  0  0           0  0  0
    4.4542    0.6000    0.0000 C   0  0  0  0  0  0           0  0  0
    1.9000   -3.0250    0.0000 C   0  0  0  0  0  0           0  0  0
    2.6167    1.3125    0.0000 C   0  0  0  0  0  0           0  0  0
    0.6667   -0.6417    0.0000 C   0  0  0  0  0  0           0  0  0
    4.7667   -3.8500    0.0000 C   0  0  0  0  0  0           0  0  0
    1.7875    1.3125    0.0000 C   0  0  0  0  0  0           0  0  0
    0.6667    0.1875    0.0000 C   0  0  0  0  0  0           0  0  0
    1.0792    0.9000    0.0000 C   0  0  0  0  0  0           0  0  0
  2  1  1  0     0  0
  3  1  1  0     0  0
  4  2  1  0     0  0
  5  2  1  0     0  0
  6  8  1  0     0  0
  7 11  1  0     0  0
  8  3  2  0     0  0
  9  1  2  0     0  0
 10  5  2  0     0  0
 11 10  1  0     0  0
 12  5  1  0     0  0
 13  7  1  0     0  0
 14  7  2  0     0  0
 15 12  1  0     0  0
 16  9  1  0     0  0
 17  9  1  0     0  0
 18 20  1  0     0  0
 19  6  1  0     0  0
 20 12  2  0     0  0
 21  3  1  0     0  0
 22 15  1  0     0  0
 23 16  1  0     0  0
 24 19  1  0     0  0
 25 27  1  0     0  0
 26 23  1  0     0  0
 27 26  1  0     0  0
  6  4  2  0     0  0
 18 11  2  0     0  0
 25 22  1  0     0  0
M  CHG  2   7   1  13  -1
M  END