
  CDK    9/16/09,9:46

 31 34  0  0  0  0  0  0  0  0999 V2000
   11.0762   -1.4850    0.0000 C   0  0  0  0  0  0  0  0  0  0  0  0
   11.0749   -2.3125    0.0000 C   0  0  0  0  0  0  0  0  0  0  0  0
   11.7879   -2.7254    0.0000 C   0  0  0  0  0  0  0  0  0  0  0  0
   12.5072   -2.3121    0.0000 C   0  0  0  0  0  0  0  0  0  0  0  0
   12.5041   -1.4809    0.0000 C   0  0  0  0  0  0  0  0  0  0  0  0
   11.7859   -1.0722    0.0000 C   0  0  0  0  0  0  0  0  0  0  0  0
   13.2168   -1.0683    0.0000 C   0  0  0  0  0  0  0  0  0  0  0  0
   13.9721   -1.4002    0.0000 N   0  0  0  0  0  0  0  0  0  0  0  0
   14.5211   -0.7843    0.0000 N   0  0  0  0  0  0  0  0  0  0  0  0
   14.1050   -0.0718    0.0000 C   0  0  0  0  0  0  0  0  0  0  0  0
   13.2989   -0.2475    0.0000 C   0  0  0  0  0  0  0  0  0  0  0  0
   12.6832    0.3015    0.0000 C   0  0  0  0  0  0  0  0  0  0  0  0
   14.4367    0.6835    0.0000 C   0  0  0  0  0  0  0  0  0  0  0  0
   15.2568    0.7738    0.0000 N   0  0  0  0  0  0  0  0  0  0  0  0
   13.9485    1.3485    0.0000 O   0  0  0  0  0  0  0  0  0  0  0  0
   15.5885    1.5292    0.0000 N   0  0  0  0  0  0  0  0  0  0  0  0
   16.4128    1.6172    0.0000 C   0  0  0  0  0  0  0  0  0  0  0  0
   16.7448    2.3614    0.0000 C   0  0  0  0  0  0  0  0  0  0  0  0
   16.2599    3.0320    0.0000 C   0  0  0  0  0  0  0  0  0  0  0  0
   15.4386    2.9463    0.0000 C   0  0  0  0  0  0  0  0  0  0  0  0
   15.1025    2.1914    0.0000 C   0  0  0  0  0  0  0  0  0  0  0  0
   14.1483   -2.2047    0.0000 C   0  0  0  0  0  0  0  0  0  0  0  0
   13.5363   -2.7595    0.0000 C   0  0  0  0  0  0  0  0  0  0  0  0
   13.7113   -3.5649    0.0000 C   0  0  0  0  0  0  0  0  0  0  0  0
   14.4979   -3.8167    0.0000 C   0  0  0  0  0  0  0  0  0  0  0  0
   15.1096   -3.2568    0.0000 C   0  0  0  0  0  0  0  0  0  0  0  0
   14.9314   -2.4535    0.0000 C   0  0  0  0  0  0  0  0  0  0  0  0
   15.5403   -1.8967    0.0000 Cl  0  0  0  0  0  0  0  0  0  0  0  0
   14.6746   -4.6226    0.0000 Cl  0  0  0  0  0  0  0  0  0  0  0  0
   10.3599   -2.7240    0.0000 Cl  0  0  0  0  0  0  0  0  0  0  0  0
   11.7820   -0.2472    0.0000 C   0  0  0  0  0  0  0  0  0  0  0  0
 13 15  2  0  0  0  0 
  3  4  2  0  0  0  0 
 14 16  1  0  0  0  0 
 16 17  1  0  0  0  0 
  4  5  1  0  0  0  0 
  2  3  1  0  0  0  0 
  8  9  1  0  0  0  0 
  9 10  2  0  0  0  0 
 16 21  1  0  0  0  0 
 17 18  1  0  0  0  0 
 18 19  1  0  0  0  0 
 19 20  1  0  0  0  0 
 20 21  1  0  0  0  0 
 10 11  1  0  0  0  0 
 11  7  2  0  0  0  0 
 22 23  2  0  0  0  0 
  5  7  1  0  0  0  0 
 23 24  1  0  0  0  0 
  5  6  2  0  0  0  0 
 24 25  2  0  0  0  0 
 11 12  1  0  0  0  0 
 25 26  1  0  0  0  0 
  6  1  1  0  0  0  0 
 26 27  2  0  0  0  0 
 27 22  1  0  0  0  0 
  8 22  1  0  0  0  0 
 10 13  1  0  0  0  0 
 27 28  1  0  0  0  0 
  7  8  1  0  0  0  0 
 25 29  1  0  0  0  0 
 13 14  1  0  0  0  0 
  2 30  1  0  0  0  0 
  1  2  2  0  0  0  0 
  6 31  1  0  0  0  0 
M  END