
  SciTegic02271515072D

 11 10  0  0  0  0            999 V2000
   20.5150   -1.5766    0.0000 C   0  0
   20.5139   -2.3961    0.0000 C   0  0
   21.2219   -2.8051    0.0000 N   0  3
   21.9316   -2.3956    0.0000 C   0  0
   21.9288   -1.5730    0.0000 C   0  0
   21.2201   -1.1677    0.0000 C   0  0
   21.2217   -3.6223    0.0000 C   0  0
   22.6349   -1.1617    0.0000 C   0  0
   23.3442   -1.5676    0.0000 N   0  0
   24.0503   -1.1564    0.0000 O   0  0
   20.1409   -3.3678    0.0000 Br  0  5
  1  2  2  0
  2  3  1  0
  3  4  2  0
  4  5  1  0
  5  6  2  0
  6  1  1  0
  3  7  1  0
  5  8  1  0
  8  9  2  0
  9 10  1  0
M  CHG  2   3   1  11  -1
M  END