
  SciTegic04191613082D

179188  0  0  1  0            999 V2000
    1.8754    8.4319    0.0000 N   0  0
    0.6674    9.3213    0.0000 C   0  0  2  0  0  0
    2.1799    9.2944    0.0000 C   0  0
    2.7620    8.2450    0.0000 C   0  0
    2.7980   10.3230    0.0000 C   0  0
   -0.6870    9.9660    0.0000 C   0  0
   -2.1389   10.3427    0.0000 N   0  0
   -3.6359   10.4378    0.0000 C   0  0  1  0  0  0
   -5.1238   10.2479    0.0000 C   0  0
   -6.5489    9.7799    0.0000 N   0  0
   -7.8597    9.0506    0.0000 C   0  0
   -8.5402   10.0390    0.0000 O   0  0
   -9.0087    8.0864    0.0000 C   0  0
   -7.6989    6.9817    0.0000 C   0  0
   -7.7940    5.4847    0.0000 C   0  0
   -8.9511    3.3645    0.0000 C   0  0
  -10.1389    3.5351    0.0000 O   0  0
   -8.6321    1.8988    0.0000 N   0  0
   -8.0246    0.5274    0.0000 C   0  0
   -7.1534   -0.6938    0.0000 C   0  0  2  0  0  0
   -6.0543   -1.7145    0.0000 N   0  0
   -4.7722   -2.4931    0.0000 C   0  0
   -3.3596   -2.9977    0.0000 C   0  0  1  0  0  0
   -1.8744   -3.2076    0.0000 N   0  0
   -0.3773   -3.1142    0.0000 C   0  0
   -0.1818   -4.2982    0.0000 O   0  0
    1.0703   -2.7214    0.0000 C   0  0  1  0  0  0
    2.4093   -2.0452    0.0000 N   0  0
    3.5847   -1.1133    0.0000 C   0  0
    4.5485    0.0361    0.0000 C   0  0  1  0  0  0
    5.2611    1.3560    0.0000 N   0  0
    5.6935    2.7923    0.0000 C   0  0
    6.8717    2.5644    0.0000 O   0  0
    5.8279    4.2863    0.0000 C   0  0  2  0  0  0
    7.3404    4.3009    0.0000 C   0  0
    8.1042    3.0090    0.0000 C   0  0
    9.6049    3.0235    0.0000 C   0  0
   10.3687    1.7315    0.0000 N   0  0
   11.8695    1.7460    0.0000 C   0  0
   12.4591    2.7912    0.0000 N   0  0
   12.4801    0.7130    0.0000 N   0  0
    5.6589    5.7767    0.0000 N   0  0
    5.1932    7.2026    0.0000 C   0  0
    6.2904    7.6886    0.0000 O   0  0
    4.4501    8.5056    0.0000 C   0  0  2  0  0  0
    5.6831    9.3816    0.0000 C   0  0
    5.5430   10.8759    0.0000 C   0  0
    6.3940   12.1252    0.0000 C   0  0
    5.7514   13.4774    0.0000 C   0  0
    4.2589   13.5972    0.0000 C   0  0
    3.4090   12.3648    0.0000 C   0  0
    4.0501   10.9944    0.0000 C   0  0
    3.6164   14.9493    0.0000 C   0  0
    4.4663   16.1817    0.0000 C   0  0
    5.9588   16.0619    0.0000 C   0  0
    6.6014   14.7098    0.0000 C   0  0
    3.4599    9.6323    0.0000 N   0  0
    2.2631   10.5366    0.0000 C   0  0
    2.8860   11.5623    0.0000 O   0  0
    0.9088   11.1815    0.0000 C   0  0  2  0  0  0
    1.4204   12.6050    0.0000 C   0  0
    0.4517   13.7513    0.0000 C   0  0
    0.9570   15.1637    0.0000 C   0  0
   -0.0135   16.3075    0.0000 C   0  0
   -1.4892   16.0389    0.0000 C   0  0
   -1.9946   14.6266    0.0000 C   0  0
   -1.0241   13.4828    0.0000 C   0  0
   -0.5476   11.5406    0.0000 N   0  0
   -2.0464   11.5992    0.0000 C   0  0
   -2.3964   12.7470    0.0000 O   0  0
    5.7982   -0.8159    0.0000 C   0  0
    6.2057   -2.2604    0.0000 C   0  0
    7.6601   -2.6307    0.0000 C   0  0
    8.0675   -4.0752    0.0000 N   0  0
    9.5219   -4.4455    0.0000 C   0  0
    9.8477   -5.6004    0.0000 N   0  0
   10.3595   -3.5862    0.0000 N   0  0
    4.4215   -1.9734    0.0000 O   0  0
    2.0602   -3.8651    0.0000 C   0  0
    1.5695   -5.2834    0.0000 C   0  0
    2.5516   -6.4182    0.0000 C   0  0
    2.0609   -7.8365    0.0000 N   0  0
    3.0430   -8.9713    0.0000 C   0  0
    2.6506  -10.1053    0.0000 N   0  0
    4.2214   -8.7445    0.0000 N   0  0
   -3.7246   -4.4656    0.0000 C   0  0
   -5.1667   -4.8811    0.0000 C   0  0
   -5.0088   -6.3736    0.0000 C   0  0
   -3.9292   -7.4161    0.0000 N   0  0
   -4.2913   -8.8726    0.0000 C   0  0
   -3.4281   -9.7062    0.0000 N   0  0
   -5.4447   -9.2038    0.0000 N   0  0
   -5.2881   -3.5765    0.0000 O   0  0
   -8.2877   -1.6945    0.0000 C   0  0
   -9.4250   -1.3118    0.0000 O   0  0
   -7.9914   -3.1657    0.0000 N   0  0
   -9.1168   -4.1587    0.0000 C   0  0  2  0  0  0
  -10.5402   -3.6830    0.0000 C   0  0
  -11.4392   -4.4780    0.0000 O   0  0
  -10.7795   -2.5071    0.0000 O   0  0
   -8.8205   -5.6300    0.0000 C   0  0
   -9.9459   -6.6229    0.0000 C   0  0
   -9.6496   -8.0942    0.0000 C   0  0
  -10.7749   -9.0872    0.0000 C   0  0
  -10.5380  -10.2636    0.0000 N   0  0
   -9.1380    4.8186    0.0000 C   0  0
  -10.6630    5.6000    0.0000 C   0  0
  -11.1083    4.1676    0.0000 C   0  0
  -11.2746    2.6769    0.0000 N   0  0
  -12.7426    3.0251    0.0000 C   0  0
  -13.5253    1.7455    0.0000 C   0  0
  -12.5503    0.6057    0.0000 C   0  0
  -11.1557    1.1816    0.0000 C   0  0  1  0  0  0
  -10.7560   -0.2642    0.0000 C   0  0
  -11.8770   -0.6925    0.0000 O   0  0
  -10.0899   -1.6082    0.0000 N   0  0
  -11.2645   -1.8539    0.0000 C   0  0
   -9.1815   -2.8018    0.0000 C   0  0
   -8.0636   -3.8020    0.0000 C   0  0
   -8.7751   -4.7683    0.0000 O   0  0
   -6.7766   -4.5725    0.0000 N   0  0
   -5.3671   -5.0855    0.0000 C   0  0  1  0  0  0
   -3.8859   -5.3225    0.0000 C   0  0
   -3.9620   -6.5201    0.0000 O   0  0
   -2.3867   -5.2749    0.0000 N   0  0
   -0.9235   -4.9444    0.0000 C   0  0  2  0  0  0
    0.0965   -6.0561    0.0000 C   0  0
   -0.3489   -7.4885    0.0000 C   0  0
   -1.8121   -7.8189    0.0000 C   0  0
   -2.8298   -6.7171    0.0000 C   0  0
    0.4506   -4.3430    0.0000 C   0  0
    1.6862   -3.4924    0.0000 N   0  0
    2.7384   -2.4234    0.0000 C   0  0  1  0  0  0
    4.1670   -2.9209    0.0000 C   0  0
    4.4491   -4.3950    0.0000 C   0  0
    5.8736   -4.9007    0.0000 C   0  0
    6.1535   -6.3714    0.0000 C   0  0
    5.0197   -7.3494    0.0000 C   0  0
    3.6060   -6.8567    0.0000 C   0  0
    3.3142   -5.3722    0.0000 C   0  0
    5.2996   -8.8200    0.0000 C   0  0
    6.7132   -9.3127    0.0000 C   0  0
    7.8470   -8.3348    0.0000 C   0  0
    7.5671   -6.8641    0.0000 C   0  0
    3.5692   -1.1745    0.0000 C   0  0
    4.1488    0.2090    0.0000 N   0  0
    4.4560    1.6772    0.0000 C   0  0  1  0  0  0
    5.9591    1.5066    0.0000 C   0  0
    6.5590    0.1309    0.0000 C   0  0
    8.0502   -0.0383    0.0000 C   0  0
    8.6502   -1.4140    0.0000 N   0  0
   10.1414   -1.5833    0.0000 C   0  0
   10.8545   -0.6181    0.0000 N   0  0
   10.6211   -2.6833    0.0000 N   0  0
    4.4798    3.1770    0.0000 C   0  0
    5.6760    3.2721    0.0000 O   0  0
    4.2193    4.6542    0.0000 N   0  0
    3.6840    6.0554    0.0000 C   0  0  1  0  0  0
    5.0407    6.7246    0.0000 C   0  0
    6.2891    5.8916    0.0000 C   0  0
    7.6351    6.5554    0.0000 C   0  0
    7.7342    8.0530    0.0000 N   0  0
    6.4873    8.8883    0.0000 C   0  0
    5.4106    8.3586    0.0000 N   0  0
    6.5665   10.0857    0.0000 N   0  0
    2.8931    7.3300    0.0000 C   0  0
    3.8480    8.0568    0.0000 O   0  0
    4.6270   -1.7413    0.0000 O   0  0
    1.0341   -5.3917    0.0000 O   0  0
   -6.2273   -6.3299    0.0000 C   0  0
   -7.7232   -6.2090    0.0000 C   0  0
   -8.2372   -5.1246    0.0000 O   0  0
   -8.4056   -7.1960    0.0000 O   0  0
  -12.2829    4.4134    0.0000 O   0  0
   -9.9546    6.9222    0.0000 C   0  0
   -0.2766   11.0936    0.0000 O   0  0
    0.0549   -5.1509    0.0000 H   0  0
  -11.5949    0.2832    0.0000 H   0  0
   -2.6759   10.7178    0.0000 H   0  0
  1  2  1  0
  2  3  1  1
  3  4  1  0
  3  5  1  0
  2  6  1  0
  6  7  1  0
  7  8  1  0
  8  9  1  0
  9 10  1  0
 11 10  1  0
 11 12  2  0
 13 11  1  0
 14 13  1  0
 15 14  2  0
 15 16  1  0
 16 17  2  0
 16 18  1  0
 18 19  1  0
 20 19  1  0
 20 21  1  0
 21 22  1  0
 22 23  1  0
 23 24  1  0
 24 25  1  0
 25 26  2  0
 25 27  1  0
 27 28  1  0
 29 28  1  0
 30 29  1  0
 31 30  1  0
 32 31  1  0
 32 33  2  0
 34 32  1  0
 34 35  1  1
 35 36  1  0
 36 37  1  0
 37 38  1  0
 38 39  1  0
 39 40  1  0
 39 41  2  0
 42 34  1  0
 43 42  1  0
 43 44  2  0
 45 43  1  0
 45 46  1  1
 46 47  1  0
 47 48  2  0
 48 49  1  0
 50 49  1  0
 50 51  1  0
 51 52  2  0
 52 47  1  0
 53 50  2  0
 54 53  1  0
 55 54  2  0
 56 55  1  0
 49 56  2  0
 57 45  1  0
 58 57  1  0
 58 59  2  0
 60 58  1  0
 60 61  1  1
 61 62  1  0
 63 62  1  0
 64 63  2  0
 65 64  1  0
 66 65  2  0
 67 66  1  0
 62 67  2  0
 68 60  1  0
 69 68  1  0
 69 70  2  0
  8 69  1  0
 30 71  1  1
 71 72  1  0
 72 73  1  0
 73 74  1  0
 74 75  1  0
 75 76  2  0
 75 77  1  0
 29 78  2  0
 27 79  1  1
 79 80  1  0
 80 81  1  0
 81 82  1  0
 82 83  1  0
 83 84  2  0
 83 85  1  0
 23 86  1  1
 86 87  1  0
 87 88  1  0
 88 89  1  0
 89 90  1  0
 90 91  2  0
 90 92  1  0
 22 93  2  0
 20 94  1  6
 94 95  2  0
 94 96  1  0
 97 96  1  1
 97 98  1  0
 98 99  2  0
 98100  1  0
 97101  1  0
101102  1  0
102103  1  0
103104  1  0
104105  1  0
106 15  1  0
107106  2  0
108107  1  0
109108  1  0
110109  1  0
111110  1  0
112111  1  0
113112  1  0
109113  1  0
113114  1  0
114115  2  0
116114  1  0
116117  1  0
118116  1  0
119118  1  0
119120  2  0
121119  1  0
122121  1  0
123122  1  0
123124  2  0
125123  1  0
126125  1  0
126127  1  0
127128  1  0
128129  1  0
129130  1  0
130125  1  0
126131  1  0
132131  1  0
133132  1  0
133134  1  6
134135  1  0
135136  2  0
136137  1  0
138137  1  0
138139  1  0
139140  2  0
140135  1  0
141138  2  0
142141  1  0
143142  2  0
144143  1  0
137144  2  0
133145  1  0
145146  1  0
146147  1  0
147148  1  6
148149  1  0
149150  1  0
150151  1  0
151152  1  0
152153  1  0
152154  2  0
147155  1  0
155156  2  0
155157  1  0
157158  1  0
158159  1  6
159160  1  0
160161  1  0
161162  1  0
162163  1  0
163164  1  0
163165  2  0
158166  1  0
166167  2  0
166  1  1  0
145168  2  0
131169  2  0
122170  1  1
170171  1  0
171172  1  0
171173  2  0
108174  2  0
175107  1  0
 13175  2  0
  6176  2  0
126177  1  6
113178  1  1
  8179  1  6
M  END