
  SciTegic11201309402D

 58 60  0  0  1  0            999 V2000
   -1.2333   -2.5875    0.0000 N   0  0
   -1.2333   -3.4125    0.0000 C   0  0
    0.7792   -1.5000    0.0000 O   0  0
    0.3042   -2.1625    0.0000 C   0  0
    0.3667   -0.7875    0.0000 C   0  0  2  0  0  0
   -0.5208   -2.1625    0.0000 C   0  0  2  0  0  0
   -1.6833   -4.2417    0.0000 C   0  0
   -0.3458   -0.3750    0.0000 C   0  0
    1.0792   -0.3750    0.0000 C   0  0  1  0  0  0
    3.2292   -0.7917    0.0000 C   0  0
    1.8042   -0.7917    0.0000 C   0  0  2  0  0  0
    0.3667   -5.7375    0.0000 C   0  0  2  0  0  0
    2.5167   -0.3792    0.0000 C   0  0
   -0.3458    0.4500    0.0000 C   0  0
    2.5167   -2.0292    0.0000 C   0  0
    1.0792   -5.3250    0.0000 C   0  0  2  0  0  0
    0.3667   -6.5625    0.0000 C   0  0  2  0  0  0
    2.5042   -2.8542    0.0000 C   0  0
    3.2292   -1.6167    0.0000 C   0  0  1  0  0  0
   -0.4958   -3.3667    0.0000 O   0  0
   -0.8833   -5.0250    0.0000 C   0  0
    0.7167   -2.8750    0.0000 O   0  0
   -2.4833    0.8625    0.0000 C   0  0  2  0  0  0
   -1.0583    0.8625    0.0000 C   0  0  1  0  0  0
   -0.4583   -6.5625    0.0000 C   0  0
   -2.5250   -4.2167    0.0000 O   0  0
    1.0792   -4.5000    0.0000 C   0  0
   -1.7708    0.4500    0.0000 C   0  0
    3.9417   -0.3792    0.0000 O   0  0
   -2.4833    1.6875    0.0000 C   0  0  1  0  0  0
   -0.8708   -5.8500    0.0000 C   0  0  1  0  0  0
    1.7917   -3.2667    0.0000 C   0  0
    1.7917   -4.0917    0.0000 C   0  0  2  0  0  0
    4.4667   -2.3292    0.0000 C   0  0
   -1.7708    2.1000    0.0000 C   0  0
    5.2917   -2.3250    0.0000 C   0  0
   -1.9583   -2.1750    0.0000 C   0  0
   -0.0583   -5.0250    0.0000 O   0  0
    1.7917   -1.6125    0.0000 O   0  0
   -1.0583    1.6875    0.0000 C   0  0
    1.7917   -5.7417    0.0000 O   0  0
    0.9417   -7.1500    0.0000 O   0  0
   -3.1958    0.4500    0.0000 O   0  0
   -3.1958    2.1000    0.0000 O   0  0
   -1.0583   -0.7875    0.0000 C   0  0
    1.0917    0.4500    0.0000 C   0  0
    4.0542   -1.6167    0.0000 C   0  0
   -0.5333   -1.3417    0.0000 C   0  0
    3.2292   -3.2667    0.0000 C   0  0
   -1.6958   -5.8417    0.0000 C   0  0
    2.5042   -4.5042    0.0000 C   0  0
    1.7917   -6.5667    0.0000 C   0  0
    0.7292   -7.9417    0.0000 C   0  0
   -3.9083    0.8625    0.0000 C   0  0
   -1.9583   -1.3500    0.0000 C   0  0
   -1.2458   -0.9292    0.0000 C   0  0
   -0.5974   -6.0032    0.0000 H   0  0
    0.1809   -1.4500    0.0000 H   0  0
  2  1  1  0
  3  4  1  0
  6  4  1  0
  5  3  1  0
  6  1  1  0
  7  2  1  0
  5  8  1  6
  9  5  1  0
 10 13  1  0
 11  9  1  0
 12 17  1  0
 13 11  1  0
 14  8  2  0
 15 19  1  0
 16 12  1  0
 17 25  1  0
 18 15  2  0
 19 10  1  0
 20  2  2  0
 21  7  1  0
 22  4  2  0
 23 28  1  0
 24 14  1  1
 25 31  1  0
 26  7  2  0
 27 16  1  0
 28 24  1  0
 29 10  2  0
 30 35  1  0
 31 21  1  0
 32 33  1  0
 33 27  1  0
 34 47  1  0
 35 40  1  0
 36 34  2  0
 37  1  1  0
 38 12  1  0
 11 39  1  6
 40 24  1  0
 16 41  1  6
 17 42  1  1
 23 43  1  1
 30 44  1  6
 45  8  1  0
  9 46  1  6
 19 47  1  6
 48  6  1  0
 49 18  1  0
 31 50  1  1
 33 51  1  6
 52 41  1  0
 53 42  1  0
 54 43  1  0
 55 37  1  0
 56 55  1  0
 12 57  1  1
 56 48  1  0
 23 30  1  0
 32 18  1  0
  6 58  1  6
M  END