
          01230816042D 1   1.00000     0.00000     0

 41 45  0     0  0            999 V2000
    8.1902   -4.7375    0.0000 C   0  0  0  0  0  0           0  0  0
    8.1891   -5.5648    0.0000 C   0  0  0  0  0  0           0  0  0
    8.9039   -5.9777    0.0000 C   0  0  0  0  0  0           0  0  0
    8.9021   -4.3247    0.0000 C   0  0  0  0  0  0           0  0  0
   10.2833   -6.0808    0.0000 C   0  0  0  0  0  0           0  0  0
   11.1163   -5.8617    0.0000 N   0  0  0  0  0  0           0  0  0
   11.4350   -5.1105    0.0000 N   0  0  3  0  0  0           0  0  0
    9.6177   -5.5665    0.0000 C   0  0  0  0  0  0           0  0  0
    9.6175   -4.7338    0.0000 C   0  0  0  0  0  0           0  0  0
   10.2966   -4.1922    0.0000 N   0  0  3  0  0  0           0  0  0
   11.0763   -4.3719    0.0000 C   0  0  0  0  0  0           0  0  0
   11.5904   -3.7266    0.0000 O   0  0  0  0  0  0           0  0  0
   12.2598   -5.0895    0.0000 C   0  0  0  0  0  0           0  0  0
   12.6903   -5.7932    0.0000 C   0  0  0  0  0  0           0  0  0
   13.5150   -5.7722    0.0000 N   0  0  0  0  0  0           0  0  0
   12.2961   -6.5180    0.0000 O   0  0  0  0  0  0           0  0  0
   13.9456   -6.4760    0.0000 C   0  0  0  0  0  0           0  0  0
   13.5491   -7.1996    0.0000 C   0  0  0  0  0  0           0  0  0
   13.9790   -7.9029    0.0000 C   0  0  0  0  0  0           0  0  0
   14.8046   -7.8823    0.0000 C   0  0  0  0  0  0           0  0  0
   15.1985   -7.1525    0.0000 C   0  0  0  0  0  0           0  0  0
   14.7663   -6.4523    0.0000 C   0  0  0  0  0  0           0  0  0
   10.2615   -3.3679    0.0000 C   0  0  0  0  0  0           0  0  0
   10.1191   -6.8893    0.0000 C   0  0  3  0  0  0           0  0  0
    9.3363   -7.1466    0.0000 C   0  0  0  0  0  0           0  0  0
    9.1709   -7.9512    0.0000 C   0  0  0  0  0  0           0  0  0
    9.7864   -8.5011    0.0000 C   0  0  0  0  0  0           0  0  0
   10.5702   -8.2406    0.0000 C   0  0  0  0  0  0           0  0  0
   10.7385   -7.4302    0.0000 C   0  0  0  0  0  0           0  0  0
    9.5302   -2.9862    0.0000 C   0  0  0  0  0  0           0  0  0
    8.8339   -3.4287    0.0000 O   0  0  0  0  0  0           0  0  0
    9.4951   -2.1619    0.0000 C   0  0  3  0  0  0           0  0  0
    9.4875   -1.3333    0.0000 C   0  0  0  0  0  0           0  0  0
    8.6703   -2.1832    0.0000 C   0  0  0  0  0  0           0  0  0
   10.3199   -2.1443    0.0000 C   0  0  0  0  0  0           0  0  0
   16.0231   -7.1286    0.0000 C   0  0  0  0  0  0           0  0  0
   16.5311   -7.7791    0.0000 N   0  0  0  0  0  0           0  0  0
   17.3080   -7.5015    0.0000 C   0  0  0  0  0  0           0  0  0
   17.2841   -6.6769    0.0000 O   0  0  0  0  0  0           0  0  0
   16.4924   -6.4448    0.0000 N   0  0  0  0  0  0           0  0  0
   17.9892   -7.9669    0.0000 O   0  0  0  0  0  0           0  0  0
 19 20  2  0     0  0
  9 10  1  0     0  0
 20 21  1  0     0  0
 10 11  1  0     0  0
 21 22  2  0     0  0
 22 17  1  0     0  0
 11  7  1  0     0  0
 10 23  1  0     0  0
  8  9  1  0     0  0
  5 24  1  0     0  0
 24 25  1  0     0  0
  2  3  1  0     0  0
 11 12  2  0     0  0
  3  8  2  0     0  0
  7 13  1  0     0  0
  1  2  2  0     0  0
 24 29  1  0     0  0
 25 26  1  0     0  0
 26 27  1  0     0  0
 27 28  1  0     0  0
 28 29  1  0     0  0
 13 14  1  0     0  0
 23 30  1  0     0  0
  9  4  2  0     0  0
 30 31  2  0     0  0
 14 15  1  0     0  0
 30 32  1  0     0  0
  4  1  1  0     0  0
 32 33  1  0     0  0
 14 16  2  0     0  0
 32 34  1  0     0  0
 32 35  1  0     0  0
 15 17  1  0     0  0
 21 36  1  0     0  0
 39 40  1  0     0  0
  5  6  2  0     0  0
 37 38  1  0     0  0
 17 18  2  0     0  0
  6  7  1  0     0  0
 18 19  1  0     0  0
 36 37  2  0     0  0
 38 39  1  0     0  0
 40 36  1  0     0  0
  5  8  1  0     0  0
 38 41  2  0     0  0
M  END