
  SciTegic07291412072D

 53 55  0  0  0  0            999 V2000
    4.1369   -1.0068    0.0000 P   0  0
    1.4408   -4.5279    0.0000 P   0  0
    5.5658   -5.9568    0.0000 C   0  0  1  0  0  0
    5.9783   -6.6713    0.0000 C   0  0
    6.2803   -4.7193    0.0000 C   0  0
    6.2803   -5.5443    0.0000 N   0  0
    6.8033   -6.6713    0.0000 N   0  0
    7.2158   -7.3858    0.0000 C   0  0  1  0  0  0
    8.4237   -4.3068    0.0000 C   0  0
    8.0408   -7.3858    0.0000 C   0  0
    6.9947   -4.3068    0.0000 C   0  0  1  0  0  0
    7.7092   -4.7193    0.0000 N   0  0
    6.8033   -8.1002    0.0000 C   0  0
    8.4533   -6.6713    0.0000 C   0  0
    1.8533   -5.2424    0.0000 O   0  0
    4.1369   -1.8318    0.0000 O   0  0
    4.1369   -0.1818    0.0000 O   0  0
    1.0283   -3.8134    0.0000 O   0  0
    5.1533   -5.2424    0.0000 C   0  0
    5.5658   -7.3858    0.0000 O   0  0
    5.5658   -4.3068    0.0000 O   0  0
    6.9947   -3.4818    0.0000 C   0  0
    8.4237   -3.4818    0.0000 O   0  0
    5.9783   -8.1002    0.0000 O   0  0
    9.1382   -4.7193    0.0000 O   0  0
    8.0408   -5.9568    0.0000 O   0  0
    3.3119   -1.0068    0.0000 O   0  0
    4.9619   -1.0068    0.0000 O   0  0
    2.1553   -4.1154    0.0000 O   0  0
    0.7263   -4.9404    0.0000 O   0  0
    7.2158   -8.8147    0.0000 N   0  0
    9.2783   -6.6713    0.0000 N   0  0
    4.3283   -5.2424    0.0000 C   0  0
    4.8513   -2.2443    0.0000 C   0  0
    2.6783   -5.2424    0.0000 C   0  0
    6.2803   -3.0693    0.0000 C   0  0
   10.5671   -5.5443    0.0000 C   0  0
   11.2816   -5.9568    0.0000 C   0  0
    9.8526   -4.3068    0.0000 C   0  0
   11.2816   -6.7818    0.0000 N   0  0
   10.5671   -4.7193    0.0000 C   0  0
    5.5658   -3.4818    0.0000 C   0  0
    3.9158   -4.5279    0.0000 C   0  0
    6.2803   -2.2443    0.0000 C   0  0
    3.9158   -5.9568    0.0000 C   0  0
    3.0908   -4.5279    0.0000 C   0  0
    5.5658   -1.8318    0.0000 C   0  0
    3.0908   -5.9568    0.0000 C   0  0
    4.8513   -3.0693    0.0000 C   0  0
    4.8513   -6.3693    0.0000 C   0  0
   11.9960   -4.7193    0.0000 C   0  0
   11.9960   -5.5443    0.0000 C   0  0
   11.2816   -4.3068    0.0000 C   0  0
  2 15  1  0
  3  6  1  0
  4  3  1  0
  5 11  1  0
  6  5  1  0
  7  4  1  0
  8  7  1  0
  9 12  1  0
  8 10  1  1
 11 22  1  6
 12 11  1  0
 13  8  1  0
 14 10  1  0
 15 35  1  0
 16  1  1  0
 17  1  2  0
 18  2  2  0
  3 19  1  6
 20  4  2  0
 21  5  2  0
 22 36  1  0
 23  9  2  0
 24 13  2  0
 25  9  1  0
 26 14  2  0
 27  1  1  0
 28  1  1  0
 29  2  1  0
 30  2  1  0
 31 13  1  0
 32 14  1  0
 33 19  1  0
 34 16  1  0
 35 48  1  0
 36 42  2  0
 37 41  2  0
 38 37  1  0
 39 25  1  0
 40 38  1  0
 41 39  1  0
 42 49  1  0
 43 33  2  0
 44 47  2  0
 45 33  1  0
 46 43  1  0
 47 34  1  0
 48 45  2  0
 49 34  2  0
 50  3  1  0
 51 53  2  0
 52 51  1  0
 53 41  1  0
 36 44  1  0
 46 35  2  0
 38 52  2  0
M  END