
  SciTegic10191216002D

 28 31  0  0  0  0            999 V2000
   21.2653  -11.1482    0.0000 C   0  0
   21.2642  -11.9761    0.0000 C   0  0
   21.9795  -12.3893    0.0000 C   0  0
   22.6963  -11.9756    0.0000 C   0  0
   22.6935  -11.1446    0.0000 C   0  0
   21.9777  -10.7353    0.0000 C   0  0
   21.9821  -13.2138    0.0000 C   0  0
   21.9761  -14.8637    0.0000 C   0  0
   22.6929  -14.4524    0.0000 N   0  0
   22.6967  -13.6243    0.0000 C   0  0
   21.2631  -14.4469    0.0000 C   0  0
   21.2662  -13.6271    0.0000 C   0  0
   20.5590  -13.2163    0.0000 C   0  0
   19.8481  -13.6240    0.0000 N   0  0
   19.8489  -14.4470    0.0000 C   0  0
   20.5567  -14.8541    0.0000 C   0  0
   18.4191  -14.4488    0.0000 C   0  0
   17.7047  -14.8624    0.0000 C   0  0
   16.9893  -14.4506    0.0000 C   0  0
   16.2778  -14.8642    0.0000 N   0  0
   15.5635  -14.4559    0.0000 C   0  0
   14.8540  -14.8660    0.0000 C   0  0
   14.8522  -15.6894    0.0000 C   0  0
   15.5661  -16.1011    0.0000 C   0  0
   16.2818  -15.6892    0.0000 C   0  0
   21.9752   -9.9098    0.0000 O   0  0
   22.6889   -9.4948    0.0000 C   0  0
   19.1346  -14.8606    0.0000 O   0  0
  7 12  1  0
 13 14  2  0
  1  2  2  0
 14 15  1  0
  3  4  2  0
 15 16  2  0
 16 11  1  0
 15 28  1  0
  4  5  1  0
 28 17  1  0
  7 10  1  0
 17 18  1  0
 11  8  1  0
 18 19  1  0
  8  9  1  0
 19 20  1  0
 20 21  1  0
  9 10  1  0
  7  3  1  0
  2  3  1  0
  5  6  2  0
 11 12  2  0
 20 25  1  0
 21 22  1  0
 22 23  1  0
 23 24  1  0
 24 25  1  0
  6  1  1  0
  6 26  1  0
 12 13  1  0
 26 27  1  0
M  END