
  SciTegic12151613562D

 24 26  0  0  0  0            999 V2000
    2.1812    2.6271    0.0000 C   0  0
    1.3808    3.5211    0.0000 C   0  0
    1.7138   -1.2033    0.0000 C   0  0
    2.5889    0.0182    0.0000 C   0  0
    1.7138    1.2033    0.0000 C   0  0
    0.2917    0.7475    0.0000 N   0  0
   -1.0028    1.5132    0.0000 C   0  0
   -2.3155    0.7475    0.0000 C   0  0
   -2.3155   -0.7475    0.0000 C   0  0
   -1.0028   -1.5132    0.0000 C   0  0
    0.2917   -0.7475    0.0000 C   0  0
   -3.6187   -1.4919    0.0000 O   0  0
   -3.6267   -2.9927    0.0000 C   0  0
   -4.9300   -3.7369    0.0000 C   0  0
   -4.9364   -4.9369    0.0000 C   0  0
    2.1852   -2.6281    0.0000 C   0  0
    1.2781   -3.8165    0.0000 C   0  0
    1.8565   -5.2005    0.0000 C   0  0
    3.3443   -5.3916    0.0000 C   0  0
    4.2537   -4.1987    0.0000 C   0  0
    3.6753   -2.8147    0.0000 C   0  0
    0.9491   -6.3959    0.0000 O   0  0
    1.4134   -7.5025    0.0000 C   0  0
    3.3556    2.8737    0.0000 O   0  0
  1  2  1  0
  3  4  1  0
  4  5  2  0
  5  6  1  0
  6  7  1  0
  7  8  2  0
  8  9  1  0
  9 10  2  0
 10 11  1  0
  3 11  2  0
  6 11  1  0
 13 14  1  0
 14 15  1  0
 12 13  1  0
  9 12  1  0
 16 17  1  0
 17 18  2  0
 18 19  1  0
 19 20  2  0
 20 21  1  0
 16 21  2  0
 22 23  1  0
 18 22  1  0
  3 16  1  0
  1  5  1  0
  1 24  2  0
M  END