
  SciTegic10011413212D

 23 24  0  0  0  0            999 V2000
   16.7501  -15.1751    0.0000 N   0  0
   17.4646  -14.7626    0.0000 C   0  0
   18.1791  -15.1751    0.0000 C   0  0
   18.8935  -14.7626    0.0000 C   0  0
   19.6080  -15.1751    0.0000 N   0  0
   20.3225  -14.7626    0.0000 C   0  0
   21.0369  -15.1751    0.0000 N   0  0
   20.3225  -13.9376    0.0000 N   0  0
   21.7514  -14.7626    0.0000 C   0  0
   22.4659  -15.1751    0.0000 C   0  0
   23.1803  -14.7626    0.0000 C   0  0
   23.8948  -15.1751    0.0000 C   0  0
   23.1803  -13.9376    0.0000 C   0  0
   21.7514  -13.9376    0.0000 O   0  0
   23.8932  -16.0012    0.0000 C   0  0
   24.6069  -16.4136    0.0000 C   0  0
   25.3223  -16.0011    0.0000 C   0  0
   25.3196  -15.1718    0.0000 C   0  0
   24.6054  -14.7631    0.0000 C   0  0
   15.9625  -14.9148    0.0000 C   0  0
   15.4704  -15.5769    0.0000 N   0  0
   15.9484  -16.2496    0.0000 C   0  0
   16.7355  -16.0029    0.0000 C   0  0
  1  2  1  0
  2  3  1  0
  3  4  1  0
  4  5  1  0
  5  6  1  0
  6  7  2  0
  6  8  1  0
  7  9  1  0
  9 10  1  0
 10 11  1  0
 11 12  1  0
 11 13  1  0
  9 14  2  0
 12 15  2  0
 15 16  1  0
 16 17  2  0
 17 18  1  0
 18 19  2  0
 19 12  1  0
  1 20  1  0
 20 21  2  0
 21 22  1  0
 22 23  2  0
 23  1  1  0
M  END