
  SciTegic01091215432D

 27 29  0  0  0  0            999 V2000
   17.7295   -6.1189    0.0000 S   0  0
   17.3197   -6.8349    0.0000 O   0  0
   18.1447   -6.8318    0.0000 O   0  0
   13.4444   -6.1333    0.0000 C   0  0
   13.4432   -6.9607    0.0000 C   0  0
   14.1581   -7.3735    0.0000 C   0  0
   14.8745   -6.9602    0.0000 C   0  0
   14.8716   -6.1297    0.0000 C   0  0
   14.1563   -5.7205    0.0000 C   0  0
   15.5846   -5.7145    0.0000 C   0  0
   16.3006   -6.1243    0.0000 C   0  0
   17.0135   -5.7091    0.0000 N   0  0
   18.4424   -5.7037    0.0000 C   0  0
   19.1544   -6.1153    0.0000 C   0  0
   19.8668   -5.7008    0.0000 C   0  0
   19.8642   -4.8749    0.0000 C   0  0
   19.1431   -4.4653    0.0000 C   0  0
   18.4337   -4.8821    0.0000 C   0  0
   20.5765   -4.4588    0.0000 Cl  0  0
   14.1579   -8.1985    0.0000 C   0  0
   13.4433   -8.6109    0.0000 C   0  0
   12.6902   -8.2784    0.0000 C   0  0
   12.1380   -8.8914    0.0000 C   0  0
   12.5504   -9.6060    0.0000 C   0  0
   13.3574   -9.4345    0.0000 C   0  0
   12.5175   -7.4717    0.0000 O   0  0
   13.9706   -9.9864    0.0000 O   0  0
  2  1  2  0
 13 14  2  0
  7  8  1  0
 14 15  1  0
  4  5  2  0
 15 16  2  0
  8  9  2  0
 16 17  1  0
  9  4  1  0
 17 18  2  0
 18 13  1  0
  1  3  2  0
 16 19  1  0
  8 10  1  0
  6 20  1  0
  5  6  1  0
 20 21  1  0
 21 22  1  0
 10 11  1  0
 11 12  1  0
 12  1  1  0
 22 23  1  0
 23 24  1  0
 24 25  1  0
 25 21  2  0
  6  7  2  0
 22 26  2  0
  1 13  1  0
 25 27  1  0
M  END