
          11280714482D 1   1.00000     0.00000     0

 20 23  0     0  0            999 V2000
    4.7667   -7.0875    0.0000 N   0  0  0  0  0  0           0  0  0
    5.0125   -7.7583    0.0000 C   0  0  0  0  0  0           0  0  0
    5.3250   -6.6625    0.0000 N   0  0  3  0  0  0           0  0  0
    5.7208   -7.7375    0.0000 C   0  0  3  0  0  0           0  0  0
    5.9167   -7.0500    0.0000 C   0  0  0  0  0  0           0  0  0
    5.7542   -8.9667    0.0000 N   0  0  0  0  0  0           0  0  0
    4.6792   -8.3792    0.0000 C   0  0  0  0  0  0           0  0  0
    6.0958   -8.3417    0.0000 C   0  0  0  0  0  0           0  0  0
    5.0458   -8.9958    0.0000 C   0  0  0  0  0  0           0  0  0
    5.2958   -5.9417    0.0000 C   0  0  0  0  0  0           0  0  0
    6.5208   -6.6792    0.0000 O   0  0  0  0  0  0           0  0  0
    3.9708   -8.4083    0.0000 C   0  0  0  0  0  0           0  0  0
    4.7083   -9.6167    0.0000 C   0  0  0  0  0  0           0  0  0
    5.9042   -5.5708    0.0000 C   0  0  0  0  0  0           0  0  0
    4.6792   -5.6167    0.0000 C   0  0  0  0  0  0           0  0  0
    3.6292   -9.0292    0.0000 C   0  0  0  0  0  0           0  0  0
    4.0000   -9.6417    0.0000 C   0  0  0  0  0  0           0  0  0
    4.6500   -4.9083    0.0000 C   0  0  0  0  0  0           0  0  0
    5.8750   -4.8500    0.0000 C   0  0  0  0  0  0           0  0  0
    5.2542   -4.5208    0.0000 C   0  0  0  0  0  0           0  0  0
  2  1  2  0     0  0
  3  1  1  0     0  0
  4  2  1  0     0  0
  5  3  1  0     0  0
  6  9  1  0     0  0
  7  2  1  0     0  0
  8  4  1  0     0  0
  9  7  1  0     0  0
 10  3  1  0     0  0
 11  5  2  0     0  0
 12  7  2  0     0  0
 13  9  2  0     0  0
 14 10  2  0     0  0
 15 10  1  0     0  0
 16 12  1  0     0  0
 17 16  2  0     0  0
 18 15  2  0     0  0
 19 14  1  0     0  0
 20 18  1  0     0  0
  4  5  1  0     0  0
  6  8  2  0     0  0
 19 20  2  0     0  0
 17 13  1  0     0  0
M  END