
          05080814042D 1   1.00000     0.00000     0

 30 32  0     0  0            999 V2000
    4.9069   -6.3083    0.0000 C   0  0  0  0  0  0           0  0  0
    4.9057   -7.1357    0.0000 C   0  0  0  0  0  0           0  0  0
    5.6206   -7.5485    0.0000 C   0  0  0  0  0  0           0  0  0
    6.3370   -7.1352    0.0000 C   0  0  0  0  0  0           0  0  0
    6.3341   -6.3047    0.0000 C   0  0  0  0  0  0           0  0  0
    5.6188   -5.8955    0.0000 C   0  0  0  0  0  0           0  0  0
    7.0521   -7.5466    0.0000 N   0  0  0  0  0  0           0  0  0
    7.0534   -8.3716    0.0000 C   0  0  0  0  0  0           0  0  0
    7.7685   -8.7829    0.0000 O   0  0  0  0  0  0           0  0  0
    6.3396   -8.7852    0.0000 C   0  0  0  0  0  0           0  0  0
    5.6276   -8.3700    0.0000 C   0  0  0  0  0  0           0  0  0
    4.9142   -8.7829    0.0000 C   0  0  0  0  0  0           0  0  0
    4.9151   -9.6088    0.0000 C   0  0  0  0  0  0           0  0  0
    5.6352  -10.0200    0.0000 C   0  0  0  0  0  0           0  0  0
    6.3456   -9.6047    0.0000 C   0  0  0  0  0  0           0  0  0
    5.6394  -10.8450    0.0000 S   0  0  3  0  0  0           0  0  0
    5.6333  -11.6667    0.0000 N   0  0  3  0  0  0           0  0  0
    6.4644  -10.8459    0.0000 O   0  0  0  0  0  0           0  0  0
    4.8144  -10.8474    0.0000 O   0  0  0  0  0  0           0  0  0
    4.9169  -12.0710    0.0000 C   0  0  0  0  0  0           0  0  0
    4.9089  -12.8891    0.0000 C   0  0  0  0  0  0           0  0  0
    5.6156  -13.3090    0.0000 O   0  0  0  0  0  0           0  0  0
    6.3320  -12.9047    0.0000 C   0  0  0  0  0  0           0  0  0
    6.3418  -12.0804    0.0000 C   0  0  0  0  0  0           0  0  0
    7.0471   -5.8895    0.0000 C   0  0  0  0  0  0           0  0  0
    7.7646   -6.2990    0.0000 O   0  0  0  0  0  0           0  0  0
    7.0455   -5.0642    0.0000 O   0  0  0  0  0  0           0  0  0
    4.1923   -5.8960    0.0000 N   0  3  0  0  0  0           0  0  0
    3.4772   -6.3089    0.0000 O   0  0  0  0  0  0           0  0  0
    4.1914   -5.0712    0.0000 O   0  5  0  0  0  0           0  0  0
 14 15  2  0     0  0
 15 10  1  0     0  0
  3  4  2  0     0  0
 14 16  1  0     0  0
  7  8  1  0     0  0
 16 17  1  0     0  0
 16 18  2  0     0  0
  8  9  2  0     0  0
 16 19  2  0     0  0
 17 20  1  0     0  0
  4  5  1  0     0  0
  8 10  1  0     0  0
  2  3  1  0     0  0
 10 11  2  0     0  0
  5  6  2  0     0  0
 17 24  1  0     0  0
 20 21  1  0     0  0
 21 22  1  0     0  0
 22 23  1  0     0  0
 23 24  1  0     0  0
 11 12  1  0     0  0
  5 25  1  0     0  0
  6  1  1  0     0  0
 12 13  2  0     0  0
 25 26  1  0     0  0
 25 27  2  0     0  0
  1  2  2  0     0  0
  1 28  1  0     0  0
 13 14  1  0     0  0
  4  7  1  0     0  0
 28 29  2  0     0  0
 28 30  1  0     0  0
M  CHG  2  28   1  30  -1
M  END