
  SciTegic04091415222D

 30 33  0  0  0  0            999 V2000
    1.6742  -28.7956    0.0000 C   0  0
    3.0880  -28.7920    0.0000 C   0  0
    2.3793  -28.3868    0.0000 C   0  0
    3.0908  -29.6147    0.0000 C   0  0
    3.0870  -31.2498    0.0000 C   0  0
    3.7982  -30.8375    0.0000 C   0  0
    3.7962  -30.0218    0.0000 C   0  0
    2.3803  -30.0220    0.0000 C   0  0
    1.6731  -29.6152    0.0000 C   0  0
    0.9693  -30.0242    0.0000 C   0  0
    0.9715  -30.8398    0.0000 O   0  0
    1.6834  -31.2447    0.0000 C   0  0
    2.3843  -30.8334    0.0000 C   0  0
    3.7911  -28.3821    0.0000 C   0  0
    4.5006  -28.7897    0.0000 N   0  0
    5.2063  -28.3791    0.0000 C   0  0
    5.2037  -27.5611    0.0000 N   0  0
    4.4895  -27.1553    0.0000 C   0  0
    3.7867  -27.5682    0.0000 N   0  0
    2.3769  -27.5696    0.0000 Cl  0  0
    4.4835  -26.3382    0.0000 N   0  0
    5.9154  -28.7854    0.0000 S   0  0
    6.6217  -28.3745    0.0000 C   0  0
    7.3308  -28.7807    0.0000 C   0  0
    8.0371  -28.3698    0.0000 C   0  0
    8.7462  -28.7761    0.0000 N   0  0
    8.0345  -27.5526    0.0000 O   0  0
    9.4525  -28.3652    0.0000 C   0  0
   10.1616  -28.7715    0.0000 C   0  0
   10.8680  -28.3605    0.0000 O   0  0
  1  9  2  0
  4  2  1  0
  2  3  2  0
  3  1  1  0
  4  8  1  0
 13  5  1  0
  5  6  2  0
  6  7  1  0
  7  4  2  0
  8  9  1  0
  9 10  1  0
 10 11  1  0
 11 12  1  0
 12 13  1  0
 13  8  2  0
 14 15  2  0
 15 16  1  0
 16 17  2  0
 17 18  1  0
 18 19  2  0
 19 14  1  0
  2 14  1  0
  3 20  1  0
 18 21  1  0
 16 22  1  0
 22 23  1  0
 23 24  1  0
 24 25  1  0
 25 26  1  0
 25 27  2  0
 26 28  1  0
 28 29  1  0
 29 30  1  0
M  END