
  SciTegic10161213532D

 21 20  0  0  0  0            999 V2000
    1.0734   -8.9417    0.0000 C   0  0
    1.8984   -8.9417    0.0000 C   0  0
    2.6109   -9.3583    0.0000 C   0  0
    3.3234   -8.9458    0.0000 C   0  0
    4.0383   -9.3575    0.0000 C   0  0
    4.7523   -8.9441    0.0000 C   0  0
    5.4673   -9.3558    0.0000 C   0  0
   -0.3458   -8.1167    0.0000 C   0  0
   -0.3458   -8.9417    0.0000 C   0  0
    0.3662   -9.3500    0.0000 C   0  0
    1.0782   -8.1167    0.0000 C   0  0
    0.3662   -7.7000    0.0000 C   0  0
    1.7951   -7.7084    0.0000 C   0  0
    2.5071   -8.1250    0.0000 C   0  0
    3.2240   -7.7167    0.0000 C   0  0
    3.9360   -8.1334    0.0000 C   0  0
    4.6529   -7.7251    0.0000 C   0  0
    5.3650   -8.1418    0.0000 O   0  0
    4.6577   -6.9001    0.0000 O   0  0
    2.6091  -10.1833    0.0000 O   0  0
    6.1813   -8.9424    0.0000 C   0  0
  9 10  2  0
 10  1  1  0
 11 12  1  0
  1  2  2  0
 11 13  1  0
  6  7  1  0
 13 14  1  0
  8  9  1  0
 14 15  1  0
  3  4  1  0
 15 16  1  0
 16 17  1  0
  4  5  1  0
 17 18  1  0
  2  3  1  0
 17 19  2  0
  5  6  1  0
  3 20  1  0
  8 12  1  0
  7 21  1  0
M  END