
  SciTegic06271217572D

 25 26  0  0  0  0            999 V2000
    0.5720   -0.2394    0.0000 C   0  0
    1.2880   -0.6492    0.0000 C   0  0
    0.5689    0.5856    0.0000 O   0  0
    2.0010   -0.2341    0.0000 S   0  0
    2.7170   -0.6439    0.0000 C   0  0
    2.7170   -1.4677    0.0000 N   0  0
    3.4321   -1.8774    0.0000 C   0  0
    4.1460   -1.4622    0.0000 C   0  0
    4.1403   -0.6329    0.0000 C   0  0
    3.4245   -0.2270    0.0000 N   0  0
    4.8517   -0.2152    0.0000 O   0  0
    3.4348   -2.7024    0.0000 C   0  0
    2.7217   -3.1173    0.0000 C   0  0
    4.1507   -3.1126    0.0000 C   0  0
    3.4291   -3.5250    0.0000 C   0  0
   -2.2862   -1.8991    0.0000 S   0  0
   -2.7123   -2.6056    0.0000 O   0  0
   -1.8875   -2.6214    0.0000 O   0  0
   -2.9926   -1.4730    0.0000 N   0  0
   -1.5681   -0.6583    0.0000 C   0  0
   -1.5693   -1.4856    0.0000 C   0  0
   -0.8545   -1.8985    0.0000 C   0  0
   -0.1380   -1.4852    0.0000 C   0  0
   -0.1409   -0.6546    0.0000 C   0  0
   -0.8563   -0.2455    0.0000 C   0  0
  7 12  1  0
  5  6  2  0
 12 13  1  0
  1  3  2  0
 12 14  1  0
  6  7  1  0
 12 15  1  0
 17 16  2  0
 16 18  2  0
  7  8  2  0
  2  4  1  0
  8  9  1  0
 16 19  1  0
  1  2  1  0
  9 10  1  0
 20 21  2  0
 10  5  1  0
 21 22  1  0
  4  5  1  0
 22 23  2  0
  9 11  2  0
 23 24  1  0
 24  1  1  0
 24 25  2  0
 25 20  1  0
 21 16  1  0
M  END