
  SciTegic12231509382D

 29 32  0  0  0  0            999 V2000
    1.7138    1.2033    0.0000 C   0  0
    1.7138   -1.2033    0.0000 C   0  0
    0.2917    0.7475    0.0000 C   0  0
    0.2917   -0.7475    0.0000 C   0  0
    2.5889    0.0182    0.0000 C   0  0
    3.6552   -2.9294    0.0000 N   0  0
    6.5944   -3.5310    0.0000 N   0  0
    2.1855   -2.6254    0.0000 C   0  0
   10.4787   -6.9881    0.0000 C   0  0
   11.9484   -7.2921    0.0000 C   0  0
    2.0825    2.3453    0.0000 O   0  0
    9.6809   -7.8845    0.0000 O   0  0
   12.4227   -8.7152    0.0000 C   0  0
   12.9438   -6.1699    0.0000 C   0  0
    4.1295   -4.3524    0.0000 C   0  0
    4.6506   -1.8071    0.0000 C   0  0
    6.1201   -2.1080    0.0000 C   0  0
    5.5991   -4.6533    0.0000 C   0  0
   14.8876   -7.8939    0.0000 C   0  0
   14.4134   -6.4708    0.0000 C   0  0
   13.8923   -9.0161    0.0000 C   0  0
   16.0632   -8.1346    0.0000 F   0  0
    8.0641   -3.8351    0.0000 C   0  0
   -1.0028    1.5132    0.0000 C   0  0
   -1.0028   -1.5132    0.0000 C   0  0
    8.5365   -5.2596    0.0000 C   0  0
   10.0063   -5.5636    0.0000 C   0  0
   -2.3155    0.7475    0.0000 C   0  0
   -2.3155   -0.7475    0.0000 C   0  0
  1  3  1  0
  2  4  1  0
  3  4  2  0
  1  5  1  0
  2  5  1  0
  2  8  1  0
  6  8  1  0
  9 10  1  0
  1 11  2  0
  9 12  2  0
 10 13  2  0
 10 14  1  0
  6 15  1  0
  6 16  1  0
  7 17  1  0
 16 17  1  0
  7 18  1  0
 15 18  1  0
 14 20  2  0
 19 20  1  0
 13 21  1  0
 19 21  2  0
 19 22  1  0
  7 23  1  0
  3 24  1  0
  4 25  1  0
 23 26  1  0
  9 27  1  0
 26 27  1  0
 24 28  2  0
 25 29  2  0
 28 29  1  0
M  END