
  SciTegic05301215452D

 20 22  0  0  0  0            999 V2000
   -0.7144    1.6388    0.0000 O   0  0
   -2.1434    0.8138    0.0000 O   0  0
   -0.7144   -3.3112    0.0000 O   0  0
   -0.7144   -1.6612    0.0000 N   0  0
    0.0000   -0.4237    0.0000 C   0  0
    0.0000    0.4013    0.0000 C   0  0
   -0.7144   -0.8362    0.0000 C   0  0
   -0.7144    0.8138    0.0000 C   0  0
   -1.4289    0.4013    0.0000 C   0  0
   -1.4289   -0.4237    0.0000 C   0  0
   -1.4289   -2.0737    0.0000 C   0  0
    0.7145   -0.8362    0.0000 C   0  0
    0.7145    0.8138    0.0000 C   0  0
   -1.4289   -2.8987    0.0000 C   0  0
    1.4290   -0.4237    0.0000 C   0  0
    1.4290    0.4013    0.0000 C   0  0
   -2.1434   -1.6612    0.0000 C   0  0
   -2.1434   -3.3112    0.0000 C   0  0
   -2.8578   -2.0737    0.0000 C   0  0
   -2.8578   -2.8987    0.0000 C   0  0
  1  8  2  0
  2  9  1  0
  3 14  1  0
  4  7  2  0
  4 11  1  0
  5  6  1  0
  5  7  1  0
  5 12  2  0
  6  8  1  0
  6 13  2  0
  7 10  1  0
  8  9  1  0
  9 10  2  0
 11 14  1  0
 11 17  2  0
 12 15  1  0
 13 16  1  0
 14 18  2  0
 15 16  2  0
 17 19  1  0
 18 20  1  0
 19 20  2  0
M  END