
          11280715312D 1   1.00000     0.00000     0

 39 42  0     0  0            999 V2000
    3.2542   -6.0625    0.0000 N   0  0  0  0  0  0           0  0  0
    3.2542   -6.9042    0.0000 C   0  0  0  0  0  0           0  0  0
    1.8292   -6.0625    0.0000 C   0  0  0  0  0  0           0  0  0
    2.5500   -5.6667    0.0000 C   0  0  0  0  0  0           0  0  0
    2.5500   -7.3125    0.0000 N   0  0  0  0  0  0           0  0  0
    1.8292   -6.9042    0.0000 C   0  0  0  0  0  0           0  0  0
    9.6875   -7.2917    0.0000 C   0  0  0  0  0  0           0  0  0
    1.1292   -5.6667    0.0000 C   0  0  0  0  0  0           0  0  0
    1.1292   -7.3125    0.0000 C   0  0  0  0  0  0           0  0  0
   10.3917   -6.8792    0.0000 C   0  0  0  0  0  0           0  0  0
    0.4042   -6.0625    0.0000 C   0  0  0  0  0  0           0  0  0
    0.4042   -6.9042    0.0000 C   0  0  0  0  0  0           0  0  0
   12.5417   -8.1125    0.0000 N   0  0  3  0  0  0           0  0  0
    3.9750   -7.3042    0.0000 N   0  0  3  0  0  0           0  0  0
    8.9750   -6.8875    0.0000 N   0  0  3  0  0  0           0  0  0
   12.9667   -9.3792    0.0000 S   0  0  0  0  0  0           0  0  0
   11.1167   -7.2917    0.0000 C   0  0  0  0  0  0           0  0  0
    9.6917   -8.1167    0.0000 O   0  0  0  0  0  0           0  0  0
   13.2167   -8.5917    0.0000 C   0  0  0  0  0  0           0  0  0
   11.8292   -6.8750    0.0000 C   0  0  0  0  0  0           0  0  0
    2.5542   -4.8417    0.0000 N   0  0  0  0  0  0           0  0  0
   12.5417   -7.2875    0.0000 C   0  0  0  0  0  0           0  0  0
   -0.2958   -5.6417    0.0000 O   0  0  0  0  0  0           0  0  0
   -0.2958   -7.3250    0.0000 O   0  0  0  0  0  0           0  0  0
   10.3917   -6.0542    0.0000 C   0  0  0  0  0  0           0  0  0
   11.8792   -8.5917    0.0000 C   0  0  0  0  0  0           0  0  0
   11.1042   -5.6417    0.0000 C   0  0  0  0  0  0           0  0  0
   12.1417   -9.3792    0.0000 C   0  0  0  0  0  0           0  0  0
    4.6875   -6.8917    0.0000 C   0  0  0  0  0  0           0  0  0
    8.2625   -7.3000    0.0000 C   0  0  0  0  0  0           0  0  0
    3.9750   -8.1292    0.0000 C   0  0  0  0  0  0           0  0  0
    8.9667   -6.0542    0.0000 C   0  0  0  0  0  0           0  0  0
   11.8250   -6.0500    0.0000 C   0  0  0  0  0  0           0  0  0
   -1.0208   -6.9292    0.0000 C   0  0  0  0  0  0           0  0  0
   -1.0208   -6.0375    0.0000 C   0  0  0  0  0  0           0  0  0
    7.5417   -6.8917    0.0000 C   0  0  0  0  0  0           0  0  0
    5.4042   -7.3042    0.0000 C   0  0  0  0  0  0           0  0  0
    6.1167   -6.8917    0.0000 C   0  0  0  0  0  0           0  0  0
    6.8292   -7.3042    0.0000 C   0  0  0  0  0  0           0  0  0
  2  1  2  0     0  0
  3  4  2  0     0  0
  4  1  1  0     0  0
  5  2  1  0     0  0
  6  3  1  0     0  0
  7 15  1  0     0  0
  8  3  1  0     0  0
  9  6  1  0     0  0
 10  7  1  0     0  0
 11  8  2  0     0  0
 12 11  1  0     0  0
 13 22  1  0     0  0
 14  2  1  0     0  0
 15 30  1  0     0  0
 16 19  1  0     0  0
 17 10  2  0     0  0
 18  7  2  0     0  0
 19 13  1  0     0  0
 20 17  1  0     0  0
 21  4  1  0     0  0
 22 20  1  0     0  0
 23 11  1  0     0  0
 24 12  1  0     0  0
 25 10  1  0     0  0
 26 13  1  0     0  0
 27 25  2  0     0  0
 28 26  1  0     0  0
 29 14  1  0     0  0
 30 36  1  0     0  0
 31 14  1  0     0  0
 32 15  1  0     0  0
 33 27  1  0     0  0
 34 24  1  0     0  0
 35 23  1  0     0  0
 36 39  1  0     0  0
 37 29  1  0     0  0
 38 37  1  0     0  0
 39 38  1  0     0  0
  6  5  2  0     0  0
  9 12  2  0     0  0
 20 33  2  0     0  0
 28 16  1  0     0  0
M  END