
  SciTegic12181313002D

 58 62  0  0  0  0            999 V2000
    8.8761    3.8009    0.0000 N   0  0
    8.1616    4.2134    0.0000 C   0  0
    7.4471    3.8009    0.0000 C   0  0
    7.4471    2.9759    0.0000 N   0  0
    9.5906    4.2134    0.0000 C   0  0  1  0  0  0
   10.3051    3.8009    0.0000 C   0  0
   10.3050    2.9759    0.0000 N   0  0
   10.3050    1.3259    0.0000 N   0  0
   11.0195    1.7384    0.0000 C   0  0
   11.0195    2.5634    0.0000 C   0  0  1  0  0  0
    8.8760    0.5009    0.0000 S   0  3
    9.5905    0.0884    0.0000 C   0  0
   10.3050    0.5009    0.0000 C   0  0  2  0  0  0
    7.4471    1.3260    0.0000 N   0  0
    7.4471    0.5010    0.0000 C   0  0
    8.1615    0.0885    0.0000 C   0  0
    6.7326    2.5634    0.0000 C   0  0
    6.7326    1.7384    0.0000 C   0  0  1  0  0  0
    6.0182    2.9759    0.0000 O   0  0
    6.0182    1.3258    0.0000 C   0  0
    5.3037    1.7383    0.0000 C   0  0
    5.3037    2.5633    0.0000 C   0  0
    4.5893    2.9758    0.0000 C   0  0
    3.8748    2.5633    0.0000 C   0  0
    3.8748    1.7383    0.0000 C   0  0
    4.5892    1.3258    0.0000 C   0  0
    6.7326    0.0886    0.0000 O   0  0
    8.8760    1.3259    0.0000 O   0  5
   11.0194    0.0884    0.0000 C   0  0
   11.7339    0.5009    0.0000 N   0  0
   11.0194   -0.7366    0.0000 O   0  0
   11.7340    1.3259    0.0000 O   0  0
   11.7340    2.9759    0.0000 C   0  0
   12.4485    2.5634    0.0000 C   0  0
   12.5347    1.7429    0.0000 C   0  0
   13.3416    1.5714    0.0000 N   0  0
   13.7541    2.2859    0.0000 C   0  0
   13.2021    2.8989    0.0000 C   0  0
   13.4570    3.6836    0.0000 C   0  0
   14.2640    3.8552    0.0000 C   0  0
   14.8160    3.2421    0.0000 C   0  0
   14.5611    2.4574    0.0000 C   0  0
   11.0195    4.2134    0.0000 O   0  0
    9.5906    5.0384    0.0000 C   0  0
   10.3050    5.4509    0.0000 C   0  0
   10.3050    6.2759    0.0000 N   0  0
   11.0195    5.0384    0.0000 O   0  0
    8.1616    5.0384    0.0000 O   0  0
    7.6606    4.5978    0.0000 C   0  0
    7.0773    5.1812    0.0000 C   0  0
    6.2804    4.9676    0.0000 C   0  0
    6.0669    4.1707    0.0000 C   0  0
    6.6502    3.5874    0.0000 C   0  0
    3.1603    2.9758    0.0000 O   0  0
    2.4458    2.5633    0.0000 P   0  0
    1.7314    2.9758    0.0000 O   0  0
    2.0333    1.8488    0.0000 O   0  0
    3.0292    1.9800    0.0000 O   0  0
  1  2  1  0
  2  3  1  0
  3  4  1  0
  1  5  1  0
  5  6  1  0
  6  7  1  0
 10  7  1  0
  8  9  1  0
  9 10  1  0
 13  8  1  0
 11 12  1  0
 13 12  1  0
 11 16  1  0
 14 15  1  0
 15 16  1  0
  4 17  1  0
 18 14  1  0
 17 18  1  0
 17 19  2  0
 18 20  1  6
 20 21  1  0
 21 22  1  0
 21 26  2  0
 22 23  2  0
 23 24  1  0
 24 25  2  0
 25 26  1  0
 15 27  2  0
 11 28  1  1
 13 29  1  1
 29 30  1  0
 29 31  2  0
  9 32  2  0
 10 33  1  6
 33 34  1  0
 34 35  2  0
 34 38  1  0
 35 36  1  0
 36 37  1  0
 42 37  1  0
 37 38  2  0
 38 39  1  0
 39 40  2  0
 40 41  1  0
 41 42  2  0
  6 43  2  0
  5 44  1  6
 44 45  1  0
 45 46  1  0
 45 47  2  0
  2 48  2  0
  3 49  1  0
 53  3  1  0
 49 50  1  0
 50 51  1  0
 51 52  1  0
 52 53  1  0
 24 54  1  0
 54 55  1  0
 55 56  2  0
 55 57  1  0
 55 58  1  0
M  CHG  2  11   1  28  -1
M  END