
  CDK    9/16/09,9:41

 86 86  0  0  0  0  0  0  0  0999 V2000
   -3.4900   -6.2147    0.0000 N   0  0  0  0  0  0  0  0  0  0  0  0
   -2.7816   -6.6263    0.0000 C   0  0  0  0  0  0  0  0  0  0  0  0
   -2.0633   -5.3927    0.0000 O   0  0  0  0  0  0  0  0  0  0  0  0
   -2.0638   -6.2174    0.0000 C   0  0  0  0  0  0  0  0  0  0  0  0
   -2.7847   -7.4543    0.0000 C   0  0  0  0  0  0  0  0  0  0  0  0
   -2.0646   -7.8726    0.0000 C   0  0  0  0  0  0  0  0  0  0  0  0
   -2.0682   -8.6932    0.0000 C   0  0  0  0  0  0  0  0  0  0  0  0
   -1.3459   -9.1128    0.0000 C   0  0  0  0  0  0  0  0  0  0  0  0
   -1.3505   -6.6318    0.0000 N   0  0  0  0  0  0  0  0  0  0  0  0
   -0.6343   -6.2173    0.0000 C   0  0  0  0  0  0  0  0  0  0  0  0
    0.0718   -7.4464    0.0000 O   0  0  0  0  0  0  0  0  0  0  0  0
    0.0742   -6.6288    0.0000 C   0  0  0  0  0  0  0  0  0  0  0  0
   -0.6312   -5.3893    0.0000 C   0  0  0  0  0  0  0  0  0  0  0  0
    0.7955   -6.2159    0.0000 N   0  0  0  0  0  0  0  0  0  0  0  0
    1.5031   -6.6270    0.0000 C   0  0  0  0  0  0  0  0  0  0  0  0
    2.2272   -5.3804    0.0000 O   0  0  0  0  0  0  0  0  0  0  0  0
    2.2228   -6.2115    0.0000 C   0  0  0  0  0  0  0  0  0  0  0  0
    1.4982   -7.4463    0.0000 C   0  0  0  0  0  0  0  0  0  0  0  0
    0.7913   -7.8528    0.0000 C   0  0  0  0  0  0  0  0  0  0  0  0
    3.6515   -6.2265    0.0000 C   0  0  0  0  0  0  0  0  0  0  0  0
    4.3540   -7.4563    0.0000 O   0  0  0  0  0  0  0  0  0  0  0  0
    4.3590   -6.6375    0.0000 C   0  0  0  0  0  0  0  0  0  0  0  0
    5.7848   -6.6340    0.0000 C   0  0  0  0  0  0  0  0  0  0  0  0
    6.5071   -5.3905    0.0000 O   0  0  0  0  0  0  0  0  0  0  0  0
    6.5063   -6.2239    0.0000 C   0  0  0  0  0  0  0  0  0  0  0  0
    7.2100   -6.6328    0.0000 N   0  0  0  0  0  0  0  0  0  0  0  0
    7.9337   -6.2191    0.0000 C   0  0  0  0  0  0  0  0  0  0  0  0
    8.6382   -7.4453    0.0000 O   0  0  0  0  0  0  0  0  0  0  0  0
    8.6411   -6.6301    0.0000 C   0  0  0  0  0  0  0  0  0  0  0  0
    7.9345   -5.3857    0.0000 C   0  0  0  0  0  0  0  0  0  0  0  0
    7.2153   -4.9679    0.0000 C   0  0  0  0  0  0  0  0  0  0  0  0
    7.2202   -4.1492    0.0000 C   0  0  0  0  0  0  0  0  0  0  0  0
    6.5011   -3.7315    0.0000 C   0  0  0  0  0  0  0  0  0  0  0  0
   10.0689   -6.6320    0.0000 C   0  0  0  0  0  0  0  0  0  0  0  0
   10.7933   -5.3849    0.0000 O   0  0  0  0  0  0  0  0  0  0  0  0
   10.0697   -7.4493    0.0000 C   0  0  0  0  0  0  0  0  0  0  0  0
   10.7925   -6.2184    0.0000 C   0  0  0  0  0  0  0  0  0  0  0  0
   11.5000   -6.6293    0.0000 N   0  0  0  0  0  0  0  0  0  0  0  0
   12.2617   -6.3516    0.0000 C   0  0  0  0  0  0  0  0  0  0  0  0
   11.5964   -5.1114    0.0000 O   0  0  0  0  0  0  0  0  0  0  0  0
   12.3077   -5.5270    0.0000 C   0  0  0  0  0  0  0  0  0  0  0  0
   12.9485   -6.8154    0.0000 C   0  0  0  0  0  0  0  0  0  0  0  0
   11.6676   -7.5055    0.0000 C   0  0  0  0  0  0  0  0  0  0  0  0
   12.5592   -7.6267    0.0000 C   0  0  0  0  0  0  0  0  0  0  0  0
   10.8833   -1.4012    0.0000 C   0  0  0  0  0  0  0  0  0  0  0  0
   13.0230   -4.2852    0.0000 C   0  0  0  0  0  0  0  0  0  0  0  0
   14.4518   -4.2896    0.0000 O   0  0  0  0  0  0  0  0  0  0  0  0
   13.7385   -3.8777    0.0000 C   0  0  0  0  0  0  0  0  0  0  0  0
   12.3115   -3.8696    0.0000 C   0  0  0  0  0  0  0  0  0  0  0  0
   12.3157   -3.0463    0.0000 C   0  0  0  0  0  0  0  0  0  0  0  0
   11.6006   -2.6288    0.0000 C   0  0  0  0  0  0  0  0  0  0  0  0
   14.4650   -2.6557    0.0000 C   0  0  0  0  0  0  0  0  0  0  0  0
   13.7541   -1.4150    0.0000 O   0  0  0  0  0  0  0  0  0  0  0  0
   14.4710   -1.8287    0.0000 C   0  0  0  0  0  0  0  0  0  0  0  0
   15.1763   -3.0713    0.0000 C   0  0  0  0  0  0  0  0  0  0  0  0
   15.8938   -2.6601    0.0000 C   0  0  0  0  0  0  0  0  0  0  0  0
   16.6052   -3.0757    0.0000 C   0  0  0  0  0  0  0  0  0  0  0  0
   17.3208   -2.6682    0.0000 C   0  0  0  0  0  0  0  0  0  0  0  0
   15.1934   -0.5873    0.0000 C   0  0  0  0  0  0  0  0  0  0  0  0
   15.9151    0.6471    0.0000 O   0  0  0  0  0  0  0  0  0  0  0  0
   15.9109   -0.1761    0.0000 C   0  0  0  0  0  0  0  0  0  0  0  0
   14.4820   -0.1717    0.0000 C   0  0  0  0  0  0  0  0  0  0  0  0
   14.4862    0.6515    0.0000 C   0  0  0  0  0  0  0  0  0  0  0  0
   13.7710    1.0690    0.0000 C   0  0  0  0  0  0  0  0  0  0  0  0
   13.7771    1.8960    0.0000 O   0  0  0  0  0  0  0  0  0  0  0  0
   11.5436   -5.9353    0.0000 H   0  0  0  0  0  0  0  0  0  0  0  0
    7.2120   -2.4933    0.0000 C   0  0  0  0  0  0  0  0  0  0  0  0
    7.2113   -1.6683    0.0000 O   0  0  0  0  0  0  0  0  0  0  0  0
    7.9269   -2.9051    0.0000 C   0  0  0  0  0  0  0  0  0  0  0  0
    7.9276   -3.7301    0.0000 F   0  0  0  0  0  0  0  0  0  0  0  0
   -1.3527   -9.9228    0.0000 N   0  0  0  0  0  0  0  0  0  0  0  0
    0.0663   -4.9831    0.0000 O   0  0  0  0  0  0  0  0  0  0  0  0
    2.2149   -7.8653    0.0000 O   0  0  0  0  0  0  0  0  0  0  0  0
    2.9328   -6.6316    0.0000 N   0  0  0  0  0  0  0  0  0  0  0  0
    5.0709   -6.2205    0.0000 N   0  0  0  0  0  0  0  0  0  0  0  0
    6.4980   -2.9065    0.0000 N   0  0  0  0  0  0  0  0  0  0  0  0
    9.3556   -6.2176    0.0000 N   0  0  0  0  0  0  0  0  0  0  0  0
   11.6034   -1.8038    0.0000 N   0  0  0  0  0  0  0  0  0  0  0  0
   10.1589   -1.7940    0.0000 N   0  0  0  0  0  0  0  0  0  0  0  0
   10.8769   -0.5577    0.0000 N   0  0  0  0  0  0  0  0  0  0  0  0
   13.0197   -5.1102    0.0000 N   0  0  0  0  0  0  0  0  0  0  0  0
   13.7418   -3.0527    0.0000 N   0  0  0  0  0  0  0  0  0  0  0  0
   18.0295   -3.0786    0.0000 N   0  0  0  0  0  0  0  0  0  0  0  0
   15.1832   -1.4123    0.0000 N   0  0  0  0  0  0  0  0  0  0  0  0
   13.0555    0.6615    0.0000 N   0  0  0  0  0  0  0  0  0  0  0  0
   16.6222   -0.5917    0.0000 O   0  0  0  0  0  0  0  0  0  0  0  0
 10 12  1  0  0  0  0 
 12 11  2  0  0  0  0 
 10 13  1  0  0  0  0 
 15 14  1  6  0  0  0 
 15 17  1  0  0  0  0 
 17 16  2  0  0  0  0 
 15 18  1  0  0  0  0 
 18 19  1  0  0  0  0 
 20 22  1  0  0  0  0 
 22 21  2  0  0  0  0 
 23 25  1  0  0  0  0 
 25 24  2  0  0  0  0 
 27 26  1  1  0  0  0 
 27 29  1  0  0  0  0 
 29 28  2  0  0  0  0 
 27 30  1  0  0  0  0 
 30 31  1  0  0  0  0 
 31 32  1  0  0  0  0 
 32 33  1  0  0  0  0 
 34 37  1  0  0  0  0 
 37 35  2  0  0  0  0 
 34 36  1  6  0  0  0 
 38 39  1  0  0  0  0 
 39 41  1  0  0  0  0 
 41 40  2  0  0  0  0 
 39 42  1  0  0  0  0 
 43 44  1  0  0  0  0 
 44 42  1  0  0  0  0 
 43 38  1  0  0  0  0 
 46 48  1  0  0  0  0 
 48 47  2  0  0  0  0 
 46 49  1  1  0  0  0 
 49 50  1  0  0  0  0 
 50 51  1  0  0  0  0 
 52 54  1  0  0  0  0 
 54 53  2  0  0  0  0 
 52 55  1  6  0  0  0 
 55 56  1  0  0  0  0 
 56 57  1  0  0  0  0 
 57 58  1  0  0  0  0 
 59 61  1  0  0  0  0 
 61 60  2  0  0  0  0 
 59 62  1  1  0  0  0 
 62 63  1  0  0  0  0 
 63 64  1  0  0  0  0 
 64 65  2  0  0  0  0 
 39 66  1  1  0  0  0 
  4  9  1  0  0  0  0 
 12 14  1  0  0  0  0 
 67 68  2  0  0  0  0 
 67 69  1  0  0  0  0 
 69 70  1  0  0  0  0 
 25 26  1  0  0  0  0 
 37 38  1  0  0  0  0 
  2  1  1  6  0  0  0 
  2  4  1  0  0  0  0 
  4  3  2  0  0  0  0 
  2  5  1  0  0  0  0 
  5  6  1  0  0  0  0 
  6  7  1  0  0  0  0 
  7  8  1  0  0  0  0 
 10  9  1  1  0  0  0 
 78 45  1  0  0  0  0 
 51 78  1  0  0  0  0 
 74 20  1  0  0  0  0 
 17 74  1  0  0  0  0 
 45 79  1  0  0  0  0 
 13 72  1  0  0  0  0 
 45 80  2  0  0  0  0 
 75 23  1  0  0  0  0 
 22 75  1  0  0  0  0 
 81 46  1  0  0  0  0 
 41 81  1  0  0  0  0 
  8 71  1  0  0  0  0 
 82 52  1  0  0  0  0 
 48 82  1  0  0  0  0 
 33 76  1  0  0  0  0 
 76 67  1  0  0  0  0 
 58 83  1  0  0  0  0 
 18 73  1  6  0  0  0 
 84 59  1  0  0  0  0 
 54 84  1  0  0  0  0 
 77 34  1  0  0  0  0 
 29 77  1  0  0  0  0 
 64 85  1  0  0  0  0 
 61 86  1  0  0  0  0 
M  END