
  Mrv0541 04051115152D          

 21 22  0  0  0  0            999 V2000
    2.8008   -1.2279    0.0000 C   0  0  0  0  0  0  0  0  0  0  0  0
    2.8008   -0.4029    0.0000 C   0  0  0  0  0  0  0  0  0  0  0  0
    2.0863    0.0096    0.0000 C   0  0  0  0  0  0  0  0  0  0  0  0
    1.3719   -0.4029    0.0000 C   0  0  0  0  0  0  0  0  0  0  0  0
   -0.0571    1.2471    0.0000 C   0  0  0  0  0  0  0  0  0  0  0  0
    0.6574    0.8346    0.0000 C   0  0  0  0  0  0  0  0  0  0  0  0
   -0.0571   -0.4029    0.0000 C   0  0  0  0  0  0  0  0  0  0  0  0
   -0.7716    0.0096    0.0000 C   0  0  0  0  0  0  0  0  0  0  0  0
    2.0863   -1.6404    0.0000 C   0  0  0  0  0  0  0  0  0  0  0  0
   -0.7716    0.8346    0.0000 C   0  0  0  0  0  0  0  0  0  0  0  0
    1.3719   -1.2279    0.0000 C   0  0  0  0  0  0  0  0  0  0  0  0
   -3.6294    0.8346    0.0000 C   0  0  0  0  0  0  0  0  0  0  0  0
   -2.2005    0.8346    0.0000 C   0  0  0  0  0  0  0  0  0  0  0  0
   -2.9150    1.2471    0.0000 C   0  0  0  0  0  0  0  0  0  0  0  0
   -4.3439    1.2471    0.0000 N   0  0  0  0  0  0  0  0  0  0  0  0
   -3.6294    0.0096    0.0000 O   0  0  0  0  0  0  0  0  0  0  0  0
   -5.0584    0.8346    0.0000 O   0  0  0  0  0  0  0  0  0  0  0  0
   -1.4860    1.2471    0.0000 O   0  0  0  0  0  0  0  0  0  0  0  0
    0.6574    0.0096    0.0000 C   0  0  0  0  0  0  0  0  0  0  0  0
    3.5153   -1.6404    0.0000 C   0  0  0  0  0  0  0  0  0  0  0  0
    4.2297   -2.0529    0.0000 N   0  0  0  0  0  0  0  0  0  0  0  0
 20 21  3  0  0  0  0
  1 20  1  0  0  0  0
  1  9  2  0  0  0  0
  2  1  1  0  0  0  0
  9 11  1  0  0  0  0
  3  2  2  0  0  0  0
  4 11  2  0  0  0  0
  4  3  1  0  0  0  0
 19  4  1  0  0  0  0
  7 19  2  0  0  0  0
 19  6  1  0  0  0  0
  7  8  1  0  0  0  0
  6  5  2  0  0  0  0
 10  8  2  0  0  0  0
  5 10  1  0  0  0  0
 10 18  1  0  0  0  0
 13 18  1  0  0  0  0
 15 17  1  0  0  0  0
 14 13  1  0  0  0  0
 12 16  2  0  0  0  0
 12 15  1  0  0  0  0
 12 14  1  0  0  0  0
M  END