
  SciTegic01181116592D

 28 31  0  0  0  0            999 V2000
   18.0776  -14.1222    0.0000 N   0  0
   18.0932  -13.2973    0.0000 C   0  0
   17.3867  -12.8714    0.0000 C   0  0
   18.8153  -12.8984    0.0000 O   0  0
   17.4058  -12.0464    0.0000 C   0  0
   16.7001  -11.6205    0.0000 C   0  0
   15.9769  -12.0194    0.0000 C   0  0
   15.9639  -12.8486    0.0000 C   0  0
   16.6702  -13.2707    0.0000 C   0  0
   18.7841  -14.5481    0.0000 C   0  0
   13.7986  -15.8041    0.0000 C   0  0
   13.7974  -16.6315    0.0000 C   0  0
   14.5122  -17.0444    0.0000 C   0  0
   14.5104  -15.3914    0.0000 C   0  0
   15.2258  -15.8005    0.0000 C   0  0
   15.2266  -16.6273    0.0000 C   0  0
   15.9419  -17.0383    0.0000 N   0  0
   16.6569  -16.6235    0.0000 C   0  0
   16.6521  -15.7936    0.0000 C   0  0
   15.9362  -15.3863    0.0000 N   0  0
   17.3641  -15.3767    0.0000 C   0  0
   18.0810  -15.7849    0.0000 N   0  0
   17.3591  -14.5517    0.0000 O   0  0
   18.7930  -15.3680    0.0000 C   0  0
   19.5077  -15.7796    0.0000 C   0  0
   20.2192  -15.3634    0.0000 C   0  0
   20.2146  -14.5376    0.0000 C   0  0
   19.4926  -14.1296    0.0000 C   0  0
 15 14  2  0
 14 11  1  0
  2  4  2  0
  7  8  1  0
 15 16  1  0
 16 17  1  0
  8  9  2  0
 17 18  2  0
  9  3  1  0
 18 19  1  0
  3  5  2  0
 19 20  2  0
 20 15  1  0
  1 10  1  0
 19 21  1  0
  2  3  1  0
 21 22  1  0
  5  6  1  0
 21 23  2  0
 11 12  2  0
 22 24  1  0
  1  2  1  0
 24 25  2  0
 12 13  1  0
 25 26  1  0
 13 16  2  0
 26 27  2  0
  6  7  2  0
 27 28  1  0
 28 10  2  0
 10 24  1  0
M  END