
          11280715272D 1   1.00000     0.00000     0

 15 17  0     0  0            999 V2000
   -2.4958   -0.9417    0.0000 N   0  0  3  0  0  0           0  0  0
   -2.1875   -1.4667    0.0000 C   0  0  3  0  0  0           0  0  0
   -1.5875   -1.4667    0.0000 C   0  0  3  0  0  0           0  0  0
   -2.1958   -2.0667    0.0000 C   0  0  3  0  0  0           0  0  0
   -1.5958   -2.0667    0.0000 C   0  0  0  0  0  0           0  0  0
   -2.7083   -1.7667    0.0000 C   0  0  0  0  0  0           0  0  0
   -1.0708   -1.1625    0.0000 C   0  0  0  0  0  0           0  0  0
   -2.7083   -2.3667    0.0000 C   0  0  0  0  0  0           0  0  0
   -0.5500   -1.4542    0.0000 C   0  0  0  0  0  0           0  0  0
   -1.0833   -0.5625    0.0000 C   0  0  0  0  0  0           0  0  0
   -2.7250   -0.3917    0.0000 C   0  0  0  0  0  0           0  0  0
   -0.0458   -0.5542    0.0000 C   0  0  0  0  0  0           0  0  0
   -0.0333   -1.1542    0.0000 C   0  0  0  0  0  0           0  0  0
   -0.5708   -0.2542    0.0000 C   0  0  0  0  0  0           0  0  0
    0.4750   -0.2500    0.0000 Br  0  0  0  0  0  0           0  0  0
  2  1  1  0     0  0
  3  2  1  0     0  0
  4  1  1  0     0  0
  5  4  1  0     0  0
  6  2  1  0     0  0
  7  3  1  0     0  0
  8  4  1  0     0  0
  9  7  2  0     0  0
 10  7  1  0     0  0
 11  1  1  0     0  0
 12 14  1  0     0  0
 13  9  1  0     0  0
 14 10  2  0     0  0
 15 12  1  0     0  0
  8  6  1  0     0  0
  5  3  1  0     0  0
 12 13  2  0     0  0
M  END