
  SciTegic01181116592D

 19 21  0  0  0  0            999 V2000
   -7.1151  -15.1308    0.0000 C   0  0
   -6.3805  -14.7927    0.0000 N   0  0
   -6.9634  -14.3844    0.0000 C   0  0
   -5.5506  -15.1415    0.0000 C   0  0
   -6.5104  -13.7715    0.0000 C   0  0
   -6.2366  -14.0592    0.0000 C   0  0
   -5.4468  -14.4019    0.0000 C   0  0  1  0  0  0
   -6.2739  -13.1777    0.0000 C   0  0
   -4.7262  -13.9985    0.0000 O   0  0
   -4.0167  -14.4209    0.0000 C   0  0
   -3.2961  -14.0175    0.0000 N   0  0
   -4.0276  -15.2466    0.0000 O   0  0
   -2.5865  -14.4399    0.0000 C   0  0
   -2.5996  -15.2656    0.0000 C   0  0
   -1.8908  -15.6878    0.0000 C   0  0
   -1.1692  -15.2845    0.0000 C   0  0
   -1.1608  -14.4545    0.0000 C   0  0
   -1.8703  -14.0360    0.0000 C   0  0
   -0.4590  -15.7059    0.0000 Br  0  0
  7  9  1  1
  1  2  1  0
  9 10  1  0
  1  3  1  0
 10 11  1  0
  2  4  1  0
 10 12  2  0
  2  5  1  0
 11 13  1  0
  3  6  1  0
 13 14  2  0
  4  7  1  0
 14 15  1  0
  5  8  1  0
 15 16  2  0
  6  7  1  0
 16 17  1  0
  6  8  1  0
 17 18  2  0
 18 13  1  0
 16 19  1  0
M  END