
  SciTegic08171211382D

136129  0  0  0  0            999 V2000
    0.0000    0.0000    0.0000 Na  0  3
    1.0018    0.0000    0.0000 Na  0  3
    2.0036    0.0000    0.0000 Na  0  3
    3.0054    0.0000    0.0000 Na  0  3
    0.0000   -1.6500    0.0000 Na  0  3
    1.0018   -1.6500    0.0000 Na  0  3
    2.0036   -1.6500    0.0000 Na  0  3
    3.0054   -1.6500    0.0000 Na  0  3
    0.0000   -3.3000    0.0000 Na  0  3
    1.0018   -3.3000    0.0000 Na  0  3
    2.0036   -3.3000    0.0000 Na  0  3
    3.0054   -3.3000    0.0000 Na  0  3
    0.0000  -11.8007    0.0000 Na  0  3
   11.2917  -14.3270    0.0000 O   0  0
   10.5772  -14.7395    0.0000 C   0  0  1  0  0  0
    9.8628  -13.5020    0.0000 O   0  0
    9.1483  -14.7395    0.0000 C   0  0  1  0  0  0
    8.4338  -14.3270    0.0000 O   0  0
    9.1483  -15.5645    0.0000 C   0  0  2  0  0  0
    8.4338  -15.9770    0.0000 O   0  0
    9.8628  -15.9770    0.0000 C   0  0  2  0  0  0
   10.5772  -15.5645    0.0000 O   0  0
    9.8628  -16.8020    0.0000 C   0  0
   10.5772  -17.2145    0.0000 O   0  0
   10.5772  -18.0395    0.0000 S   0  0
   11.4022  -18.0395    0.0000 O   0  0
    9.7522  -18.0395    0.0000 O   0  0
   10.5772  -18.8645    0.0000 O   0  5
    8.4338  -16.8020    0.0000 S   0  0
    9.2588  -16.8020    0.0000 O   0  0
    7.6088  -16.8020    0.0000 O   0  0
    8.4338  -17.6270    0.0000 O   0  5
    7.7193  -14.7395    0.0000 S   0  0
    7.3068  -14.0250    0.0000 O   0  0
    7.0049  -15.1520    0.0000 O   0  0
    8.1318  -15.4539    0.0000 O   0  5
    9.1483  -13.0895    0.0000 C   0  0  2  0  0  0
    9.1483  -12.2645    0.0000 C   0  0  1  0  0  0
    9.8628  -11.8520    0.0000 O   0  0
    8.4338  -11.0270    0.0000 O   0  0
    7.7193  -12.2645    0.0000 C   0  0  2  0  0  0
    7.0049  -11.8520    0.0000 O   0  0
    7.7193  -13.0895    0.0000 C   0  0  2  0  0  0
    8.4338  -13.5020    0.0000 O   0  0
    7.0049  -13.5020    0.0000 C   0  0
    6.2904  -13.0895    0.0000 O   0  0
    5.5759  -13.5020    0.0000 S   0  0
    5.1634  -12.7875    0.0000 O   0  0
    4.8615  -13.9145    0.0000 O   0  0
    5.9884  -14.2164    0.0000 O   0  5
    7.3316  -10.9015    0.0000 S   0  0
    7.8299  -11.0270    0.0000 O   0  0
    7.0049  -10.2020    0.0000 O   0  0
    6.1799  -11.0270    0.0000 O   0  5
    9.8628  -11.0270    0.0000 S   0  0
   10.6878  -11.0270    0.0000 O   0  0
    9.8628  -10.2020    0.0000 O   0  0
    9.0378  -11.0270    0.0000 O   0  5
    7.7193  -10.6145    0.0000 C   0  0  2  0  0  0
    7.7193   -9.7895    0.0000 C   0  0  1  0  0  0
    8.4338   -9.3770    0.0000 O   0  0
    7.0049   -8.5520    0.0000 O   0  0
    6.2904   -9.7895    0.0000 C   0  0  2  0  0  0
    5.5759   -9.3770    0.0000 O   0  0
    6.2904  -10.6145    0.0000 C   0  0  2  0  0  0
    7.0049  -11.0270    0.0000 O   0  0
    5.5759  -11.0270    0.0000 C   0  0
    4.8615  -10.6145    0.0000 O   0  0
    4.1470  -11.0270    0.0000 S   0  0
    3.7345  -10.3125    0.0000 O   0  0
    3.4325  -11.4395    0.0000 O   0  0
    4.5595  -11.7414    0.0000 O   0  5
    5.2492   -8.6774    0.0000 S   0  0
    6.4009   -8.5520    0.0000 O   0  0
    5.5759   -7.7270    0.0000 O   0  0
    4.7509   -8.5520    0.0000 O   0  5
    8.4338   -8.5520    0.0000 S   0  0
    9.2588   -8.5520    0.0000 O   0  0
    8.4338   -7.7270    0.0000 O   0  0
    7.6088   -8.5520    0.0000 O   0  5
    6.2904   -8.1395    0.0000 C   0  0  2  0  0  0
    6.2904   -7.3145    0.0000 C   0  0  1  0  0  0
    7.0049   -6.9020    0.0000 O   0  0
    5.5759   -6.9020    0.0000 C   0  0  1  0  0  0
    5.5759   -6.0770    0.0000 O   0  0
    4.8615   -7.3145    0.0000 C   0  0  2  0  0  0
    4.1470   -6.9020    0.0000 O   0  0
    4.8615   -8.1395    0.0000 C   0  0  2  0  0  0
    5.5759   -8.5520    0.0000 O   0  0
    4.1470   -8.5520    0.0000 C   0  0
    3.4325   -8.1395    0.0000 O   0  0
    2.7180   -8.5520    0.0000 S   0  0
    2.0036   -8.9645    0.0000 O   0  0
    2.3055   -7.8375    0.0000 O   0  0
    3.1305   -9.2664    0.0000 O   0  5
    4.1470   -6.0770    0.0000 S   0  0
    3.3220   -6.0770    0.0000 O   0  0
    4.9720   -6.0770    0.0000 O   0  0
    4.4738   -5.1265    0.0000 O   0  5
    4.8615   -5.6645    0.0000 S   0  0
    4.4490   -6.3789    0.0000 O   0  0
    5.2740   -4.9500    0.0000 O   0  0
    4.1470   -5.2520    0.0000 O   0  5
    7.0049   -6.0770    0.0000 S   0  0
    7.8299   -6.0770    0.0000 O   0  0
    7.0049   -5.2520    0.0000 O   0  0
    6.1799   -6.0770    0.0000 O   0  5
   12.0062  -14.7395    0.0000 C   0  0
   12.7206  -14.3270    0.0000 C   0  0
   13.4351  -14.7395    0.0000 C   0  0
   14.1496  -14.3270    0.0000 C   0  0
   14.8640  -14.7395    0.0000 C   0  0
   15.5785  -14.3270    0.0000 C   0  0
   16.2930  -14.7395    0.0000 C   0  0
   17.0075  -14.3270    0.0000 C   0  0
   17.7219  -14.7395    0.0000 N   0  0
   17.8082  -15.5600    0.0000 N   0  0
   18.6151  -15.7315    0.0000 N   0  0
   19.0276  -15.0170    0.0000 C   0  0
   18.4756  -14.4039    0.0000 C   0  0
   19.8481  -14.9308    0.0000 C   0  0
   20.1837  -14.1771    0.0000 C   0  0
   21.0042  -14.0909    0.0000 C   0  0
   21.4891  -14.7583    0.0000 C   0  0
   21.1535  -15.5120    0.0000 C   0  0
   21.6384  -16.1794    0.0000 C   0  0
   21.3029  -16.9331    0.0000 C   0  0
   20.4824  -17.0193    0.0000 C   0  0
   19.9975  -16.3519    0.0000 C   0  0
   20.3330  -15.5982    0.0000 C   0  0
    8.4338  -11.8520    0.0000 C   0  0  1  0  0  0
    9.1483  -11.4395    0.0000 H   0  0
    7.0049   -9.3770    0.0000 C   0  0  1  0  0  0
    7.7193   -8.9645    0.0000 H   0  0
    9.8628  -14.3270    0.0000 C   0  0  1  0  0  0
   10.5772  -13.9145    0.0000 H   0  0
 15 14  1  1
 15135  1  0
135 16  1  6
135 17  1  0
 17 18  1  6
 17 19  1  0
 19 20  1  1
 19 21  1  0
 21 22  1  0
 21 23  1  6
 23 24  1  0
 15 22  1  0
 25 26  2  0
 25 27  2  0
 25 28  1  0
 24 25  1  0
 29 30  2  0
 29 31  2  0
 29 32  1  0
 20 29  1  0
 33 34  2  0
 33 35  2  0
 33 36  1  0
 18 33  1  0
 37 38  1  0
 38 39  1  6
 38131  1  0
131 40  1  6
131 41  1  0
 41 42  1  1
 41 43  1  0
 43 44  1  0
 43 45  1  6
 45 46  1  0
 37 44  1  0
 47 48  2  0
 47 49  2  0
 47 50  1  0
 46 47  1  0
 51 52  2  0
 51 53  2  0
 51 54  1  0
 42 51  1  0
 55 56  2  0
 55 57  2  0
 55 58  1  0
 39 55  1  0
 59 60  1  0
 60 61  1  6
 60133  1  0
133 62  1  6
133 63  1  0
 63 64  1  1
 63 65  1  0
 65 66  1  0
 65 67  1  6
 67 68  1  0
 59 66  1  0
 69 70  2  0
 69 71  2  0
 69 72  1  0
 68 69  1  0
 73 74  2  0
 73 75  2  0
 73 76  1  0
 64 73  1  0
 77 78  2  0
 77 79  2  0
 77 80  1  0
 61 77  1  0
 81 82  1  0
 82 83  1  6
 82 84  1  0
 84 85  1  6
 84 86  1  0
 86 87  1  1
 86 88  1  0
 88 89  1  0
 88 90  1  6
 90 91  1  0
 81 89  1  0
 92 93  2  0
 92 94  2  0
 92 95  1  0
 91 92  1  0
 96 97  2  0
 96 98  2  0
 96 99  1  0
 87 96  1  0
100101  2  0
100102  2  0
100103  1  0
 85100  1  0
104105  2  0
104106  2  0
104107  1  0
 83104  1  0
 81 62  1  1
 59 40  1  1
 37 16  1  1
108109  1  0
109110  1  0
110111  1  0
111112  1  0
112113  1  0
113114  1  0
114115  1  0
116117  1  0
117118  2  0
118119  1  0
119120  2  0
116120  1  0
121122  1  0
122123  2  0
123124  1  0
124125  2  0
125126  1  0
126127  2  0
127128  1  0
128129  2  0
129130  1  0
121130  2  0
125130  1  0
119121  1  0
115116  1  0
 14108  1  0
131132  1  1
133134  1  1
135136  1  1
M  CHG  8   1   1   2   1   3   1   4   1   5   1   6   1   7   1   8   1
M  CHG  8   9   1  10   1  11   1  12   1  13   1  28  -1  32  -1  36  -1
M  CHG  8  50  -1  54  -1  58  -1  72  -1  76  -1  80  -1  95  -1  99  -1
M  CHG  2 103  -1 107  -1
M  END