
  SciTegic01161211232D

 32 35  0  0  0  0            999 V2000
   -0.6982   -8.2385    0.0000 C   0  0  1  0  0  0
   -1.3684   -7.7500    0.0000 O   0  0
   -2.0344   -8.2385    0.0000 C   0  0
   -0.9579   -9.0230    0.0000 C   0  0  2  0  0  0
   -1.7831   -9.0230    0.0000 C   0  0  1  0  0  0
   -2.0368   -9.8080    0.0000 C   0  0  2  0  0  0
   -1.3684  -10.2949    0.0000 O   0  0
   -0.7001   -9.8080    0.0000 C   0  0
   -2.6124   -9.0188    0.0000 H   0  0
   -0.1327   -9.0230    0.0000 H   0  0
    0.0872   -7.9859    0.0000 C   0  0
    0.6968   -8.5365    0.0000 C   0  0
    1.4774   -8.2844    0.0000 C   0  0
    1.6540   -7.4766    0.0000 C   0  0
    1.0355   -6.9214    0.0000 C   0  0
    0.2532   -7.1805    0.0000 C   0  0
    2.4390   -7.2229    0.0000 O   0  0
    1.2045   -6.1138    0.0000 O   0  0
    1.9890   -5.8584    0.0000 C   0  0
    2.0907   -8.8391    0.0000 O   0  0
    1.9184   -9.6460    0.0000 C   0  0
   -2.8218  -10.0617    0.0000 C   0  0
   -3.4322   -9.5094    0.0000 C   0  0
   -4.2124   -9.7625    0.0000 C   0  0
   -4.3879  -10.5705    0.0000 C   0  0
   -3.7687  -11.1249    0.0000 C   0  0
   -2.9867  -10.8648    0.0000 C   0  0
   -5.1726  -10.8252    0.0000 O   0  0
   -4.8264   -9.2087    0.0000 O   0  0
   -4.6553   -8.4015    0.0000 C   0  0
   -3.9366  -11.9327    0.0000 O   0  0
   -4.7206  -12.1892    0.0000 C   0  0
  6  7  1  0
 15 16  2  0
 16 11  1  0
  7  8  1  0
 14 17  1  0
  8  4  1  0
 15 18  1  0
  4  5  1  0
 18 19  1  0
  5  9  1  6
 13 20  1  0
 20 21  1  0
  4 10  1  6
  6 22  1  6
  4  1  1  0
 22 23  2  0
  1 11  1  6
 23 24  1  0
  1  2  1  0
 24 25  2  0
 11 12  2  0
 25 26  1  0
  2  3  1  0
 26 27  2  0
 27 22  1  0
 12 13  1  0
 25 28  1  0
  3  5  1  0
 24 29  1  0
 13 14  2  0
 29 30  1  0
  5  6  1  0
 26 31  1  0
 14 15  1  0
 31 32  1  0
M  END