
  SciTegic01161211242D

 20 19  0  0  0  0            999 V2000
    2.5973   -1.5031    0.0000 C   0  0
    2.5951   -3.0039    0.0000 C   0  0
    1.2990   -0.7500    0.0000 C   0  0
    1.5548   -3.6021    0.0000 O   0  0
    3.8933   -3.7570    0.0000 O   0  0
    5.1873   -7.5117    0.0000 N   0  0
    3.8999   -0.7576    0.0000 C   0  0
    8.9855   -4.1328    0.0000 Cl  0  0
    3.8912   -5.2578    0.0000 C   0  0
    4.9372   -1.3609    0.0000 O   0  0
    5.1894   -6.0109    0.0000 C   0  0
    1.2990    0.7500    0.0000 C   0  0
    0.0000   -1.5000    0.0000 C   0  0
    6.4855   -8.2648    0.0000 C   0  0
    3.8877   -8.2626    0.0000 C   0  0
    6.4838   -9.4648    0.0000 C   0  0
    3.8874   -9.4626    0.0000 C   0  0
   -1.2990   -0.7500    0.0000 C   0  0
    0.0000    1.5000    0.0000 C   0  0
   -1.2990    0.7500    0.0000 C   0  0
  1  2  1  0
  1  3  1  0
  2  4  2  0
  2  5  1  0
  1  7  1  0
  5  9  1  0
  7 10  1  0
  6 11  1  0
  9 11  1  0
  3 12  1  0
  3 13  2  0
  6 14  1  0
  6 15  1  0
 14 16  1  0
 15 17  1  0
 13 18  1  0
 12 19  2  0
 18 20  2  0
 19 20  1  0
M  END