
          11280715052D 1   1.00000     0.00000     0

 44 50  0     1  0            999 V2000
    1.9792   -0.8792    0.0000 N   0  0  3  0  0  0           0  0  0
    2.4625   -0.5292    0.0000 C   0  0  0  0  0  0           0  0  0
    2.2750    0.0458    0.0000 N   0  0  3  0  0  0           0  0  0
    1.6750    0.0458    0.0000 N   0  0  0  0  0  0           0  0  0
    1.4917   -0.5292    0.0000 C   0  0  0  0  0  0           0  0  0
    3.5750    0.9583    0.0000 C   0  0  3  0  0  0           0  0  0
    4.5667   -1.7792    0.0000 C   0  0  0  0  0  0           0  0  0
    4.2667   -0.8625    0.0000 N   0  0  0  0  0  0           0  0  0
    4.0792   -1.4292    0.0000 N   0  0  0  0  0  0           0  0  0
    4.8667   -0.8542    0.0000 N   0  0  0  0  0  0           0  0  0
    5.0542   -1.4292    0.0000 N   0  0  0  0  0  0           0  0  0
    2.6292    0.5333    0.0000 C   0  0  0  0  0  0           0  0  0
    3.2250    0.4708    0.0000 C   0  0  0  0  0  0           0  0  0
    4.5750   -2.3792    0.0000 C   0  0  0  0  0  0           0  0  0
    4.0542   -2.6792    0.0000 C   0  0  0  0  0  0           0  0  0
    1.9792   -1.4792    0.0000 C   0  0  0  0  0  0           0  0  0
    4.2000    1.0333    0.0000 C   0  0  0  0  0  0           0  0  0
    4.0917    0.7375    0.0000 C   0  0  0  0  0  0           0  0  0
    3.3250    1.4875    0.0000 C   0  0  0  0  0  0           0  0  0
    3.0292   -0.7125    0.0000 O   0  0  0  0  0  0           0  0  0
    3.7292    1.9250    0.0000 C   0  0  1  0  0  0           0  0  0
    4.4750    1.1708    0.0000 C   0  0  2  0  0  0           0  0  0
    4.6125    1.4958    0.0000 C   0  0  2  0  0  0           0  0  0
    3.5375   -2.3792    0.0000 C   0  0  0  0  0  0           0  0  0
    3.4667   -0.0792    0.0000 O   0  0  0  0  0  0           0  0  0
    4.3542    2.0250    0.0000 C   0  0  0  0  0  0           0  0  0
    5.1542    1.2250    0.0000 C   0  0  0  0  0  0           0  0  0
    4.2250    1.6583    0.0000 C   0  0  0  0  0  0           0  0  0
    3.0250   -2.6792    0.0000 C   0  0  0  0  0  0           0  0  0
    3.5417   -1.7792    0.0000 C   0  0  0  0  0  0           0  0  0
    2.5000   -1.7792    0.0000 C   0  0  0  0  0  0           0  0  0
    0.9250   -0.7167    0.0000 C   0  0  0  0  0  0           0  0  0
    2.5042   -2.3792    0.0000 C   0  0  0  0  0  0           0  0  0
    3.0167   -1.4792    0.0000 C   0  0  0  0  0  0           0  0  0
    5.0917   -2.6792    0.0000 C   0  0  0  0  0  0           0  0  0
    4.0542   -3.2792    0.0000 C   0  0  0  0  0  0           0  0  0
    0.4750   -0.3167    0.0000 C   0  0  0  0  0  0           0  0  0
   -0.0958   -0.5042    0.0000 C   0  0  0  0  0  0           0  0  0
    4.5750   -3.5792    0.0000 C   0  0  0  0  0  0           0  0  0
    5.0917   -3.2792    0.0000 C   0  0  0  0  0  0           0  0  0
   -0.5458   -0.1042    0.0000 C   0  0  0  0  0  0           0  0  0
    5.0375    1.9208    0.0000 H   0  0  0  0  0  0           0  0  0
    4.7375    0.6333    0.0000 H   0  0  0  0  0  0           0  0  0
    3.4417    2.4583    0.0000 H   0  0  0  0  0  0           0  0  0
  2  1  1  0     0  0
  3  2  1  0     0  0
  4  5  2  0     0  0
  5  1  1  0     0  0
  6 13  1  0     0  0
  7 14  1  0     0  0
  8  9  2  0     0  0
  9  7  1  0     0  0
 10 11  1  0     0  0
 11  7  2  0     0  0
 12  3  1  0     0  0
 13 12  1  0     0  0
 14 15  2  0     0  0
 15 24  1  0     0  0
 16  1  1  0     0  0
 17  6  1  0     0  0
 18  6  1  0     0  0
 19  6  1  0     0  0
 20  2  2  0     0  0
 21 19  1  0     0  0
 22 18  1  0     0  0
 23 17  1  0     0  0
 24 30  2  0     0  0
 25 13  2  0     0  0
 26 21  1  0     0  0
 27 22  1  0     0  0
 28 21  1  0     0  0
 29 33  2  0     0  0
 30 34  1  0     0  0
 31 16  1  0     0  0
 32  5  1  0     0  0
 33 31  1  0     0  0
 34 31  2  0     0  0
 35 14  1  0     0  0
 36 15  1  0     0  0
 37 32  1  0     0  0
 38 37  1  0     0  0
 39 36  2  0     0  0
 40 39  1  0     0  0
 41 38  1  0     0  0
 23 42  1  1     0  0
 22 43  1  6     0  0
 21 44  1  6     0  0
  3  4  1  0     0  0
 29 24  1  0     0  0
 22 28  1  0     0  0
 23 26  1  0     0  0
 23 27  1  0     0  0
 35 40  2  0     0  0
 10  8  1  0     0  0
M  END