
          11280715052D 1   1.00000     0.00000     0

 35 38  0     1  0            999 V2000
    2.5542   -1.4375    0.0000 C   0  0  3  0  0  0           0  0  0
    4.3542   -1.4375    0.0000 N   0  0  3  0  0  0           0  0  0
    4.9417    1.6708    0.0000 C   0  0  3  0  0  0           0  0  0
    5.2542    1.1375    0.0000 C   0  0  0  0  0  0           0  0  0
    3.1542   -1.4375    0.0000 C   0  0  3  0  0  0           0  0  0
    5.8625    0.1083    0.0000 C   0  0  0  0  0  0           0  0  0
    2.5542   -2.0417    0.0000 C   0  0  0  0  0  0           0  0  0
    2.5542   -0.8292    0.0000 C   0  0  0  0  0  0           0  0  0
    5.8625    1.1375    0.0000 C   0  0  0  0  0  0           0  0  0
    4.9542    0.6250    0.0000 C   0  0  0  0  0  0           0  0  0
    6.1625    0.6250    0.0000 C   0  0  0  0  0  0           0  0  0
    5.2542    0.1083    0.0000 C   0  0  0  0  0  0           0  0  0
    3.4542   -1.9500    0.0000 C   0  0  0  0  0  0           0  0  0
    3.4542   -0.9167    0.0000 C   0  0  0  0  0  0           0  0  0
    4.0625   -0.9167    0.0000 C   0  0  0  0  0  0           0  0  0
    4.0625   -1.9500    0.0000 C   0  0  0  0  0  0           0  0  0
    1.9500   -1.4375    0.0000 O   0  0  0  0  0  0           0  0  0
    6.1625   -0.4042    0.0000 C   0  0  1  0  0  0           0  0  0
    4.9542   -1.4375    0.0000 C   0  0  0  0  0  0           0  0  0
    6.7667   -0.4042    0.0000 O   0  0  0  0  0  0           0  0  0
    5.2542   -0.9167    0.0000 C   0  0  0  0  0  0           0  0  0
    4.4167    1.3583    0.0000 C   0  0  0  0  0  0           0  0  0
    4.6292    2.2083    0.0000 C   0  0  0  0  0  0           0  0  0
    5.4750    1.9833    0.0000 C   0  0  0  0  0  0           0  0  0
    5.8625   -0.9167    0.0000 C   0  0  0  0  0  0           0  0  0
    3.0667   -0.5292    0.0000 C   0  0  0  0  0  0           0  0  0
    2.0375   -2.3375    0.0000 C   0  0  0  0  0  0           0  0  0
    3.0667   -2.3375    0.0000 C   0  0  0  0  0  0           0  0  0
    2.0375   -0.5292    0.0000 C   0  0  0  0  0  0           0  0  0
    2.0375   -2.9375    0.0000 C   0  0  0  0  0  0           0  0  0
    3.0667   -2.9375    0.0000 C   0  0  0  0  0  0           0  0  0
    2.0375    0.0708    0.0000 C   0  0  0  0  0  0           0  0  0
    3.0667    0.0708    0.0000 C   0  0  0  0  0  0           0  0  0
    2.5542   -3.2375    0.0000 C   0  0  0  0  0  0           0  0  0
    2.5542    0.3708    0.0000 C   0  0  0  0  0  0           0  0  0
  2 15  1  0     0  0
  3  4  1  0     0  0
  4 10  2  0     0  0
  5  1  1  0     0  0
  6 18  1  0     0  0
  7  1  1  0     0  0
  8  1  1  0     0  0
  9 11  2  0     0  0
 10 12  1  0     0  0
 11  6  1  0     0  0
 12  6  2  0     0  0
 13  5  1  0     0  0
 14  5  1  0     0  0
 15 14  1  0     0  0
 16 13  1  0     0  0
 17  1  1  0     0  0
 18 25  1  0     0  0
 19  2  1  0     0  0
 18 20  1  1     0  0
 21 19  1  0     0  0
 22  3  1  0     0  0
 23  3  1  0     0  0
 24  3  1  0     0  0
 25 21  1  0     0  0
 26  8  2  0     0  0
 27  7  2  0     0  0
 28  7  1  0     0  0
 29  8  1  0     0  0
 30 27  1  0     0  0
 31 28  2  0     0  0
 32 29  2  0     0  0
 33 26  1  0     0  0
 34 31  1  0     0  0
 35 32  1  0     0  0
  2 16  1  0     0  0
 33 35  2  0     0  0
 30 34  2  0     0  0
  4  9  1  0     0  0
M  END