
  Mrv0541 05211314572D          

 36 40  0  0  0  0            999 V2000
   -3.9227    2.5044    0.0000 C   0  0  0  0  0  0  0  0  0  0  0  0
   -3.2083    2.9169    0.0000 C   0  0  0  0  0  0  0  0  0  0  0  0
   -2.4938    2.5044    0.0000 C   0  0  0  0  0  0  0  0  0  0  0  0
   -2.4938    1.6794    0.0000 C   0  0  0  0  0  0  0  0  0  0  0  0
   -3.9227    1.6794    0.0000 C   0  0  0  0  0  0  0  0  0  0  0  0
   -3.2083    1.2669    0.0000 C   0  0  0  0  0  0  0  0  0  0  0  0
   -3.2083    0.4419    0.0000 C   0  0  0  0  0  0  0  0  0  0  0  0
   -4.6372    1.2669    0.0000 O   0  0  0  0  0  0  0  0  0  0  0  0
   -4.6372    0.4419    0.0000 C   0  0  0  0  0  0  0  0  0  0  0  0
   -3.9227    0.0294    0.0000 C   0  0  0  0  0  0  0  0  0  0  0  0
   -3.9227   -0.7956    0.0000 C   0  0  0  0  0  0  0  0  0  0  0  0
   -4.6372   -1.2081    0.0000 C   0  0  0  0  0  0  0  0  0  0  0  0
   -5.3517   -0.7956    0.0000 C   0  0  0  0  0  0  0  0  0  0  0  0
   -5.3517    0.0294    0.0000 C   0  0  0  0  0  0  0  0  0  0  0  0
   -2.4938    0.0294    0.0000 C   0  0  0  0  0  0  0  0  0  0  0  0
   -1.7793    0.4419    0.0000 C   0  0  0  0  0  0  0  0  0  0  0  0
   -1.0649    0.0294    0.0000 N   0  0  0  0  0  0  0  0  0  0  0  0
   -1.0649   -0.7956    0.0000 C   0  0  0  0  0  0  0  0  0  0  0  0
   -0.3504    0.4419    0.0000 C   0  0  0  0  0  0  0  0  0  0  0  0
    0.3641    0.0294    0.0000 C   0  0  0  0  0  0  0  0  0  0  0  0
    1.0786    0.4419    0.0000 C   0  0  0  0  0  0  0  0  0  0  0  0
    1.0786    1.2669    0.0000 O   0  0  0  0  0  0  0  0  0  0  0  0
    1.7930    0.0294    0.0000 N   0  0  0  0  0  0  0  0  0  0  0  0
    2.5075    0.4419    0.0000 C   0  0  0  0  0  0  0  0  0  0  0  0
    3.2220    0.0294    0.0000 C   0  0  0  0  0  0  0  0  0  0  0  0
    3.2220   -0.7956    0.0000 N   0  0  0  0  0  0  0  0  0  0  0  0
    2.5075   -1.2081    0.0000 C   0  0  0  0  0  0  0  0  0  0  0  0
    1.7930   -0.7956    0.0000 C   0  0  0  0  0  0  0  0  0  0  0  0
    3.9364   -1.2081    0.0000 C   0  0  0  0  0  0  0  0  0  0  0  0
    4.6509   -0.7956    0.0000 C   0  0  0  0  0  0  0  0  0  0  0  0
    5.3654   -1.2081    0.0000 C   0  0  0  0  0  0  0  0  0  0  0  0
    5.3654   -2.0331    0.0000 C   0  0  0  0  0  0  0  0  0  0  0  0
    4.6509   -2.4456    0.0000 C   0  0  0  0  0  0  0  0  0  0  0  0
    3.9364   -2.0331    0.0000 C   0  0  0  0  0  0  0  0  0  0  0  0
    4.6509   -3.2706    0.0000 F   0  0  0  0  0  0  0  0  0  0  0  0
    6.0799   -2.4456    0.0000 F   0  0  0  0  0  0  0  0  0  0  0  0
 16 17  1  0  0  0  0
  7 10  1  0  0  0  0
 17 18  1  0  0  0  0
  9  8  1  0  0  0  0
 17 19  1  0  0  0  0
  9 10  2  0  0  0  0
 19 20  1  0  0  0  0
  3  4  2  0  0  0  0
 20 21  1  0  0  0  0
  4  6  1  0  0  0  0
 21 22  2  0  0  0  0
  5  6  2  0  0  0  0
 21 23  1  0  0  0  0
 23 24  1  0  0  0  0
  1  2  2  0  0  0  0
  1  5  1  0  0  0  0
  9 14  1  0  0  0  0
 10 11  1  0  0  0  0
 23 28  1  0  0  0  0
 24 25  1  0  0  0  0
 25 26  1  0  0  0  0
 26 27  1  0  0  0  0
 27 28  1  0  0  0  0
 11 12  2  0  0  0  0
 26 29  1  0  0  0  0
 12 13  1  0  0  0  0
 29 30  2  0  0  0  0
 13 14  2  0  0  0  0
 30 31  1  0  0  0  0
  2  3  1  0  0  0  0
 31 32  2  0  0  0  0
  7 15  1  0  0  0  0
 32 33  1  0  0  0  0
  5  8  1  0  0  0  0
 33 34  2  0  0  0  0
 34 29  1  0  0  0  0
 15 16  1  0  0  0  0
 33 35  1  0  0  0  0
  6  7  1  0  0  0  0
 32 36  1  0  0  0  0
M  END