
  SciTegic06051313552D

 34 37  0  0  0  0            999 V2000
   12.3184  -14.7796    0.0000 C   0  0
   12.3172  -15.5991    0.0000 C   0  0
   13.0253  -16.0081    0.0000 C   0  0
   13.0235  -14.3707    0.0000 C   0  0
   14.5159  -14.5199    0.0000 C   0  0
   13.7321  -14.7760    0.0000 C   0  0
   13.7346  -15.6012    0.0000 C   0  0
   14.5210  -15.8525    0.0000 N   0  0
   15.0017  -15.1817    0.0000 N   0  0
   14.7779  -16.6283    0.0000 C   0  0
   14.3596  -17.3293    0.0000 C   0  0
   13.5448  -17.3148    0.0000 C   0  0
   13.1258  -18.0155    0.0000 C   0  0
   13.5240  -18.7302    0.0000 C   0  0
   14.3453  -18.7397    0.0000 C   0  0
   14.7606  -18.0383    0.0000 C   0  0
   14.7459  -19.4520    0.0000 C   0  0
   14.3294  -20.1550    0.0000 N   0  0
   14.7300  -20.8673    0.0000 C   0  0
   14.9375  -13.8199    0.0000 N   0  0
   15.7546  -13.8351    0.0000 S   0  0
   16.2412  -14.4915    0.0000 C   0  0
   15.7271  -13.0114    0.0000 O   0  0
   16.5360  -13.5919    0.0000 O   0  0
   15.9962  -15.2731    0.0000 C   0  0
   16.6624  -15.7478    0.0000 C   0  0
   17.3191  -15.2595    0.0000 C   0  0
   17.0565  -14.4847    0.0000 S   0  0
   18.0993  -15.5028    0.0000 Cl  0  0
   13.0168  -13.5577    0.0000 O   0  0
   12.3058  -13.1549    0.0000 C   0  0
   15.5472  -20.8765    0.0000 O   0  0
   14.3135  -21.5704    0.0000 C   0  0
   11.6106  -14.3711    0.0000 F   0  0
  1  2  2  0
  2  3  1  0
  3  7  2  0
  6  4  2  0
  4  1  1  0
  6  7  1  0
  5  6  1  0
  7  8  1  0
  8  9  1  0
  9  5  2  0
  8 10  1  0
 10 11  1  0
 11 12  2  0
 12 13  1  0
 13 14  2  0
 14 15  1  0
 15 16  2  0
 16 11  1  0
 15 17  1  0
 17 18  1  0
 18 19  1  0
  5 20  1  0
 20 21  1  0
 21 22  1  0
 21 23  2  0
 21 24  2  0
 25 26  1  0
 22 25  2  0
 26 27  2  0
 27 28  1  0
 28 22  1  0
 27 29  1  0
  4 30  1  0
 30 31  1  0
 19 32  2  0
 33 19  1  0
  1 34  1  0
M  END