
          11280715422D 1   1.00000     0.00000     0

 29 31  0     0  0            999 V2000
    0.3000    0.9333    0.0000 C   0  0  0  0  0  0           0  0  0
   -0.6958    0.0458    0.0000 C   0  0  0  0  0  0           0  0  0
   -0.5208    0.8458    0.0000 N   0  0  0  0  0  0           0  0  0
    0.0167   -0.3792    0.0000 N   0  0  3  0  0  0           0  0  0
    0.6292    0.1833    0.0000 C   0  0  0  0  0  0           0  0  0
   -1.4208   -0.0417    0.0000 C   0  0  0  0  0  0           0  0  0
    0.7125    1.6458    0.0000 C   0  0  0  0  0  0           0  0  0
   -1.8333    0.6833    0.0000 C   0  0  0  0  0  0           0  0  0
    0.0125   -1.1917    0.0000 C   0  0  0  0  0  0           0  0  0
    1.5375    1.6458    0.0000 N   0  0  0  0  0  0           0  0  0
   -1.8458   -0.7542    0.0000 C   0  0  0  0  0  0           0  0  0
   -2.6583    0.6833    0.0000 C   0  0  0  0  0  0           0  0  0
    0.6792    2.4833    0.0000 O   0  0  0  0  0  0           0  0  0
    2.3292    1.8708    0.0000 O   0  0  0  0  0  0           0  0  0
    2.9125    1.2958    0.0000 C   0  0  3  0  0  0           0  0  0
    0.7167   -1.6042    0.0000 C   0  0  0  0  0  0           0  0  0
   -0.7000   -1.5917    0.0000 C   0  0  0  0  0  0           0  0  0
   -3.0750   -0.0292    0.0000 C   0  0  0  0  0  0           0  0  0
   -1.4208    1.3958    0.0000 Cl  0  0  0  0  0  0           0  0  0
    1.4375    0.0083    0.0000 C   0  0  0  0  0  0           0  0  0
   -2.6625   -0.7542    0.0000 C   0  0  0  0  0  0           0  0  0
    0.0000   -2.8292    0.0000 C   0  0  0  0  0  0           0  0  0
    0.7125   -2.4292    0.0000 C   0  0  0  0  0  0           0  0  0
   -0.7125   -2.4167    0.0000 C   0  0  0  0  0  0           0  0  0
   -3.9000   -0.0292    0.0000 Cl  0  0  0  0  0  0           0  0  0
   -0.0125   -3.6542    0.0000 Cl  0  0  0  0  0  0           0  0  0
    3.7125    1.5083    0.0000 C   0  0  0  0  0  0           0  0  0
    2.7042    0.4958    0.0000 C   0  0  0  0  0  0           0  0  0
    2.9125    2.1083    0.0000 C   0  0  0  0  0  0           0  0  0
  2  3  2  0     0  0
  3  1  1  0     0  0
  4  5  1  0     0  0
  5  1  2  0     0  0
  6  2  1  0     0  0
  7  1  1  0     0  0
  8  6  2  0     0  0
  9  4  1  0     0  0
 10  7  1  0     0  0
 11  6  1  0     0  0
 12  8  1  0     0  0
 13  7  2  0     0  0
 14 10  1  0     0  0
 15 14  1  0     0  0
 16  9  1  0     0  0
 17  9  2  0     0  0
 18 21  1  0     0  0
 19  8  1  0     0  0
 20  5  1  0     0  0
 21 11  2  0     0  0
 22 24  2  0     0  0
 23 16  2  0     0  0
 24 17  1  0     0  0
 25 18  1  0     0  0
 26 22  1  0     0  0
 27 15  1  0     0  0
 28 15  1  0     0  0
 29 15  1  0     0  0
  4  2  1  0     0  0
 22 23  1  0     0  0
 18 12  2  0     0  0
M  END