
  SciTegic12231509382D

 35 37  0  0  0  0            999 V2000
   18.2902   -2.9125    0.0000 C   0  0
   18.2891   -3.7398    0.0000 C   0  0
   19.0039   -4.1527    0.0000 C   0  0
   19.7203   -3.7394    0.0000 C   0  0
   19.7175   -2.9088    0.0000 C   0  0
   19.0021   -2.4997    0.0000 C   0  0
   20.4304   -2.4936    0.0000 C   0  0
   21.1464   -2.9034    0.0000 N   0  0
   20.4273   -1.6686    0.0000 O   0  0
   20.4355   -4.1507    0.0000 O   0  0
   17.5757   -2.5001    0.0000 O   0  0
   16.8613   -2.9128    0.0000 C   0  0
   16.1467   -2.5005    0.0000 C   0  0
   15.4324   -2.9131    0.0000 N   0  0
   14.7178   -2.5008    0.0000 C   0  0
   14.0034   -2.9135    0.0000 C   0  0
   13.2888   -2.5012    0.0000 C   0  0
   12.5745   -2.9138    0.0000 O   0  0
   14.0036   -3.7385    0.0000 O   0  0
   11.8599   -2.5015    0.0000 C   0  0
   11.8640   -1.6769    0.0000 C   0  0
   11.1503   -1.2647    0.0000 C   0  0
   10.4350   -1.6774    0.0000 C   0  0
   10.4378   -2.5067    0.0000 C   0  0
   11.1521   -2.9152    0.0000 C   0  0
    9.7205   -1.2649    0.0000 C   0  0
    9.6329   -0.4446    0.0000 N   0  0
    8.8257   -0.2743    0.0000 C   0  0
    8.4143   -0.9895    0.0000 C   0  0
    8.9673   -1.6016    0.0000 N   0  0
    8.4889    0.4711    0.0000 C   0  0
    8.9702    1.1412    0.0000 F   0  0
    7.6680    0.5529    0.0000 F   0  0
    8.2708    1.2750    0.0000 F   0  0
    8.7971   -2.4088    0.0000 C   0  0
  7  9  2  0
 18 20  1  0
  1  2  2  0
 20 21  2  0
  4 10  1  0
 21 22  1  0
  4  5  1  0
 22 23  2  0
  1 11  1  0
 23 24  1  0
 24 25  2  0
 25 20  1  0
 26 27  2  0
 11 12  1  0
  5  6  2  0
 12 13  1  0
  6  1  1  0
 13 14  1  0
 27 28  1  0
 28 29  2  0
 29 30  1  0
 30 26  1  0
 23 26  1  0
  2  3  1  0
 28 31  1  0
 14 15  1  0
 31 32  1  0
  5  7  1  0
 31 33  1  0
 15 16  1  0
 31 34  1  0
 30 35  1  0
 16 17  1  0
  7  8  1  0
 17 18  1  0
  3  4  2  0
 16 19  1  0
M  END