
  SciTegic06051313552D

 21 23  0  0  0  0            999 V2000
    4.0320   -4.6128    0.0000 C   0  0
    4.7417   -4.2034    0.0000 C   0  0
    4.7389   -3.3807    0.0000 C   0  0
    4.0302   -2.9754    0.0000 C   0  0
    5.4500   -4.6108    0.0000 N   0  0
    6.1571   -4.2011    0.0000 C   0  0
    6.8655   -4.6086    0.0000 N   0  0
    6.1558   -3.3839    0.0000 O   0  0
    7.5725   -4.1989    0.0000 C   0  0
    8.2809   -4.6064    0.0000 C   0  0
    8.9879   -4.1967    0.0000 C   0  0
    9.6952   -4.6095    0.0000 C   0  0
   10.4001   -4.2033    0.0000 C   0  0
   10.4031   -3.3858    0.0000 C   0  0
    9.6949   -2.9761    0.0000 C   0  0
    8.9837   -3.3840    0.0000 C   0  0
    2.5444   -4.4563    0.0000 S   0  0
    3.3240   -4.2038    0.0000 C   0  0
    3.3237   -3.3837    0.0000 C   0  0
    2.5430   -3.1319    0.0000 N   0  0
    2.0635   -3.7972    0.0000 N   0  0
 18  1  1  0
  1  2  2  0
  2  3  1  0
  3  4  2  0
  4 19  1  0
  2  5  1  0
  5  6  1  0
  6  7  1  0
  6  8  2  0
  7  9  1  0
  9 10  1  0
 10 11  1  0
 11 12  1  0
 11 16  2  0
 12 13  1  0
 13 14  1  0
 14 15  1  0
 15 16  1  0
 18 19  2  0
 17 18  1  0
 19 20  1  0
 20 21  2  0
 21 17  1  0
M  END