
  SciTegic01091216402D

 21 22  0  0  0  0            999 V2000
    8.2373   -6.1779    0.0000 N   0  0
    8.3332   -6.9961    0.0000 N   0  0
    9.1383   -7.1577    0.0000 C   0  0
    9.5413   -6.4419    0.0000 C   0  0
    8.9877   -5.8338    0.0000 C   0  0
    7.5194   -5.7714    0.0000 C   0  0
    6.8098   -6.1899    0.0000 N   0  0
    7.5112   -4.9465    0.0000 N   0  0
   10.3614   -6.3495    0.0000 C   0  0
   10.8550   -7.0118    0.0000 C   0  0
    8.2208   -4.5280    0.0000 C   0  0
    6.0919   -5.7834    0.0000 S   0  0
    5.3868   -6.1969    0.0000 C   0  0
    5.3915   -7.0208    0.0000 C   0  0
    4.6790   -7.4367    0.0000 C   0  0
    3.9618   -7.0288    0.0000 C   0  0
    3.9571   -6.2051    0.0000 C   0  0
    4.6696   -5.7891    0.0000 C   0  0
    4.6837   -8.2605    0.0000 Cl  0  0
    5.5047   -5.1926    0.0000 O   0  0
    6.4991   -5.0636    0.0000 O   0  0
  2  3  2  0
  3  4  1  0
  4  5  1  0
  1  5  1  0
  6  7  2  0
  6  8  1  0
  1  6  1  0
  9 10  1  0
  4  9  1  0
  8 11  1  0
 13 14  1  0
 14 15  2  0
 15 16  1  0
 16 17  2  0
 17 18  1  0
 13 18  2  0
 12 13  1  0
 15 19  1  0
  7 12  1  0
 12 20  2  0
  1  2  1  0
 12 21  2  0
M  END