
          11280715172D 1   1.00000     0.00000     0

 18 19  0     1  0            999 V2000
    6.1417   -2.4875    0.0000 N   0  0  3  0  0  0           0  0  0
    5.4292   -2.9000    0.0000 C   0  0  1  0  0  0           0  0  0
    6.8542   -2.9000    0.0000 C   0  0  0  0  0  0           0  0  0
    7.5667   -2.4875    0.0000 N   0  0  0  0  0  0           0  0  0
    6.1417   -1.6625    0.0000 C   0  0  0  0  0  0           0  0  0
    5.3542   -3.7167    0.0000 C   0  0  1  0  0  0           0  0  0
    4.6792   -2.5625    0.0000 O   0  0  0  0  0  0           0  0  0
    6.8542   -1.2500    0.0000 C   0  0  0  0  0  0           0  0  0
    7.5667   -1.6625    0.0000 C   0  0  0  0  0  0           0  0  0
    4.5417   -3.8917    0.0000 C   0  0  1  0  0  0           0  0  0
    4.1292   -3.1750    0.0000 C   0  0  1  0  0  0           0  0  0
    6.8542   -3.7250    0.0000 O   0  0  0  0  0  0           0  0  0
    8.2917   -1.2500    0.0000 O   0  0  0  0  0  0           0  0  0
    5.9667   -4.2667    0.0000 O   0  0  0  0  0  0           0  0  0
    4.2042   -4.6500    0.0000 O   0  0  0  0  0  0           0  0  0
    6.8542   -0.4250    0.0000 C   0  0  0  0  0  0           0  0  0
    3.3042   -3.0917    0.0000 C   0  0  0  0  0  0           0  0  0
    2.8167   -3.7625    0.0000 O   0  0  0  0  0  0           0  0  0
  2  1  1  1     0  0
  3  1  1  0     0  0
  4  3  1  0     0  0
  5  1  1  0     0  0
  6  2  1  0     0  0
  7  2  1  0     0  0
  8  5  2  0     0  0
  9  8  1  0     0  0
 10  6  1  0     0  0
 11  7  1  0     0  0
 12  3  2  0     0  0
 13  9  2  0     0  0
  6 14  1  6     0  0
 10 15  1  6     0  0
 16  8  1  0     0  0
 11 17  1  1     0  0
 18 17  1  0     0  0
  9  4  1  0     0  0
 10 11  1  0     0  0
M  END