
  SciTegic01161211252D

 34 34  0  0  0  0            999 V2000
   -0.2958   -6.1625    0.0000 S   0  0
    8.2875    0.4833    0.0000 C   0  0  2  0  0  0
    9.0042    0.0708    0.0000 C   0  0
    7.5750    0.0708    0.0000 C   0  0
    9.7917   -0.1667    0.0000 C   0  0
    2.5750   -4.4875    0.0000 C   0  0
    0.4250   -5.7375    0.0000 C   0  0
    8.2875    1.3083    0.0000 N   0  0
   -0.7208   -5.4417    0.0000 O   0  0
    0.1292   -6.8792    0.0000 O   0  0
    1.8542   -4.9042    0.0000 C   0  0
    8.4042   -0.4917    0.0000 O   0  0
   -1.0208   -6.5875    0.0000 N   0  0
    7.5750   -0.7625    0.0000 O   0  0
    2.5667   -3.6625    0.0000 O   0  0
    9.9792   -0.9750    0.0000 C   0  0
    0.4250   -4.9042    0.0000 C   0  0
    1.1375   -6.1500    0.0000 C   0  0
    1.1375   -4.4917    0.0000 C   0  0
    1.8542   -5.7375    0.0000 C   0  0
    6.8542    0.4833    0.0000 N   0  0
    3.2917   -4.9000    0.0000 N   0  0
   10.3917    0.3958    0.0000 N   0  0
    4.7167   -3.2417    0.0000 O   0  0
    5.4292   -1.1750    0.0000 O   0  0
   10.7667   -1.2042    0.0000 C   0  0
    4.0042   -4.4875    0.0000 C   0  0
    6.1417    0.0708    0.0000 C   0  0
    6.1417   -0.7625    0.0000 C   0  0
    4.0042   -3.6542    0.0000 C   0  0
    5.4292   -2.0042    0.0000 C   0  0
    4.7167   -2.4167    0.0000 C   0  0
   11.0375   -1.9917    0.0000 C   0  0
   11.4292   -0.7167    0.0000 C   0  0
  2  4  1  0
  2  3  1  6
  4 21  1  0
  5  3  1  0
  6 11  1  0
  7  1  1  0
  8  2  1  0
  9  1  2  0
 10  1  2  0
 11 20  1  0
 12  3  2  0
 13  1  1  0
 14  4  2  0
 15  6  2  0
 16  5  1  0
 17  7  2  0
 18  7  1  0
 19 17  1  0
 20 18  2  0
 21 28  1  0
 22  6  1  0
 23  5  1  0
 24 30  1  0
 25 31  1  0
 26 16  1  0
 27 22  1  0
 28 29  1  0
 29 25  1  0
 30 27  1  0
 31 32  1  0
 32 24  1  0
 33 26  1  0
 34 26  1  0
 11 19  2  0
M  END