
          11280716012D 1   1.00000     0.00000     0

 73 74  0     1  0            999 V2000
   -3.4583   -0.4292    0.0000 C   0  0  0  0  0  0           0  0  0
   -1.9125   -0.1292    0.0000 C   0  0  0  0  0  0           0  0  0
   -2.9500   -0.1292    0.0000 N   0  0  0  0  0  0           0  0  0
    0.0625    2.9958    0.0000 P   0  0  3  0  0  0           0  0  0
   -2.4333   -0.4292    0.0000 C   0  0  1  0  0  0           0  0  0
   -4.4750   -0.4292    0.0000 N   0  0  0  0  0  0           0  0  0
   -4.9833   -0.1292    0.0000 C   0  0  0  0  0  0           0  0  0
    1.1542   -0.1792    0.0000 C   0  0  0  0  0  0           0  0  0
   -0.3833   -0.4500    0.0000 C   0  0  0  0  0  0           0  0  0
   -1.4000   -0.4292    0.0000 N   0  0  0  0  0  0           0  0  0
    0.1375   -0.1542    0.0000 N   0  0  0  0  0  0           0  0  0
   -3.9625   -0.1292    0.0000 C   0  0  1  0  0  0           0  0  0
    1.6542   -0.4792    0.0000 N   0  0  0  0  0  0           0  0  0
    0.6375   -0.4667    0.0000 C   0  0  1  0  0  0           0  0  0
    0.6292   -1.0792    0.0000 C   0  0  0  0  0  0           0  0  0
    2.6750   -0.5000    0.0000 C   0  0  0  0  0  0           0  0  0
   -0.8833   -0.1500    0.0000 C   0  0  1  0  0  0           0  0  0
    2.1667   -0.2000    0.0000 C   0  0  2  0  0  0           0  0  0
    5.7292   -0.5417    0.0000 C   0  0  0  0  0  0           0  0  0
   -2.4333   -1.0250    0.0000 C   0  0  3  0  0  0           0  0  0
    4.7125   -0.5292    0.0000 N   0  0  0  0  0  0           0  0  0
    0.9042   -1.6250    0.0000 C   0  0  0  0  0  0           0  0  0
    4.2042   -0.2292    0.0000 C   0  0  0  0  0  0           0  0  0
    3.1875   -0.2167    0.0000 N   0  0  0  0  0  0           0  0  0
    5.2250   -0.2417    0.0000 C   0  0  1  0  0  0           0  0  0
   -5.4958   -0.4292    0.0000 C   0  0  2  0  0  0           0  0  0
    0.3417    2.4833    0.0000 O   0  0  0  0  0  0           0  0  0
    5.7542    1.2208    0.0000 C   0  0  0  0  0  0           0  0  0
   -0.4500    2.7083    0.0000 O   0  0  0  0  0  0           0  0  0
   -3.4583   -1.0167    0.0000 O   0  0  0  0  0  0           0  0  0
   -1.9125    0.4625    0.0000 O   0  0  0  0  0  0           0  0  0
   -4.9833    0.4583    0.0000 O   0  0  0  0  0  0           0  0  0
   -0.3875   -1.0375    0.0000 O   0  0  0  0  0  0           0  0  0
    1.1625    0.4083    0.0000 O   0  0  0  0  0  0           0  0  0
   -0.8750    0.4458    0.0000 C   0  0  0  0  0  0           0  0  0
    2.6625   -1.0917    0.0000 O   0  0  0  0  0  0           0  0  0
    5.7167   -1.1292    0.0000 O   0  0  0  0  0  0           0  0  0
    2.1792    0.3875    0.0000 C   0  0  0  0  0  0           0  0  0
    1.5292   -1.6542    0.0000 O   0  0  0  0  0  0           0  0  0
    4.2167    0.3583    0.0000 O   0  0  0  0  0  0           0  0  0
   -1.9208   -1.3167    0.0000 C   0  0  0  0  0  0           0  0  0
    6.2750    1.5000    0.0000 O   0  0  0  0  0  0           0  0  0
   -5.4958   -1.0167    0.0000 C   0  0  0  0  0  0           0  0  0
    5.2375    0.3458    0.0000 C   0  0  0  0  0  0           0  0  0
    0.5792    3.2708    0.0000 O   0  0  0  0  0  0           0  0  0
   -0.2250    3.5083    0.0000 O   0  0  0  0  0  0           0  0  0
    3.6917   -0.5125    0.0000 C   0  0  0  0  0  0           0  0  0
   -3.9625    0.4583    0.0000 C   0  0  3  0  0  0           0  0  0
    0.5792   -2.1542    0.0000 N   0  0  0  0  0  0           0  0  0
    5.7500    0.6250    0.0000 C   0  0  0  0  0  0           0  0  0
    0.0417    1.9750    0.0000 C   0  0  0  0  0  0           0  0  0
   -0.5625    0.9708    0.0000 C   0  0  0  0  0  0           0  0  0
   -6.0000   -0.1292    0.0000 N   0  0  0  0  0  0           0  0  0
    6.2417   -0.2542    0.0000 O   0  0  0  0  0  0           0  0  0
    5.2542    1.5125    0.0000 O   0  0  0  0  0  0           0  0  0
   -0.8458    1.4833    0.0000 C   0  0  0  0  0  0           0  0  0
    0.0250    0.9625    0.0000 C   0  0  0  0  0  0           0  0  0
    0.3292    1.4625    0.0000 C   0  0  0  0  0  0           0  0  0
   -0.5458    1.9875    0.0000 C   0  0  0  0  0  0           0  0  0
   -2.9500   -1.3167    0.0000 C   0  0  0  0  0  0           0  0  0
    2.4792    0.9000    0.0000 C   0  0  3  0  0  0           0  0  0
   -5.0833   -1.4375    0.0000 C   0  0  3  0  0  0           0  0  0
   -1.4083   -1.0250    0.0000 C   0  0  0  0  0  0           0  0  0
   -1.9208   -1.9167    0.0000 C   0  0  0  0  0  0           0  0  0
   -4.4750    0.7500    0.0000 C   0  0  0  0  0  0           0  0  0
   -3.4583    0.7500    0.0000 C   0  0  0  0  0  0           0  0  0
   -4.4958   -1.2875    0.0000 C   0  0  0  0  0  0           0  0  0
   -5.2250   -2.0167    0.0000 C   0  0  0  0  0  0           0  0  0
    3.0792    0.9000    0.0000 C   0  0  0  0  0  0           0  0  0
    2.1917    1.4208    0.0000 C   0  0  0  0  0  0           0  0  0
   -1.4083   -2.2125    0.0000 C   0  0  0  0  0  0           0  0  0
   -0.8958   -1.3167    0.0000 C   0  0  0  0  0  0           0  0  0
   -0.8958   -1.9167    0.0000 C   0  0  0  0  0  0           0  0  0
  2  5  1  0     0  0
  3  1  1  0     0  0
  4 27  1  0     0  0
  5  3  1  0     0  0
  6 12  1  0     0  0
  7  6  1  0     0  0
  8 14  1  0     0  0
  9 17  1  0     0  0
 10  2  1  0     0  0
 11  9  1  0     0  0
 12  1  1  0     0  0
 13  8  1  0     0  0
 14 11  1  0     0  0
 14 15  1  6     0  0
 16 18  1  0     0  0
 17 10  1  0     0  0
 18 13  1  0     0  0
 19 25  1  0     0  0
  5 20  1  6     0  0
 21 23  1  0     0  0
 22 15  1  0     0  0
 23 47  1  0     0  0
 24 16  1  0     0  0
 25 21  1  0     0  0
 26  7  1  0     0  0
 27 51  1  0     0  0
 28 50  1  0     0  0
 29  4  2  0     0  0
 30  1  2  0     0  0
 31  2  2  0     0  0
 32  7  2  0     0  0
 33  9  2  0     0  0
 34  8  2  0     0  0
 17 35  1  1     0  0
 36 16  2  0     0  0
 37 19  2  0     0  0
 18 38  1  1     0  0
 39 22  2  0     0  0
 40 23  2  0     0  0
 41 20  1  0     0  0
 42 28  2  0     0  0
 26 43  1  6     0  0
 25 44  1  1     0  0
 45  4  1  0     0  0
 46  4  1  0     0  0
 47 24  1  0     0  0
 12 48  1  1     0  0
 49 22  1  0     0  0
 50 44  1  0     0  0
 51 58  1  0     0  0
 52 35  1  0     0  0
 53 26  1  0     0  0
 54 19  1  0     0  0
 55 28  1  0     0  0
 56 52  2  0     0  0
 57 52  1  0     0  0
 58 57  2  0     0  0
 59 56  1  0     0  0
 60 20  1  0     0  0
 61 38  1  0     0  0
 62 43  1  0     0  0
 63 41  1  0     0  0
 64 41  2  0     0  0
 65 48  1  0     0  0
 66 48  1  0     0  0
 67 62  1  0     0  0
 68 62  1  0     0  0
 69 61  1  0     0  0
 70 61  1  0     0  0
 71 64  1  0     0  0
 72 63  2  0     0  0
 73 71  2  0     0  0
 73 72  1  0     0  0
 51 59  2  0     0  0
M  END