
  SciTegic06051313522D

 17 19  0  0  0  0            999 V2000
    2.7875   -1.4427    0.0000 N   0  0
    1.3700   -3.0771    0.0000 C   0  0
    0.6633   -2.6685    0.0000 N   0  0
    0.6633   -1.8513    0.0000 C   0  0
    1.3700   -1.4427    0.0000 C   0  0
    2.0808   -1.8513    0.0000 C   0  0
    2.0808   -2.6685    0.0000 N   0  0
    0.3901   -0.5592    0.0000 N   0  0
    0.0552   -1.3034    0.0000 N   0  0
    1.2035   -0.6450    0.0000 C   0  0
    3.4942   -1.8513    0.0000 C   0  0
    4.2008   -1.4427    0.0000 C   0  0
    4.9117   -1.8513    0.0000 C   0  0
    4.9117   -2.6685    0.0000 C   0  0
    4.2008   -3.0771    0.0000 C   0  0
    3.4942   -2.6685    0.0000 C   0  0
    4.2008   -0.6255    0.0000 F   0  0
  2  3  1  0
  3  4  2  0
  4  5  1  0
  5  6  2  0
  6  7  1  0
  2  7  2  0
  8  9  1  0
  8 10  2  0
  4  9  1  0
  5 10  1  0
  1  6  1  0
 11 12  1  0
 12 13  2  0
 13 14  1  0
 14 15  2  0
 15 16  1  0
 11 16  2  0
 12 17  1  0
  1 11  1  0
M  END