
  CDK    12/20/10,14:45

 31 32  0  0  0  0  0  0  0  0999 V2000
   -1.1958   -1.9625    0.0000 C   0  0  0  0  0  0  0  0  0  0  0  0
   -1.9083   -2.3750    0.0000 N   0  0  0  0  0  0  0  0  0  0  0  0
    0.2333   -3.6125    0.0000 C   0  0  0  0  0  0  0  0  0  0  0  0
   -1.9083    0.1000    0.0000 C   0  0  0  0  0  0  0  0  0  0  0  0
   -1.9083   -0.7250    0.0000 O   0  0  0  0  0  0  0  0  0  0  0  0
    0.2333   -4.4375    0.0000 N   0  0  0  0  0  0  0  0  0  0  0  0
   -0.4833   -3.2000    0.0000 C   0  0  0  0  0  0  0  0  0  0  0  0
   -0.4833   -2.3750    0.0000 C   0  0  0  0  0  0  0  0  0  0  0  0
   -1.1958   -1.1375    0.0000 O   0  0  0  0  0  0  0  0  0  0  0  0
    0.9458   -3.2000    0.0000 O   0  0  0  0  0  0  0  0  0  0  0  0
    0.9458   -4.8500    0.0000 C   0  0  0  0  0  0  0  0  0  0  0  0
   -2.6250    0.5125    0.0000 O   0  0  0  0  0  0  0  0  0  0  0  0
   -1.1958    0.5125    0.0000 C   0  0  0  0  0  0  0  0  0  0  0  0
   -2.6250   -1.9625    0.0000 C   0  0  0  0  0  0  0  0  0  0  0  0
    0.2333   -1.1375    0.0000 C   0  0  0  0  0  0  0  0  0  0  0  0
    0.9458   -0.7250    0.0000 C   0  0  0  0  0  0  0  0  0  0  0  0
   -2.6250   -1.1375    0.0000 C   0  0  0  0  0  0  0  0  0  0  0  0
   -1.1958    1.3375    0.0000 N   0  0  0  0  0  0  0  0  0  0  0  0
    0.9458   -5.6750    0.0000 C   0  0  0  0  0  0  0  0  0  0  0  0
    0.2333   -1.9625    0.0000 C   0  0  0  0  0  0  0  0  0  0  0  0
   -0.4833   -4.8500    0.0000 C   0  0  0  0  0  0  0  0  0  0  0  0
   -1.9083   -4.8500    0.0000 O   0  0  0  0  0  0  0  0  0  0  0  0
    0.3125    0.3208    0.0000 C   0  0  0  0  0  0  0  0  0  0  0  0
   -0.4833    0.1000    0.0000 C   0  0  0  0  0  0  0  0  0  0  0  0
   -1.1958   -4.4375    0.0000 C   0  0  0  0  0  0  0  0  0  0  0  0
   -3.3375   -2.3750    0.0000 C   0  0  0  0  0  0  0  0  0  0  0  0
    0.2292   -6.0833    0.0000 C   0  0  0  0  0  0  0  0  0  0  0  0
    1.6583   -6.0833    0.0000 C   0  0  0  0  0  0  0  0  0  0  0  0
    1.6625   -6.9042    0.0000 C   0  0  0  0  0  0  0  0  0  0  0  0
    0.2292   -6.9083    0.0000 C   0  0  0  0  0  0  0  0  0  0  0  0
    0.9458   -7.3208    0.0000 C   0  0  0  0  0  0  0  0  0  0  0  0
  2  1  1  0  0  0  0 
  3  7  1  0  0  0  0 
  4  5  1  0  0  0  0 
  5 17  1  0  0  0  0 
  6  3  1  0  0  0  0 
  8  7  1  1  0  0  0 
  8  1  1  0  0  0  0 
  9  1  2  0  0  0  0 
 10  3  2  0  0  0  0 
 11  6  1  0  0  0  0 
 12  4  2  0  0  0  0 
 13  4  1  0  0  0  0 
 14  2  1  0  0  0  0 
 15 20  1  0  0  0  0 
 16 15  2  0  0  0  0 
 17 14  1  0  0  0  0 
 13 18  1  1  0  0  0 
 19 11  1  0  0  0  0 
 20  8  1  0  0  0  0 
 21  6  1  0  0  0  0 
 22 25  1  0  0  0  0 
 23 16  1  0  0  0  0 
 24 23  1  0  0  0  0 
 25 21  1  0  0  0  0 
 14 26  1  1  0  0  0 
 27 19  2  0  0  0  0 
 28 19  1  0  0  0  0 
 29 28  2  0  0  0  0 
 30 27  1  0  0  0  0 
 31 29  1  0  0  0  0 
 24 13  1  0  0  0  0 
 31 30  2  0  0  0  0 
M  END