
          11280715472D 1   1.00000     0.00000     0

 29 31  0     0  0            999 V2000
    5.1000   -1.9917    0.0000 S   0  0  3  0  0  0           0  0  0
    4.3792   -2.4000    0.0000 N   0  0  0  0  0  0           0  0  0
    3.0167   -0.6542    0.0000 N   0  0  0  0  0  0           0  0  0
    3.6792   -1.1500    0.0000 N   0  0  3  0  0  0           0  0  0
    3.6667   -1.9750    0.0000 C   0  0  0  0  0  0           0  0  0
    3.2917    0.1208    0.0000 C   0  0  0  0  0  0           0  0  0
    4.1125    0.1125    0.0000 C   0  0  3  0  0  0           0  0  0
    4.3542   -0.6750    0.0000 C   0  0  0  0  0  0           0  0  0
    5.3000   -2.7917    0.0000 N   0  0  3  0  0  0           0  0  0
    5.1125   -1.1667    0.0000 O   0  0  0  0  0  0           0  0  0
    5.8042   -2.4167    0.0000 O   0  0  0  0  0  0           0  0  0
    2.8167    0.7958    0.0000 C   0  0  0  0  0  0           0  0  0
    4.6042    0.7750    0.0000 C   0  0  0  0  0  0           0  0  0
    2.9500   -2.3792    0.0000 N   0  0  0  0  0  0           0  0  0
    3.1625    1.5500    0.0000 C   0  0  0  0  0  0           0  0  0
    1.9917    0.7250    0.0000 C   0  0  0  0  0  0           0  0  0
    1.8667    2.1500    0.0000 C   0  0  0  0  0  0           0  0  0
    2.6875    2.2250    0.0000 C   0  0  0  0  0  0           0  0  0
    1.5167    1.4000    0.0000 C   0  0  0  0  0  0           0  0  0
    1.3917    2.8333    0.0000 Cl  0  0  0  0  0  0           0  0  0
    6.0917   -3.0167    0.0000 C   0  0  0  0  0  0           0  0  0
    4.7042   -3.3667    0.0000 C   0  0  0  0  0  0           0  0  0
    4.2792    1.5333    0.0000 C   0  0  0  0  0  0           0  0  0
    5.4250    0.6750    0.0000 C   0  0  0  0  0  0           0  0  0
    2.9375   -3.2042    0.0000 C   0  0  0  0  0  0           0  0  0
    6.2917   -3.8125    0.0000 C   0  0  0  0  0  0           0  0  0
    5.9167    1.3375    0.0000 C   0  0  0  0  0  0           0  0  0
    4.7667    2.1875    0.0000 C   0  0  0  0  0  0           0  0  0
    5.5917    2.0958    0.0000 C   0  0  0  0  0  0           0  0  0
  2  1  1  0     0  0
  3  4  1  0     0  0
  4  5  1  0     0  0
  5  2  1  0     0  0
  6  3  2  0     0  0
  7  8  1  0     0  0
  8  4  1  0     0  0
  9  1  1  0     0  0
 10  1  2  0     0  0
 11  1  2  0     0  0
 12  6  1  0     0  0
 13  7  1  0     0  0
 14  5  2  0     0  0
 15 12  1  0     0  0
 16 12  2  0     0  0
 17 19  2  0     0  0
 18 15  2  0     0  0
 19 16  1  0     0  0
 20 17  1  0     0  0
 21  9  1  0     0  0
 22  9  1  0     0  0
 23 13  1  0     0  0
 24 13  2  0     0  0
 25 14  1  0     0  0
 26 21  1  0     0  0
 27 24  1  0     0  0
 28 23  2  0     0  0
 29 27  2  0     0  0
  7  6  1  0     0  0
 18 17  1  0     0  0
 29 28  1  0     0  0
M  END