
          02060813482D 1   1.00000     0.00000     0

 22 24  0     0  0            999 V2000
    2.7861    2.1042    0.0000 C   0  0  0  0  0  0           0  0  0
    2.7849    1.2768    0.0000 C   0  0  0  0  0  0           0  0  0
    3.4997    0.8640    0.0000 C   0  0  0  0  0  0           0  0  0
    4.2162    1.2773    0.0000 C   0  0  0  0  0  0           0  0  0
    4.2133    2.1078    0.0000 C   0  0  0  0  0  0           0  0  0
    3.4979    2.5170    0.0000 C   0  0  0  0  0  0           0  0  0
    4.9262    2.5230    0.0000 O   0  0  0  0  0  0           0  0  0
    4.9313    0.8659    0.0000 C   0  0  0  0  0  0           0  0  0
    4.9277    0.0406    0.0000 C   0  0  0  0  0  0           0  0  0
    5.6420   -0.3707    0.0000 C   0  0  0  0  0  0           0  0  0
    6.3568    0.0430    0.0000 C   0  0  0  0  0  0           0  0  0
    6.3528    0.8722    0.0000 C   0  0  0  0  0  0           0  0  0
    5.6380    1.2798    0.0000 N   0  0  0  0  0  0           0  0  0
    7.0652    1.2884    0.0000 O   0  0  0  0  0  0           0  0  0
    7.0724   -0.3675    0.0000 C   0  0  0  0  0  0           0  0  0
    7.7833   -0.7792    0.0000 N   0  0  0  0  0  0           0  0  0
    5.6429   -1.1957    0.0000 C   0  0  0  0  0  0           0  0  0
    4.9294   -1.6041    0.0000 C   0  0  0  0  0  0           0  0  0
    4.9300   -2.4283    0.0000 C   0  0  0  0  0  0           0  0  0
    5.6454   -2.8409    0.0000 C   0  0  0  0  0  0           0  0  0
    6.3618   -2.4231    0.0000 C   0  0  0  0  0  0           0  0  0
    6.3577   -1.6003    0.0000 C   0  0  0  0  0  0           0  0  0
 10 11  2  0     0  0
  5  6  2  0     0  0
 11 12  1  0     0  0
  6  1  1  0     0  0
 12 13  1  0     0  0
 13  8  1  0     0  0
  1  2  2  0     0  0
 12 14  2  0     0  0
  5  7  1  0     0  0
 11 15  1  0     0  0
  3  4  2  0     0  0
 15 16  3  0     0  0
  4  8  1  0     0  0
 10 17  1  0     0  0
 17 18  2  0     0  0
  8  9  2  0     0  0
 18 19  1  0     0  0
  4  5  1  0     0  0
 19 20  2  0     0  0
  9 10  1  0     0  0
 20 21  1  0     0  0
  2  3  1  0     0  0
 21 22  2  0     0  0
 22 17  1  0     0  0
M  END