
  SciTegic01161211222D

 22 25  0  0  0  0            999 V2000
   10.5660  -11.7604    0.0000 C   0  0
   10.5660  -12.5873    0.0000 C   0  0
   11.2797  -12.9966    0.0000 C   0  0
   11.2797  -11.3428    0.0000 C   0  0
   11.9933  -11.7604    0.0000 C   0  0
   11.9898  -12.5873    0.0000 C   0  0
   12.7002  -13.0015    0.0000 C   0  0
   13.4187  -12.5934    0.0000 C   0  0
   12.7073  -11.3477    0.0000 C   0  0  2  0  0  0
   13.4183  -11.7690    0.0000 C   0  0
   13.4352  -10.1190    0.0000 C   0  0
   12.7126  -10.5235    0.0000 C   0  0
   14.1463  -10.5403    0.0000 C   0  0  1  0  0  0
   14.1373  -11.3638    0.0000 C   0  0  1  0  0  0
   14.9177  -11.6268    0.0000 C   0  0
   15.4090  -10.9657    0.0000 C   0  0
   14.9322  -10.2944    0.0000 C   0  0  2  0  0  0
    9.8505  -13.0018    0.0000 O   0  0
   14.1409   -9.7099    0.0000 C   0  0
   15.1963   -9.5108    0.0000 O   0  0
   12.7000  -12.1738    0.0000 H   0  0
   14.1325  -12.1906    0.0000 H   0  0
  5  6  1  0
  9 12  1  0
 10 14  1  0
 13 11  1  0
 11 12  1  0
 13 14  1  0
  1  2  2  0
  1  4  1  0
  2  3  1  0
  5  9  1  0
  6  7  1  0
 14 15  1  0
 15 16  1  0
 16 17  1  0
 17 13  1  0
  7  8  1  0
  2 18  1  0
  8 10  2  0
 13 19  1  1
  9 10  1  0
 17 20  1  1
  3  6  2  0
  9 21  1  6
  5  4  2  0
 14 22  1  6
M  END