
          11280714442D 1   1.00000     0.00000     0

 20 23  0     0  0            999 V2000
    1.4167   -0.1042    0.0000 C   0  0  0  0  0  0           0  0  0
    0.7167   -0.5250    0.0000 C   0  0  0  0  0  0           0  0  0
    1.4167    0.7083    0.0000 C   0  0  0  0  0  0           0  0  0
    0.0042   -0.1167    0.0000 C   0  0  0  0  0  0           0  0  0
    2.1167    1.1208    0.0000 C   0  0  0  0  0  0           0  0  0
   -0.7083   -0.5292    0.0000 C   0  0  0  0  0  0           0  0  0
    0.7000    1.1125    0.0000 C   0  0  0  0  0  0           0  0  0
   -0.0083    0.6958    0.0000 C   0  0  0  0  0  0           0  0  0
    2.1292   -0.5125    0.0000 C   0  0  0  0  0  0           0  0  0
    0.7250   -1.3542    0.0000 C   0  0  0  0  0  0           0  0  0
    2.8292    0.7208    0.0000 C   0  0  0  0  0  0           0  0  0
    2.8375   -0.0917    0.0000 C   0  0  0  0  0  0           0  0  0
   -0.7083   -1.3542    0.0000 C   0  0  0  0  0  0           0  0  0
    0.0125   -1.7667    0.0000 C   0  0  0  0  0  0           0  0  0
    2.1167    1.9583    0.0000 O   0  0  0  0  0  0           0  0  0
    3.5417    1.1375    0.0000 O   0  0  0  0  0  0           0  0  0
   -1.4208   -0.1167    0.0000 C   0  0  0  0  0  0           0  0  0
   -1.4208   -1.7750    0.0000 C   0  0  0  0  0  0           0  0  0
   -2.1333   -0.5375    0.0000 C   0  0  0  0  0  0           0  0  0
   -2.1333   -1.3625    0.0000 C   0  0  0  0  0  0           0  0  0
  2  1  1  0     0  0
  3  1  2  0     0  0
  4  2  2  0     0  0
  5  3  1  0     0  0
  6  4  1  0     0  0
  7  3  1  0     0  0
  8  7  2  0     0  0
  9  1  1  0     0  0
 10  2  1  0     0  0
 11 12  1  0     0  0
 12  9  2  0     0  0
 13 14  1  0     0  0
 14 10  2  0     0  0
 15  5  1  0     0  0
 16 11  1  0     0  0
 17  6  2  0     0  0
 18 13  2  0     0  0
 19 17  1  0     0  0
 20 18  1  0     0  0
 11  5  2  0     0  0
  8  4  1  0     0  0
  6 13  1  0     0  0
 19 20  2  0     0  0
M  END