
          08180812492D 1   1.00000     0.00000     0

 30 33  0     0  0            999 V2000
    0.3361   -1.5291    0.0000 C   0  0  0  0  0  0           0  0  0
    0.3349   -2.3565    0.0000 C   0  0  0  0  0  0           0  0  0
    1.0497   -2.7694    0.0000 C   0  0  0  0  0  0           0  0  0
    1.7662   -2.3560    0.0000 C   0  0  0  0  0  0           0  0  0
    1.7633   -1.5255    0.0000 C   0  0  0  0  0  0           0  0  0
    1.0479   -1.1164    0.0000 C   0  0  0  0  0  0           0  0  0
   -0.3798   -2.7682    0.0000 C   0  0  0  0  0  0           0  0  0
   -1.1223   -2.4086    0.0000 N   0  0  3  0  0  0           0  0  0
   -0.3805   -3.5934    0.0000 O   0  0  0  0  0  0           0  0  0
    2.4762   -1.1103    0.0000 O   0  0  0  0  0  0           0  0  0
    2.4731   -0.2853    0.0000 C   0  0  0  0  0  0           0  0  0
    3.1878    0.1251    0.0000 C   0  0  0  0  0  0           0  0  0
    3.1850    0.9493    0.0000 C   0  0  0  0  0  0           0  0  0
    2.4685    1.3599    0.0000 C   0  0  0  0  0  0           0  0  0
    1.7532    0.9403    0.0000 C   0  0  0  0  0  0           0  0  0
    1.7595    0.1174    0.0000 C   0  0  0  0  0  0           0  0  0
    2.4813   -2.7674    0.0000 C   0  0  0  0  0  0           0  0  0
    3.1951   -2.3538    0.0000 N   0  0  0  0  0  0           0  0  0
    3.9102   -2.7652    0.0000 C   0  0  0  0  0  0           0  0  0
   -1.7661   -2.9212    0.0000 C   0  0  0  0  0  0           0  0  0
   -2.5723   -2.7372    0.0000 C   0  0  0  0  0  0           0  0  0
   -1.1215   -1.5845    0.0000 C   0  0  0  0  0  0           0  0  0
   -2.9325   -1.9963    0.0000 C   0  0  0  0  0  0           0  0  0
   -1.7676   -1.0693    0.0000 C   0  0  0  0  0  0           0  0  0
   -2.5724   -1.2553    0.0000 N   0  0  3  0  0  0           0  0  0
   -3.0865   -0.6101    0.0000 C   0  0  3  0  0  0           0  0  0
   -3.2117    0.2089    0.0000 C   0  0  0  0  0  0           0  0  0
   -3.8569   -0.3052    0.0000 C   0  0  0  0  0  0           0  0  0
    2.4643    2.1849    0.0000 F   0  0  0  0  0  0           0  0  0
    3.8982    1.3641    0.0000 Cl  0  0  0  0  0  0           0  0  0
 14 15  1  0     0  0
  3  4  2  0     0  0
 15 16  2  0     0  0
 16 11  1  0     0  0
  7  8  1  0     0  0
  4 17  1  0     0  0
 17 18  1  0     0  0
  7  9  2  0     0  0
 18 19  1  0     0  0
  4  5  1  0     0  0
  8 20  1  0     0  0
  5 10  1  0     0  0
 20 21  1  0     0  0
  2  3  1  0     0  0
  8 22  1  0     0  0
 10 11  1  0     0  0
 21 23  1  0     0  0
  5  6  2  0     0  0
 22 24  1  0     0  0
 11 12  2  0     0  0
 23 25  1  0     0  0
 24 25  1  0     0  0
  6  1  1  0     0  0
 25 26  1  0     0  0
 27 26  1  0     0  0
 28 27  1  0     0  0
 26 28  1  0     0  0
 12 13  1  0     0  0
  1  2  2  0     0  0
 13 14  2  0     0  0
 14 29  1  0     0  0
  2  7  1  0     0  0
 13 30  1  0     0  0
M  END