
          11280715122D 1   1.00000     0.00000     0

 38 41  0     0  0            999 V2000
    7.2167   -3.6917    0.0000 C   0  0  0  0  0  0           0  0  0
    7.9292   -2.4500    0.0000 C   0  0  0  0  0  0           0  0  0
    7.9292   -4.1042    0.0000 C   0  0  0  0  0  0           0  0  0
    6.9417   -4.9917    0.0000 N   0  0  0  0  0  0           0  0  0
    7.2167   -2.8625    0.0000 C   0  0  0  0  0  0           0  0  0
    7.7625   -4.9042    0.0000 N   0  0  3  0  0  0           0  0  0
    6.6042   -4.2417    0.0000 C   0  0  0  0  0  0           0  0  0
    7.9292   -1.6250    0.0000 C   0  0  0  0  0  0           0  0  0
    8.6500   -3.6917    0.0000 N   0  0  0  0  0  0           0  0  0
    3.0542   -3.0917    0.0000 N   0  0  3  0  0  0           0  0  0
    8.6500   -2.8625    0.0000 C   0  0  0  0  0  0           0  0  0
    4.4792   -1.4292    0.0000 C   0  0  3  0  0  0           0  0  0
    2.3417   -2.6792    0.0000 C   0  0  0  0  0  0           0  0  0
    4.4917   -3.8792    0.0000 N   0  0  3  0  0  0           0  0  0
    8.6417   -1.2125    0.0000 N   0  0  3  0  0  0           0  0  0
    7.2167   -1.2167    0.0000 O   0  0  0  0  0  0           0  0  0
    2.3417   -1.8542    0.0000 C   0  0  0  0  0  0           0  0  0
    3.0542   -1.4375    0.0000 O   0  0  0  0  0  0           0  0  0
    3.0667   -3.9167    0.0000 C   0  0  0  0  0  0           0  0  0
    3.7625   -2.6667    0.0000 C   0  0  0  0  0  0           0  0  0
    6.5042   -2.4542    0.0000 N   0  0  0  0  0  0           0  0  0
    3.7667   -1.8417    0.0000 C   0  0  0  0  0  0           0  0  0
    5.1917   -1.0167    0.0000 F   0  0  0  0  0  0           0  0  0
    5.2000   -1.8417    0.0000 F   0  0  0  0  0  0           0  0  0
    4.4792   -0.6042    0.0000 F   0  0  0  0  0  0           0  0  0
    4.4792   -3.0625    0.0000 C   0  0  0  0  0  0           0  0  0
    3.7917   -4.3125    0.0000 C   0  0  0  0  0  0           0  0  0
    8.3167   -5.5167    0.0000 C   0  0  0  0  0  0           0  0  0
    5.8000   -4.0792    0.0000 C   0  0  0  0  0  0           0  0  0
    5.2167   -4.2792    0.0000 C   0  0  0  0  0  0           0  0  0
    5.8042   -3.6917    0.0000 C   0  0  0  0  0  0           0  0  0
    1.6250   -3.0917    0.0000 C   0  0  0  0  0  0           0  0  0
    5.7917   -2.8667    0.0000 C   0  0  0  0  0  0           0  0  0
    9.3542   -1.6167    0.0000 C   0  0  0  0  0  0           0  0  0
    8.6417   -0.3792    0.0000 C   0  0  0  0  0  0           0  0  0
    1.6250   -1.4417    0.0000 C   0  0  0  0  0  0           0  0  0
    0.9125   -2.6792    0.0000 C   0  0  0  0  0  0           0  0  0
    0.9125   -1.8542    0.0000 C   0  0  0  0  0  0           0  0  0
  2  5  1  0     0  0
  3  1  1  0     0  0
  4  7  2  0     0  0
  5  1  2  0     0  0
  6  3  1  0     0  0
  7  1  1  0     0  0
  8  2  1  0     0  0
  9  3  2  0     0  0
 10 19  1  0     0  0
 11  2  2  0     0  0
 12 22  1  0     0  0
 13 10  1  0     0  0
 14 30  1  0     0  0
 15  8  1  0     0  0
 16  8  2  0     0  0
 17 13  1  0     0  0
 18 17  1  0     0  0
 19 27  1  0     0  0
 20 26  1  0     0  0
 21  5  1  0     0  0
 22 18  1  0     0  0
 23 12  1  0     0  0
 24 12  1  0     0  0
 25 12  1  0     0  0
 26 14  1  0     0  0
 27 14  1  0     0  0
 28  6  1  0     0  0
 29  7  1  0     0  0
 30 31  1  0     0  0
 31 33  1  0     0  0
 32 13  2  0     0  0
 33 21  1  0     0  0
 34 15  1  0     0  0
 35 15  1  0     0  0
 36 17  2  0     0  0
 37 32  1  0     0  0
 38 37  2  0     0  0
  4  6  1  0     0  0
 11  9  1  0     0  0
 20 10  1  0     0  0
 38 36  1  0     0  0
M  END