
  SciTegic11081110012D

 35 37  0  0  0  0            999 V2000
   -6.5158   -5.9192    0.0000 C   0  0
   -6.3008   -6.6949    0.0000 C   0  0  1  0  0  0
   -4.6598   -5.8794    0.0000 C   0  0
   -4.8535   -6.7137    0.0000 N   0  0
   -5.5709   -7.0504    0.0000 C   0  0
   -5.5772   -7.8754    0.0000 O   0  0
   -7.0147   -7.1142    0.0000 N   0  0
   -7.7297   -6.7085    0.0000 C   0  0
   -8.4442   -7.1277    0.0000 C   0  0
   -7.7386   -5.8835    0.0000 O   0  0
   -4.1437   -7.1342    0.0000 C   0  0
   -3.4246   -6.7299    0.0000 C   0  0
   -2.7149   -7.1504    0.0000 N   0  0
   -3.4153   -5.9049    0.0000 O   0  0
   -5.9955   -5.2396    0.0000 C   0  0
   -5.1663   -5.2353    0.0000 C   0  0
   -4.7572   -4.5162    0.0000 C   0  0
   -5.1762   -3.8009    0.0000 C   0  0
   -6.0165   -3.8092    0.0000 C   0  0
   -6.4195   -4.5289    0.0000 C   0  0
   -1.9958   -6.7461    0.0000 C   0  0
   -1.2860   -7.1666    0.0000 C   0  0
   -1.2996   -7.9885    0.0000 C   0  0
   -0.5907   -8.4090    0.0000 C   0  0
    0.1294   -8.0045    0.0000 C   0  0
    0.1362   -7.1753    0.0000 C   0  0
   -0.5734   -6.7585    0.0000 C   0  0
    0.8538   -6.7684    0.0000 C   0  0
    1.5650   -7.1865    0.0000 F   0  0
    0.8603   -5.9434    0.0000 F   0  0
    1.5625   -6.3500    0.0000 F   0  0
   -0.6004   -9.2339    0.0000 C   0  0
   -1.3197   -9.6379    0.0000 F   0  0
    0.1091   -9.6548    0.0000 F   0  0
   -0.6083  -10.0583    0.0000 F   0  0
  7  8  1  0
 17 18  2  0
  3  4  1  0
 18 19  1  0
  8  9  1  0
 19 20  2  0
 20 15  1  0
  4  5  1  0
 13 21  1  0
  8 10  2  0
 21 22  1  0
  5  2  1  0
 22 23  2  0
  4 11  1  0
 23 24  1  0
 16  3  1  0
 24 25  2  0
 11 12  1  0
 25 26  1  0
 26 27  2  0
 27 22  1  0
 12 13  1  0
 26 28  1  0
  5  6  2  0
 28 29  1  0
 12 14  2  0
 28 30  1  0
 15  1  1  0
 28 31  1  0
  2  7  1  1
 24 32  1  0
 15 16  2  0
 32 33  1  0
  1  2  1  0
 32 34  1  0
 16 17  1  0
 32 35  1  0
M  END