
  SciTegic04151115542D

 23 24  0  0  0  0            999 V2000
    3.3569  -11.3166    0.0000 C   0  0
    3.3557  -12.1440    0.0000 C   0  0
    4.0706  -12.5569    0.0000 C   0  0
    4.7870  -12.1435    0.0000 C   0  0
    4.7841  -11.3130    0.0000 C   0  0
    4.0688  -10.9039    0.0000 C   0  0
    4.0704  -13.3819    0.0000 F   0  0
    2.6409  -12.5559    0.0000 Cl  0  0
    5.4971  -10.8978    0.0000 N   0  0
    6.2131  -11.3076    0.0000 C   0  0
    6.9260  -10.8924    0.0000 C   0  0
    6.2162  -12.1326    0.0000 O   0  0
    7.6420  -11.3022    0.0000 N   0  0
    6.9229  -10.0674    0.0000 O   0  0
    8.3549  -10.8870    0.0000 C   0  0
    8.3518  -10.0620    0.0000 C   0  0
    9.0647   -9.6469    0.0000 C   0  0
    9.7807  -10.0567    0.0000 N   0  0
    9.7839  -10.8817    0.0000 C   0  0
    9.0709  -11.2968    0.0000 C   0  0
   10.4937   -9.6415    0.0000 C   0  0
   11.2097  -10.0513    0.0000 C   0  0
   10.4905   -8.8165    0.0000 C   0  0
  5  6  2  0
 10 12  2  0
  6  1  1  0
 11 13  1  0
  1  2  2  0
 11 14  2  0
  3  7  1  0
 13 15  1  0
 15 20  1  0
  3  4  2  0
 15 16  1  0
  2  8  1  0
 16 17  1  0
 17 18  1  0
  5  9  1  0
 18 19  1  0
  4  5  1  0
 19 20  1  0
  9 10  1  0
 18 21  1  0
  2  3  1  0
 21 22  1  0
 10 11  1  0
 21 23  1  0
M  END