
          02060813472D 1   1.00000     0.00000     0

 74 77  0     1  0            999 V2000
   15.8135  -22.3067    0.0000 C   0  0  0  0  0  0           0  0  0
   15.0966  -21.8918    0.0000 S   0  0  0  0  0  0           0  0  0
   14.3776  -22.2980    0.0000 S   0  0  0  0  0  0           0  0  0
   13.6690  -21.8811    0.0000 C   0  0  0  0  0  0           0  0  0
   13.6748  -21.0528    0.0000 C   0  0  0  0  0  0           0  0  0
   12.9613  -20.6317    0.0000 C   0  0  0  0  0  0           0  0  0
   12.9723  -19.8074    0.0000 N   0  0  0  0  0  0           0  0  0
   12.2442  -21.0378    0.0000 O   0  0  0  0  0  0           0  0  0
   12.2556  -19.3885    0.0000 C   0  0  2  0  0  0           0  0  0
   12.2612  -18.5642    0.0000 C   0  0  0  0  0  0           0  0  0
   11.5364  -19.7933    0.0000 C   0  0  0  0  0  0           0  0  0
   10.8271  -19.3683    0.0000 C   0  0  0  0  0  0           0  0  0
   10.8396  -18.5449    0.0000 C   0  0  0  0  0  0           0  0  0
   10.1254  -18.1254    0.0000 C   0  0  0  0  0  0           0  0  0
    9.4075  -18.5320    0.0000 C   0  0  0  0  0  0           0  0  0
    9.3977  -19.3703    0.0000 C   0  0  0  0  0  0           0  0  0
   10.1094  -19.7809    0.0000 C   0  0  0  0  0  0           0  0  0
    8.6928  -18.1184    0.0000 O   0  0  0  0  0  0           0  0  0
   12.9878  -18.1580    0.0000 N   0  0  0  0  0  0           0  0  0
   11.5477  -18.1472    0.0000 O   0  0  0  0  0  0           0  0  0
   13.6971  -18.1667    0.0000 C   0  0  2  0  0  0           0  0  0
   14.4122  -18.1665    0.0000 C   0  0  0  0  0  0           0  0  0
   15.1257  -18.5868    0.0000 N   0  0  0  0  0  0           0  0  0
   14.4179  -17.3437    0.0000 O   0  0  0  0  0  0           0  0  0
   15.8458  -18.1807    0.0000 C   0  0  2  0  0  0           0  0  0
   16.5594  -18.5977    0.0000 C   0  0  0  0  0  0           0  0  0
   15.8516  -17.3524    0.0000 C   0  0  0  0  0  0           0  0  0
   16.5707  -16.9462    0.0000 C   0  0  0  0  0  0           0  0  0
   16.5764  -16.1219    0.0000 C   0  0  0  0  0  0           0  0  0
   17.2956  -15.7108    0.0000 N   0  0  0  0  0  0           0  0  0
   15.8670  -15.7049    0.0000 O   0  0  0  0  0  0           0  0  0
   17.2785  -18.1956    0.0000 O   0  0  0  0  0  0           0  0  0
   16.5538  -19.4220    0.0000 N   0  0  0  0  0  0           0  0  0
   17.2630  -19.8472    0.0000 C   0  0  2  0  0  0           0  0  0
   17.2573  -20.6715    0.0000 C   0  0  0  0  0  0           0  0  0
   17.9781  -19.4400    0.0000 C   0  0  0  0  0  0           0  0  0
   18.6926  -19.8612    0.0000 C   0  0  0  0  0  0           0  0  0
   19.4119  -19.4509    0.0000 N   0  0  0  0  0  0           0  0  0
   18.6870  -20.6855    0.0000 O   0  0  0  0  0  0           0  0  0
   16.5361  -21.0713    0.0000 N   0  0  0  0  0  0           0  0  0
   17.9605  -21.0861    0.0000 O   0  0  0  0  0  0           0  0  0
   16.5271  -21.9059    0.0000 C   0  0  2  0  0  0           0  0  0
   17.2406  -22.3208    0.0000 C   0  0  0  0  0  0           0  0  0
   17.9547  -21.9145    0.0000 O   0  0  0  0  0  0           0  0  0
   13.6916  -18.8681    0.0000 C   0  0  2  0  0  0           0  0  0
   13.6967  -17.3420    0.0000 H   0  0  0  0  0  0           0  0  0
   14.3691  -19.2038    0.0000 C   0  0  0  0  0  0           0  0  0
   14.3563  -20.1989    0.0000 C   0  0  0  0  0  0           0  0  0
   12.9820  -19.2608    0.0000 C   0  0  0  0  0  0           0  0  0
   17.2323  -23.1454    0.0000 N   0  0  3  0  0  0           0  0  0
   16.5154  -23.5498    0.0000 C   0  0  0  0  0  0           0  0  0
   17.9386  -24.3881    0.0000 C   0  0  0  0  0  0           0  0  0
   17.9470  -23.5640    0.0000 C   0  0  2  0  0  0           0  0  0
   18.6641  -23.1504    0.0000 C   0  0  0  0  0  0           0  0  0
   19.3742  -23.5718    0.0000 N   0  0  0  0  0  0           0  0  0
   18.6719  -22.3258    0.0000 O   0  0  0  0  0  0           0  0  0
   20.0962  -23.1678    0.0000 C   0  0  2  0  0  0           0  0  0
   20.8062  -23.5788    0.0000 C   0  0  0  0  0  0           0  0  0
   20.0978  -22.3432    0.0000 C   0  0  0  0  0  0           0  0  0
   20.8136  -21.9296    0.0000 C   0  0  3  0  0  0           0  0  0
   20.8247  -21.1049    0.0000 C   0  0  0  0  0  0           0  0  0
   21.5257  -22.3510    0.0000 C   0  0  0  0  0  0           0  0  0
   20.7984  -24.4034    0.0000 O   0  0  0  0  0  0           0  0  0
   21.5178  -23.1757    0.0000 N   0  0  0  0  0  0           0  0  0
   22.2280  -23.5962    0.0000 C   0  0  0  0  0  0           0  0  0
   22.9491  -23.1868    0.0000 C   0  0  0  0  0  0           0  0  0
   23.6654  -23.6040    0.0000 N   0  0  0  0  0  0           0  0  0
   22.9570  -22.3621    0.0000 O   0  0  0  0  0  0           0  0  0
   17.2163  -24.7929    0.0000 C   0  0  0  0  0  0           0  0  0
   16.5089  -24.3692    0.0000 C   0  0  0  0  0  0           0  0  0
   15.7924  -24.7709    0.0000 C   0  0  0  0  0  0           0  0  0
   15.7805  -25.5978    0.0000 C   0  0  0  0  0  0           0  0  0
   16.4925  -26.0173    0.0000 C   0  0  0  0  0  0           0  0  0
   17.2064  -25.6101    0.0000 C   0  0  0  0  0  0           0  0  0
 42  1  1  0     0  0
  1  2  1  0     0  0
  2  3  1  0     0  0
  3  4  1  0     0  0
  4  5  1  0     0  0
  5  6  1  0     0  0
  6  7  1  0     0  0
  6  8  2  0     0  0
  7  9  1  0     0  0
  9 10  1  0     0  0
  9 11  1  1     0  0
 11 12  1  0     0  0
 12 13  2  0     0  0
 13 14  1  0     0  0
 14 15  2  0     0  0
 15 16  1  0     0  0
 16 17  2  0     0  0
 17 12  1  0     0  0
 15 18  1  0     0  0
 10 19  1  0     0  0
 10 20  2  0     0  0
 19 21  1  0     0  0
 21 22  1  0     0  0
 22 23  1  0     0  0
 22 24  2  0     0  0
 23 25  1  0     0  0
 25 26  1  0     0  0
 25 27  1  1     0  0
 27 28  1  0     0  0
 28 29  1  0     0  0
 29 30  1  0     0  0
 29 31  2  0     0  0
 26 32  2  0     0  0
 26 33  1  0     0  0
 33 34  1  0     0  0
 34 35  1  0     0  0
 34 36  1  1     0  0
 36 37  1  0     0  0
 37 38  1  0     0  0
 37 39  2  0     0  0
 35 40  1  0     0  0
 35 41  2  0     0  0
 40 42  1  0     0  0
 42 43  1  6     0  0
 43 44  2  0     0  0
 21 45  1  0     0  0
 21 46  1  1     0  0
 45 47  1  0     0  0
 47 48  1  0     0  0
 45 49  1  6     0  0
 43 50  1  0     0  0
 50 51  1  0     0  0
 50 53  1  0     0  0
 51 70  1  0     0  0
 69 52  1  0     0  0
 52 53  1  0     0  0
 53 54  1  1     0  0
 54 55  1  0     0  0
 54 56  2  0     0  0
 55 57  1  0     0  0
 57 58  1  0     0  0
 57 59  1  1     0  0
 59 60  1  0     0  0
 60 61  1  0     0  0
 60 62  1  0     0  0
 58 63  2  0     0  0
 58 64  1  0     0  0
 64 65  1  0     0  0
 65 66  1  0     0  0
 66 67  1  0     0  0
 66 68  2  0     0  0
 69 70  2  0     0  0
 70 71  1  0     0  0
 71 72  2  0     0  0
 72 73  1  0     0  0
 73 74  2  0     0  0
 74 69  1  0     0  0
M  END