
  CDK    7/28/10,10:58

 20 20  0  0  0  0  0  0  0  0999 V2000
    7.0125   -2.6125    0.0000 N   0  0  0  0  0  0  0  0  0  0  0  0
    7.0167   -3.4417    0.0000 C   0  0  0  0  0  0  0  0  0  0  0  0
    7.7375   -3.8500    0.0000 C   0  0  0  0  0  0  0  0  0  0  0  0
    7.7417   -4.6792    0.0000 C   0  0  0  0  0  0  0  0  0  0  0  0
    8.4542   -5.0917    0.0000 C   0  0  0  0  0  0  0  0  0  0  0  0
    6.3125   -3.8625    0.0000 C   0  0  0  0  0  0  0  0  0  0  0  0
    7.7250   -2.1917    0.0000 O   0  0  0  0  0  0  0  0  0  0  0  0
    6.2917   -2.2042    0.0000 O   0  0  0  0  0  0  0  0  0  0  0  0
    8.4625   -5.9167    0.0000 O   0  0  0  0  0  0  0  0  0  0  0  0
    7.0250   -5.0917    0.0000 C   0  0  0  0  0  0  0  0  0  0  0  0
    6.3125   -4.6792    0.0000 C   0  0  0  0  0  0  0  0  0  0  0  0
    9.1750   -4.6750    0.0000 O   0  0  0  0  0  0  0  0  0  0  0  0
    5.5917   -3.4500    0.0000 O   0  0  0  0  0  0  0  0  0  0  0  0
    4.8792   -3.8667    0.0000 C   0  0  0  0  0  0  0  0  0  0  0  0
    4.1625   -3.4542    0.0000 C   0  0  0  0  0  0  0  0  0  0  0  0
    1.3042   -3.4625    0.0000 C   0  0  0  0  0  0  0  0  0  0  0  0
    2.0167   -3.8750    0.0000 C   0  0  0  0  0  0  0  0  0  0  0  0
    3.4500   -3.8667    0.0000 C   0  0  0  0  0  0  0  0  0  0  0  0
    2.7375   -3.4542    0.0000 C   0  0  0  0  0  0  0  0  0  0  0  0
    0.5917   -3.8792    0.0000 C   0  0  0  0  0  0  0  0  0  0  0  0
  2  1  1  0  0  0  0 
  3  2  2  0  0  0  0 
  4  3  1  0  0  0  0 
  5  4  1  0  0  0  0 
  6  2  1  0  0  0  0 
  7  1  1  0  0  0  0 
  8  1  2  0  0  0  0 
  9  5  2  0  0  0  0 
 10 11  1  0  0  0  0 
 11  6  2  0  0  0  0 
 12  5  1  0  0  0  0 
 13  6  1  0  0  0  0 
 14 13  1  0  0  0  0 
 15 14  1  0  0  0  0 
 16 17  1  0  0  0  0 
 17 19  1  0  0  0  0 
 18 15  1  0  0  0  0 
 19 18  1  0  0  0  0 
 20 16  1  0  0  0  0 
 10  4  2  0  0  0  0 
M  CHG  1   1   1
M  CHG  1   7  -1
M  END