
          11280715102D 1   1.00000     0.00000     0

 30 33  0     0  0            999 V2000
    2.2792   -3.5042    0.0000 C   0  0  0  0  0  0           0  0  0
    2.2792   -2.6792    0.0000 N   0  0  3  0  0  0           0  0  0
    4.4167   -1.4375    0.0000 N   0  0  3  0  0  0           0  0  0
    3.0000   -2.2625    0.0000 C   0  0  3  0  0  0           0  0  0
    1.5667   -2.2667    0.0000 C   0  0  0  0  0  0           0  0  0
    3.0000   -3.9125    0.0000 O   0  0  0  0  0  0           0  0  0
    3.7042   -2.6750    0.0000 C   0  0  0  0  0  0           0  0  0
    3.0000   -1.4375    0.0000 C   0  0  0  0  0  0           0  0  0
    1.5667   -3.9167    0.0000 C   0  0  0  0  0  0           0  0  0
    3.7042   -1.0250    0.0000 C   0  0  0  0  0  0           0  0  0
    4.4167   -2.2625    0.0000 C   0  0  0  0  0  0           0  0  0
    5.1375   -1.0292    0.0000 C   0  0  0  0  0  0           0  0  0
    1.5667   -1.4417    0.0000 C   0  0  0  0  0  0           0  0  0
    0.8625   -2.6792    0.0000 C   0  0  0  0  0  0           0  0  0
    0.1417   -1.4417    0.0000 C   0  0  0  0  0  0           0  0  0
    0.1417   -2.2750    0.0000 C   0  0  0  0  0  0           0  0  0
    0.8542   -1.0292    0.0000 C   0  0  0  0  0  0           0  0  0
    5.8500   -1.4417    0.0000 C   0  0  0  0  0  0           0  0  0
   -0.5750   -1.0292    0.0000 O   0  0  0  0  0  0           0  0  0
    1.5792   -4.7375    0.0000 C   0  0  0  0  0  0           0  0  0
    0.8542   -3.5000    0.0000 C   0  0  0  0  0  0           0  0  0
    6.5625   -1.0292    0.0000 C   0  0  0  0  0  0           0  0  0
    5.8417   -2.2667    0.0000 C   0  0  0  0  0  0           0  0  0
   -1.2875   -1.4500    0.0000 C   0  0  0  0  0  0           0  0  0
    0.8667   -5.1500    0.0000 C   0  0  0  0  0  0           0  0  0
    0.1417   -3.9125    0.0000 C   0  0  0  0  0  0           0  0  0
    7.2750   -1.4417    0.0000 C   0  0  0  0  0  0           0  0  0
    6.5542   -2.6792    0.0000 C   0  0  0  0  0  0           0  0  0
    7.2750   -2.2750    0.0000 C   0  0  0  0  0  0           0  0  0
    0.1417   -4.7417    0.0000 C   0  0  0  0  0  0           0  0  0
  2  1  1  0     0  0
  3 10  1  0     0  0
  4  2  1  0     0  0
  5  2  1  0     0  0
  6  1  2  0     0  0
  7  4  1  0     0  0
  8  4  1  0     0  0
  9  1  1  0     0  0
 10  8  1  0     0  0
 11  7  1  0     0  0
 12  3  1  0     0  0
 13  5  2  0     0  0
 14  5  1  0     0  0
 15 16  1  0     0  0
 16 14  2  0     0  0
 17 13  1  0     0  0
 18 12  1  0     0  0
 19 15  1  0     0  0
 20  9  1  0     0  0
 21  9  2  0     0  0
 22 18  1  0     0  0
 23 18  2  0     0  0
 24 19  1  0     0  0
 25 20  2  0     0  0
 26 21  1  0     0  0
 27 22  2  0     0  0
 28 23  1  0     0  0
 29 28  2  0     0  0
 30 26  2  0     0  0
 30 25  1  0     0  0
 15 17  2  0     0  0
  3 11  1  0     0  0
 29 27  1  0     0  0
M  END