
          11280714512D 1   1.00000     0.00000     0

 21 21  0     0  0            999 V2000
    6.7917   -2.3417    0.0000 C   0  0  0  0  0  0           0  0  0
    6.0792   -1.9375    0.0000 C   0  0  0  0  0  0           0  0  0
    6.8000   -3.1667    0.0000 O   0  0  0  0  0  0           0  0  0
    1.7917   -1.9542    0.0000 O   0  0  0  0  0  0           0  0  0
    1.0792   -2.3667    0.0000 C   0  0  0  0  0  0           0  0  0
    3.2250   -1.9500    0.0000 C   0  0  3  0  0  0           0  0  0
   -0.3458   -3.2000    0.0000 C   0  0  0  0  0  0           0  0  0
    2.5042   -2.3625    0.0000 C   0  0  0  0  0  0           0  0  0
    4.6542   -1.9417    0.0000 N   0  0  0  0  0  0           0  0  0
    7.5125   -1.9292    0.0000 O   0  0  0  0  0  0           0  0  0
    1.0792   -3.2000    0.0000 C   0  0  0  0  0  0           0  0  0
    0.3667   -1.9542    0.0000 C   0  0  0  0  0  0           0  0  0
    0.3667   -3.6125    0.0000 C   0  0  0  0  0  0           0  0  0
   -0.3458   -2.3750    0.0000 C   0  0  0  0  0  0           0  0  0
    3.2167   -1.1250    0.0000 O   0  0  0  0  0  0           0  0  0
   -1.0625   -3.6125    0.0000 O   0  0  0  0  0  0           0  0  0
    5.3667   -2.3542    0.0000 C   0  0  0  0  0  0           0  0  0
    3.9417   -2.3542    0.0000 C   0  0  0  0  0  0           0  0  0
    8.2250   -2.3417    0.0000 C   0  0  0  0  0  0           0  0  0
   -1.7833   -3.2000    0.0000 C   0  0  0  0  0  0           0  0  0
    8.9417   -1.9292    0.0000 C   0  0  0  0  0  0           0  0  0
  2  1  1  0     0  0
  3  1  2  0     0  0
  4  8  1  0     0  0
  5  4  1  0     0  0
  6 18  1  0     0  0
  7 14  2  0     0  0
  8  6  1  0     0  0
  9 17  1  0     0  0
 10  1  1  0     0  0
 11  5  1  0     0  0
 12  5  2  0     0  0
 13 11  2  0     0  0
 14 12  1  0     0  0
 15  6  1  0     0  0
 16  7  1  0     0  0
 17  2  1  0     0  0
 18  9  1  0     0  0
 19 10  1  0     0  0
 20 16  1  0     0  0
 21 19  1  0     0  0
 13  7  1  0     0  0
M  END