
  SciTegic09261414462D

 33 37  0  0  0  0            999 V2000
   29.0557  -12.6995    0.0000 O   0  0
   28.2674  -12.9141    0.0000 S   0  0
   28.8474  -13.4895    0.0000 O   0  0
   25.4512  -14.5608    0.0000 C   0  0
   25.4501  -15.3804    0.0000 C   0  0
   26.1581  -15.7893    0.0000 C   0  0
   26.1563  -14.1520    0.0000 C   0  0
   26.8649  -14.5572    0.0000 C   0  0
   26.8657  -15.3762    0.0000 C   0  0
   27.5742  -15.7833    0.0000 C   0  0
   28.2825  -15.3725    0.0000 C   0  0
   28.2778  -14.5504    0.0000 C   0  0
   27.5686  -14.1470    0.0000 C   0  0
   27.5759  -16.6005    0.0000 O   0  0
   28.9918  -15.7783    0.0000 S   0  0
   27.5643  -13.3298    0.0000 N   0  0
   28.2655  -12.1003    0.0000 C   0  0
   28.9751  -11.6914    0.0000 C   0  0
   28.9711  -10.8749    0.0000 C   0  0
   28.2607  -10.4723    0.0000 C   0  0
   27.5529  -10.8860    0.0000 C   0  0
   27.5604  -11.7011    0.0000 C   0  0
   29.6960  -15.3553    0.0000 C   0  0
   30.4503  -15.6780    0.0000 N   0  0
   30.9915  -15.0657    0.0000 N   0  0
   30.5764  -14.3617    0.0000 N   0  0
   29.7787  -14.5391    0.0000 N   0  0
   30.6303  -16.4707    0.0000 C   0  0
   30.0278  -17.0245    0.0000 C   0  0
   30.2067  -17.8211    0.0000 C   0  0
   30.9876  -18.0650    0.0000 C   0  0
   31.5896  -17.5062    0.0000 C   0  0
   31.4076  -16.7117    0.0000 C   0  0
  2  1  2  0
  3  2  2  0
  4  5  2  0
  5  6  1  0
  6  9  2  0
  8  7  2  0
  7  4  1  0
  8  9  1  0
  9 10  1  0
 10 11  2  0
 11 12  1  0
 12 13  2  0
 13  8  1  0
 10 14  1  0
 11 15  1  0
 13 16  1  0
 16  2  1  0
  2 17  1  0
 17 18  2  0
 18 19  1  0
 19 20  2  0
 20 21  1  0
 21 22  2  0
 22 17  1  0
 15 23  1  0
 23 24  1  0
 24 25  1  0
 25 26  2  0
 26 27  1  0
 27 23  2  0
 28 29  2  0
 29 30  1  0
 30 31  2  0
 31 32  1  0
 32 33  2  0
 33 28  1  0
 24 28  1  0
M  END