
          11280715362D 1   1.00000     0.00000     0

 36 39  0     1  0            999 V2000
    4.8000   -3.9375    0.0000 C   0  0  0  0  0  0           0  0  0
    3.7792   -5.6875    0.0000 N   0  0  3  0  0  0           0  0  0
    4.8000   -5.1125    0.0000 C   0  0  0  0  0  0           0  0  0
    4.2917   -4.8125    0.0000 C   0  0  0  0  0  0           0  0  0
    4.7917   -5.7000    0.0000 C   0  0  0  0  0  0           0  0  0
    4.2917   -4.2250    0.0000 C   0  0  0  0  0  0           0  0  0
    3.7875   -5.1000    0.0000 C   0  0  0  0  0  0           0  0  0
    5.3042   -4.2375    0.0000 C   0  0  2  0  0  0           0  0  0
    5.8250   -3.9500    0.0000 N   0  0  3  0  0  0           0  0  0
    5.3042   -4.8167    0.0000 C   0  0  0  0  0  0           0  0  0
    4.8042   -3.3417    0.0000 C   0  0  0  0  0  0           0  0  0
    6.8625   -2.1917    0.0000 C   0  0  3  0  0  0           0  0  0
    6.3500   -2.4750    0.0000 C   0  0  0  0  0  0           0  0  0
    7.4500   -2.2042    0.0000 C   0  0  0  0  0  0           0  0  0
    7.1667   -1.6875    0.0000 C   0  0  0  0  0  0           0  0  0
    5.3125   -3.0542    0.0000 C   0  0  2  0  0  0           0  0  0
    5.8292   -3.3625    0.0000 C   0  0  0  0  0  0           0  0  0
    7.3375   -5.3417    0.0000 C   0  0  0  0  0  0           0  0  0
    8.5500   -5.3500    0.0000 C   0  0  0  0  0  0           0  0  0
    7.6417   -4.8292    0.0000 C   0  0  0  0  0  0           0  0  0
    8.2417   -4.8292    0.0000 C   0  0  0  0  0  0           0  0  0
    5.8417   -2.1750    0.0000 O   0  0  0  0  0  0           0  0  0
    3.3542   -6.1000    0.0000 C   0  0  3  0  0  0           0  0  0
    6.3417   -3.0750    0.0000 O   0  0  0  0  0  0           0  0  0
    9.1500   -5.3500    0.0000 O   0  0  0  0  0  0           0  0  0
    7.6417   -5.8667    0.0000 O   0  0  0  0  0  0           0  0  0
    5.3250   -2.4625    0.0000 C   0  0  0  0  0  0           0  0  0
    3.2792   -4.8125    0.0000 C   0  0  0  0  0  0           0  0  0
    3.7875   -3.9292    0.0000 C   0  0  0  0  0  0           0  0  0
    6.3292   -4.2500    0.0000 C   0  0  0  0  0  0           0  0  0
    8.2417   -5.8667    0.0000 O   0  0  0  0  0  0           0  0  0
    6.7375   -5.3417    0.0000 O   0  0  0  0  0  0           0  0  0
    3.2792   -4.2250    0.0000 C   0  0  0  0  0  0           0  0  0
    2.7750   -5.9375    0.0000 C   0  0  0  0  0  0           0  0  0
    3.5042   -6.6750    0.0000 C   0  0  0  0  0  0           0  0  0
    5.8167   -4.5250    0.0000 H   0  0  0  0  0  0           0  0  0
  2  7  1  0     0  0
  3 10  1  0     0  0
  4  6  2  0     0  0
  5  3  2  0     0  0
  6  1  1  0     0  0
  7  4  1  0     0  0
  8  1  1  0     0  0
  9  8  1  0     0  0
 10  8  1  0     0  0
 11  1  2  0     0  0
 12 13  1  0     0  0
 13 22  1  0     0  0
 14 12  1  0     0  0
 15 12  1  0     0  0
 16 11  1  0     0  0
 17 16  1  0     0  0
 19 21  1  0     0  0
 20 18  1  0     0  0
 21 20  2  0     0  0
 22 27  1  0     0  0
 23  2  1  0     0  0
 24 13  2  0     0  0
 25 19  2  0     0  0
 26 18  2  0     0  0
 16 27  1  1     0  0
 28  7  2  0     0  0
 29  6  1  0     0  0
 30  9  1  0     0  0
 31 19  1  0     0  0
 32 18  1  0     0  0
 33 29  2  0     0  0
 34 23  1  0     0  0
 35 23  1  0     0  0
  8 36  1  1     0  0
  3  4  1  0     0  0
 17  9  1  0     0  0
 33 28  1  0     0  0
  5  2  1  0     0  0
 15 14  1  0     0  0
M  END