
  SciTegic12231509382D

 13 14  0  0  0  0            999 V2000
    4.2648   -0.3808    0.0000 O   0  0
    2.8359   -0.3808    0.0000 C   0  0
    2.8359    0.4442    0.0000 C   0  0
    3.5504   -0.7933    0.0000 C   0  0
    2.1214   -0.7933    0.0000 C   0  0
    2.1214    0.8567    0.0000 C   0  0
    3.5504    0.8567    0.0000 C   0  0
    3.5504   -1.6183    0.0000 C   0  0
    2.1214   -1.6183    0.0000 C   0  0
    2.8359   -2.0308    0.0000 C   0  0
    2.1214    1.6817    0.0000 C   0  0
    3.5504    1.6817    0.0000 C   0  0
    2.8359    2.0942    0.0000 C   0  0
  1  4  1  0
  2  3  1  0
  2  4  2  0
  2  5  1  0
  3  6  2  0
  3  7  1  0
  4  8  1  0
  5  9  2  0
  6 11  1  0
  7 12  2  0
  8 10  2  0
  9 10  1  0
 11 13  2  0
 12 13  1  0
M  END