
          11280715242D 1   1.00000     0.00000     0

 44 48  0     0  0            999 V2000
    0.2042    0.4083    0.0000 C   0  0  0  0  0  0           0  0  0
   -1.2250    1.2208    0.0000 C   0  0  0  0  0  0           0  0  0
   -1.2208    0.4000    0.0000 C   0  0  0  0  0  0           0  0  0
   -0.5083   -0.0125    0.0000 O   0  0  0  0  0  0           0  0  0
   -0.5208    1.6375    0.0000 C   0  0  0  0  0  0           0  0  0
    0.2042    1.2333    0.0000 C   0  0  0  0  0  0           0  0  0
    0.9167   -0.0042    0.0000 C   0  0  0  0  0  0           0  0  0
   10.9167   -1.6417    0.0000 N   0  3  0  0  0  0           0  0  0
    5.9250   -2.0542    0.0000 N   0  0  3  0  0  0           0  0  0
    0.9250   -0.8292    0.0000 C   0  0  0  0  0  0           0  0  0
    6.6375   -2.4667    0.0000 C   0  0  0  0  0  0           0  0  0
    4.5000   -1.2292    0.0000 N   0  0  3  0  0  0           0  0  0
   10.9292   -2.4667    0.0000 O   0  5  0  0  0  0           0  0  0
   11.6375   -1.2292    0.0000 O   0  0  0  0  0  0           0  0  0
   -1.9333   -0.0167    0.0000 C   0  0  0  0  0  0           0  0  0
   -0.5208    2.4625    0.0000 O   0  0  0  0  0  0           0  0  0
    5.2042   -2.4625    0.0000 C   0  0  0  0  0  0           0  0  0
    5.9250   -1.2250    0.0000 C   0  0  0  0  0  0           0  0  0
    0.2125   -1.2417    0.0000 O   0  0  0  0  0  0           0  0  0
    7.3500   -2.0542    0.0000 C   0  0  0  0  0  0           0  0  0
   10.2042   -1.2292    0.0000 O   0  0  0  0  0  0           0  0  0
    1.6417   -1.2375    0.0000 N   0  0  0  0  0  0           0  0  0
    4.5000   -2.0542    0.0000 C   0  0  0  0  0  0           0  0  0
    5.2042   -0.8125    0.0000 C   0  0  0  0  0  0           0  0  0
   -1.9458    1.6250    0.0000 C   0  0  0  0  0  0           0  0  0
    1.6292    0.4083    0.0000 C   0  0  0  0  0  0           0  0  0
    0.9125    1.6458    0.0000 C   0  0  0  0  0  0           0  0  0
    7.3500   -1.2292    0.0000 O   0  0  0  0  0  0           0  0  0
    3.7875   -0.8167    0.0000 C   0  0  0  0  0  0           0  0  0
    3.0667   -1.2292    0.0000 C   0  0  0  0  0  0           0  0  0
    8.7792   -1.2292    0.0000 C   0  0  0  0  0  0           0  0  0
    1.6250    1.2375    0.0000 C   0  0  0  0  0  0           0  0  0
    6.6375   -3.2917    0.0000 C   0  0  0  0  0  0           0  0  0
    2.3542   -0.8167    0.0000 C   0  0  0  0  0  0           0  0  0
    9.4917   -0.8167    0.0000 C   0  0  0  0  0  0           0  0  0
   -1.9333   -0.8417    0.0000 C   0  0  0  0  0  0           0  0  0
   -2.6458    0.3958    0.0000 C   0  0  0  0  0  0           0  0  0
    8.0667   -0.8167    0.0000 C   0  0  0  0  0  0           0  0  0
    8.0625   -2.4625    0.0000 C   0  0  0  0  0  0           0  0  0
    7.3500   -3.7042    0.0000 C   0  0  0  0  0  0           0  0  0
   -2.6458   -1.2542    0.0000 C   0  0  0  0  0  0           0  0  0
    8.0667   -3.2917    0.0000 C   0  0  0  0  0  0           0  0  0
   -3.3583   -0.0167    0.0000 C   0  0  0  0  0  0           0  0  0
   -3.3583   -0.8417    0.0000 C   0  0  0  0  0  0           0  0  0
  2  5  1  0     0  0
  3  4  1  0     0  0
  4  1  1  0     0  0
  5  6  1  0     0  0
  6  1  2  0     0  0
  7  1  1  0     0  0
  8 21  1  0     0  0
  9 18  1  0     0  0
 10  7  1  0     0  0
 11  9  1  0     0  0
 12 29  1  0     0  0
 13  8  1  0     0  0
 14  8  2  0     0  0
 15  3  1  0     0  0
 16  5  2  0     0  0
 17 23  1  0     0  0
 18 24  1  0     0  0
 19 10  2  0     0  0
 20 11  1  0     0  0
 21 35  1  0     0  0
 22 10  1  0     0  0
 23 12  1  0     0  0
 24 12  1  0     0  0
 25  2  1  0     0  0
 26  7  2  0     0  0
 27  6  1  0     0  0
 28 20  1  0     0  0
 29 30  1  0     0  0
 30 34  1  0     0  0
 31 38  1  0     0  0
 32 26  1  0     0  0
 33 11  2  0     0  0
 34 22  1  0     0  0
 35 31  1  0     0  0
 36 15  1  0     0  0
 37 15  2  0     0  0
 38 28  1  0     0  0
 39 20  2  0     0  0
 40 33  1  0     0  0
 41 36  2  0     0  0
 42 40  2  0     0  0
 43 37  1  0     0  0
 44 43  2  0     0  0
  3  2  2  0     0  0
 32 27  2  0     0  0
 41 44  1  0     0  0
 17  9  1  0     0  0
 39 42  1  0     0  0
M  CHG  2   8   1  13  -1
M  END