
  Mrv0541 04051115152D          

 13 14  0  0  0  0            999 V2000
   -0.9424    0.0630    0.0000 C   0  0  0  0  0  0  0  0  0  0  0  0
   -0.4575    0.7305    0.0000 N   0  0  0  0  0  0  0  0  0  0  0  0
   -0.4575   -0.6044    0.0000 C   0  0  0  0  0  0  0  0  0  0  0  0
    0.3271   -0.3495    0.0000 C   0  0  0  0  0  0  0  0  0  0  0  0
    0.3271    0.4755    0.0000 C   0  0  0  0  0  0  0  0  0  0  0  0
   -1.7674    0.0630    0.0000 C   0  0  0  0  0  0  0  0  0  0  0  0
    1.0416   -0.7620    0.0000 C   0  0  0  0  0  0  0  0  0  0  0  0
   -2.1799    0.7775    0.0000 O   0  0  0  0  0  0  0  0  0  0  0  0
    1.0416    0.8880    0.0000 C   0  0  0  0  0  0  0  0  0  0  0  0
   -2.1799   -0.6514    0.0000 O   0  0  0  0  0  0  0  0  0  0  0  0
    1.7561   -0.3495    0.0000 C   0  0  0  0  0  0  0  0  0  0  0  0
    1.7561    0.4755    0.0000 C   0  0  0  0  0  0  0  0  0  0  0  0
    2.4705   -0.7620    0.0000 C   0  0  0  0  0  0  0  0  0  0  0  0
  1  2  1  0  0  0  0
  1  6  1  0  0  0  0
  1  3  2  0  0  0  0
  5  2  1  0  0  0  0
  3  4  1  0  0  0  0
  4  5  2  0  0  0  0
  4  7  1  0  0  0  0
  5  9  1  0  0  0  0
  6  8  2  0  0  0  0
  6 10  1  0  0  0  0
 11  7  2  0  0  0  0
 12  9  2  0  0  0  0
 11 12  1  0  0  0  0
 11 13  1  0  0  0  0
M  END