
  SciTegic02271514512D

 24 27  0  0  0  0            999 V2000
    5.3565   -1.8092    0.0000 N   0  0
    3.5354   -2.9760    0.0000 C   0  0
    4.3301   -2.7846    0.0000 N   0  0
    4.5617   -2.0006    0.0000 C   0  0
    3.9986   -1.4080    0.0000 C   0  0
    3.2038   -1.5994    0.0000 C   0  0
    2.9722   -2.3834    0.0000 N   0  0
    4.2302   -0.6240    0.0000 F   0  0
    2.5553   -4.8505    0.0000 C   0  0
    2.5334   -4.0334    0.0000 C   0  0
    1.8147   -3.6438    0.0000 C   0  0
    1.1180   -4.0714    0.0000 C   0  0
    1.1399   -4.8886    0.0000 C   0  0
    1.8586   -5.2782    0.0000 N   0  0
    3.3393   -5.0822    0.0000 N   0  0
    3.3037   -3.7599    0.0000 C   0  0
    3.8019   -4.4081    0.0000 C   0  0
    0.3993   -3.6819    0.0000 Cl  0  0
    5.9194   -2.4015    0.0000 C   0  0
    5.6846   -3.1858    0.0000 C   0  0
    6.2436   -3.7770    0.0000 C   0  0
    7.0394   -3.5896    0.0000 C   0  0
    7.2731   -2.8056    0.0000 C   0  0
    6.7110   -2.2088    0.0000 C   0  0
  2  3  1  0
  3  4  2  0
  4  5  1  0
  5  6  2  0
  6  7  1  0
  2  7  2  0
  5  8  1  0
  9 10  1  0
 10 11  2  0
 11 12  1  0
 12 13  2  0
 13 14  1  0
  9 14  2  0
 16 17  2  0
 15 17  1  0
  9 15  1  0
 10 16  1  0
 12 18  1  0
  2 16  1  0
  1  4  1  0
  1 19  1  0
 19 20  1  0
 19 24  1  0
 20 21  1  0
 21 22  1  0
 22 23  1  0
 23 24  1  0
M  END