
          11280715362D 1   1.00000     0.00000     0

 31 34  0     0  0            999 V2000
   -1.1125    3.3458    0.0000 N   0  0  0  0  0  0           0  0  0
   -0.3958    2.9333    0.0000 N   0  0  3  0  0  0           0  0  0
    0.3167    1.6958    0.0000 N   0  0  0  0  0  0           0  0  0
   -0.3958    2.1083    0.0000 C   0  0  0  0  0  0           0  0  0
   -1.1125    4.1667    0.0000 C   0  0  0  0  0  0           0  0  0
    0.3042    4.1667    0.0000 C   0  0  3  0  0  0           0  0  0
    0.3250    0.8708    0.0000 C   0  0  0  0  0  0           0  0  0
    0.3125    3.3583    0.0000 C   0  0  0  0  0  0           0  0  0
   -1.6958    4.7542    0.0000 C   0  0  0  0  0  0           0  0  0
    1.0375    0.4625    0.0000 C   0  0  0  0  0  0           0  0  0
    0.8917    4.7542    0.0000 C   0  0  0  0  0  0           0  0  0
   -0.3958    0.4583    0.0000 O   0  0  0  0  0  0           0  0  0
   -1.1083    1.6958    0.0000 N   0  0  0  0  0  0           0  0  0
   -2.4875    4.5417    0.0000 C   0  0  0  0  0  0           0  0  0
   -1.4833    5.5542    0.0000 C   0  0  0  0  0  0           0  0  0
    1.0542   -0.3625    0.0000 C   0  0  0  0  0  0           0  0  0
    1.7292    0.8875    0.0000 C   0  0  0  0  0  0           0  0  0
   -2.8625    5.9167    0.0000 C   0  0  0  0  0  0           0  0  0
    2.4750   -0.3292    0.0000 C   0  0  0  0  0  0           0  0  0
    1.7750   -0.7542    0.0000 C   0  0  0  0  0  0           0  0  0
   -3.0750    5.1167    0.0000 C   0  0  0  0  0  0           0  0  0
    2.4542    0.5000    0.0000 C   0  0  0  0  0  0           0  0  0
   -2.0625    6.1292    0.0000 C   0  0  0  0  0  0           0  0  0
   -3.4458    6.5042    0.0000 Cl  0  0  0  0  0  0           0  0  0
    3.2042   -0.7250    0.0000 Cl  0  0  0  0  0  0           0  0  0
    0.6750    5.5417    0.0000 C   0  0  0  0  0  0           0  0  0
    1.6875    4.5417    0.0000 C   0  0  0  0  0  0           0  0  0
   -1.1083    0.8708    0.0000 C   0  0  0  0  0  0           0  0  0
    1.2542    6.1292    0.0000 C   0  0  0  0  0  0           0  0  0
    2.2667    5.1250    0.0000 C   0  0  0  0  0  0           0  0  0
    2.0542    5.9167    0.0000 C   0  0  0  0  0  0           0  0  0
  2  1  1  0     0  0
  3  4  1  0     0  0
  4  2  1  0     0  0
  5  1  2  0     0  0
  6  5  1  0     0  0
  7  3  1  0     0  0
  8  2  1  0     0  0
  9  5  1  0     0  0
 10  7  1  0     0  0
 11  6  1  0     0  0
 12  7  2  0     0  0
 13  4  2  0     0  0
 14  9  1  0     0  0
 15  9  2  0     0  0
 16 10  2  0     0  0
 17 10  1  0     0  0
 18 23  2  0     0  0
 19 22  1  0     0  0
 20 16  1  0     0  0
 21 14  2  0     0  0
 22 17  2  0     0  0
 23 15  1  0     0  0
 24 18  1  0     0  0
 25 19  1  0     0  0
 26 11  1  0     0  0
 27 11  2  0     0  0
 28 13  1  0     0  0
 29 26  2  0     0  0
 30 27  1  0     0  0
 31 30  2  0     0  0
  6  8  1  0     0  0
 18 21  1  0     0  0
 31 29  1  0     0  0
 19 20  2  0     0  0
M  END