
  SciTegic02261315392D

 23 23  0  0  0  0            999 V2000
    4.8870   -3.8042    0.0000 C   0  0
    4.1766   -4.2167    0.0000 C   0  0
    5.6031   -4.2167    0.0000 C   0  0
    3.4605   -3.8042    0.0000 C   0  0
    5.6003   -6.7025    0.0000 C   0  0
    5.6052   -7.5190    0.0000 C   0  0
    6.3136   -3.8042    0.0000 C   0  0
    7.0318   -5.0481    0.0000 C   0  0
    6.3185   -6.2836    0.0000 C   0  0
    7.0355   -4.2167    0.0000 C   0  0
    6.3165   -5.4620    0.0000 C   0  0
    6.3197   -7.9315    0.0000 O   0  0
    4.1766   -5.0417    0.0000 C   0  0
    4.8870   -2.9792    0.0000 C   0  0
    4.8870   -7.9379    0.0000 O   0  0
    3.4605   -2.9792    0.0000 C   0  0
    2.7386   -4.2167    0.0000 C   0  0
    4.1766   -2.5667    0.0000 C   0  0
    6.3136   -2.9792    0.0000 C   0  0
    7.0330   -6.6961    0.0000 C   0  0
    4.8870   -5.4656    0.0000 C   0  0
    3.4605   -5.4656    0.0000 C   0  0
    2.7386   -5.0417    0.0000 C   0  0
  2  1  1  0
  3  1  2  0
  4  2  2  0
  5  9  2  0
  6  5  1  0
  7  3  1  0
  8 10  1  0
  9 11  1  0
 10  7  2  0
 11  8  2  0
 12  6  2  0
 13  2  1  0
 14  1  1  0
 15  6  1  0
 16 18  1  0
 17  4  1  0
 18 14  1  0
 19  7  1  0
 20  9  1  0
 21 13  1  0
 22 13  1  0
 23 17  1  0
 16  4  1  0
M  END