
  SciTegic06051315212D

 58 63  0  0  0  0            999 V2000
   15.7767   -9.9456    0.0000 O   0  0
   15.3748   -9.2296    0.0000 S   0  0
   14.9556   -9.9357    0.0000 O   0  0
   20.3267   -8.8628    0.0000 C   0  0
   20.3402   -8.0434    0.0000 C   0  0
   19.6385   -7.6238    0.0000 C   0  0
   19.6155   -9.2610    0.0000 C   0  0
   18.9131   -8.8450    0.0000 C   0  0
   18.9247   -8.0261    0.0000 C   0  0
   18.2224   -7.6084    0.0000 C   0  0
   18.2033   -9.2446    0.0000 C   0  0
   17.5003   -8.8306    0.0000 C   0  0
   17.5092   -8.0088    0.0000 C   0  0
   16.8031   -7.5921    0.0000 C   0  0
   16.0877   -7.9960    0.0000 C   0  0
   16.0828   -8.8209    0.0000 C   0  0
   16.7895   -9.2339    0.0000 C   0  0
   18.1952  -10.0617    0.0000 O   0  0
   18.2326   -6.7912    0.0000 O   0  0
   16.7843  -10.0511    0.0000 N   0  0
   14.6674   -8.8130    0.0000 O   0  5
   16.8109   -6.7750    0.0000 N   0  0
   16.1072   -6.3596    0.0000 C   0  0
   16.1180   -5.5454    0.0000 C   0  0
   15.4151   -5.1302    0.0000 C   0  0
   14.7025   -5.5320    0.0000 C   0  0
   14.6973   -6.3534    0.0000 C   0  0
   15.4008   -6.7650    0.0000 C   0  0
   12.8398   -0.7512    0.0000 O   0  0
   13.2525   -1.4610    0.0000 S   0  0
   13.6609   -0.7487    0.0000 O   0  0
    8.3067   -1.9026    0.0000 C   0  0
    8.3055   -2.7222    0.0000 C   0  0
    9.0136   -3.1311    0.0000 C   0  0
    9.0118   -1.4938    0.0000 C   0  0
    9.7204   -1.8990    0.0000 C   0  0
    9.7212   -2.7180    0.0000 C   0  0
   10.4297   -3.1251    0.0000 C   0  0
   10.4241   -1.4888    0.0000 C   0  0
   11.1332   -1.8921    0.0000 C   0  0
   11.1368   -2.7139    0.0000 C   0  0
   11.8491   -3.1199    0.0000 C   0  0
   12.5584   -2.7053    0.0000 C   0  0
   12.5508   -1.8804    0.0000 C   0  0
   11.8379   -1.4781    0.0000 C   0  0
   10.4198   -0.6716    0.0000 O   0  0
   10.4319   -3.9423    0.0000 O   0  0
   11.8308   -0.6610    0.0000 N   0  0
   13.9661   -1.8669    0.0000 O   0  5
   11.8536   -3.9371    0.0000 N   0  0
   12.5636   -4.3418    0.0000 C   0  0
   12.5650   -5.1560    0.0000 C   0  0
   13.2741   -5.5606    0.0000 C   0  0
   13.9806   -5.1481    0.0000 C   0  0
   13.9734   -4.3267    0.0000 C   0  0
   13.2637   -3.9258    0.0000 C   0  0
   14.9695   -2.4474    0.0000 Na  0  3
   13.8592   -9.2863    0.0000 Na  0  3
  2  1  2  0
  3  2  2  0
  4  5  2  0
  5  6  1  0
  6  9  2  0
  8  7  2  0
  7  4  1  0
  8  9  1  0
  9 10  1  0
 10 13  1  0
 12 11  1  0
 11  8  1  0
 12 13  2  0
 13 14  1  0
 14 15  2  0
 15 16  1  0
 16 17  2  0
 17 12  1  0
 11 18  2  0
 10 19  2  0
 17 20  1  0
 16  2  1  0
  2 21  1  0
 14 22  1  0
 22 23  1  0
 23 24  2  0
 24 25  1  0
 25 26  2  0
 26 27  1  0
 27 28  2  0
 28 23  1  0
 30 29  2  0
 31 30  2  0
 32 33  2  0
 33 34  1  0
 34 37  2  0
 36 35  2  0
 35 32  1  0
 36 37  1  0
 37 38  1  0
 38 41  1  0
 40 39  1  0
 39 36  1  0
 40 41  2  0
 41 42  1  0
 42 43  2  0
 43 44  1  0
 44 45  2  0
 45 40  1  0
 39 46  2  0
 38 47  2  0
 45 48  1  0
 44 30  1  0
 30 49  1  0
 42 50  1  0
 50 51  1  0
 51 52  2  0
 52 53  1  0
 53 54  2  0
 54 55  1  0
 55 56  2  0
 56 51  1  0
 54 26  1  0
M  CHG  4  21  -1  49  -1  57   1  58   1
M  END