
          11280715142D 1   1.00000     0.00000     0

 10 11  0     0  0            999 V2000
    0.3167   -2.4417    0.0000 C   0  0  0  0  0  0           0  0  0
    0.9917   -2.9292    0.0000 C   0  0  3  0  0  0           0  0  0
   -0.3458   -2.9292    0.0000 O   0  0  0  0  0  0           0  0  0
    0.3167   -1.6167    0.0000 O   0  0  0  0  0  0           0  0  0
   -0.0958   -3.7167    0.0000 C   0  0  0  0  0  0           0  0  0
    0.7292   -3.7167    0.0000 C   0  0  0  0  0  0           0  0  0
    1.5875   -3.5000    0.0000 C   0  0  0  0  0  0           0  0  0
    1.3500   -2.1875    0.0000 C   0  0  0  0  0  0           0  0  0
    2.3167   -3.1125    0.0000 C   0  0  0  0  0  0           0  0  0
    2.1667   -2.3000    0.0000 C   0  0  0  0  0  0           0  0  0
  2  1  1  0     0  0
  3  1  1  0     0  0
  4  1  2  0     0  0
  5  3  1  0     0  0
  6  2  1  0     0  0
  7  2  1  0     0  0
  8  2  1  0     0  0
  9  7  1  0     0  0
 10  8  1  0     0  0
  6  5  1  0     0  0
  9 10  1  0     0  0
M  END