
          11280715052D 1   1.00000     0.00000     0

 37 40  0     0  0            999 V2000
    1.9792   -0.8792    0.0000 N   0  0  3  0  0  0           0  0  0
    2.4625   -0.5292    0.0000 C   0  0  0  0  0  0           0  0  0
    2.2750    0.0458    0.0000 N   0  0  3  0  0  0           0  0  0
    1.6750    0.0458    0.0000 N   0  0  0  0  0  0           0  0  0
    1.4917   -0.5292    0.0000 C   0  0  0  0  0  0           0  0  0
    4.5667   -1.7792    0.0000 C   0  0  0  0  0  0           0  0  0
    4.2667   -0.8625    0.0000 N   0  0  0  0  0  0           0  0  0
    4.0792   -1.4292    0.0000 N   0  0  0  0  0  0           0  0  0
    4.8667   -0.8542    0.0000 N   0  0  0  0  0  0           0  0  0
    5.0542   -1.4292    0.0000 N   0  0  0  0  0  0           0  0  0
    4.5750   -2.3792    0.0000 C   0  0  0  0  0  0           0  0  0
    4.0542   -2.6792    0.0000 C   0  0  0  0  0  0           0  0  0
    1.9792   -1.4792    0.0000 C   0  0  0  0  0  0           0  0  0
    3.0292   -0.7125    0.0000 O   0  0  0  0  0  0           0  0  0
    3.5375   -2.3792    0.0000 C   0  0  0  0  0  0           0  0  0
    2.6292    0.5333    0.0000 C   0  0  0  0  0  0           0  0  0
    3.0250   -2.6792    0.0000 C   0  0  0  0  0  0           0  0  0
    3.5417   -1.7792    0.0000 C   0  0  0  0  0  0           0  0  0
    2.8417    2.5958    0.0000 C   0  0  3  0  0  0           0  0  0
    2.5000   -1.7792    0.0000 C   0  0  0  0  0  0           0  0  0
    2.4875    2.1125    0.0000 C   0  0  0  0  0  0           0  0  0
    0.9250   -0.7167    0.0000 C   0  0  0  0  0  0           0  0  0
    2.5042   -2.3792    0.0000 C   0  0  0  0  0  0           0  0  0
    3.0167   -1.4792    0.0000 C   0  0  0  0  0  0           0  0  0
    2.3792    1.0750    0.0000 C   0  0  0  0  0  0           0  0  0
    5.0917   -2.6792    0.0000 C   0  0  0  0  0  0           0  0  0
    4.0542   -3.2792    0.0000 C   0  0  0  0  0  0           0  0  0
    2.7292    1.5625    0.0000 C   0  0  3  0  0  0           0  0  0
    2.5917    3.1458    0.0000 C   0  0  0  0  0  0           0  0  0
    3.4375    2.5375    0.0000 C   0  0  0  0  0  0           0  0  0
    3.1375    3.1208    0.0000 C   0  0  0  0  0  0           0  0  0
    0.4750   -0.3167    0.0000 C   0  0  0  0  0  0           0  0  0
   -0.0958   -0.5042    0.0000 C   0  0  0  0  0  0           0  0  0
    3.3292    1.5000    0.0000 C   0  0  0  0  0  0           0  0  0
    4.5750   -3.5792    0.0000 C   0  0  0  0  0  0           0  0  0
    5.0917   -3.2792    0.0000 C   0  0  0  0  0  0           0  0  0
   -0.5458   -0.1042    0.0000 C   0  0  0  0  0  0           0  0  0
  2  1  1  0     0  0
  3  2  1  0     0  0
  4  5  2  0     0  0
  5  1  1  0     0  0
  6 11  1  0     0  0
  7  8  2  0     0  0
  8  6  1  0     0  0
  9 10  1  0     0  0
 10  6  2  0     0  0
 11 12  2  0     0  0
 12 15  1  0     0  0
 13  1  1  0     0  0
 14  2  2  0     0  0
 15 18  2  0     0  0
 16  3  1  0     0  0
 17 23  2  0     0  0
 18 24  1  0     0  0
 19 21  1  0     0  0
 20 13  1  0     0  0
 21 28  1  0     0  0
 22  5  1  0     0  0
 23 20  1  0     0  0
 24 20  2  0     0  0
 25 16  1  0     0  0
 26 11  1  0     0  0
 27 12  1  0     0  0
 28 25  1  0     0  0
 29 19  1  0     0  0
 30 19  1  0     0  0
 31 19  1  0     0  0
 32 22  1  0     0  0
 33 32  1  0     0  0
 34 28  1  0     0  0
 35 27  2  0     0  0
 36 35  1  0     0  0
 37 33  1  0     0  0
  3  4  1  0     0  0
 17 15  1  0     0  0
 36 26  2  0     0  0
  9  7  1  0     0  0
M  END