
  Mrv0541 04051115152D          

 39 42  0  0  0  0            999 V2000
   -1.0366    2.6593    0.0000 C   0  0  0  0  0  0  0  0  0  0  0  0
   -1.7511    2.2468    0.0000 C   0  0  2  0  0  0  0  0  0  0  0  0
   -1.0366    3.4843    0.0000 C   0  0  0  0  0  0  0  0  0  0  0  0
   -0.3221    2.2468    0.0000 C   0  0  0  0  0  0  0  0  0  0  0  0
   -1.7511    1.4218    0.0000 N   0  0  0  0  0  0  0  0  0  0  0  0
   -2.4655    2.6593    0.0000 C   0  0  0  0  0  0  0  0  0  0  0  0
   -1.7511    3.8968    0.0000 C   0  0  0  0  0  0  0  0  0  0  0  0
   -0.3221    3.8968    0.0000 C   0  0  0  0  0  0  0  0  0  0  0  0
    0.3923    2.6593    0.0000 C   0  0  0  0  0  0  0  0  0  0  0  0
   -1.0366    1.0093    0.0000 C   0  0  0  0  0  0  0  0  0  0  0  0
   -2.4655    3.4843    0.0000 C   0  0  0  0  0  0  0  0  0  0  0  0
    0.3923    3.4843    0.0000 C   0  0  0  0  0  0  0  0  0  0  0  0
   -1.0366    0.1843    0.0000 C   0  0  1  0  0  0  0  0  0  0  0  0
   -0.3221    1.4218    0.0000 O   0  0  0  0  0  0  0  0  0  0  0  0
   -0.3692   -0.3007    0.0000 N   0  0  0  0  0  0  0  0  0  0  0  0
   -1.7040   -0.3007    0.0000 C   0  0  0  0  0  0  0  0  0  0  0  0
    0.4155   -0.0457    0.0000 C   0  0  0  0  0  0  0  0  0  0  0  0
   -0.6241   -1.0853    0.0000 C   0  0  0  0  0  0  0  0  0  0  0  0
   -1.4491   -1.0853    0.0000 C   0  0  1  0  0  0  0  0  0  0  0  0
    1.0286   -0.5978    0.0000 C   0  0  1  0  0  0  0  0  0  0  0  0
    0.5870    0.7613    0.0000 O   0  0  0  0  0  0  0  0  0  0  0  0
    1.8132   -0.3428    0.0000 N   0  0  0  0  0  0  0  0  0  0  0  0
    0.8570   -1.4047    0.0000 C   0  0  0  0  0  0  0  0  0  0  0  0
    2.4263   -0.8948    0.0000 C   0  0  0  0  0  0  0  0  0  0  0  0
    0.6855   -2.2117    0.0000 C   0  0  0  0  0  0  0  0  0  0  0  0
    1.6640   -1.5763    0.0000 C   0  0  0  0  0  0  0  0  0  0  0  0
    0.0501   -1.2332    0.0000 C   0  0  0  0  0  0  0  0  0  0  0  0
    3.2109   -0.6399    0.0000 C   0  0  1  0  0  0  0  0  0  0  0  0
    2.2548   -1.7018    0.0000 O   0  0  0  0  0  0  0  0  0  0  0  0
    3.8240   -1.1919    0.0000 N   0  0  0  0  0  0  0  0  0  0  0  0
    3.3824    0.1671    0.0000 C   0  0  0  0  0  0  0  0  0  0  0  0
    4.6086   -0.9370    0.0000 C   0  0  0  0  0  0  0  0  0  0  0  0
   -1.9340   -1.7527    0.0000 O   0  0  0  0  0  0  0  0  0  0  0  0
   -1.5985   -2.5064    0.0000 C   0  0  0  0  0  0  0  0  0  0  0  0
   -0.7780   -2.5926    0.0000 C   0  0  0  0  0  0  0  0  0  0  0  0
   -0.4424   -3.3463    0.0000 C   0  0  0  0  0  0  0  0  0  0  0  0
   -0.9273   -4.0137    0.0000 C   0  0  0  0  0  0  0  0  0  0  0  0
   -1.7478   -3.9275    0.0000 C   0  0  0  0  0  0  0  0  0  0  0  0
   -2.0834   -3.1738    0.0000 C   0  0  0  0  0  0  0  0  0  0  0  0
  1  2  1  0  0  0  0
  1  3  2  0  0  0  0
  1  4  1  0  0  0  0
  2  5  1  6  0  0  0
  2  6  1  0  0  0  0
  3  7  1  0  0  0  0
  3  8  1  0  0  0  0
  4  9  2  0  0  0  0
 10  5  1  0  0  0  0
 11  6  1  0  0  0  0
 11  7  1  0  0  0  0
 12  8  2  0  0  0  0
 12  9  1  0  0  0  0
 13 10  1  1  0  0  0
 10 14  2  0  0  0  0
 13 15  1  0  0  0  0
 13 16  1  0  0  0  0
 17 15  1  0  0  0  0
 18 15  1  0  0  0  0
 16 19  1  0  0  0  0
 17 20  1  0  0  0  0
 17 21  2  0  0  0  0
 18 19  1  0  0  0  0
 19 33  1  1  0  0  0
 20 22  1  1  0  0  0
 20 23  1  0  0  0  0
 24 22  1  0  0  0  0
 23 25  1  0  0  0  0
 23 26  1  0  0  0  0
 23 27  1  0  0  0  0
 24 28  1  0  0  0  0
 24 29  2  0  0  0  0
 28 30  1  0  0  0  0
 28 31  1  6  0  0  0
 32 30  1  0  0  0  0
 34 33  1  0  0  0  0
 34 35  2  0  0  0  0
 34 39  1  0  0  0  0
 36 35  1  0  0  0  0
 36 37  2  0  0  0  0
 37 38  1  0  0  0  0
 38 39  2  0  0  0  0
M  END