
  SciTegic12011113542D

332372  0  0  0  0            999 V2000
   12.2607   -9.2337    0.0000 O   0  0
   13.0782   -9.1122    0.0000 C   0  0
   13.3408   -8.3330    0.0000 C   0  0  2  0  0  0
   12.8681   -7.6588    0.0000 C   0  0  1  0  0  0
   12.0417   -7.6465    0.0000 O   0  0
   13.3592   -6.9989    0.0000 C   0  0
   14.1401   -7.2654    0.0000 C   0  0  1  0  0  0
   14.1299   -8.0864    0.0000 O   0  0
   14.8126   -6.7889    0.0000 N   0  0
   14.8250   -5.9624    0.0000 C   0  0
   15.6140   -5.7158    0.0000 N   0  0
   16.0922   -6.3921    0.0000 C   0  0
   16.9089   -6.4902    0.0000 C   0  0
   17.4038   -5.8286    0.0000 O   0  0
   17.2346   -7.2482    0.0000 N   0  0
   16.7435   -7.9082    0.0000 C   0  0
   17.0691   -8.6662    0.0000 N   0  0
   15.9229   -7.8117    0.0000 N   0  0
   15.5973   -7.0537    0.0000 C   0  0
    9.2511   -9.5321    0.0000 O   0  0
    9.3995  -10.3452    0.0000 C   0  0
   10.1870  -10.5820    0.0000 C   0  0  2  0  0  0
   10.8452  -10.0873    0.0000 C   0  0  1  0  0  0
   10.8304   -9.2610    0.0000 O   0  0
   11.5210  -10.5564    0.0000 C   0  0
   11.2804  -11.3456    0.0000 C   0  0  1  0  0  0
   10.4595  -11.3625    0.0000 O   0  0
   11.7788  -12.0021    0.0000 N   0  0
   12.6052  -11.9872    0.0000 C   0  0
   12.8777  -12.7677    0.0000 N   0  0
   12.2175  -13.2679    0.0000 C   0  0
   12.1464  -14.0874    0.0000 C   0  0
   12.8239  -14.5603    0.0000 O   0  0
   11.3995  -14.4379    0.0000 N   0  0
   10.7238  -13.9688    0.0000 C   0  0
    9.9769  -14.3193    0.0000 N   0  0
   10.7931  -13.1455    0.0000 N   0  0
   11.5400  -12.7951    0.0000 C   0  0
    6.2120   -9.1459    0.0000 O   0  0
    6.2171   -9.9707    0.0000 C   0  0
    6.9299  -10.3845    0.0000 C   0  0  2  0  0  0
    7.6825  -10.0463    0.0000 C   0  0  1  0  0  0
    7.8539   -9.2352    0.0000 O   0  0
    8.2369  -10.6529    0.0000 C   0  0
    7.8248  -11.3695    0.0000 C   0  0  1  0  0  0
    7.0191  -11.2001    0.0000 O   0  0
    8.1629  -12.1220    0.0000 N   0  0
    8.9867  -12.2086    0.0000 C   0  0
    9.4689  -11.5351    0.0000 O   0  0
    9.3248  -12.9611    0.0000 N   0  0
    8.8409  -13.6308    0.0000 C   0  0
    9.1791  -14.3833    0.0000 O   0  0
    8.0227  -13.5463    0.0000 C   0  0
    7.5388  -14.2159    0.0000 C   0  0
    7.6845  -12.7937    0.0000 C   0  0
    3.1692   -8.8116    0.0000 O   0  0
    3.1883   -9.6362    0.0000 C   0  0
    3.9081  -10.0379    0.0000 C   0  0  2  0  0  0
    4.6547   -9.6870    0.0000 C   0  0  1  0  0  0
    4.8124   -8.8731    0.0000 O   0  0
    5.2194  -10.2840    0.0000 C   0  0
    4.8195  -11.0075    0.0000 C   0  0  1  0  0  0
    4.0111  -10.8518    0.0000 O   0  0
    5.1704  -11.7542    0.0000 N   0  0
    5.9955  -11.8268    0.0000 C   0  0
    6.4662  -11.1453    0.0000 O   0  0
    6.3464  -12.5735    0.0000 N   0  0
    5.8739  -13.2513    0.0000 C   0  0
    6.2248  -13.9980    0.0000 O   0  0
    5.0544  -13.1807    0.0000 C   0  0
    4.5819  -13.8585    0.0000 C   0  0
    4.7035  -12.4340    0.0000 C   0  0
    0.1956   -8.0581    0.0000 C   0  0
    0.6999   -8.7076    0.0000 C   0  0  2  0  0  0
    1.5230   -8.6862    0.0000 C   0  0  1  0  0  0
    1.9900   -8.0042    0.0000 O   0  0
    1.8017   -9.4601    0.0000 C   0  0
    1.1481   -9.9637    0.0000 C   0  0  1  0  0  0
    0.4695   -9.5016    0.0000 O   0  0
    1.1736  -10.7875    0.0000 N   0  0
    1.8556  -11.2545    0.0000 C   0  0
    1.6251  -12.0485    0.0000 N   0  0
    0.7972  -12.0733    0.0000 C   0  0
    0.2641  -12.6998    0.0000 C   0  0
    0.5420  -13.4778    0.0000 O   0  0
   -0.5476  -12.5523    0.0000 N   0  0
   -0.8262  -11.7784    0.0000 C   0  0
   -1.6380  -11.6309    0.0000 N   0  0
   -0.2924  -11.1478    0.0000 N   0  0
    0.5193  -11.2952    0.0000 C   0  0
    2.8126   -8.0676    0.0000 P   0  0
    2.8684   -7.2365    0.0000 O   0  0
    3.5509   -7.7000    0.0000 N   0  0
    0.5070   -7.2941    0.0000 O   0  0
   -1.5893   -5.1070    0.0000 O   0  0
   -2.1942   -5.6702    0.0000 C   0  0
   -1.9999   -6.4421    0.0000 C   0  0  2  0  0  0
   -1.2238   -6.7171    0.0000 C   0  0  1  0  0  0
   -0.5095   -6.2911    0.0000 O   0  0
   -1.2411   -7.5395    0.0000 C   0  0
   -2.0318   -7.7753    0.0000 C   0  0  1  0  0  0
   -2.4996   -7.1006    0.0000 O   0  0
   -2.3032   -8.5536    0.0000 N   0  0
   -1.8340   -9.2340    0.0000 C   0  0
   -2.3336   -9.8925    0.0000 N   0  0
   -3.1155   -9.6189    0.0000 C   0  0
   -3.8377  -10.0127    0.0000 C   0  0
   -3.8571  -10.8387    0.0000 O   0  0
   -4.5426   -9.5841    0.0000 N   0  0
   -4.5253   -8.7617    0.0000 C   0  0
   -5.2303   -8.3331    0.0000 N   0  0
   -3.8010   -8.3643    0.0000 N   0  0
   -3.0960   -8.7929    0.0000 C   0  0
   -2.7201   -2.2571    0.0000 O   0  0
   -3.4398   -2.6601    0.0000 C   0  0
   -3.4576   -3.4841    0.0000 C   0  0  2  0  0  0
   -2.7979   -3.9795    0.0000 C   0  0  1  0  0  0
   -2.0049   -3.7377    0.0000 O   0  0
   -3.0610   -4.7580    0.0000 C   0  0
   -3.8875   -4.7435    0.0000 C   0  0  1  0  0  0
   -4.1285   -3.9563    0.0000 O   0  0
   -4.3829   -5.4032    0.0000 N   0  0
   -4.0607   -6.1663    0.0000 C   0  0
   -3.2381   -6.2630    0.0000 O   0  0
   -4.5561   -6.8260    0.0000 N   0  0
   -5.3762   -6.7259    0.0000 C   0  0
   -5.8716   -7.3856    0.0000 O   0  0
   -5.6976   -5.9687    0.0000 C   0  0
   -6.5239   -5.8687    0.0000 C   0  0
   -5.2022   -5.3090    0.0000 C   0  0
   -2.7113   -1.4365    0.0000 P   0  0
   -1.8875   -1.4333    0.0000 O   0  0
   -1.4019   -4.3007    0.0000 P   0  0
   -0.8208   -3.7125    0.0000 N   0  0
   -0.6917   -4.7125    0.0000 O   0  0
    0.2891   -6.4983    0.0000 P   0  0
    0.3421   -5.6677    0.0000 O   0  0
    1.0260   -6.1291    0.0000 N   0  0
    5.5923   -8.6040    0.0000 P   0  0
    5.1750   -7.8833    0.0000 O   0  0
    6.0000   -7.8833    0.0000 N   0  0
    8.6383   -8.9794    0.0000 P   0  0
    8.2208   -8.2625    0.0000 N   0  0
    9.0458   -8.2625    0.0000 O   0  0
   11.5373   -8.8357    0.0000 P   0  0
   11.1167   -8.1167    0.0000 N   0  0
   11.9417   -8.1167    0.0000 O   0  0
   -1.4033    1.4892    0.0000 O   0  0
   -2.2024    1.7002    0.0000 C   0  0
   -2.7513    1.0880    0.0000 C   0  0  2  0  0  0
   -2.5831    0.2819    0.0000 C   0  0  1  0  0  0
   -1.8287   -0.0556    0.0000 O   0  0
   -3.2948   -0.1306    0.0000 C   0  0
   -3.9071    0.4225    0.0000 C   0  0  1  0  0  0
   -3.5737    1.1728    0.0000 O   0  0
   -4.7131    0.2501    0.0000 N   0  0
   -5.0507   -0.5043    0.0000 C   0  0
   -5.8730   -0.4195    0.0000 N   0  0
   -6.0463    0.3907    0.0000 C   0  0
   -6.7596    0.8032    0.0000 C   0  0
   -7.4770    0.3907    0.0000 O   0  0
   -6.7596    1.6282    0.0000 N   0  0
   -6.0463    2.0407    0.0000 C   0  0
   -6.0463    2.8657    0.0000 N   0  0
   -5.3295    1.6282    0.0000 N   0  0
   -5.3295    0.8032    0.0000 C   0  0
    0.0414    4.2000    0.0000 O   0  0
   -0.7130    4.5416    0.0000 C   0  0
   -1.3826    4.0555    0.0000 C   0  0  2  0  0  0
   -1.3826    3.2278    0.0000 C   0  0  1  0  0  0
   -0.7127    2.7394    0.0000 O   0  0
   -2.1631    2.9707    0.0000 C   0  0
   -2.6478    3.6403    0.0000 C   0  0  1  0  0  0
   -2.1631    4.3109    0.0000 O   0  0
   -3.4728    3.6403    0.0000 N   0  0
   -3.8895    2.9245    0.0000 C   0  0
   -3.4728    2.2086    0.0000 O   0  0
   -4.7145    2.9245    0.0000 N   0  0
   -5.1270    3.6403    0.0000 C   0  0
   -5.9520    3.6403    0.0000 O   0  0
   -4.7145    4.3563    0.0000 C   0  0
   -5.1270    5.0738    0.0000 C   0  0
   -3.8895    4.3563    0.0000 C   0  0
   -0.6962    1.9146    0.0000 P   0  0
    0.1250    1.9167    0.0000 N   0  0
   -0.2917    1.2042    0.0000 O   0  0
    3.5967    7.0717    0.0000 O   0  0
    2.8660    7.4604    0.0000 C   0  0
    2.1928    6.9910    0.0000 C   0  0  2  0  0  0
    2.1744    6.1642    0.0000 C   0  0  1  0  0  0
    2.8329    5.6636    0.0000 O   0  0
    1.3878    5.9217    0.0000 C   0  0
    0.9165    6.6028    0.0000 C   0  0  1  0  0  0
    1.4110    7.2557    0.0000 O   0  0
    0.0924    6.6134    0.0000 N   0  0
   -0.4071    5.9552    0.0000 C   0  0
   -1.1889    6.2283    0.0000 N   0  0
   -1.1735    7.0501    0.0000 C   0  0
   -1.7735    7.6207    0.0000 C   0  0
   -2.5641    7.3772    0.0000 O   0  0
   -1.5869    8.4170    0.0000 N   0  0
   -0.8003    8.6595    0.0000 C   0  0
   -0.6137    9.4642    0.0000 N   0  0
   -0.1963    8.0983    0.0000 N   0  0
   -0.3829    7.2935    0.0000 C   0  0
    7.9192    5.9143    0.0000 O   0  0
    7.9017    6.7380    0.0000 C   0  0
    7.1618    7.0959    0.0000 C   0  0  2  0  0  0
    6.4334    6.7132    0.0000 C   0  0
    5.8407    7.2845    0.0000 C   0  0  1  0  0  0
    5.0269    7.1380    0.0000 O   0  0
    6.2035    8.0268    0.0000 C   0  0  1  0  0  0
    7.0166    7.9154    0.0000 O   0  0
    5.8155    8.7579    0.0000 N   0  0
    4.9973    8.8747    0.0000 C   0  0
    4.8521    9.6859    0.0000 N   0  0
    5.5833   10.0718    0.0000 C   0  0
    5.7836   10.8739    0.0000 C   0  0
    5.1897   11.4496    0.0000 O   0  0
    6.5766   11.0965    0.0000 N   0  0
    7.1693   10.5252    0.0000 C   0  0
    7.9624   10.7560    0.0000 N   0  0
    6.9702    9.7270    0.0000 N   0  0
    6.1772    9.4962    0.0000 C   0  0
   10.2239    3.3675    0.0000 O   0  0
    9.9329    4.1466    0.0000 C   0  0
   10.4102    4.8246    0.0000 C   0  0  2  0  0  0
   10.1423    5.6026    0.0000 C   0  0  1  0  0  0
    9.3493    5.8493    0.0000 O   0  0
   10.7970    6.0977    0.0000 C   0  0
   11.4729    5.6236    0.0000 C   0  0  1  0  0  0
   11.2305    4.8354    0.0000 O   0  0
   12.2532    5.8891    0.0000 N   0  0
   12.4148    6.7017    0.0000 C   0  0
   11.7883    7.2433    0.0000 O   0  0
   13.1951    6.9672    0.0000 N   0  0
   13.8177    6.4270    0.0000 C   0  0
   14.5980    6.6924    0.0000 O   0  0
   13.6587    5.6174    0.0000 C   0  0
   14.2813    5.0772    0.0000 C   0  0
   12.8784    5.3519    0.0000 C   0  0
   11.5297    1.0750    0.0000 O   0  0
   12.3500    1.1608    0.0000 C   0  0
   12.6921    1.9107    0.0000 C   0  0  2  0  0  0
   12.2819    2.6265    0.0000 C   0  0  1  0  0  0
   11.4531    2.6382    0.0000 O   0  0
   12.8313    3.2376    0.0000 C   0  0
   13.5848    2.8976    0.0000 C   0  0  1  0  0  0
   13.4950    2.0792    0.0000 O   0  0
   14.3006    3.3078    0.0000 N   0  0
   14.3062    4.1390    0.0000 C   0  0
   13.5888    4.5583    0.0000 O   0  0
   15.0220    4.5538    0.0000 N   0  0
   15.7358    4.1365    0.0000 C   0  0
   16.4516    4.5430    0.0000 O   0  0
   15.7318    3.3076    0.0000 C   0  0
   16.4456    2.8915    0.0000 C   0  0
   15.0159    2.8974    0.0000 C   0  0
    8.7337   -0.3826    0.0000 C   0  0
    9.3907   -0.8771    0.0000 C   0  0  2  0  0  0
   10.1794   -0.6405    0.0000 C   0  0  1  0  0  0
   10.4511    0.1401    0.0000 O   0  0
   10.6513   -1.3143    0.0000 C   0  0
   10.1526   -1.9716    0.0000 C   0  0  1  0  0  0
    9.3766   -1.7036    0.0000 O   0  0
   10.3933   -2.7599    0.0000 N   0  0
   11.1739   -3.0317    0.0000 C   0  0
   11.1598   -3.8583    0.0000 N   0  0
   10.3673   -4.0994    0.0000 C   0  0
   10.0172   -4.8438    0.0000 C   0  0
   10.4895   -5.5217    0.0000 O   0  0
    9.1952   -4.9144    0.0000 N   0  0
    8.7233   -4.2406    0.0000 C   0  0
    7.9014   -4.3112    0.0000 N   0  0
    9.0731   -3.4921    0.0000 N   0  0
    9.8950   -3.4214    0.0000 C   0  0
    7.9757   -0.7053    0.0000 O   0  0
    5.6853   -0.9047    0.0000 C   0  0
    5.7231   -1.7262    0.0000 C   0  0  2  0  0  0
    6.4082   -2.1830    0.0000 C   0  0  1  0  0  0
    7.1817   -1.8948    0.0000 O   0  0
    6.1899   -2.9761    0.0000 C   0  0
    5.3656   -3.0110    0.0000 C   0  0  1  0  0  0
    5.0773   -2.2422    0.0000 O   0  0
    4.9117   -3.6990    0.0000 N   0  0
    5.1999   -4.4736    0.0000 C   0  0
    4.5541   -4.9897    0.0000 N   0  0
    3.8631   -4.5328    0.0000 C   0  0
    3.0664   -4.7377    0.0000 C   0  0
    2.8452   -5.5337    0.0000 O   0  0
    2.4880   -4.1494    0.0000 N   0  0
    2.7063   -3.3563    0.0000 C   0  0
    2.1279   -2.7680    0.0000 N   0  0
    3.5060   -3.1485    0.0000 N   0  0
    4.0844   -3.7368    0.0000 C   0  0
    7.2336   -1.0714    0.0000 P   0  0
    4.9526   -0.5253    0.0000 O   0  0
    6.4036   -1.0786    0.0000 O   0  0
    6.8125   -0.3621    0.0000 N   0  0
   11.2615    0.2947    0.0000 P   0  0
   11.4708   -0.5000    0.0000 N   0  0
   12.0833    0.2958    0.0000 O   0  0
   11.0505    3.3582    0.0000 P   0  0
   11.7625    3.7750    0.0000 O   0  0
   11.0458    4.1833    0.0000 N   0  0
    8.6163    5.4695    0.0000 P   0  0
    8.1958    4.7542    0.0000 N   0  0
    9.0208    4.7542    0.0000 O   0  0
    4.2934    7.5180    0.0000 P   0  0
    3.7042    8.1042    0.0000 N   0  0
    4.7000    8.2333    0.0000 O   0  0
    4.3481   -1.0868    0.0000 C   0  0
    3.5596   -0.8439    0.0000 C   0  0
    4.5320   -1.8910    0.0000 O   0  0
    2.9551   -1.4054    0.0000 C   0  0
    2.1667   -1.1626    0.0000 C   0  0
    1.9827   -0.3583    0.0000 C   0  0
    2.5870    0.2025    0.0000 C   0  0  2  0  0  0
    3.3553   -0.0876    0.0000 S   0  0
    3.8725    0.5552    0.0000 C   0  0
    2.6248    1.0296    0.0000 C   0  0  2  0  0  0
    3.4163    1.2466    0.0000 C   0  0  1  0  0  0
    3.4545    2.0664    0.0000 N   0  0
    2.6865    2.3561    0.0000 C   0  0
    2.1739    1.7153    0.0000 N   0  0
    1.8422    0.7560    0.0000 H   0  0
    4.1892    1.5253    0.0000 H   0  0
    2.4683    3.1517    0.0000 O   0  0
    2.7298    4.8488    0.0000 P   0  0
    3.5542    4.8458    0.0000 N   0  0
    2.9417    4.0500    0.0000 O   0  0
   -3.3000   -0.8458    0.0000 N   0  0
150149  1  6
150151  1  0
151152  1  1
151153  1  0
153154  1  0
154155  1  0
150155  1  0
154156  1  6
156157  1  0
157158  2  0
158159  1  0
159160  1  0
160161  2  0
160162  1  0
162163  1  0
163164  1  0
163165  2  0
165166  1  0
159166  2  0
156166  1  0
  3  4  1  0
  4  5  1  1
  4  6  1  0
 74 73  1  6
 74 75  1  0
 75 76  1  1
 75 77  1  0
 77 78  1  0
 78 79  1  0
 74 79  1  0
 78 80  1  6
 80 81  1  0
 81 82  2  0
 82 83  1  0
 83 84  1  0
 84 85  2  0
 84 86  1  0
167168  1  0
169168  1  6
169170  1  0
170171  1  1
170172  1  0
172173  1  0
173174  1  0
169174  1  0
173175  1  6
175176  1  0
176177  2  0
176178  1  0
178179  1  0
179180  2  0
179181  1  0
181182  1  0
181183  2  0
175183  1  0
 86 87  1  0
171184  1  0
184148  1  0
 87 88  1  0
184185  1  0
 87 89  2  0
184186  2  0
 89 90  1  0
 83 90  2  0
 80 90  1  0
  6  7  1  0
 76 91  1  0
 91 56  1  0
  7  8  1  0
 91 92  2  0
  3  8  1  0
 91 93  1  0
  7  9  1  6
 73 94  1  0
  9 10  1  0
 10 11  2  0
 11 12  1  0
 12 13  1  0
 39 40  1  0
 41 40  1  6
 41 42  1  0
187188  1  0
189188  1  6
189190  1  0
190191  1  1
190192  1  0
192193  1  0
193194  1  0
189194  1  0
193195  1  6
195196  1  0
196197  2  0
197198  1  0
198199  1  0
199200  2  0
199201  1  0
201202  1  0
202203  1  0
202204  2  0
204205  1  0
198205  2  0
195205  1  0
 42 43  1  1
 42 44  1  0
 44 45  1  0
 45 46  1  0
 41 46  1  0
 45 47  1  6
 47 48  1  0
 48 49  2  0
 48 50  1  0
 50 51  1  0
 51 52  2  0
 51 53  1  0
 95 96  1  0
 97 96  1  6
 97 98  1  0
 98 99  1  1
 98100  1  0
100101  1  0
101102  1  0
206207  1  0
208207  1  6
208209  1  0
209210  1  0
210211  1  1
210212  1  0
212213  1  0
208213  1  0
212214  1  6
214215  1  0
215216  2  0
216217  1  0
217218  1  0
218219  2  0
218220  1  0
220221  1  0
221222  1  0
221223  2  0
223224  1  0
217224  2  0
214224  1  0
 97102  1  0
101103  1  6
103104  1  0
104105  2  0
105106  1  0
106107  1  0
107108  2  0
107109  1  0
109110  1  0
110111  1  0
110112  2  0
112113  1  0
106113  2  0
103113  1  0
 53 54  1  0
 53 55  2  0
 47 55  1  0
225226  1  0
227226  1  6
227228  1  0
228229  1  1
228230  1  0
230231  1  0
231232  1  0
227232  1  0
231233  1  6
233234  1  0
234235  2  0
234236  1  0
236237  1  0
237238  2  0
237239  1  0
239240  1  0
239241  2  0
233241  1  0
 13 14  2  0
 13 15  1  0
 15 16  1  0
 16 17  1  0
 16 18  2  0
 20 21  1  0
 22 21  1  6
 22 23  1  0
 23 24  1  1
 23 25  1  0
 25 26  1  0
 26 27  1  0
 22 27  1  0
 26 28  1  6
114115  1  0
116115  1  6
116117  1  0
242243  1  0
244243  1  6
244245  1  0
245246  1  1
245247  1  0
247248  1  0
248249  1  0
244249  1  0
248250  1  6
250251  1  0
251252  2  0
251253  1  0
253254  1  0
254255  2  0
254256  1  0
256257  1  0
256258  2  0
250258  1  0
117118  1  1
117119  1  0
119120  1  0
120121  1  0
116121  1  0
120122  1  6
122123  1  0
123124  2  0
123125  1  0
125126  1  0
126127  2  0
126128  1  0
128129  1  0
128130  2  0
122130  1  0
 28 29  1  0
 29 30  2  0
131132  2  0
260259  1  6
260261  1  0
261262  1  1
261263  1  0
263264  1  0
264265  1  0
260265  1  0
264266  1  6
266267  1  0
267268  2  0
268269  1  0
269270  1  0
270271  2  0
270272  1  0
272273  1  0
273274  1  0
273275  2  0
275276  1  0
269276  2  0
266276  1  0
131114  1  0
259277  1  0
 30 31  1  0
118133  1  0
133 95  1  0
 56 57  1  0
133134  1  0
 58 57  1  6
133135  2  0
 58 59  1  0
 99136  1  0
136 94  1  0
 59 60  1  1
136137  2  0
 59 61  1  0
136138  1  0
 61 62  1  0
 60139  1  0
139 39  1  0
 62 63  1  0
279278  1  6
279280  1  0
280281  1  1
280282  1  0
282283  1  0
283284  1  0
279284  1  0
283285  1  6
285286  1  0
286287  2  0
287288  1  0
288289  1  0
289290  2  0
289291  1  0
291292  1  0
292293  1  0
292294  2  0
294295  1  0
288295  2  0
285295  1  0
139140  2  0
281296  1  0
296277  1  0
 58 63  1  0
278297  1  0
139141  1  0
296298  2  0
 62 64  1  6
296299  1  0
 43142  1  0
262300  1  0
300242  1  0
142 20  1  0
300301  1  0
 64 65  1  0
300302  2  0
142143  1  0
246303  1  0
303225  1  0
 65 66  2  0
303304  2  0
142144  2  0
303305  1  0
 65 67  1  0
229306  1  0
306206  1  0
 24145  1  0
306307  1  0
145  1  1  0
306308  2  0
 67 68  1  0
211309  1  0
309187  1  0
145146  1  0
309310  1  0
 68 69  2  0
309311  2  0
145147  2  0
297312  1  0
 68 70  1  0
312313  1  0
 70 71  1  0
312314  2  0
 70 72  2  0
313315  1  0
 64 72  1  0
315316  1  0
 31 32  1  0
316317  1  0
 32 33  2  0
318317  1  1
318319  1  0
 32 34  1  0
 34 35  1  0
319320  1  0
320322  1  0
321318  1  0
321322  1  0
 35 36  1  0
 35 37  2  0
 37 38  1  0
 31 38  2  0
 28 38  1  0
322323  1  0
323324  1  0
324325  1  0
325321  1  0
 18 19  1  0
321326  1  6
 12 19  2  0
322327  1  6
  9 19  1  0
324328  2  0
191329  1  0
  1  2  1  0
329330  1  0
  3  2  1  6
329331  2  0
167329  1  0
131152  1  0
148149  1  0
131332  1  0
M  END