
  SciTegic06051315212D

 31 34  0  0  0  0            999 V2000
   28.1256  -16.5832    0.0000 C   0  0
   28.1245  -17.4027    0.0000 C   0  0
   28.8325  -17.8117    0.0000 C   0  0
   29.5422  -17.4022    0.0000 C   0  0
   29.5394  -16.5796    0.0000 C   0  0
   28.8308  -16.1743    0.0000 C   0  0
   28.8323  -18.6289    0.0000 C   0  0
   30.2506  -17.8097    0.0000 O   0  0
   30.9576  -17.4000    0.0000 C   0  0
   28.1761  -19.1090    0.0000 N   0  0
   28.4285  -19.8863    0.0000 N   0  0
   29.2457  -19.8865    0.0000 C   0  0
   29.4983  -19.1093    0.0000 C   0  0
   29.7259  -20.5477    0.0000 C   0  0
   27.9480  -20.5473    0.0000 C   0  0
   31.6660  -17.8075    0.0000 C   0  0
   27.1367  -20.4565    0.0000 C   0  0
   26.6564  -21.1167    0.0000 C   0  0
   26.9885  -21.8643    0.0000 C   0  0
   27.8057  -21.9478    0.0000 C   0  0
   28.2824  -21.2866    0.0000 C   0  0
   29.3899  -21.2912    0.0000 C   0  0
   29.8694  -21.9520    0.0000 C   0  0
   30.6831  -21.8671    0.0000 C   0  0
   31.0149  -21.1157    0.0000 C   0  0
   30.5334  -20.4580    0.0000 C   0  0
   32.3730  -17.3978    0.0000 C   0  0
   33.0814  -17.8053    0.0000 C   0  0
   33.7885  -17.3956    0.0000 O   0  0
   33.0827  -18.6225    0.0000 O   0  0
   26.5089  -22.5260    0.0000 Br  0  0
  1  2  2  0
  2  3  1  0
  3  4  2  0
  4  5  1  0
  5  6  2  0
  6  1  1  0
  3  7  1  0
  4  8  1  0
  8  9  1  0
  7 10  2  0
 10 11  1  0
 11 12  1  0
 12 13  2  0
 13  7  1  0
 12 14  1  0
 11 15  1  0
  9 16  1  0
 15 17  2  0
 17 18  1  0
 18 19  2  0
 19 20  1  0
 20 21  2  0
 21 15  1  0
 14 22  2  0
 22 23  1  0
 23 24  2  0
 24 25  1  0
 25 26  2  0
 26 14  1  0
 16 27  1  0
 27 28  1  0
 28 29  1  0
 28 30  2  0
 19 31  1  0
M  END