
          11280715352D 1   1.00000     0.00000     0

 32 35  0     0  0            999 V2000
   -0.4958    2.7125    0.0000 S   0  0  3  0  0  0           0  0  0
   -0.4958    3.5458    0.0000 N   0  0  0  0  0  0           0  0  0
   -1.9333    5.1875    0.0000 N   0  0  0  0  0  0           0  0  0
   -1.2125    4.7792    0.0000 N   0  0  3  0  0  0           0  0  0
   -1.2125    3.9458    0.0000 C   0  0  0  0  0  0           0  0  0
   -1.9333    6.0125    0.0000 C   0  0  0  0  0  0           0  0  0
   -0.5083    6.0167    0.0000 C   0  0  3  0  0  0           0  0  0
   -0.5083    5.1917    0.0000 C   0  0  0  0  0  0           0  0  0
   -0.4958    1.8958    0.0000 C   0  0  0  0  0  0           0  0  0
    0.3042    2.5000    0.0000 O   0  0  0  0  0  0           0  0  0
   -1.2083    2.3083    0.0000 O   0  0  0  0  0  0           0  0  0
   -2.5125    6.5917    0.0000 C   0  0  0  0  0  0           0  0  0
    0.0750    6.5917    0.0000 C   0  0  0  0  0  0           0  0  0
   -1.9250    3.5333    0.0000 N   0  0  0  0  0  0           0  0  0
    0.2042    1.4833    0.0000 C   0  0  0  0  0  0           0  0  0
   -1.2208    1.4833    0.0000 C   0  0  0  0  0  0           0  0  0
   -3.3083    6.3792    0.0000 C   0  0  0  0  0  0           0  0  0
   -2.2958    7.3917    0.0000 C   0  0  0  0  0  0           0  0  0
   -3.6833    7.7625    0.0000 C   0  0  0  0  0  0           0  0  0
   -2.8833    7.9667    0.0000 C   0  0  0  0  0  0           0  0  0
   -3.8958    6.9625    0.0000 C   0  0  0  0  0  0           0  0  0
    0.2042    0.6583    0.0000 C   0  0  0  0  0  0           0  0  0
   -1.2208    0.6625    0.0000 C   0  0  0  0  0  0           0  0  0
   -0.5083    0.2458    0.0000 C   0  0  0  0  0  0           0  0  0
   -4.2708    8.3417    0.0000 Cl  0  0  0  0  0  0           0  0  0
   -0.1458    7.3917    0.0000 C   0  0  0  0  0  0           0  0  0
    0.8667    6.3792    0.0000 C   0  0  0  0  0  0           0  0  0
   -1.9208    2.7083    0.0000 C   0  0  0  0  0  0           0  0  0
   -0.5125   -0.5792    0.0000 C   0  0  0  0  0  0           0  0  0
    1.4542    6.9667    0.0000 C   0  0  0  0  0  0           0  0  0
    0.4375    7.9667    0.0000 C   0  0  0  0  0  0           0  0  0
    1.2417    7.7625    0.0000 C   0  0  0  0  0  0           0  0  0
  2  1  1  0     0  0
  3  4  1  0     0  0
  4  5  1  0     0  0
  5  2  1  0     0  0
  6  3  2  0     0  0
  7  8  1  0     0  0
  8  4  1  0     0  0
  9  1  1  0     0  0
 10  1  2  0     0  0
 11  1  2  0     0  0
 12  6  1  0     0  0
 13  7  1  0     0  0
 14  5  2  0     0  0
 15  9  1  0     0  0
 16  9  2  0     0  0
 17 12  1  0     0  0
 18 12  2  0     0  0
 19 20  2  0     0  0
 20 18  1  0     0  0
 21 17  2  0     0  0
 22 15  2  0     0  0
 23 16  1  0     0  0
 24 23  2  0     0  0
 25 19  1  0     0  0
 26 13  1  0     0  0
 27 13  2  0     0  0
 28 14  1  0     0  0
 29 24  1  0     0  0
 30 27  1  0     0  0
 31 26  2  0     0  0
 32 30  2  0     0  0
 22 24  1  0     0  0
  6  7  1  0     0  0
 19 21  1  0     0  0
 32 31  1  0     0  0
M  END