
  SciTegic12171312552D

 36 41  0  0  0  0            999 V2000
   16.1396  -14.1709    0.0000 C   0  0
   16.7250  -14.7563    0.0000 C   0  0
   17.5533  -14.7563    0.0000 C   0  0
   18.1345  -14.1709    0.0000 C   0  0
   16.1362  -13.3448    0.0000 C   0  0
   16.7249  -12.7615    0.0000 N   0  0
   16.3522  -12.0212    0.0000 N   0  0
   15.5322  -12.1474    0.0000 N   0  0
   15.3996  -12.9650    0.0000 C   0  0
   17.5533  -12.7614    0.0000 N   0  0
   18.1345  -13.3416    0.0000 C   0  0
   18.8659  -12.9680    0.0000 C   0  0
   18.7376  -12.1561    0.0000 N   0  0
   17.9254  -12.0293    0.0000 N   0  0
   15.1181  -11.4330    0.0000 C   0  0
   14.2923  -11.4343    0.0000 C   0  0
   13.8826  -10.7175    0.0000 C   0  0
   13.0637  -12.1517    0.0000 C   0  0
   13.8872  -12.1471    0.0000 C   0  0
   19.1378  -11.4338    0.0000 C   0  0
   19.9635  -11.4193    0.0000 C   0  0
   20.3863  -12.1259    0.0000 C   0  0
   21.2112  -12.1118    0.0000 C   0  0
   20.3589  -10.6965    0.0000 C   0  0
   12.6451  -11.4349    0.0000 C   0  0
   13.0583  -10.7211    0.0000 C   0  0
   12.6469  -10.0084    0.0000 C   0  0
   11.8224  -10.0083    0.0000 C   0  0
   11.4110  -10.7269    0.0000 C   0  0
   11.8248  -11.4365    0.0000 C   0  0
   21.1824  -10.6788    0.0000 C   0  0
   21.6094  -11.3897    0.0000 C   0  0
   22.4367  -11.3742    0.0000 C   0  0
   22.8378  -10.6486    0.0000 C   0  0
   22.4056   -9.9372    0.0000 C   0  0
   21.5798   -9.9561    0.0000 C   0  0
  1  5  1  0
  1  2  1  0
  2  3  1  0
  3  4  1  0
  4 11  1  0
  5  6  1  0
  6  7  2  0
  7  8  1  0
  8  9  1  0
  9  5  2  0
 10 11  1  0
 11 12  2  0
 12 13  1  0
 13 14  1  0
 14 10  2  0
  8 15  1  0
 15 16  1  0
 16 17  2  0
 17 26  1  0
 25 18  1  0
 18 19  2  0
 19 16  1  0
 13 20  1  0
 20 21  1  0
 21 22  2  0
 22 23  1  0
 23 32  2  0
 31 24  2  0
 24 21  1  0
 25 26  1  0
 26 27  2  0
 27 28  1  0
 28 29  2  0
 29 30  1  0
 30 25  2  0
 31 32  1  0
 32 33  1  0
 33 34  2  0
 34 35  1  0
 35 36  2  0
 36 31  1  0
M  END