
          11280715482D 1   1.00000     0.00000     0

 32 35  0     0  0            999 V2000
    4.4792   -1.3792    0.0000 C   0  0  0  0  0  0           0  0  0
    3.7292   -1.0417    0.0000 N   0  0  0  0  0  0           0  0  0
    3.1750   -1.6542    0.0000 C   0  0  0  0  0  0           0  0  0
    4.3875   -2.2042    0.0000 C   0  0  0  0  0  0           0  0  0
    3.5792   -2.3667    0.0000 N   0  0  0  0  0  0           0  0  0
    5.2000   -0.9750    0.0000 C   0  0  0  0  0  0           0  0  0
    2.3542   -1.5625    0.0000 C   0  0  0  0  0  0           0  0  0
    5.9125   -1.3917    0.0000 N   0  0  0  0  0  0           0  0  0
    8.7625   -1.4167    0.0000 C   0  0  0  0  0  0           0  0  0
    8.0542   -1.0000    0.0000 C   0  0  0  0  0  0           0  0  0
    5.2042   -0.1500    0.0000 O   0  0  0  0  0  0           0  0  0
    4.9917   -2.7542    0.0000 C   0  0  0  0  0  0           0  0  0
    6.6292   -0.9875    0.0000 C   0  0  0  0  0  0           0  0  0
    7.3375   -1.4042    0.0000 C   0  0  0  0  0  0           0  0  0
    9.4792   -1.0125    0.0000 O   0  0  0  0  0  0           0  0  0
    1.8667   -2.2250    0.0000 C   0  0  0  0  0  0           0  0  0
    8.7542   -2.2417    0.0000 O   0  0  0  0  0  0           0  0  0
    4.8167   -3.5667    0.0000 C   0  0  0  0  0  0           0  0  0
    8.0542   -0.1750    0.0000 C   0  0  0  0  0  0           0  0  0
    5.4292   -4.1167    0.0000 C   0  0  3  0  0  0           0  0  0
    2.0250   -0.8042    0.0000 C   0  0  0  0  0  0           0  0  0
    7.3417    0.2458    0.0000 C   0  0  0  0  0  0           0  0  0
    6.6292   -0.1667    0.0000 C   0  0  0  0  0  0           0  0  0
    2.2042   -2.9792    0.0000 C   0  0  0  0  0  0           0  0  0
    1.0500   -2.1375    0.0000 C   0  0  0  0  0  0           0  0  0
    5.2500   -4.9250    0.0000 C   0  0  0  0  0  0           0  0  0
    6.2125   -3.8667    0.0000 C   0  0  0  0  0  0           0  0  0
    1.2042   -0.7125    0.0000 C   0  0  0  0  0  0           0  0  0
    0.7167   -1.3792    0.0000 C   0  0  0  0  0  0           0  0  0
    6.8167   -4.4292    0.0000 C   0  0  0  0  0  0           0  0  0
    5.8542   -5.4792    0.0000 C   0  0  0  0  0  0           0  0  0
    6.6417   -5.2292    0.0000 C   0  0  0  0  0  0           0  0  0
  2  1  1  0     0  0
  3  2  2  0     0  0
  4  1  2  0     0  0
  5  4  1  0     0  0
  6  1  1  0     0  0
  7  3  1  0     0  0
  8  6  1  0     0  0
  9 10  1  0     0  0
 10 14  1  0     0  0
 11  6  2  0     0  0
 12  4  1  0     0  0
 13  8  1  0     0  0
 14 13  2  0     0  0
 15  9  2  0     0  0
 16  7  1  0     0  0
 17  9  1  0     0  0
 18 12  1  0     0  0
 19 22  1  0     0  0
 20 18  1  0     0  0
 21  7  2  0     0  0
 22 23  2  0     0  0
 23 13  1  0     0  0
 24 16  1  0     0  0
 25 16  2  0     0  0
 26 20  1  0     0  0
 27 20  1  0     0  0
 28 21  1  0     0  0
 29 28  2  0     0  0
 30 27  1  0     0  0
 31 26  1  0     0  0
 32 30  1  0     0  0
  3  5  1  0     0  0
 10 19  2  0     0  0
 25 29  1  0     0  0
 31 32  1  0     0  0
M  END