
          05080814042D 1   1.00000     0.00000     0

 34 38  0     1  0            999 V2000
   -4.0190   -0.9988    0.0000 C   0  0  0  0  0  0           0  0  0
   -4.7298   -1.4137    0.0000 C   0  0  0  0  0  0           0  0  0
   -4.7228   -2.2400    0.0000 C   0  0  0  0  0  0           0  0  0
   -4.0089   -2.6435    0.0000 C   0  0  0  0  0  0           0  0  0
   -3.3058   -1.4060    0.0000 C   0  0  0  0  0  0           0  0  0
   -3.2997   -2.2337    0.0000 C   0  0  0  0  0  0           0  0  0
   -2.5839   -2.6401    0.0000 C   0  0  0  0  0  0           0  0  0
   -2.5960   -0.9847    0.0000 C   0  0  0  0  0  0           0  0  0
   -1.8755   -1.3956    0.0000 C   0  0  2  0  0  0           0  0  0
   -1.8710   -2.2252    0.0000 C   0  0  2  0  0  0           0  0  0
   -1.1542   -2.6338    0.0000 N   0  0  3  0  0  0           0  0  0
   -0.4374   -2.2173    0.0000 C   0  0  0  0  0  0           0  0  0
   -0.4419   -1.3877    0.0000 C   0  0  1  0  0  0           0  0  0
   -1.1633   -0.9746    0.0000 C   0  0  0  0  0  0           0  0  0
   -1.8833   -0.5667    0.0000 H   0  0  0  0  0  0           0  0  0
   -1.8792   -3.0500    0.0000 H   0  0  0  0  0  0           0  0  0
    0.2707   -0.9720    0.0000 C   0  0  0  0  0  0           0  0  0
    0.9870   -1.3813    0.0000 N   0  0  3  0  0  0           0  0  0
    0.2670   -0.1470    0.0000 O   0  0  0  0  0  0           0  0  0
    0.9847   -2.2095    0.0000 C   0  0  0  0  0  0           0  0  0
    1.6969   -2.6187    0.0000 C   0  0  0  0  0  0           0  0  0
    2.4120   -2.2065    0.0000 N   0  0  3  0  0  0           0  0  0
    2.4103   -1.3806    0.0000 C   0  0  0  0  0  0           0  0  0
    1.6935   -0.9668    0.0000 C   0  0  0  0  0  0           0  0  0
   -4.0230   -0.1738    0.0000 O   0  0  0  0  0  0           0  0  0
   -4.7395    0.2352    0.0000 C   0  0  0  0  0  0           0  0  0
   -1.1508   -3.4588    0.0000 C   0  0  0  0  0  0           0  0  0
    3.1267   -2.6186    0.0000 C   0  0  0  0  0  0           0  0  0
    3.1228   -3.4427    0.0000 C   0  0  0  0  0  0           0  0  0
    3.8367   -3.8547    0.0000 C   0  0  0  0  0  0           0  0  0
    4.5519   -3.4416    0.0000 C   0  0  0  0  0  0           0  0  0
    4.5487   -2.6124    0.0000 C   0  0  0  0  0  0           0  0  0
    3.8342   -2.2042    0.0000 C   0  0  0  0  0  0           0  0  0
    5.2672   -3.8527    0.0000 F   0  0  0  0  0  0           0  0  0
 10 16  1  1     0  0
  6  7  1  0     0  0
 13 17  1  1     0  0
  7 10  1  0     0  0
 17 18  1  0     0  0
  9  8  1  0     0  0
 17 19  2  0     0  0
 18 20  1  0     0  0
  9 10  1  0     0  0
  3  4  2  0     0  0
  4  6  1  0     0  0
  5  6  2  0     0  0
  1  2  2  0     0  0
 18 24  1  0     0  0
 20 21  1  0     0  0
 21 22  1  0     0  0
 22 23  1  0     0  0
 23 24  1  0     0  0
  5  1  1  0     0  0
  1 25  1  0     0  0
  2  3  1  0     0  0
 25 26  1  0     0  0
  9 14  1  0     0  0
 11 27  1  0     0  0
 10 11  1  0     0  0
 22 28  1  0     0  0
 11 12  1  0     0  0
 28 29  2  0     0  0
 12 13  1  0     0  0
 29 30  1  0     0  0
 13 14  1  0     0  0
 30 31  2  0     0  0
 31 32  1  0     0  0
  9 15  1  6     0  0
 32 33  2  0     0  0
 33 28  1  0     0  0
  5  8  1  0     0  0
 31 34  1  0     0  0
M  END