
          11280715192D 1   1.00000     0.00000     0

 16 16  0     0  0            999 V2000
    2.3542   -6.6917    0.0000 C   0  0  3  0  0  0           0  0  0
    1.6417   -7.1042    0.0000 C   0  0  0  0  0  0           0  0  0
    1.6417   -6.2750    0.0000 C   0  0  0  0  0  0           0  0  0
    3.1875   -6.6917    0.0000 C   0  0  0  0  0  0           0  0  0
    3.6000   -7.4042    0.0000 N   0  0  0  0  0  0           0  0  0
    5.6667   -6.6917    0.0000 N   0  0  0  0  0  0           0  0  0
    6.0792   -5.9667    0.0000 C   0  0  3  0  0  0           0  0  0
    4.4292   -7.4042    0.0000 O   0  0  0  0  0  0           0  0  0
    5.6667   -8.1250    0.0000 C   0  0  3  0  0  0           0  0  0
    6.0792   -7.4042    0.0000 C   0  0  0  0  0  0           0  0  0
    4.8417   -8.1250    0.0000 C   0  0  0  0  0  0           0  0  0
    6.0792   -8.8417    0.0000 O   0  0  0  0  0  0           0  0  0
    3.6000   -5.9667    0.0000 C   0  0  0  0  0  0           0  0  0
    5.6667   -5.2542    0.0000 C   0  0  0  0  0  0           0  0  0
    6.7167   -5.4500    0.0000 C   0  0  0  0  0  0           0  0  0
    6.7167   -6.4917    0.0000 C   0  0  0  0  0  0           0  0  0
  2  1  1  0     0  0
  3  1  1  0     0  0
  4  1  1  0     0  0
  5  4  2  0     0  0
  6 10  1  0     0  0
  7  6  1  0     0  0
  8  5  1  0     0  0
  9 11  1  0     0  0
 10  9  1  0     0  0
 11  8  1  0     0  0
 12  9  1  0     0  0
 13  4  1  0     0  0
 14  7  1  0     0  0
 15  7  1  0     0  0
 16  7  1  0     0  0
  3  2  1  0     0  0
M  END