
          11280715052D 1   1.00000     0.00000     0

 47 51  0     0  0            999 V2000
    2.9667   -1.4875    0.0000 S   0  0  3  0  0  0           0  0  0
    3.6792   -2.7167    0.0000 C   0  0  0  0  0  0           0  0  0
    3.6792   -1.8917    0.0000 N   0  0  0  0  0  0           0  0  0
    4.4000   -3.1250    0.0000 C   0  0  0  0  0  0           0  0  0
    2.9750   -3.1292    0.0000 N   0  0  0  0  0  0           0  0  0
    3.6917   -4.3667    0.0000 N   0  0  0  0  0  0           0  0  0
    2.9750   -3.9542    0.0000 C   0  0  0  0  0  0           0  0  0
    4.4042   -3.9500    0.0000 C   0  0  0  0  0  0           0  0  0
    2.2542   -1.9042    0.0000 C   0  0  0  0  0  0           0  0  0
    5.1125   -2.7042    0.0000 O   0  0  0  0  0  0           0  0  0
    8.6917   -3.9167    0.0000 N   0  0  0  0  0  0           0  0  0
    2.2542   -4.3750    0.0000 C   0  0  0  0  0  0           0  0  0
    7.9792   -4.3375    0.0000 C   0  0  0  0  0  0           0  0  0
    1.5375   -1.4917    0.0000 N   0  0  0  0  0  0           0  0  0
    2.3750   -0.9000    0.0000 O   0  0  0  0  0  0           0  0  0
    5.1042   -1.8792    0.0000 C   0  0  0  0  0  0           0  0  0
    3.5500   -0.9000    0.0000 O   0  0  0  0  0  0           0  0  0
    9.4125   -4.3167    0.0000 C   0  0  0  0  0  0           0  0  0
    1.5500   -3.9542    0.0000 N   0  0  0  0  0  0           0  0  0
    2.2667   -5.1917    0.0000 N   0  0  0  0  0  0           0  0  0
   10.1167   -3.9042    0.0000 N   0  0  0  0  0  0           0  0  0
    0.8250   -1.9042    0.0000 C   0  0  0  0  0  0           0  0  0
    7.9875   -5.1625    0.0000 O   0  0  0  0  0  0           0  0  0
    0.8250   -2.7292    0.0000 C   0  0  0  0  0  0           0  0  0
    2.2542   -2.7292    0.0000 C   0  0  0  0  0  0           0  0  0
    5.8167   -1.4667    0.0000 C   0  0  0  0  0  0           0  0  0
    1.5375   -3.1417    0.0000 C   0  0  0  0  0  0           0  0  0
    5.1250   -4.3542    0.0000 O   0  0  0  0  0  0           0  0  0
    7.2667   -3.9292    0.0000 O   0  0  0  0  0  0           0  0  0
    0.1042   -3.1417    0.0000 C   0  0  3  0  0  0           0  0  0
    6.5292   -1.8750    0.0000 O   0  0  0  0  0  0           0  0  0
    0.8375   -5.2000    0.0000 C   0  0  0  0  0  0           0  0  0
    0.8375   -4.3667    0.0000 C   0  0  0  0  0  0           0  0  0
    1.5542   -5.6042    0.0000 C   0  0  0  0  0  0           0  0  0
    4.3875   -1.4792    0.0000 C   0  0  0  0  0  0           0  0  0
   10.8292   -4.3042    0.0000 C   0  0  0  0  0  0           0  0  0
    9.4125   -5.1500    0.0000 C   0  0  0  0  0  0           0  0  0
    5.8042   -0.6417    0.0000 C   0  0  0  0  0  0           0  0  0
    5.8375   -3.9375    0.0000 C   0  0  0  0  0  0           0  0  0
    6.5542   -4.3417    0.0000 C   0  0  0  0  0  0           0  0  0
   -0.6083   -2.7292    0.0000 C   0  0  0  0  0  0           0  0  0
    0.1042   -3.9667    0.0000 C   0  0  0  0  0  0           0  0  0
    6.5417   -2.7000    0.0000 C   0  0  0  0  0  0           0  0  0
   10.8417   -5.1375    0.0000 C   0  0  0  0  0  0           0  0  0
    4.3792   -0.6542    0.0000 C   0  0  0  0  0  0           0  0  0
   10.1292   -5.5542    0.0000 C   0  0  0  0  0  0           0  0  0
    5.0917   -0.2292    0.0000 C   0  0  0  0  0  0           0  0  0
  2  3  1  0     0  0
  3  1  1  0     0  0
  4  2  1  0     0  0
  5  2  2  0     0  0
  6  7  2  0     0  0
  7  5  1  0     0  0
  8  4  2  0     0  0
  9  1  1  0     0  0
 10  4  1  0     0  0
 11 13  1  0     0  0
 12  7  1  0     0  0
 13 29  1  0     0  0
 14  9  2  0     0  0
 15  1  2  0     0  0
 16 10  1  0     0  0
 17  1  2  0     0  0
 18 11  1  0     0  0
 19 12  2  0     0  0
 20 12  1  0     0  0
 21 18  1  0     0  0
 22 14  1  0     0  0
 23 13  2  0     0  0
 24 27  1  0     0  0
 25  9  1  0     0  0
 26 16  2  0     0  0
 27 25  2  0     0  0
 28  8  1  0     0  0
 29 40  1  0     0  0
 30 24  1  0     0  0
 31 26  1  0     0  0
 32 34  1  0     0  0
 33 19  1  0     0  0
 34 20  2  0     0  0
 35 16  1  0     0  0
 36 21  2  0     0  0
 37 18  2  0     0  0
 38 26  1  0     0  0
 39 28  1  0     0  0
 40 39  1  0     0  0
 41 30  1  0     0  0
 42 30  1  0     0  0
 43 31  1  0     0  0
 44 46  2  0     0  0
 45 35  2  0     0  0
 46 37  1  0     0  0
 47 45  1  0     0  0
 24 22  2  0     0  0
  8  6  1  0     0  0
 32 33  2  0     0  0
 47 38  2  0     0  0
 44 36  1  0     0  0
M  END