
  SciTegic02271514372D

 57 59  0  0  0  0            999 V2000
   15.0916   -4.7947    0.0000 O   0  0
   16.5099   -1.5147    0.0000 C   0  0
   15.0902   -2.3321    0.0000 C   0  0
   12.9564   -3.5613    0.0000 C   0  0
   15.0916   -3.9738    0.0000 C   0  0
    6.5592   -4.7947    0.0000 O   0  0
   12.2447   -3.9738    0.0000 C   0  0  2  0  0  0
    9.4061   -3.9738    0.0000 N   0  0
    4.4288   -3.5625    0.0000 C   0  0
    8.6943   -3.5613    0.0000 C   0  0
    7.9785   -4.7947    0.0000 C   0  0
   11.5316   -2.7404    0.0000 C   0  0
   11.5330   -3.5613    0.0000 N   0  0
   15.0876   -1.5165    0.0000 C   0  0
   14.3799   -3.5613    0.0000 C   0  0  1  0  0  0
    8.6929   -6.0239    0.0000 C   0  0
   12.9550   -6.0239    0.0000 C   0  0
   10.8254   -4.7947    0.0000 O   0  0
    3.7192   -3.9762    0.0000 O   0  0
   15.7992   -3.5613    0.0000 O   0  0
   12.2447   -4.7947    0.0000 C   0  0
   10.1137   -2.7404    0.0000 C   0  0
    9.4033   -4.7947    0.0000 C   0  0
   16.5094   -2.3364    0.0000 C   0  0
   13.6654   -4.7947    0.0000 C   0  0
   15.7996   -2.7441    0.0000 C   0  0
    7.9785   -3.9738    0.0000 C   0  0  1  0  0  0
   10.8240   -1.5112    0.0000 C   0  0
    8.6943   -2.7404    0.0000 O   0  0
    3.0081   -3.5649    0.0000 C   0  0
    8.6929   -5.2031    0.0000 C   0  0
    4.4274   -2.7416    0.0000 O   0  0
    6.5592   -3.9738    0.0000 C   0  0
   13.6682   -3.9738    0.0000 N   0  0
    2.2944   -3.9786    0.0000 C   0  0
   12.2433   -1.5112    0.0000 C   0  0
   15.7945   -1.1023    0.0000 C   0  0
   10.1137   -3.5613    0.0000 C   0  0  1  0  0  0
   12.9564   -2.7404    0.0000 O   0  0
   10.8254   -3.9738    0.0000 C   0  0
   10.8240   -2.3321    0.0000 C   0  0
    2.2901   -3.1529    0.0000 C   0  0
    7.2667   -3.5613    0.0000 N   0  0
   14.3799   -2.7404    0.0000 C   0  0
    3.0067   -2.7441    0.0000 C   0  0
   12.2433   -2.3321    0.0000 C   0  0
    5.1399   -3.9738    0.0000 N   0  0
    5.8474   -3.5613    0.0000 C   0  0  1  0  0  0
    5.8474   -2.7404    0.0000 C   0  0
   12.9550   -5.2031    0.0000 C   0  0
   11.5316   -1.0987    0.0000 C   0  0
    6.5551   -2.3318    0.0000 C   0  0
    7.2621   -2.7437    0.0000 C   0  0
    7.9677   -2.3386    0.0000 C   0  0
    7.9719   -1.5210    0.0000 C   0  0
    7.2644   -1.1103    0.0000 C   0  0
    6.5526   -1.5170    0.0000 C   0  0
  5 20  1  0
  2 37  1  0
 50 17  1  0
 31 16  1  0
 28 41  2  0
 44  3  1  0
 40 13  1  0
 33  6  2  0
 46 36  1  0
 27 10  1  0
 30 45  1  0
 33 43  1  0
 30 35  1  0
 31 23  1  0
  7  4  1  0
 24  2  2  0
 13  7  1  0
 30 42  1  0
 50 25  1  0
  7 21  1  1
  9 19  1  0
  8 38  1  0
 34 15  1  0
 19 30  1  0
 11 31  1  0
 12 46  2  0
 14  3  1  0
 15  5  1  0
 15 44  1  1
 27 11  1  1
 26 24  1  0
  4 34  1  0
 10  8  1  0
 41 12  1  0
  4 39  2  0
 37 14  2  0
  3 26  2  0
 38 22  1  1
 36 51  2  0
 22 41  1  0
 10 29  2  0
  9 32  2  0
 21 50  1  0
 48 49  1  0
 38 40  1  0
 47 48  1  0
 48 33  1  1
 43 27  1  0
 40 18  2  0
 51 28  1  0
 47  9  1  0
  5  1  2  0
 49 52  1  0
 52 53  1  0
 52 57  1  0
 53 54  1  0
 54 55  1  0
 55 56  1  0
 56 57  1  0
M  END