
  SciTegic05161214222D

 57 60  0  0  0  0            999 V2000
   25.7252  -11.9379    0.0000 C   0  0
   26.4400  -11.5259    0.0000 C   0  0
   21.4458  -11.1208    0.0000 C   0  0
   21.4458  -11.9458    0.0000 C   0  0
   22.1579  -12.3542    0.0000 O   0  0
   22.8699  -11.9458    0.0000 C   0  0
   22.8699  -11.1208    0.0000 C   0  0
   22.1579  -10.7042    0.0000 C   0  0
   20.7281  -10.7156    0.0000 S   0  0
   20.3198  -11.4325    0.0000 O   0  0
   21.1448  -11.4277    0.0000 O   0  0
   17.8611   -5.7791    0.0000 C   0  0
   17.8599   -6.6065    0.0000 C   0  0
   18.5747   -7.0194    0.0000 C   0  0
   18.5729   -5.3664    0.0000 C   0  0
   19.2883   -5.7755    0.0000 C   0  0
   19.2891   -6.6023    0.0000 C   0  0
   20.0044   -7.0133    0.0000 N   0  0
   20.7194   -6.5985    0.0000 C   0  0
   20.7146   -5.7686    0.0000 C   0  0
   19.9987   -5.3613    0.0000 C   0  0
   21.4355   -7.0083    0.0000 C   0  0
   19.9944   -4.5364    0.0000 C   0  0
   18.5766   -7.8444    0.0000 O   0  0
   19.2921   -8.2552    0.0000 C   0  0
   19.2940   -9.0802    0.0000 C   0  0
   18.5779   -9.4900    0.0000 C   0  0
   18.5794  -10.3142    0.0000 C   0  0
   19.2954  -10.7259    0.0000 C   0  0
   20.0113  -10.3073    0.0000 C   0  0
   20.0062   -9.4844    0.0000 C   0  0
   17.8638   -9.0768    0.0000 Cl  0  0
   20.7179   -9.0671    0.0000 Cl  0  0
   21.4402  -10.2989    0.0000 N   0  0
   22.8691  -10.2906    0.0000 C   0  0
   23.5848  -10.7009    0.0000 N   0  0
   22.8666   -9.4656    0.0000 O   0  0
   23.5838  -11.5259    0.0000 C   0  0
   24.2954  -11.9361    0.0000 C   0  0
   25.0110  -11.5249    0.0000 N   0  0
   25.0105  -10.6989    0.0000 C   0  0
   24.2943  -10.2842    0.0000 C   0  0
   25.7246  -12.7629    0.0000 O   0  0
   27.1541  -11.9389    0.0000 C   0  0
   27.8689  -11.5269    0.0000 C   0  0
   28.5831  -11.9399    0.0000 C   0  0
   29.2978  -11.5279    0.0000 N   0  3
   30.0120  -11.9409    0.0000 C   0  0
   29.2984  -10.7029    0.0000 C   0  0
   29.5108  -12.3249    0.0000 C   0  0
   26.5659   -9.8676    0.0000 F   0  0
   27.2803   -9.4551    0.0000 C   0  0
   27.9948   -9.8676    0.0000 F   0  0
   27.2742  -10.2759    0.0000 F   0  0
   27.2834   -8.6301    0.0000 C   0  0
   27.9994   -8.2203    0.0000 O   0  5
   26.5705   -8.2149    0.0000 O   0  0
 13 14  1  0
 25 26  1  0
 14 17  2  0
 26 27  2  0
  6  7  1  0
 27 28  1  0
 16 15  2  0
 28 29  2  0
 15 12  1  0
 29 30  1  0
  7  8  1  0
 30 31  2  0
 31 26  1  0
 10  9  2  0
 27 32  1  0
 16 17  1  0
 31 33  1  0
 30  9  1  0
  9 11  2  0
  9 34  1  0
 34  8  1  0
 17 18  1  0
  8 35  1  0
 35 36  1  0
 18 19  2  0
 35 37  2  0
 36 38  1  0
  1  2  1  0
 19 20  1  0
  3  4  1  0
 20 21  2  0
 21 16  1  0
 36 42  1  0
 38 39  1  0
 39 40  1  0
 40 41  1  0
 41 42  1  0
 40  1  1  0
  3  8  1  0
  1 43  2  0
 19 22  1  0
  2 44  1  0
  4  5  1  0
 44 45  1  0
 21 23  1  0
 45 46  1  0
 12 13  2  0
 46 47  1  0
 14 24  1  0
 47 48  1  0
  5  6  1  0
 47 49  1  0
 24 25  1  0
 47 50  1  0
 51 52  1  0
 52 54  1  0
 52 55  1  0
 52 53  1  0
 55 56  1  0
 55 57  2  0
M  CHG  2  47   1  56  -1
M  END