
          11280715042D 1   1.00000     0.00000     0

 36 37  0     0  0            999 V2000
   -0.7958   -2.2500    0.0000 S   0  0  3  0  0  0           0  0  0
    1.1750   -0.8500    0.0000 C   0  0  0  0  0  0           0  0  0
   -0.2958   -1.9000    0.0000 C   0  0  0  0  0  0           0  0  0
    1.7250   -1.1000    0.0000 N   0  0  0  0  0  0           0  0  0
   -1.1375   -1.7542    0.0000 O   0  0  0  0  0  0           0  0  0
   -0.4458   -2.7417    0.0000 O   0  0  0  0  0  0           0  0  0
    2.1500   -0.1500    0.0000 C   0  0  0  0  0  0           0  0  0
    3.2417   -0.6500    0.0000 C   0  0  0  0  0  0           0  0  0
    4.4042   -1.7500    0.0000 C   0  0  0  0  0  0           0  0  0
    0.6875   -1.2000    0.0000 C   0  0  0  0  0  0           0  0  0
   -1.2875   -2.5917    0.0000 N   0  0  0  0  0  0           0  0  0
    3.7917   -0.9000    0.0000 N   0  0  0  0  0  0           0  0  0
    2.6375    0.2000    0.0000 N   0  0  0  0  0  0           0  0  0
    1.1125   -0.2500    0.0000 O   0  0  0  0  0  0           0  0  0
    1.6000    0.1000    0.0000 O   0  0  0  0  0  0           0  0  0
    2.7542   -1.0000    0.0000 O   0  0  0  0  0  0           0  0  0
    4.8917   -1.4000    0.0000 O   0  0  0  0  0  0           0  0  0
   -0.3500   -1.3000    0.0000 C   0  0  0  0  0  0           0  0  0
    0.2625   -2.1500    0.0000 C   0  0  0  0  0  0           0  0  0
    0.7500   -1.8000    0.0000 C   0  0  0  0  0  0           0  0  0
    0.1375   -0.9500    0.0000 C   0  0  0  0  0  0           0  0  0
    4.4667   -2.3500    0.0000 O   0  0  0  0  0  0           0  0  0
    2.2125   -0.7500    0.0000 C   0  0  0  0  0  0           0  0  0
    3.1792   -0.0500    0.0000 C   0  0  0  0  0  0           0  0  0
    3.8542   -1.5000    0.0000 C   0  0  0  0  0  0           0  0  0
    5.0667   -3.2000    0.0000 C   0  0  0  0  0  0           0  0  0
    5.0125   -2.6000    0.0000 C   0  0  0  0  0  0           0  0  0
    5.2000   -4.3917    0.0000 C   0  0  0  0  0  0           0  0  0
    4.5875   -3.5542    0.0000 C   0  0  0  0  0  0           0  0  0
    5.6167   -3.4417    0.0000 C   0  0  0  0  0  0           0  0  0
    5.6792   -4.0375    0.0000 C   0  0  0  0  0  0           0  0  0
    4.6542   -4.1542    0.0000 C   0  0  0  0  0  0           0  0  0
    5.2625   -4.9875    0.0000 C   0  0  0  0  0  0           0  0  0
    4.7792   -5.3417    0.0000 C   0  0  0  0  0  0           0  0  0
    4.8417   -5.9417    0.0000 C   0  0  0  0  0  0           0  0  0
    4.3625   -6.2917    0.0000 C   0  0  0  0  0  0           0  0  0
  2 10  1  0     0  0
  3  1  1  0     0  0
  4  2  1  0     0  0
  5  1  2  0     0  0
  6  1  2  0     0  0
  7 23  1  0     0  0
  8 24  1  0     0  0
  9 25  1  0     0  0
 10 20  2  0     0  0
 11  1  1  0     0  0
 12  8  1  0     0  0
 13  7  1  0     0  0
 14  2  2  0     0  0
 15  7  2  0     0  0
 16  8  2  0     0  0
 17  9  2  0     0  0
 18  3  1  0     0  0
 19  3  2  0     0  0
 20 19  1  0     0  0
 21 18  2  0     0  0
 22  9  1  0     0  0
 23  4  1  0     0  0
 24 13  1  0     0  0
 25 12  1  0     0  0
 26 27  1  0     0  0
 27 22  1  0     0  0
 28 31  1  0     0  0
 29 26  2  0     0  0
 30 26  1  0     0  0
 31 30  2  0     0  0
 32 29  1  0     0  0
 33 28  1  0     0  0
 34 33  1  0     0  0
 35 34  1  0     0  0
 36 35  1  0     0  0
 10 21  1  0     0  0
 32 28  2  0     0  0
M  END