
          11280715112D 1   1.00000     0.00000     0

 29 32  0     1  0            999 V2000
    4.2792   -5.1167    0.0000 N   0  0  3  0  0  0           0  0  0
    3.5667   -4.7000    0.0000 C   0  0  0  0  0  0           0  0  0
    2.8625   -5.1167    0.0000 C   0  0  1  0  0  0           0  0  0
    4.2875   -5.9375    0.0000 C   0  0  1  0  0  0           0  0  0
    4.2792   -6.7625    0.0000 C   0  0  0  0  0  0           0  0  0
    2.1417   -4.7042    0.0000 N   0  0  0  0  0  0           0  0  0
    3.5667   -6.3500    0.0000 C   0  0  0  0  0  0           0  0  0
    2.2750   -5.7000    0.0000 C   0  0  0  0  0  0           0  0  0
    1.4292   -5.1167    0.0000 C   0  0  0  0  0  0           0  0  0
    2.8625   -5.9417    0.0000 C   0  0  0  0  0  0           0  0  0
    3.5667   -3.8750    0.0000 O   0  0  0  0  0  0           0  0  0
    3.1000   -7.7792    0.0000 C   0  0  0  0  0  0           0  0  0
    2.4792   -6.4917    0.0000 C   0  0  0  0  0  0           0  0  0
    3.1625   -6.9625    0.0000 C   0  0  0  0  0  0           0  0  0
    3.5625   -7.1667    0.0000 O   0  0  0  0  0  0           0  0  0
    0.7167   -4.7042    0.0000 O   0  0  0  0  0  0           0  0  0
    2.3500   -8.1375    0.0000 C   0  0  0  0  0  0           0  0  0
    5.0625   -4.8542    0.0000 C   0  0  0  0  0  0           0  0  0
    1.6667   -7.6667    0.0000 C   0  0  0  0  0  0           0  0  0
    5.0667   -6.1875    0.0000 C   0  0  0  0  0  0           0  0  0
    4.9917   -7.1792    0.0000 O   0  0  0  0  0  0           0  0  0
    1.7375   -6.8500    0.0000 C   0  0  0  0  0  0           0  0  0
    5.5500   -5.5167    0.0000 C   0  0  0  0  0  0           0  0  0
    1.4292   -5.9417    0.0000 C   0  0  0  0  0  0           0  0  0
    3.7792   -8.2417    0.0000 C   0  0  0  0  0  0           0  0  0
    2.2875   -8.9625    0.0000 C   0  0  0  0  0  0           0  0  0
    4.9792   -8.0042    0.0000 C   0  0  0  0  0  0           0  0  0
    3.7167   -9.0667    0.0000 C   0  0  0  0  0  0           0  0  0
    2.9667   -9.4292    0.0000 C   0  0  0  0  0  0           0  0  0
  2  1  1  0     0  0
  3  2  1  0     0  0
  4  1  1  0     0  0
  4  5  1  1     0  0
  3  6  1  1     0  0
  7  4  1  0     0  0
  3  8  1  6     0  0
  9  6  1  0     0  0
 10  7  1  0     0  0
 11  2  2  0     0  0
 12 14  2  0     0  0
 13  8  1  0     0  0
 14 13  1  0     0  0
 15  5  2  0     0  0
 16  9  2  0     0  0
 17 19  2  0     0  0
 18  1  1  0     0  0
 19 22  1  0     0  0
 20  4  1  0     0  0
 21  5  1  0     0  0
 22 13  2  0     0  0
 23 18  1  0     0  0
 24  9  1  0     0  0
 25 12  1  0     0  0
 26 17  1  0     0  0
 27 21  1  0     0  0
 28 25  2  0     0  0
 29 26  2  0     0  0
 20 23  1  0     0  0
  3 10  1  0     0  0
 12 17  1  0     0  0
 28 29  1  0     0  0
M  END