
          11280715332D 1   1.00000     0.00000     0

 25 25  0     0  0            999 V2000
    0.8542   -1.8375    0.0000 S   0  0  3  0  0  0           0  0  0
    4.1417   -1.8250    0.0000 C   0  0  0  0  0  0           0  0  0
    7.0250   -3.9625    0.0000 C   0  0  3  0  0  0           0  0  0
    7.8500   -3.9792    0.0000 C   0  0  0  0  0  0           0  0  0
    6.6292   -3.2375    0.0000 N   0  0  0  0  0  0           0  0  0
    1.6750   -1.8375    0.0000 C   0  0  0  0  0  0           0  0  0
    5.8042   -3.2417    0.0000 C   0  0  0  0  0  0           0  0  0
    4.5625   -2.5375    0.0000 N   0  0  0  0  0  0           0  0  0
    0.8500   -2.6625    0.0000 O   0  0  0  0  0  0           0  0  0
    0.8542   -1.0125    0.0000 O   0  0  0  0  0  0           0  0  0
    3.3167   -1.8292    0.0000 C   0  0  0  0  0  0           0  0  0
    0.0250   -1.8292    0.0000 N   0  0  0  0  0  0           0  0  0
    4.5542   -1.1042    0.0000 O   0  0  0  0  0  0           0  0  0
    8.2792   -3.2750    0.0000 O   0  0  0  0  0  0           0  0  0
    6.6000   -4.6667    0.0000 C   0  0  0  0  0  0           0  0  0
    5.3917   -3.9542    0.0000 O   0  0  0  0  0  0           0  0  0
    2.0792   -1.1250    0.0000 C   0  0  0  0  0  0           0  0  0
    2.0917   -2.5500    0.0000 C   0  0  0  0  0  0           0  0  0
    2.9125   -2.5417    0.0000 C   0  0  0  0  0  0           0  0  0
    2.9000   -1.1167    0.0000 C   0  0  0  0  0  0           0  0  0
    5.3875   -2.5292    0.0000 C   0  0  0  0  0  0           0  0  0
    8.2417   -4.7042    0.0000 O   0  0  0  0  0  0           0  0  0
    6.9917   -5.3875    0.0000 C   0  0  3  0  0  0           0  0  0
    6.5667   -6.0917    0.0000 C   0  0  0  0  0  0           0  0  0
    7.8167   -5.4042    0.0000 C   0  0  0  0  0  0           0  0  0
  2 11  1  0     0  0
  3  5  1  0     0  0
  4  3  1  0     0  0
  5  7  1  0     0  0
  6  1  1  0     0  0
  7 21  1  0     0  0
  8  2  1  0     0  0
  9  1  2  0     0  0
 10  1  2  0     0  0
 11 19  2  0     0  0
 12  1  1  0     0  0
 13  2  2  0     0  0
 14  4  2  0     0  0
 15  3  1  0     0  0
 16  7  2  0     0  0
 17  6  1  0     0  0
 18  6  2  0     0  0
 19 18  1  0     0  0
 20 17  2  0     0  0
 21  8  1  0     0  0
 22  4  1  0     0  0
 23 15  1  0     0  0
 24 23  1  0     0  0
 25 23  1  0     0  0
 11 20  1  0     0  0
M  END