
  SciTegic05071317032D

 38 38  0  0  0  0            999 V2000
    0.3611   -7.1249    0.0000 C   0  0
    0.3599   -7.9524    0.0000 C   0  0
    1.0748   -8.3652    0.0000 C   0  0
    1.7912   -7.9519    0.0000 C   0  0
    1.7883   -7.1213    0.0000 C   0  0
    1.0730   -6.7122    0.0000 C   0  0
    2.5012   -6.7062    0.0000 O   0  0
    3.2173   -7.1160    0.0000 C   0  0
    3.9302   -6.7007    0.0000 C   0  0
    4.6462   -7.1106    0.0000 C   0  0
    5.3591   -6.6954    0.0000 C   0  0
    6.0751   -7.1052    0.0000 C   0  0
    6.7881   -6.6900    0.0000 C   0  0
    7.5040   -7.0998    0.0000 C   0  0
    8.2170   -6.6846    0.0000 C   0  0
    8.9330   -7.0945    0.0000 C   0  0
    9.6459   -6.6792    0.0000 N   0  0
   10.3617   -7.0912    0.0000 C   0  0
   11.0725   -6.6795    0.0000 C   0  0
   11.0736   -5.8542    0.0000 N   0  0
   10.3577   -5.4422    0.0000 C   0  0
    9.6408   -5.8555    0.0000 C   0  0
   11.7881   -5.4417    0.0000 C   0  0
   12.5025   -5.8542    0.0000 C   0  0
   13.2170   -5.4417    0.0000 C   0  0
   13.9315   -5.8542    0.0000 C   0  0
   14.6459   -5.4417    0.0000 N   0  0
   15.3605   -5.8543    0.0000 C   0  0
   14.6460   -4.6168    0.0000 C   0  0
   15.3605   -4.2043    0.0000 C   0  0
   13.9292   -4.2042    0.0000 O   0  0
   16.0733   -4.6215    0.0000 C   0  0
   16.7873   -4.2097    0.0000 C   0  0
   16.7878   -3.3838    0.0000 C   0  0
   16.0683   -2.9715    0.0000 C   0  0
   15.3573   -3.3856    0.0000 C   0  0
    9.0511   -8.2178    0.0000 Cl  0  0
   11.1964   -8.2205    0.0000 Cl  0  0
  1  2  2  0
  2  3  1  0
  3  4  2  0
  4  5  1  0
  5  6  2  0
  6  1  1  0
  5  7  1  0
  7  8  1  0
  8  9  1  0
  9 10  1  0
 10 11  1  0
 11 12  1  0
 12 13  1  0
 13 14  1  0
 14 15  1  0
 15 16  1  0
 16 17  1  0
 17 18  1  0
 17 22  1  0
 18 19  1  0
 19 20  1  0
 20 21  1  0
 21 22  1  0
 20 23  1  0
 23 24  1  0
 24 25  1  0
 25 26  1  0
 26 27  1  0
 27 28  1  0
 27 29  1  0
 29 30  1  0
 29 31  2  0
 30 32  2  0
 32 33  1  0
 33 34  2  0
 34 35  1  0
 35 36  2  0
 36 30  1  0
M  END