
  SciTegic10041313272D

 31 32  0  0  1  0            999 V2000
    4.3125   -8.5417    0.0000 C   0  0
    6.4542   -8.9667    0.0000 C   0  0
    5.0250   -8.9542    0.0000 N   0  0
    3.5917   -8.9542    0.0000 N   0  0
    5.7417   -8.5417    0.0000 C   0  0  1  0  0  0
    7.1667   -8.5542    0.0000 N   0  0
    9.4162   -8.0672    0.0000 N   0  0
    8.5917   -8.5542    0.0000 C   0  0
    4.3042   -7.7167    0.0000 O   0  0
    5.7417   -7.7167    0.0000 C   0  0
    6.4500   -9.7917    0.0000 O   0  0
    7.8792   -8.9750    0.0000 C   0  0  2  0  0  0
    5.3292   -7.0042    0.0000 C   0  0
    2.1667   -9.7792    0.0000 O   0  0
    7.8750  -10.4000    0.0000 O   0  0
    3.5917   -9.7792    0.0000 C   0  0
    2.8792   -8.5292    0.0000 C   0  0
    7.8750  -11.8292    0.0000 C   0  0
    8.2917   -9.6792    0.0000 C   0  0
    2.8792  -10.1792    0.0000 C   0  0
    2.1667   -8.9542    0.0000 C   0  0
    8.2875  -11.1125    0.0000 C   0  0
    5.7375   -6.2875    0.0000 C   0  0
    4.5042   -7.0042    0.0000 C   0  0
    6.1250   -6.7875    0.0000 C   0  0
    8.2792  -12.5375    0.0000 C   0  0
    7.0417  -11.8250    0.0000 C   0  0
    6.6292  -12.5375    0.0000 C   0  0
    7.8750  -13.2500    0.0000 C   0  0
    7.0417  -13.2542    0.0000 C   0  0
    7.4667   -9.6792    0.0000 H   0  0
  2  5  1  0
  3  1  1  0
  4  1  1  0
  5  3  1  0
  6  2  1  0
  7  8  3  0
  8 12  1  0
  9  1  2  0
  5 10  1  1
 11  2  2  0
 12  6  1  0
 13 10  1  0
 14 21  1  0
 15 19  1  0
 16  4  1  0
 17  4  1  0
 18 22  1  0
 12 19  1  6
 20 16  1  0
 21 17  1  0
 22 15  1  0
 23 13  1  0
 24 13  1  0
 25 13  1  0
 26 18  1  0
 27 18  2  0
 28 27  1  0
 29 26  2  0
 30 28  2  0
 12 31  1  1
 14 20  1  0
 30 29  1  0
M  END