
          11280715422D 1   1.00000     0.00000     0

 32 35  0     1  0            999 V2000
   -0.0333    0.0458    0.0000 N   0  0  3  0  0  0           0  0  0
   -0.8333   -0.1375    0.0000 C   0  0  0  0  0  0           0  0  0
   -1.4625    0.3750    0.0000 C   0  0  0  0  0  0           0  0  0
   -0.0333    1.5375    0.0000 C   0  0  0  0  0  0           0  0  0
   -0.8333    1.7125    0.0000 N   0  0  0  0  0  0           0  0  0
    0.3375    0.7833    0.0000 C   0  0  1  0  0  0           0  0  0
   -1.4625    1.2000    0.0000 C   0  0  0  0  0  0           0  0  0
    0.4792   -0.6000    0.0000 C   0  0  1  0  0  0           0  0  0
    1.3042   -0.4875    0.0000 C   0  0  0  0  0  0           0  0  0
   -1.0083   -0.9542    0.0000 O   0  0  0  0  0  0           0  0  0
   -2.1833   -0.0292    0.0000 C   0  0  0  0  0  0           0  0  0
    0.4792    2.1833    0.0000 O   0  0  0  0  0  0           0  0  0
    1.1292    1.0000    0.0000 C   0  0  0  0  0  0           0  0  0
    0.1792   -1.3750    0.0000 C   0  0  0  0  0  0           0  0  0
    1.4042   -0.0167    0.0000 O   0  0  0  0  0  0           0  0  0
   -2.1833    1.6125    0.0000 C   0  0  0  0  0  0           0  0  0
    1.7042    0.4208    0.0000 C   0  0  0  0  0  0           0  0  0
    1.3375    1.7958    0.0000 C   0  0  0  0  0  0           0  0  0
    0.6917   -2.0167    0.0000 C   0  0  0  0  0  0           0  0  0
   -0.6458   -1.4875    0.0000 C   0  0  0  0  0  0           0  0  0
   -2.8958    0.3750    0.0000 C   0  0  0  0  0  0           0  0  0
    1.8167   -1.1375    0.0000 O   0  0  0  0  0  0           0  0  0
    2.7042    1.4375    0.0000 C   0  0  0  0  0  0           0  0  0
   -0.4458   -2.9000    0.0000 C   0  0  0  0  0  0           0  0  0
   -2.8958    1.2000    0.0000 C   0  0  0  0  0  0           0  0  0
    2.1167    2.0208    0.0000 C   0  0  0  0  0  0           0  0  0
    0.3792   -2.7875    0.0000 C   0  0  0  0  0  0           0  0  0
   -0.9458   -2.2542    0.0000 C   0  0  0  0  0  0           0  0  0
    2.5042    0.6375    0.0000 C   0  0  0  0  0  0           0  0  0
   -3.6208   -0.0292    0.0000 I   0  0  0  0  0  0           0  0  0
    3.5042    1.6625    0.0000 Cl  0  0  0  0  0  0           0  0  0
   -0.7458   -3.6792    0.0000 Cl  0  0  0  0  0  0           0  0  0
  2  1  1  0     0  0
  3  2  1  0     0  0
  4  6  1  0     0  0
  5  4  1  0     0  0
  6  1  1  0     0  0
  7  3  1  0     0  0
  8  1  1  0     0  0
  8  9  1  1     0  0
 10  2  2  0     0  0
 11  3  2  0     0  0
 12  4  2  0     0  0
  6 13  1  1     0  0
 14  8  1  0     0  0
 15  9  2  0     0  0
 16  7  2  0     0  0
 17 13  2  0     0  0
 18 13  1  0     0  0
 19 14  1  0     0  0
 20 14  2  0     0  0
 21 11  1  0     0  0
 22  9  1  0     0  0
 23 26  1  0     0  0
 24 28  2  0     0  0
 25 21  2  0     0  0
 26 18  2  0     0  0
 27 19  2  0     0  0
 28 20  1  0     0  0
 29 17  1  0     0  0
 30 21  1  0     0  0
 31 23  1  0     0  0
 32 24  1  0     0  0
  7  5  1  0     0  0
 24 27  1  0     0  0
 23 29  2  0     0  0
 25 16  1  0     0  0
M  END