
  SciTegic12151613582D

 24 25  0  0  0  0            999 V2000
    2.5973   -1.5031    0.0000 C   0  0
    1.2990   -0.7500    0.0000 C   0  0
    1.2990    0.7500    0.0000 C   0  0
    0.0000    1.5000    0.0000 C   0  0
   -1.2990    0.7500    0.0000 C   0  0
   -1.2990   -0.7500    0.0000 C   0  0
    0.0000   -1.5000    0.0000 C   0  0
    2.5956   -2.7031    0.0000 O   0  0
    3.6375   -0.9049    0.0000 O   0  0
   -1.3039    3.7494    0.0000 C   0  0
   -1.3070    5.2502    0.0000 C   0  0
   -2.6061    6.0003    0.0000 C   0  0
   -2.6061    7.5003    0.0000 C   0  0
   -1.3071    8.2503    0.0000 C   0  0
   -0.0080    7.5003    0.0000 C   0  0
   -0.0080    6.0003    0.0000 C   0  0
   -2.3421    3.1476    0.0000 O   0  0
   -0.0031    3.0008    0.0000 N   0  0
   -3.9074    5.2525    0.0000 O   0  0
   -5.2061    6.0048    0.0000 C   0  0
   -6.2465    5.4070    0.0000 C   0  0
    1.2933    8.2481    0.0000 C   0  0
    2.3316    7.6467    0.0000 O   0  0
    1.2953    9.4481    0.0000 C   0  0
  1  2  1  0
  2  3  1  0
  3  4  2  0
  4  5  1  0
  5  6  2  0
  6  7  1  0
  2  7  2  0
  1  8  2  0
  1  9  1  0
 10 11  1  0
 11 12  1  0
 12 13  2  0
 13 14  1  0
 14 15  2  0
 15 16  1  0
 11 16  2  0
 10 17  2  0
 10 18  1  0
 20 21  1  0
 19 20  1  0
 12 19  1  0
 22 23  2  0
 22 24  1  0
 15 22  1  0
  4 18  1  0
M  END