
  CDK    9/16/09,9:47

 34 36  0  0  0  0  0  0  0  0999 V2000
    0.9363  -15.8014    0.0000 N   0  0  0  0  0  0  0  0  0  0  0  0
    0.7199  -15.0055    0.0000 C   0  0  0  0  0  0  0  0  0  0  0  0
   -0.1062  -14.9686    0.0000 C   0  0  0  0  0  0  0  0  0  0  0  0
    1.1056  -14.2710    0.0000 C   0  0  0  0  0  0  0  0  0  0  0  0
    1.9284  -14.2368    0.0000 C   0  0  0  0  0  0  0  0  0  0  0  0
    1.7609  -15.7707    0.0000 C   0  0  0  0  0  0  0  0  0  0  0  0
    2.1964  -16.4713    0.0000 C   0  0  0  0  0  0  0  0  0  0  0  0
    3.0274  -16.4433    0.0000 C   0  0  0  0  0  0  0  0  0  0  0  0
    3.4637  -17.1408    0.0000 C   0  0  0  0  0  0  0  0  0  0  0  0
    4.2884  -17.1106    0.0000 C   0  0  0  0  0  0  0  0  0  0  0  0
    4.7239  -17.8071    0.0000 C   0  0  0  0  0  0  0  0  0  0  0  0
    5.5516  -17.7825    0.0000 C   0  0  0  0  0  0  0  0  0  0  0  0
    5.9870  -18.4766    0.0000 O   0  0  0  0  0  0  0  0  0  0  0  0
    5.9383  -17.0519    0.0000 O   0  0  0  0  0  0  0  0  0  0  0  0
    3.4080  -15.7151    0.0000 O   0  0  0  0  0  0  0  0  0  0  0  0
    4.6711  -16.3783    0.0000 O   0  0  0  0  0  0  0  0  0  0  0  0
   -0.5579  -14.2791    0.0000 C   0  0  0  0  0  0  0  0  0  0  0  0
   -1.3777  -14.2705    0.0000 N   0  0  0  0  0  0  0  0  0  0  0  0
   -0.1886  -13.5467    0.0000 O   0  0  0  0  0  0  0  0  0  0  0  0
   -1.7802  -13.5549    0.0000 C   0  0  0  0  0  0  0  0  0  0  0  0
   -2.6021  -13.5400    0.0000 C   0  0  0  0  0  0  0  0  0  0  0  0
   -2.9984  -12.8229    0.0000 C   0  0  0  0  0  0  0  0  0  0  0  0
   -3.8204  -12.8072    0.0000 C   0  0  0  0  0  0  0  0  0  0  0  0
   -4.2436  -13.5154    0.0000 C   0  0  0  0  0  0  0  0  0  0  0  0
   -3.8416  -14.2366    0.0000 C   0  0  0  0  0  0  0  0  0  0  0  0
   -3.0162  -14.2442    0.0000 C   0  0  0  0  0  0  0  0  0  0  0  0
   -0.4011  -15.7336    0.0000 C   0  0  0  0  0  0  0  0  0  0  0  0
    0.2408  -16.2518    0.0000 C   0  0  0  0  0  0  0  0  0  0  0  0
    0.2386  -17.0825    0.0000 C   0  0  0  0  0  0  0  0  0  0  0  0
   -1.2116  -15.9155    0.0000 C   0  0  0  0  0  0  0  0  0  0  0  0
   -0.4077  -17.5993    0.0000 C   0  0  0  0  0  0  0  0  0  0  0  0
   -1.5737  -16.6626    0.0000 C   0  0  0  0  0  0  0  0  0  0  0  0
   -1.2135  -17.4102    0.0000 C   0  0  0  0  0  0  0  0  0  0  0  0
    0.6649  -13.5746    0.0000 C   0  0  0  0  0  0  0  0  0  0  0  0
  6  7  1  0  0  0  0 
  7  8  1  0  0  0  0 
  8  9  1  0  0  0  0 
  9 10  1  0  0  0  0 
 10 11  1  0  0  0  0 
 11 12  1  0  0  0  0 
 12 13  1  0  0  0  0 
 12 14  2  0  0  0  0 
  8 15  1  1  0  0  0 
 10 16  1  1  0  0  0 
  3 17  1  0  0  0  0 
 17 18  1  0  0  0  0 
 17 19  2  0  0  0  0 
 18 20  1  0  0  0  0 
 20 21  1  0  0  0  0 
 21 22  2  0  0  0  0 
 22 23  1  0  0  0  0 
 23 24  2  0  0  0  0 
 24 25  1  0  0  0  0 
 25 26  2  0  0  0  0 
 26 21  1  0  0  0  0 
 28  1  1  0  0  0  0 
 27 28  2  0  0  0  0 
  1  2  1  0  0  0  0 
 28 29  1  0  0  0  0 
  2  3  2  0  0  0  0 
 27 30  1  0  0  0  0 
  3 27  1  0  0  0  0 
 29 31  1  0  0  0  0 
  2  4  1  0  0  0  0 
 30 32  1  0  0  0  0 
  4  5  1  0  0  0  0 
 31 33  1  0  0  0  0 
 32 33  1  0  0  0  0 
  1  6  1  0  0  0  0 
  4 34  1  0  0  0  0 
M  END