
          11280714492D 1   1.00000     0.00000     0

 36 40  0     0  0            999 V2000
   -0.4375   -0.4542    0.0000 C   0  0  0  0  0  0           0  0  0
    0.3875   -0.5167    0.0000 N   0  0  0  0  0  0           0  0  0
   -0.8708    0.2458    0.0000 C   0  0  3  0  0  0           0  0  0
    0.5792   -1.3167    0.0000 C   0  0  0  0  0  0           0  0  0
   -0.4083    0.7958    0.0000 C   0  0  3  0  0  0           0  0  0
   -1.6458    0.0708    0.0000 C   0  0  3  0  0  0           0  0  0
   -1.6500   -0.6500    0.0000 O   0  0  0  0  0  0           0  0  0
   -0.7500   -1.2167    0.0000 O   0  0  0  0  0  0           0  0  0
   -1.1583    0.7250    0.0000 C   0  0  3  0  0  0           0  0  0
   -0.1250   -1.7542    0.0000 C   0  0  0  0  0  0           0  0  0
    1.3417   -1.6375    0.0000 C   0  0  0  0  0  0           0  0  0
    0.2167    1.1250    0.0000 C   0  0  0  0  0  0           0  0  0
    0.2500    1.8375    0.0000 C   0  0  0  0  0  0           0  0  0
    2.7292    1.7333    0.0000 C   0  0  0  0  0  0           0  0  0
   -2.1833    0.6083    0.0000 C   0  0  0  0  0  0           0  0  0
   -1.6625    1.1958    0.0000 C   0  0  0  0  0  0           0  0  0
    0.8875    2.1708    0.0000 C   0  0  0  0  0  0           0  0  0
    1.9917   -1.1375    0.0000 O   0  0  0  0  0  0           0  0  0
    3.3625    2.0708    0.0000 O   0  0  0  0  0  0           0  0  0
    1.4500   -2.4542    0.0000 N   0  0  0  0  0  0           0  0  0
    1.4917    1.7875    0.0000 C   0  0  0  0  0  0           0  0  0
    2.1250    2.1208    0.0000 C   0  0  0  0  0  0           0  0  0
    4.6042   -4.5292    0.0000 C   0  0  0  0  0  0           0  0  0
    2.6917    1.0208    0.0000 O   0  0  0  0  0  0           0  0  0
    3.0792   -3.9042    0.0000 C   0  0  0  0  0  0           0  0  0
    5.3667   -4.8500    0.0000 Cl  0  0  0  0  0  0           0  0  0
    4.4917   -3.7125    0.0000 C   0  0  0  0  0  0           0  0  0
    3.9417   -5.0375    0.0000 C   0  0  0  0  0  0           0  0  0
    3.7292   -3.4000    0.0000 C   0  0  0  0  0  0           0  0  0
    3.1875   -4.7167    0.0000 C   0  0  0  0  0  0           0  0  0
    2.2125   -2.7667    0.0000 C   0  0  0  0  0  0           0  0  0
   -0.3500    2.2208    0.0000 C   0  0  0  0  0  0           0  0  0
    2.3167   -3.5917    0.0000 C   0  0  0  0  0  0           0  0  0
    0.9167    2.8833    0.0000 C   0  0  0  0  0  0           0  0  0
   -0.3250    2.9333    0.0000 C   0  0  0  0  0  0           0  0  0
    0.3125    3.2708    0.0000 C   0  0  0  0  0  0           0  0  0
  2  1  2  0     0  0
  3  1  1  0     0  0
  4  2  1  0     0  0
  5  3  1  0     0  0
  6  3  1  0     0  0
  7  6  1  0     0  0
  8  1  1  0     0  0
  9  5  1  0     0  0
 10  8  1  0     0  0
 11  4  1  0     0  0
 12  5  1  0     0  0
 13 12  1  0     0  0
 14 22  1  0     0  0
 15  6  1  0     0  0
 16 15  1  0     0  0
 17 13  2  0     0  0
 18 11  2  0     0  0
 19 14  2  0     0  0
 20 11  1  0     0  0
 21 17  1  0     0  0
 22 21  1  0     0  0
 23 28  2  0     0  0
 24 14  1  0     0  0
 25 33  1  0     0  0
 26 23  1  0     0  0
 27 29  2  0     0  0
 28 30  1  0     0  0
 29 25  1  0     0  0
 30 25  2  0     0  0
 31 20  1  0     0  0
 32 13  1  0     0  0
 33 31  1  0     0  0
 34 17  1  0     0  0
 35 32  2  0     0  0
 36 35  1  0     0  0
  4 10  2  0     0  0
  9  7  1  0     0  0
 16  9  1  0     0  0
 36 34  2  0     0  0
 23 27  1  0     0  0
M  END