
  SciTegic07141513232D

 24 25  0  0  0  0            999 V2000
    5.2511   -5.5957    0.0000 C   0  0
    5.9645   -5.9985    0.0000 C   0  0
    5.2414   -7.2457    0.0000 N   0  0
    5.9645   -6.8235    0.0000 C   0  0
    4.5377   -6.0082    0.0000 N   0  0
    4.5377   -6.8235    0.0000 C   0  0
    3.8146   -4.7706    0.0000 C   0  0
    5.2414   -4.7706    0.0000 C   0  0
    4.5377   -4.3582    0.0000 C   0  0
    6.6779   -5.5860    0.0000 C   0  0
    6.6683   -4.7610    0.0000 O   0  0
    3.8146   -7.2361    0.0000 S   0  0
    3.1594   -5.1395    0.0000 F   0  0
    3.0042   -4.4601    0.0000 F   0  0
    3.6787   -5.6200    0.0000 F   0  0
    7.3913   -5.9985    0.0000 O   0  0
    6.6779   -7.2361    0.0000 C   0  0
    5.9645   -4.3582    0.0000 C   0  0
    4.5377   -3.5331    0.0000 C   0  0
    3.1108   -6.8042    0.0000 C   0  0
    8.1048   -5.5860    0.0000 C   0  0
    5.9645   -3.5234    0.0000 C   0  0
    5.2414   -3.1108    0.0000 C   0  0
    8.8182   -5.9985    0.0000 C   0  0
  2  1  1  0
  3  6  1  0
  4  2  2  0
  5  1  1  0
  6  5  2  0
  7  9  1  0
  8  1  1  0
  9  8  1  0
 10  2  1  0
 11 10  2  0
 12  6  1  0
 13  7  1  0
 14  7  1  0
 15  7  1  0
 16 10  1  0
 17  4  1  0
 18  8  2  0
 19  9  2  0
 20 12  1  0
 21 16  1  0
 22 18  1  0
 23 22  2  0
 24 21  1  0
  4  3  1  0
 19 23  1  0
M  END