
  SciTegic02231516322D

 19 18  0  0  0  0            999 V2000
    9.4621   -9.7692    0.0000 C   0  0
   10.1785   -9.3559    0.0000 C   0  0
   10.1756   -8.5253    0.0000 C   0  0
    9.4603   -8.1162    0.0000 C   0  0
   10.8886   -8.1101    0.0000 O   0  0
   11.6045   -8.5200    0.0000 C   0  0
   12.3175   -8.1048    0.0000 C   0  0
   13.0334   -8.5145    0.0000 C   0  0
   12.3143   -7.2798    0.0000 O   0  0
   13.7464   -8.0994    0.0000 N   0  0
   14.4623   -8.5092    0.0000 C   0  0
   15.1753   -8.0940    0.0000 C   0  0
   14.4655   -9.3342    0.0000 C   0  0
    8.7472   -9.3563    0.0000 C   0  0
    8.7499   -8.5298    0.0000 C   0  0
    8.0321   -9.7676    0.0000 C   0  0
    7.3183   -9.3539    0.0000 C   0  0
    6.6032   -9.7652    0.0000 C   0  0
    9.2185  -11.5914    0.0000 Cl  0  0
 14  1  1  0
  1  2  2  0
  2  3  1  0
  3  4  2  0
  4 15  1  0
  3  5  1  0
  5  6  1  0
  6  7  1  0
  7  8  1  0
  7  9  1  0
  8 10  1  0
 10 11  1  0
 11 12  1  0
 11 13  1  0
 14 15  2  0
 14 16  1  0
 16 17  1  0
 17 18  1  0
M  END