
  SciTegic04301217312D

 41 45  0  0  0  0            999 V2000
   11.0861    1.7584    0.0000 C   0  0
   11.0849    0.9310    0.0000 C   0  0
   11.7997    0.5181    0.0000 C   0  0
   11.7979    2.1711    0.0000 C   0  0
   12.5133    1.7620    0.0000 C   0  0
   12.5181    0.9356    0.0000 C   0  0
   13.3056    0.6847    0.0000 N   0  0
   13.7876    1.3562    0.0000 C   0  0
   13.2978    2.0219    0.0000 N   0  0
   14.6125    1.3611    0.0000 C   0  0
   15.0208    2.0780    0.0000 C   0  0
   15.8458    2.0828    0.0000 C   0  0
   13.5651   -0.0984    0.0000 C   0  0
   14.3875   -0.0958    0.0000 C   0  0
   14.7990   -0.8091    0.0000 C   0  0
   15.6206   -0.8069    0.0000 C   0  0
   16.0304   -0.0929    0.0000 C   0  0
   15.6126    0.6204    0.0000 C   0  0
   14.7924    0.6147    0.0000 C   0  0
   16.8522   -0.0891    0.0000 C   0  0
   17.2673   -0.8033    0.0000 C   0  0
   18.0915   -0.8000    0.0000 C   0  0
   18.5017   -0.0832    0.0000 C   0  0
   18.0816    0.6318    0.0000 C   0  0
   17.2587    0.6250    0.0000 C   0  0
   16.8390    1.3373    0.0000 C   0  0
   17.2463    2.0547    0.0000 O   0  0
   16.0140    1.3313    0.0000 O   0  0
   11.7955    2.9961    0.0000 C   0  0
   10.3701    0.5191    0.0000 C   0  0
    9.6560    0.9321    0.0000 N   0  0
   10.3695   -0.3059    0.0000 O   0  0
    8.9412    0.5202    0.0000 C   0  0
    8.2270    0.9333    0.0000 C   0  0
    6.7986    1.7625    0.0000 C   0  0
    6.7974    0.9352    0.0000 C   0  0
    7.5122    0.5223    0.0000 C   0  0
    8.2258    1.7662    0.0000 C   0  0
    7.5104    2.1753    0.0000 C   0  0
    8.9391    2.1807    0.0000 O   0  0
    8.9368    3.0057    0.0000 C   0  0
  9  5  1  0
  4  1  1  0
 20 21  2  0
  8 10  1  0
 21 22  1  0
  5  6  1  0
 22 23  2  0
 10 11  1  0
 23 24  1  0
 24 25  2  0
 25 20  1  0
 17 20  1  0
 11 12  1  0
  2  3  1  0
  7 13  1  0
 26 27  1  0
 26 28  2  0
 25 26  1  0
  3  6  2  0
  4 29  1  0
 13 14  1  0
  2 30  1  0
  1  2  2  0
 30 31  1  0
 14 15  2  0
 30 32  2  0
  5  4  2  0
 31 33  1  0
 15 16  1  0
 33 34  1  0
  6  7  1  0
 16 17  2  0
 35 36  2  0
  7  8  1  0
 36 37  1  0
 37 34  2  0
 17 18  1  0
 34 38  1  0
  8  9  2  0
 38 39  2  0
 39 35  1  0
 18 19  2  0
 38 40  1  0
 19 14  1  0
 40 41  1  0
M  END