
  SciTegic12201612172D

106110  0  0  0  0            999 V2000
    1.7526   -9.2932    0.0000 N   0  0
    2.9475   -9.1834    0.0000 C   0  0  1  0  0  0
    3.8134  -10.4092    0.0000 C   0  0
    3.1856  -11.7724    0.0000 C   0  0
    4.0492  -12.9989    0.0000 C   0  0
    5.2444  -12.8911    0.0000 C   0  0
    3.4190  -14.3601    0.0000 C   0  0
    1.9250  -14.4948    0.0000 C   0  0
    1.4208  -15.5838    0.0000 O   0  0
    1.0613  -13.2684    0.0000 C   0  0
    1.6916  -11.9073    0.0000 C   0  0
    1.0006  -10.9262    0.0000 C   0  0
    3.5754   -7.8202    0.0000 C   0  0
    2.7095   -6.5943    0.0000 N   0  0
    3.3373   -5.2311    0.0000 C   0  0  2  0  0  0
    4.8321   -5.0968    0.0000 C   0  0
    5.6966   -6.3236    0.0000 C   0  0
    7.1914   -6.1893    0.0000 C   0  0
    2.4714   -4.0052    0.0000 C   0  0
    3.0993   -2.6421    0.0000 N   0  0
    2.2325   -1.4158    0.0000 C   0  0  2  0  0  0
    2.9404    0.0000    0.0000 C   0  0
    2.2507    1.3976    0.0000 N   0  0
    3.1470    2.6032    0.0000 C   0  0
    2.5523    3.9811    0.0000 C   0  0
    3.4475    5.1857    0.0000 C   0  0
    2.8527    6.5637    0.0000 N   0  0
    3.7479    7.7683    0.0000 C   0  0  1  0  0  0
    5.2383    7.5918    0.0000 C   0  0
    5.8316    6.2132    0.0000 C   0  0
    7.3220    6.0367    0.0000 C   0  0
    7.9152    4.6581    0.0000 N   0  0
    9.4056    4.4816    0.0000 C   0  0
   10.1234    5.4433    0.0000 N   0  0
    9.8799    3.3793    0.0000 N   0  0
    3.1532    9.1462    0.0000 C   0  0
    4.0483   10.3508    0.0000 N   0  0
    3.4536   11.7288    0.0000 C   0  0  2  0  0  0
    4.3488   12.9334    0.0000 C   0  0
    3.7540   14.3114    0.0000 N   0  0
    4.6493   15.5159    0.0000 C   0  0  2  0  0  0
    6.1404   15.3455    0.0000 C   0  0
    7.0343   16.5511    0.0000 N   0  0
    8.5255   16.3807    0.0000 C   0  0  2  0  0  0
    9.4207   17.5853    0.0000 C   0  0
    8.8260   18.9633    0.0000 N   0  0
    9.7212   20.1679    0.0000 C   0  0  1  0  0  0
   11.2123   19.9975    0.0000 C   0  0  2  0  0  0
   12.1062   21.2031    0.0000 C   0  0
   13.2984   21.0668    0.0000 C   0  0
   11.6901   18.8967    0.0000 C   0  0
    9.1265   21.5458    0.0000 C   0  0
   10.0217   22.7504    0.0000 N   0  0
    9.4270   24.1284    0.0000 C   0  0  2  0  0  0
    7.9365   24.3049    0.0000 C   0  0
    7.2188   23.3433    0.0000 N   0  0
    7.4622   25.4072    0.0000 O   0  0
   10.3222   25.3330    0.0000 C   0  0
    9.7275   26.7110    0.0000 C   0  0
   10.6227   27.9155    0.0000 C   0  0
   10.0280   29.2935    0.0000 C   0  0
   10.7438   30.2567    0.0000 N   0  0
    7.9345   21.6845    0.0000 O   0  0
   10.6126   17.4466    0.0000 O   0  0
    9.1202   15.0028    0.0000 C   0  0
    8.2250   13.7982    0.0000 C   0  0
    8.8197   12.4202    0.0000 C   0  0
    7.9244   11.2156    0.0000 N   0  0
    8.5192    9.8377    0.0000 C   0  0
    9.7111    9.6990    0.0000 N   0  0
    7.8034    8.8745    0.0000 N   0  0
    6.6182   14.2448    0.0000 O   0  0
    4.0545   16.8939    0.0000 C   0  0
    4.9497   18.0985    0.0000 C   0  0
    4.3572   19.4766    0.0000 C   0  0
    5.2543   20.6788    0.0000 C   0  0
    6.7440   20.5029    0.0000 C   0  0
    7.4616   21.4646    0.0000 O   0  0
    7.3365   19.1249    0.0000 C   0  0
    6.4394   17.9228    0.0000 C   0  0
    5.5407   12.7947    0.0000 O   0  0
    1.9632   11.9053    0.0000 C   0  0
    1.3699   13.2839    0.0000 C   0  0
   -0.1194   13.4625    0.0000 C   0  0
   -0.7095   14.8415    0.0000 C   0  0
    0.1897   16.0421    0.0000 C   0  0
   -0.2824   17.1453    0.0000 O   0  0
    1.6791   15.8636    0.0000 C   0  0
    2.2692   14.4846    0.0000 C   0  0
    1.9612    9.2849    0.0000 O   0  0
    4.6394    5.0471    0.0000 O   0  0
    0.7805    1.6880    0.0000 C   0  0
    0.0000    0.7623    0.0000 C   0  0
   -1.4884    1.5247    0.0000 C   0  0
   -2.8315    0.7623    0.0000 C   0  0
   -2.8315   -0.7623    0.0000 C   0  0
   -1.4884   -1.5247    0.0000 C   0  0
    0.0000   -0.7623    0.0000 C   0  0
    0.7442   -1.6517    0.0000 C   0  0
    4.1404   -0.0031    0.0000 O   0  0
    1.2765   -4.1151    0.0000 O   0  0
    4.7703   -7.7103    0.0000 O   0  0
    8.0560   -7.4161    0.0000 N   0  0
    9.5508   -7.2817    0.0000 C   0  0
   10.0550   -6.1928    0.0000 N   0  0
   10.2420   -8.2627    0.0000 N   0  0
  2  1  1  6
  2  3  1  0
  3  4  1  0
  4  5  2  0
  5  6  1  0
  5  7  1  0
  7  8  2  0
  8  9  1  0
  8 10  1  0
 10 11  2  0
  4 11  1  0
 11 12  1  0
  2 13  1  0
 13 14  1  0
 15 14  1  1
 15 16  1  0
 16 17  1  0
 17 18  1  0
 15 19  1  0
 19 20  1  0
 21 20  1  1
 21 22  1  0
 22 23  1  0
 23 24  1  0
 24 25  1  0
 25 26  1  0
 26 27  1  0
 28 27  1  6
 28 29  1  0
 29 30  1  0
 30 31  1  0
 31 32  1  0
 32 33  1  0
 33 34  1  0
 33 35  2  0
 28 36  1  0
 36 37  1  0
 38 37  1  1
 38 39  1  0
 39 40  1  0
 41 40  1  1
 41 42  1  0
 42 43  1  0
 44 43  1  6
 44 45  1  0
 45 46  1  0
 47 46  1  6
 47 48  1  0
 48 49  1  0
 49 50  1  0
 48 51  1  6
 47 52  1  0
 52 53  1  0
 54 53  1  6
 54 55  1  0
 55 56  1  0
 55 57  2  0
 54 58  1  0
 58 59  1  0
 59 60  1  0
 60 61  1  0
 61 62  1  0
 52 63  2  0
 45 64  2  0
 44 65  1  0
 65 66  1  0
 66 67  1  0
 67 68  1  0
 68 69  1  0
 69 70  1  0
 69 71  2  0
 42 72  2  0
 41 73  1  0
 73 74  1  0
 74 75  2  0
 75 76  1  0
 76 77  2  0
 77 78  1  0
 77 79  1  0
 79 80  2  0
 74 80  1  0
 39 81  2  0
 38 82  1  0
 82 83  1  0
 83 84  2  0
 84 85  1  0
 85 86  2  0
 86 87  1  0
 86 88  1  0
 88 89  2  0
 83 89  1  0
 36 90  2  0
 26 91  2  0
 23 92  1  0
 92 93  1  0
 93 94  1  0
 94 95  2  0
 95 96  1  0
 96 97  2  0
 93 98  2  0
 97 98  1  0
 98 99  1  0
 21 99  1  0
 22100  2  0
 19101  2  0
 13102  2  0
 18103  1  0
103104  1  0
104105  1  0
104106  2  0
M  END