
  SciTegic10311316242D

 22 25  0  0  0  0            999 V2000
   15.2763   -8.8219    0.0000 C   0  0
   15.2752   -9.6492    0.0000 C   0  0
   15.9900  -10.0621    0.0000 C   0  0
   15.9882   -8.4091    0.0000 N   0  0
   16.7036   -8.8182    0.0000 C   0  0
   16.7043   -9.6451    0.0000 C   0  0
   17.4196  -10.0560    0.0000 N   0  0
   18.1347   -9.6413    0.0000 C   0  0
   18.1299   -8.8113    0.0000 N   0  0
   17.4140   -8.4041    0.0000 C   0  0
   18.8507  -10.0510    0.0000 N   0  0
   17.4096   -7.5791    0.0000 N   0  0
   17.9816   -6.9885    0.0000 C   0  0
   16.8203   -6.9848    0.0000 C   0  0
   17.3862   -6.4048    0.0000 C   0  0
   17.3771   -5.5798    0.0000 N   0  0
   18.0870   -5.1594    0.0000 C   0  0
   14.5631  -10.0645    0.0000 C   0  0
   13.8097   -9.7283    0.0000 C   0  0
   13.2572  -10.3410    0.0000 C   0  0
   13.6691  -11.0559    0.0000 C   0  0
   14.4762  -10.8848    0.0000 C   0  0
  1  2  2  0
  2  3  1  0
  3  6  2  0
  5  4  2  0
  4  1  1  0
  5  6  1  0
  6  7  1  0
  7  8  2  0
  8  9  1  0
  9 10  2  0
 10  5  1  0
  8 11  1  0
 10 12  1  0
 12 13  1  0
 12 14  1  0
 13 15  1  0
 14 15  1  0
 15 16  1  0
 16 17  1  0
 18 19  1  0
 19 20  1  0
 20 21  1  0
 21 22  1  0
 22 18  1  0
  2 18  1  0
M  END