
          11280715072D 1   1.00000     0.00000     0

 24 26  0     0  0            999 V2000
    2.6542   -1.4917    0.0000 C   0  0  0  0  0  0           0  0  0
    2.6792   -2.3125    0.0000 C   0  0  0  0  0  0           0  0  0
    1.9292   -1.0917    0.0000 C   0  0  0  0  0  0           0  0  0
    1.2292   -1.5250    0.0000 C   0  0  0  0  0  0           0  0  0
    1.9792   -2.7417    0.0000 C   0  0  0  0  0  0           0  0  0
    1.2500   -2.3500    0.0000 C   0  0  0  0  0  0           0  0  0
    3.3625   -1.0625    0.0000 C   0  0  0  0  0  0           0  0  0
    5.6167   -2.2375    0.0000 C   0  0  0  0  0  0           0  0  0
    6.2542   -1.0625    0.0000 S   0  0  0  0  0  0           0  0  0
    5.5125   -1.4167    0.0000 C   0  0  0  0  0  0           0  0  0
    4.0792   -1.4542    0.0000 C   0  0  0  0  0  0           0  0  0
    6.4292   -2.3875    0.0000 C   0  0  0  0  0  0           0  0  0
    0.4667   -2.6250    0.0000 O   0  0  0  0  0  0           0  0  0
    6.8250   -1.6625    0.0000 C   0  0  0  0  0  0           0  0  0
    4.7875   -1.0292    0.0000 C   0  0  0  0  0  0           0  0  0
    0.4375   -1.2792    0.0000 C   0  0  0  0  0  0           0  0  0
   -0.0333   -1.9667    0.0000 C   0  0  0  0  0  0           0  0  0
    3.3417   -0.2375    0.0000 O   0  0  0  0  0  0           0  0  0
    3.4000   -2.7042    0.0000 O   0  0  0  0  0  0           0  0  0
    1.9167   -0.2667    0.0000 O   0  0  0  0  0  0           0  0  0
    2.0042   -3.5667    0.0000 O   0  0  0  0  0  0           0  0  0
    6.7792   -3.1292    0.0000 Br  0  0  0  0  0  0           0  0  0
    1.1917    0.1250    0.0000 C   0  0  0  0  0  0           0  0  0
    2.7292   -3.9625    0.0000 C   0  0  0  0  0  0           0  0  0
  2  1  1  0     0  0
  3  1  2  0     0  0
  4  3  1  0     0  0
  5  2  2  0     0  0
  6  4  2  0     0  0
  7  1  1  0     0  0
  8 10  2  0     0  0
  9 10  1  0     0  0
 10 15  1  0     0  0
 11  7  1  0     0  0
 12  8  1  0     0  0
 13  6  1  0     0  0
 14  9  1  0     0  0
 15 11  2  0     0  0
 16  4  1  0     0  0
 17 16  2  0     0  0
 18  7  2  0     0  0
 19  2  1  0     0  0
 20  3  1  0     0  0
 21  5  1  0     0  0
 22 12  1  0     0  0
 23 20  1  0     0  0
 24 21  1  0     0  0
  6  5  1  0     0  0
 13 17  1  0     0  0
 14 12  2  0     0  0
M  END