
  SciTegic07141513222D

 23 24  0  0  0  0            999 V2000
   13.8586  -10.3352    0.0000 C   0  0
   13.1539   -9.9399    0.0000 C   0  0
   13.8586  -11.1602    0.0000 C   0  0
   12.4434  -10.3524    0.0000 N   0  0
   12.4434  -11.1602    0.0000 C   0  0
   11.7216   -7.4650    0.0000 N   0  3
   13.1481  -11.5899    0.0000 N   0  0
   14.5804   -9.9227    0.0000 C   0  0
   13.1481   -9.1149    0.0000 C   0  0
   12.4434   -7.8775    0.0000 C   0  0
   12.4434   -8.7024    0.0000 C   0  0
   11.7102   -6.6400    0.0000 O   0  5
   11.0055   -7.8889    0.0000 O   0  0
   14.5746   -9.0977    0.0000 O   0  0
   11.7216  -11.5727    0.0000 S   0  0
   15.2965  -10.3352    0.0000 O   0  0
   14.5804  -11.5727    0.0000 C   0  0
   13.8586   -8.7024    0.0000 C   0  0
   13.1481   -7.4478    0.0000 C   0  0
   13.8586   -7.8603    0.0000 C   0  0
   11.0169  -11.1430    0.0000 C   0  0
   16.0069   -9.9227    0.0000 C   0  0
   16.7230  -10.3352    0.0000 C   0  0
  2  1  1  0
  3  1  2  0
  4  2  1  0
  5  7  1  0
  6 10  1  0
  7  3  1  0
  8  1  1  0
  9  2  1  0
 10 11  2  0
 11  9  1  0
 12  6  1  0
 13  6  2  0
 14  8  2  0
 15  5  1  0
 16  8  1  0
 17  3  1  0
 18  9  2  0
 19 20  2  0
 20 18  1  0
 21 15  1  0
 22 16  1  0
 23 22  1  0
  5  4  2  0
 10 19  1  0
M  CHG  2   6   1  12  -1
M  END