
          11280715512D 1   1.00000     0.00000     0

 21 24  0     0  0            999 V2000
    3.4861    1.5709    0.0000 N   0  0  0  0  0  0           0  0  0
    3.4849    0.7435    0.0000 C   0  0  0  0  0  0           0  0  0
    4.1997    0.3306    0.0000 N   0  0  0  0  0  0           0  0  0
    4.9162    0.7440    0.0000 C   0  0  0  0  0  0           0  0  0
    4.9133    1.5745    0.0000 C   0  0  0  0  0  0           0  0  0
    4.1979    1.9836    0.0000 C   0  0  0  0  0  0           0  0  0
    2.7693    0.3296    0.0000 C   0  0  3  0  0  0           0  0  0
    1.9443    0.3303    0.0000 C   0  0  0  0  0  0           0  0  0
    2.3563   -0.3845    0.0000 C   0  0  0  0  0  0           0  0  0
    4.1955    2.8086    0.0000 N   0  0  0  0  0  0           0  0  0
    4.9087    3.2233    0.0000 C   0  0  3  0  0  0           0  0  0
    5.7333    3.2231    0.0000 C   0  0  0  0  0  0           0  0  0
    5.3187    3.9363    0.0000 C   0  0  0  0  0  0           0  0  0
    5.6262    1.9897    0.0000 C   0  0  0  0  0  0           0  0  0
    5.6313    0.3326    0.0000 N   0  0  3  0  0  0           0  0  0
    6.3062    0.7929    0.0000 C   0  0  0  0  0  0           0  0  0
    7.0973    0.5522    0.0000 C   0  0  0  0  0  0           0  0  0
    5.5684   -0.4947    0.0000 C   0  0  0  0  0  0           0  0  0
    7.4040   -0.2123    0.0000 C   0  0  0  0  0  0           0  0  0
    6.1763   -1.0544    0.0000 C   0  0  0  0  0  0           0  0  0
    6.9923   -0.9259    0.0000 C   0  0  0  0  0  0           0  0  0
  6 10  1  0     0  0
  2  3  2  0     0  0
 10 11  1  0     0  0
 12 11  1  0     0  0
 13 12  1  0     0  0
 11 13  1  0     0  0
  5  6  1  0     0  0
  6  1  2  0     0  0
  8  7  1  0     0  0
  5 14  1  0     0  0
  9  8  1  0     0  0
  4 15  1  0     0  0
  7  9  1  0     0  0
 15 16  1  0     0  0
  1  2  1  0     0  0
 16 17  1  0     0  0
  3  4  1  0     0  0
 15 18  1  0     0  0
 17 19  1  0     0  0
  2  7  1  0     0  0
 18 20  1  0     0  0
  4  5  2  0     0  0
 19 21  1  0     0  0
 20 21  1  0     0  0
M  END