
  SciTegic10301317112D

 33 33  0  0  0  0            999 V2000
   -1.7496    0.4082    0.0000 S   0  0
    1.5414    0.4249    0.0000 C   0  0
    8.2775   -3.6535    0.0000 C   0  0  1  0  0  0
    9.1023   -3.6784    0.0000 C   0  0
    7.8776   -2.9286    0.0000 N   0  0
   -0.9331    0.4082    0.0000 C   0  0
    7.0528   -2.9411    0.0000 C   0  0
    1.9538   -0.2874    0.0000 N   0  0
   -1.7579   -0.4166    0.0000 O   0  0
   -1.7496    1.2330    0.0000 O   0  0
    3.1993   -0.9915    0.0000 C   0  0
    5.3281   -1.5664    0.0000 C   0  0
    0.7166    0.4207    0.0000 C   0  0
   -2.5828    0.4124    0.0000 N   0  0
    5.8155   -2.2287    0.0000 N   0  0
    4.0242   -0.9873    0.0000 N   0  0
    1.9496    1.1373    0.0000 O   0  0
    9.5272   -2.9661    0.0000 O   0  0
    7.8526   -4.3616    0.0000 C   0  0
    6.6528   -3.6535    0.0000 O   0  0
    2.7911   -1.7039    0.0000 O   0  0
    5.6655   -0.8123    0.0000 O   0  0
   -0.5249    1.1206    0.0000 C   0  0
   -0.5124   -0.3041    0.0000 C   0  0
    0.3041   -0.2999    0.0000 C   0  0
    0.2916    1.1331    0.0000 C   0  0
    2.7786   -0.2791    0.0000 C   0  0
    6.6403   -2.2287    0.0000 C   0  0
    4.5116   -1.6539    0.0000 C   0  0
    9.5023   -4.3991    0.0000 O   0  0
    8.2483   -5.0865    0.0000 C   0  0
    7.8151   -5.7905    0.0000 C   0  0
    9.0731   -5.1032    0.0000 C   0  0
  2 13  1  0
  3  5  1  0
  4  3  1  0
  5  7  1  0
  6  1  1  0
  7 28  1  0
  8  2  1  0
  9  1  2  0
 10  1  2  0
 11 27  1  0
 12 29  1  0
 13 25  2  0
 14  1  1  0
 15 12  1  0
 16 11  1  0
 17  2  2  0
 18  4  2  0
  3 19  1  6
 20  7  2  0
 21 11  2  0
 22 12  2  0
 23  6  1  0
 24  6  2  0
 25 24  1  0
 26 23  2  0
 27  8  1  0
 28 15  1  0
 29 16  1  0
 30  4  1  0
 31 19  1  0
 32 31  1  0
 33 31  1  0
 26 13  1  0
M  END