
          11280715332D 1   1.00000     0.00000     0

 27 29  0     0  0            999 V2000
    3.6292   -5.2417    0.0000 N   0  0  0  0  0  0           0  0  0
    2.2042   -5.2500    0.0000 C   0  0  0  0  0  0           0  0  0
    2.9167   -4.8292    0.0000 C   0  0  0  0  0  0           0  0  0
    2.2042   -6.0750    0.0000 C   0  0  0  0  0  0           0  0  0
    3.6375   -6.0667    0.0000 C   0  0  0  0  0  0           0  0  0
    2.9250   -6.4875    0.0000 N   0  0  0  0  0  0           0  0  0
    1.4917   -4.8375    0.0000 C   0  0  0  0  0  0           0  0  0
    1.4917   -6.4917    0.0000 C   0  0  0  0  0  0           0  0  0
    8.6417   -6.4750    0.0000 C   0  0  0  0  0  0           0  0  0
    7.9292   -6.0542    0.0000 C   0  0  0  0  0  0           0  0  0
    0.7792   -5.2500    0.0000 C   0  0  0  0  0  0           0  0  0
    0.7792   -6.0792    0.0000 C   0  0  0  0  0  0           0  0  0
    9.3917   -6.1417    0.0000 O   0  0  0  0  0  0           0  0  0
    8.7250   -7.3000    0.0000 C   0  0  0  0  0  0           0  0  0
    7.9292   -5.2292    0.0000 O   0  0  0  0  0  0           0  0  0
    9.9417   -6.7625    0.0000 C   0  0  0  0  0  0           0  0  0
    9.5292   -7.4750    0.0000 C   0  0  0  0  0  0           0  0  0
    4.3542   -6.4792    0.0000 N   0  0  0  0  0  0           0  0  0
    2.9125   -4.0042    0.0000 N   0  0  0  0  0  0           0  0  0
    7.2125   -6.4667    0.0000 N   0  0  0  0  0  0           0  0  0
    0.0625   -4.8417    0.0000 O   0  0  0  0  0  0           0  0  0
    0.0667   -6.4917    0.0000 O   0  0  0  0  0  0           0  0  0
    5.7792   -6.4750    0.0000 C   0  0  0  0  0  0           0  0  0
    5.0667   -6.0667    0.0000 C   0  0  0  0  0  0           0  0  0
    6.4917   -6.0542    0.0000 C   0  0  0  0  0  0           0  0  0
    0.0667   -7.3167    0.0000 C   0  0  0  0  0  0           0  0  0
   -0.6583   -5.2542    0.0000 C   0  0  0  0  0  0           0  0  0
  2  3  1  0     0  0
  3  1  2  0     0  0
  4  6  1  0     0  0
  5  1  1  0     0  0
  6  5  2  0     0  0
  7  2  2  0     0  0
  8  4  2  0     0  0
  9 10  1  0     0  0
 10 20  1  0     0  0
 11  7  1  0     0  0
 12  8  1  0     0  0
 13  9  1  0     0  0
 14  9  2  0     0  0
 15 10  2  0     0  0
 16 13  1  0     0  0
 17 14  1  0     0  0
 18  5  1  0     0  0
 19  3  1  0     0  0
 20 25  1  0     0  0
 21 11  1  0     0  0
 22 12  1  0     0  0
 23 24  1  0     0  0
 24 18  1  0     0  0
 25 23  1  0     0  0
 26 22  1  0     0  0
 27 21  1  0     0  0
  2  4  1  0     0  0
 11 12  2  0     0  0
 16 17  2  0     0  0
M  END