
          11280715102D 1   1.00000     0.00000     0

 23 25  0     0  0            999 V2000
    0.6667    2.2208    0.0000 N   0  0  0  0  0  0           0  0  0
    0.8292    1.4083    0.0000 C   0  0  0  0  0  0           0  0  0
    0.1167    0.9875    0.0000 C   0  0  0  0  0  0           0  0  0
    1.3792    2.6208    0.0000 O   0  0  0  0  0  0           0  0  0
    1.6542    1.3125    0.0000 C   0  0  0  0  0  0           0  0  0
    0.1167    0.1583    0.0000 C   0  0  0  0  0  0           0  0  0
    1.9875    2.0708    0.0000 C   0  0  3  0  0  0           0  0  0
    0.8292   -0.2542    0.0000 O   0  0  0  0  0  0           0  0  0
    0.8292   -1.0792    0.0000 C   0  0  0  0  0  0           0  0  0
    0.1042   -1.5000    0.0000 C   0  0  0  0  0  0           0  0  0
   -1.3208   -2.3250    0.0000 C   0  0  0  0  0  0           0  0  0
   -0.6083   -1.0875    0.0000 C   0  0  0  0  0  0           0  0  0
    0.1042   -2.3250    0.0000 C   0  0  0  0  0  0           0  0  0
   -0.6083   -2.7375    0.0000 C   0  0  0  0  0  0           0  0  0
   -1.3208   -1.5000    0.0000 C   0  0  0  0  0  0           0  0  0
   -0.6083    1.4000    0.0000 C   0  0  0  0  0  0           0  0  0
   -2.0458   -2.7417    0.0000 O   0  0  0  0  0  0           0  0  0
    3.3625    1.6458    0.0000 O   0  0  0  0  0  0           0  0  0
    2.8000    2.2583    0.0000 C   0  0  0  0  0  0           0  0  0
   -0.6000   -0.2542    0.0000 C   0  0  0  0  0  0           0  0  0
   -2.7583   -2.3417    0.0000 C   0  0  0  0  0  0           0  0  0
   -1.3208    0.9875    0.0000 C   0  0  0  0  0  0           0  0  0
   -1.3208    0.1583    0.0000 C   0  0  0  0  0  0           0  0  0
  2  1  2  0     0  0
  3  2  1  0     0  0
  4  1  1  0     0  0
  5  2  1  0     0  0
  6  3  1  0     0  0
  7  4  1  0     0  0
  8  6  1  0     0  0
  9  8  1  0     0  0
 10  9  1  0     0  0
 11 14  1  0     0  0
 12 10  2  0     0  0
 13 10  1  0     0  0
 14 13  2  0     0  0
 15 12  1  0     0  0
 16  3  2  0     0  0
 17 11  1  0     0  0
 18 19  1  0     0  0
 19  7  1  0     0  0
 20  6  2  0     0  0
 21 17  1  0     0  0
 22 16  1  0     0  0
 23 22  2  0     0  0
  7  5  1  0     0  0
 20 23  1  0     0  0
 11 15  2  0     0  0
M  END