
  SciTegic04091415222D

 28 31  0  0  0  0            999 V2000
    9.5944   -3.5907    0.0000 C   0  0
   11.0081   -3.5871    0.0000 C   0  0
   10.2995   -3.1818    0.0000 C   0  0
   11.0110   -4.4097    0.0000 C   0  0
   11.0071   -6.0448    0.0000 C   0  0
   11.7183   -5.6325    0.0000 C   0  0
   11.7164   -4.8168    0.0000 C   0  0
   10.3005   -4.8170    0.0000 C   0  0
    9.5932   -4.4102    0.0000 C   0  0
    8.8894   -4.8192    0.0000 C   0  0
    8.8916   -5.6348    0.0000 O   0  0
    9.6035   -6.0397    0.0000 C   0  0
   10.3044   -5.6284    0.0000 C   0  0
   11.7113   -3.1771    0.0000 C   0  0
   12.4208   -3.5847    0.0000 N   0  0
   13.1265   -3.1741    0.0000 C   0  0
   13.1238   -2.3561    0.0000 N   0  0
   12.4096   -1.9503    0.0000 C   0  0
   11.7069   -2.3632    0.0000 N   0  0
   10.2971   -2.3646    0.0000 Cl  0  0
   12.4037   -1.1332    0.0000 N   0  0
   13.8355   -3.5804    0.0000 S   0  0
   14.5419   -3.1695    0.0000 C   0  0
   15.2509   -3.5758    0.0000 C   0  0
   15.9573   -3.1648    0.0000 N   0  0
   16.6663   -3.5711    0.0000 C   0  0
   17.3727   -3.1602    0.0000 C   0  0
   16.6690   -4.3883    0.0000 O   0  0
  1  9  2  0
  4  2  1  0
  2  3  2  0
  3  1  1  0
  4  8  1  0
 13  5  1  0
  5  6  2  0
  6  7  1  0
  7  4  2  0
  8  9  1  0
  9 10  1  0
 10 11  1  0
 11 12  1  0
 12 13  1  0
 13  8  2  0
 14 15  2  0
 15 16  1  0
 16 17  2  0
 17 18  1  0
 18 19  2  0
 19 14  1  0
  2 14  1  0
  3 20  1  0
 18 21  1  0
 16 22  1  0
 22 23  1  0
 23 24  1  0
 24 25  1  0
 25 26  1  0
 26 27  1  0
 26 28  2  0
M  END