
  Mrv0541 04051115152D          

 23 24  0  0  0  0            999 V2000
   -1.9540   -0.8921    0.0000 C   0  0  0  0  0  0  0  0  0  0  0  0
    0.9039   -0.0671    0.0000 C   0  0  0  0  0  0  0  0  0  0  0  0
    0.1895    0.3454    0.0000 C   0  0  0  0  0  0  0  0  0  0  0  0
    0.9039   -0.8921    0.0000 C   0  0  2  0  0  0  0  0  0  0  0  0
    0.1895   -1.3046    0.0000 C   0  0  0  0  0  0  0  0  0  0  0  0
    1.5940    1.9531    0.0000 S   0  0  0  0  0  0  0  0  0  0  0  0
   -2.6684   -1.3046    0.0000 C   0  0  0  0  0  0  0  0  0  0  0  0
    3.0473   -1.3046    0.0000 C   0  0  0  0  0  0  0  0  0  0  0  0
    2.3329   -0.8921    0.0000 C   0  0  0  0  0  0  0  0  0  0  0  0
    0.3610    1.1524    0.0000 S   0  0  0  0  0  0  0  0  0  0  0  0
    2.0065    2.6676    0.0000 N   0  0  0  0  0  0  0  0  0  0  0  0
    0.8795    2.3656    0.0000 O   0  0  0  0  0  0  0  0  0  0  0  0
    2.3084    1.5406    0.0000 O   0  0  0  0  0  0  0  0  0  0  0  0
    1.1815    1.2386    0.0000 C   0  0  0  0  0  0  0  0  0  0  0  0
    1.5170    0.4849    0.0000 C   0  0  0  0  0  0  0  0  0  0  0  0
   -0.5250   -0.0671    0.0000 S   0  0  0  0  0  0  0  0  0  0  0  0
   -0.8072    0.7082    0.0000 O   0  0  0  0  0  0  0  0  0  0  0  0
   -1.3375   -0.2104    0.0000 O   0  0  0  0  0  0  0  0  0  0  0  0
   -0.5250   -0.8921    0.0000 N   0  0  0  0  0  0  0  0  0  0  0  0
    1.6184   -1.3046    0.0000 N   0  0  0  0  0  0  0  0  0  0  0  0
   -1.2395   -1.3046    0.0000 C   0  0  0  0  0  0  0  0  0  0  0  0
   -3.3829   -0.8921    0.0000 O   0  0  0  0  0  0  0  0  0  0  0  0
   -4.0974   -1.3046    0.0000 C   0  0  0  0  0  0  0  0  0  0  0  0
  1  7  1  0  0  0  0
 21  1  1  0  0  0  0
  3  2  2  0  0  0  0
  4  2  1  0  0  0  0
 15  2  1  0  0  0  0
  3 10  1  0  0  0  0
  3 16  1  0  0  0  0
  4  5  1  0  0  0  0
  4 20  1  1  0  0  0
  5 19  1  0  0  0  0
 11  6  1  0  0  0  0
 12  6  2  0  0  0  0
 13  6  2  0  0  0  0
 14  6  1  0  0  0  0
  7 22  1  0  0  0  0
  8  9  1  0  0  0  0
  9 20  1  0  0  0  0
 14 10  1  0  0  0  0
 14 15  2  0  0  0  0
 17 16  2  0  0  0  0
 18 16  2  0  0  0  0
 19 16  1  0  0  0  0
 21 19  1  0  0  0  0
 23 22  1  0  0  0  0
M  END