
  CDK    9/16/09,10:8

 33 35  0  0  0  0  0  0  0  0999 V2000
    1.5250  -22.9375    0.0000 C   0  0  0  0  0  0  0  0  0  0  0  0
    1.5250  -23.7625    0.0000 C   0  0  0  0  0  0  0  0  0  0  0  0
    2.2370  -24.1708    0.0000 C   0  0  0  0  0  0  0  0  0  0  0  0
    2.2370  -22.5208    0.0000 C   0  0  0  0  0  0  0  0  0  0  0  0
    2.9490  -22.9375    0.0000 C   0  0  0  0  0  0  0  0  0  0  0  0
    2.9455  -23.7625    0.0000 C   0  0  0  0  0  0  0  0  0  0  0  0
    3.6543  -24.1757    0.0000 C   0  0  0  0  0  0  0  0  0  0  0  0
    4.3711  -23.7685    0.0000 C   0  0  0  0  0  0  0  0  0  0  0  0
    3.6497  -25.0007    0.0000 O   0  0  0  0  0  0  0  0  0  0  0  0
    3.6613  -22.5257    0.0000 C   0  0  0  0  0  0  0  0  0  0  0  0
    4.3770  -22.9445    0.0000 C   0  0  0  0  0  0  0  0  0  0  0  0
    5.0908  -20.0372    0.0000 C   0  0  0  0  0  0  0  0  0  0  0  0
    4.3760  -20.4563    0.0000 C   0  0  0  0  0  0  0  0  0  0  0  0
    4.3848  -21.2890    0.0000 C   0  0  0  0  0  0  0  0  0  0  0  0
    3.6621  -21.6989    0.0000 C   0  0  0  0  0  0  0  0  0  0  0  0
    3.6542  -23.3500    0.0000 H   0  0  0  0  0  0  0  0  0  0  0  0
    3.6582  -20.0496    0.0000 C   0  0  0  0  0  0  0  0  0  0  0  0
    3.6460  -19.2203    0.0000 C   0  0  0  0  0  0  0  0  0  0  0  0
    4.3555  -18.7993    0.0000 C   0  0  0  0  0  0  0  0  0  0  0  0
    5.1096  -19.1264    0.0000 O   0  0  0  0  0  0  0  0  0  0  0  0
    5.6499  -18.5043    0.0000 C   0  0  0  0  0  0  0  0  0  0  0  0
    5.2310  -17.7959    0.0000 C   0  0  0  0  0  0  0  0  0  0  0  0
    4.4300  -17.9794    0.0000 C   0  0  0  0  0  0  0  0  0  0  0  0
    6.4770  -18.5840    0.0000 O   0  0  0  0  0  0  0  0  0  0  0  0
    2.9417  -22.1125    0.0000 C   0  0  0  0  0  0  0  0  0  0  0  0
    3.8088  -17.4366    0.0000 C   0  0  0  0  0  0  0  0  0  0  0  0
    2.9375  -24.5833    0.0000 H   0  0  0  0  0  0  0  0  0  0  0  0
    2.4458  -24.9667    0.0000 C   0  0  0  0  0  0  0  0  0  0  0  0
    1.5167  -24.5792    0.0000 C   0  0  0  0  0  0  0  0  0  0  0  0
    4.7833  -22.2250    0.0000 C   0  0  0  0  0  0  0  0  0  0  0  0
    5.0875  -23.3542    0.0000 O   0  0  0  0  0  0  0  0  0  0  0  0
    0.8055  -24.1610    0.0000 O   0  0  0  0  0  0  0  0  0  0  0  0
    1.5101  -25.4041    0.0000 O   0  0  0  0  0  0  0  0  0  0  0  0
 10 16  1  6  0  0  0 
  6  7  1  0  0  0  0 
 13 17  2  0  0  0  0 
  7  8  1  0  0  0  0 
 17 18  1  0  0  0  0 
  8 11  1  0  0  0  0 
 19 18  2  0  0  0  0 
 19 20  1  0  0  0  0 
  3  6  1  0  0  0  0 
  7  9  1  6  0  0  0 
 10 11  1  0  0  0  0 
  5  4  1  0  0  0  0 
 20 21  1  0  0  0  0 
 21 22  1  0  0  0  0 
 22 23  2  0  0  0  0 
 23 19  1  0  0  0  0 
  5  6  1  0  0  0  0 
 21 24  2  0  0  0  0 
  5 25  1  1  0  0  0 
  1  2  1  0  0  0  0 
 23 26  1  0  0  0  0 
  1  4  1  0  0  0  0 
  6 27  1  6  0  0  0 
  2  3  1  0  0  0  0 
  3 28  1  1  0  0  0 
 10 15  1  0  0  0  0 
  3 29  1  0  0  0  0 
 12 13  1  0  0  0  0 
 11 30  1  0  0  0  0 
 13 14  1  0  0  0  0 
 11 31  1  6  0  0  0 
 14 15  1  0  0  0  0 
 29 32  2  0  0  0  0 
  5 10  1  0  0  0  0 
 29 33  1  0  0  0  0 
M  END