
  SciTegic12121611592D

 75 85  0  0  0  0            999 V2000
   -2.1400    0.5600    0.0000 C   0  0  1  0  0  0
   -2.1400   -0.9600    0.0000 C   0  0  1  0  0  0
   -0.7900   -1.7400    0.0000 C   0  0  2  0  0  0
    0.5400   -0.9600    0.0000 C   0  0
   -0.7900    1.3600    0.0000 C   0  0  1  0  0  0
    0.5400    0.5600    0.0000 C   0  0  1  0  0  0
    1.8900    1.3600    0.0000 C   0  0  1  0  0  0
    1.8900    2.9100    0.0000 C   0  0
   -0.7900    2.9100    0.0000 C   0  0
    0.5400    3.7000    0.0000 C   0  0
    0.5400    5.2600    0.0000 C   0  0
   -0.7900    6.0400    0.0000 C   0  0
   -2.1400    5.2600    0.0000 C   0  0
   -2.1400    3.7000    0.0000 C   0  0
   -3.1793    5.8598    0.0000 O   0  0
   -1.4104    0.3668    0.0000 O   0  0
   -2.0475    1.3837    0.0000 C   0  0
   -0.7837   -3.2402    0.0000 C   0  0
    0.2582   -3.8355    0.0000 O   0  0
   -2.0798   -3.9970    0.0000 N   0  0
   -0.8600   -0.7000    0.0000 C   0  0
   -0.8600    0.2700    0.0000 C   0  0
   -3.2900    2.1500    0.0000 O   0  0
   -3.0914    0.2520    0.0000 H   0  0
    0.5000    2.1200    0.0000 C   0  0
    2.6600    2.1000    0.0000 C   0  0
    3.2500    0.5600    0.0000 N   0  0
    4.0253   -0.3559    0.0000 C   0  0
   -2.0735   -5.4978    0.0000 C   0  0
   -3.3695   -6.2545    0.0000 C   0  0
   -3.3632   -7.7553    0.0000 C   0  0
   -4.6593   -8.5121    0.0000 C   0  0
    1.0260    1.8635    0.0000 H   0  0
   -4.6529  -10.0129    0.0000 C   0  0
   -5.9490  -10.7696    0.0000 C   0  0
   -5.9426  -12.2704    0.0000 N   0  0
   -7.2387  -13.0272    0.0000 C   0  0
   -7.2323  -14.5280    0.0000 C   0  0
   -8.2807  -12.4319    0.0000 O   0  0
   -8.5284  -15.2847    0.0000 C   0  0
   -8.5221  -16.7855    0.0000 C   0  0
   -9.8181  -17.5423    0.0000 C   0  0
   -9.8118  -19.0431    0.0000 C   0  0
  -11.1079  -19.7998    0.0000 N   0  0
  -11.1015  -21.3006    0.0000 C   0  0
  -12.3976  -22.0573    0.0000 C   0  0
  -10.0595  -21.8959    0.0000 O   0  0
  -12.3912  -23.5582    0.0000 O   0  0
  -13.6873  -24.3149    0.0000 C   0  0
  -13.6831  -25.8149    0.0000 C   0  0
  -14.9800  -26.5686    0.0000 C   0  0
  -16.2812  -25.8223    0.0000 C   0  0
  -16.2855  -24.3223    0.0000 C   0  0
  -14.9886  -23.5686    0.0000 C   0  0
  -17.5804  -26.5737    0.0000 C   0  0
  -18.8812  -25.8251    0.0000 C   0  0
  -20.1804  -26.5766    0.0000 C   0  0
  -21.5543  -25.9720    0.0000 N   0  3
  -22.5246  -27.1090    0.0000 C   0  0
  -21.7264  -28.4043    0.0000 C   0  0
  -20.3103  -28.0162    0.0000 C   0  0
  -23.9928  -26.8385    0.0000 C   0  0
  -24.5346  -25.4346    0.0000 C   0  0
  -23.5339  -24.2621    0.0000 N   0  0
  -24.3322  -22.9668    0.0000 C   0  0
  -25.7584  -23.3667    0.0000 C   0  0
  -25.9191  -24.8262    0.0000 C   0  0
  -23.7859  -21.5690    0.0000 C   0  0
  -24.4832  -20.2616    0.0000 S   0  0
  -23.4294  -19.1942    0.0000 C   0  0
  -22.0885  -19.8667    0.0000 C   0  0
  -22.3137  -21.3497    0.0000 C   0  0
  -22.0421  -24.5527    0.0000 B   0  5
  -22.4589  -23.4274    0.0000 F   0  0
  -20.8699  -24.8099    0.0000 F   0  0
  1  2  1  0
  1  5  1  0
  2  3  1  0
  3  4  1  0
  4  6  1  0
  5  6  1  0
  5  9  1  0
  6  7  1  0
  7  8  1  0
  8 10  1  0
  9 10  2  0
 10 11  1  0
 11 12  2  0
 12 13  1  0
 13 14  2  0
 14  9  1  0
 13 15  1  0
  2 16  1  6
 16 17  1  0
  3 18  1  6
 18 19  2  0
 18 20  1  0
  2 21  1  0
  6 22  1  6
 21 22  1  0
 14 23  1  0
 23  1  1  0
  1 24  1  1
  5 25  1  1
 25 26  1  0
 26 27  1  0
  7 27  1  0
 27 28  1  0
 20 29  1  0
 29 30  1  0
 30 31  1  0
 31 32  1  0
  7 33  1  6
 32 34  1  0
 34 35  1  0
 35 36  1  0
 36 37  1  0
 37 38  1  0
 37 39  2  0
 38 40  1  0
 40 41  1  0
 41 42  1  0
 42 43  1  0
 43 44  1  0
 44 45  1  0
 45 46  1  0
 45 47  2  0
 46 48  1  0
 48 49  1  0
 49 50  2  0
 50 51  1  0
 51 52  2  0
 52 53  1  0
 53 54  2  0
 54 49  1  0
 52 55  1  0
 55 56  2  0
 56 57  1  0
 57 58  2  0
 58 59  1  0
 59 60  1  0
 60 61  2  0
 61 57  1  0
 59 62  2  0
 62 63  1  0
 63 64  1  0
 64 65  1  0
 65 66  2  0
 66 67  1  0
 67 63  2  0
 68 69  1  0
 69 70  1  0
 70 71  2  0
 71 72  1  0
 72 68  2  0
 65 68  1  0
 58 73  1  0
 73 74  1  0
 73 75  1  0
 64 73  1  0
M  CHG  2  58   1  73  -1
M  END