
  SciTegic09081514192D

 58 63  0  0  0  0            999 V2000
   18.1103    4.7187    0.0000 N   0  0
   15.7977    4.3387    0.0000 O   0  0
   16.4518    8.3278    0.0000 N   0  0
   15.6208    6.1365    0.0000 O   0  0
   13.9766    6.8851    0.0000 N   0  0
   12.7712    8.5781    0.0000 O   0  0
   11.9467   14.3751    0.0000 N   0  0
   15.9320    1.3580    0.0000 N   0  0
   14.1084    2.8300    0.0000 O   0  0
   16.4241   11.1828    0.0000 F   0  0
   18.6157   12.7598    0.0000 F   0  0
   16.8909    3.8437    0.0000 C   0  0
   17.9632    6.2123    0.0000 C   0  0  2  0  0  0
   16.5972    6.8341    0.0000 C   0  0
   15.0858    8.9496    0.0000 C   0  0  2  0  0  0
   13.8628    8.0797    0.0000 C   0  0
   19.1827    7.0872    0.0000 C   0  0
   14.9404   10.4434    0.0000 C   0  0
   13.5744   11.0652    0.0000 C   0  0
   13.4290   12.5589    0.0000 C   0  0
   12.0630   13.1807    0.0000 C   0  0
   17.0376    2.3528    0.0000 C   0  0  1  0  0  0
   16.5040   -0.0149    0.0000 C   0  0
   17.9976    0.1236    0.0000 C   0  0
   18.3274    1.5869    0.0000 C   0  0
   14.4673    1.6849    0.0000 C   0  0
   13.4510    0.5805    0.0000 C   0  0
   11.9863    0.9074    0.0000 C   0  0
   10.9700   -0.1970    0.0000 C   0  0
    9.5052    0.1299    0.0000 C   0  0
    8.4890   -0.9745    0.0000 C   0  0
   19.0356    8.5808    0.0000 C   0  0
   20.2531    9.4570    0.0000 C   0  0
   20.1032   10.9495    0.0000 C   0  0
   18.7357   11.5659    0.0000 C   0  0
   17.5181   10.6897    0.0000 C   0  0
   17.6681    9.1973    0.0000 C   0  0
    7.0242   -0.6475    0.0000 N   0  0
    2.0934   -2.2270    0.0000 C   0  0
    3.5632   -2.4942    0.0000 C   0  0
    4.5431   -1.4253    0.0000 C   0  0  1  0  0  0
    4.0754    0.0000    0.0000 C   0  0
    1.5812   -0.7794    0.0000 C   0  0  1  0  0  0
    2.4942    0.2895    0.0000 N   0  0
    2.0934    1.7370    0.0000 C   0  0
    0.6236    2.0488    0.0000 C   0  0
    0.0891   -0.4677    0.0000 C   0  0
   -0.3340    0.9353    0.0000 C   0  0
   -1.0690   -1.3585    0.0000 N   0  0
   -2.2938   -0.4677    0.0000 C   0  0
   -1.8484    0.9353    0.0000 C   0  0
   -2.8728    2.0488    0.0000 C   0  0
   -4.3426    1.7370    0.0000 C   0  0
   -4.8103    0.2672    0.0000 C   0  0
   -3.7636   -0.8240    0.0000 C   0  0
    0.9230   -1.5323    0.0000 H   0  0
    6.0080   -1.7520    0.0000 C   0  0
    6.3668   -2.8970    0.0000 O   0  0
 22 12  1  1
 12  1  1  0
 12  2  2  0
  1 13  1  0
 13 14  1  0
 14  3  1  0
 14  4  2  0
  3 15  1  0
 15 16  1  0
 16  5  1  0
 16  6  2  0
 13 17  1  6
 15 18  1  6
 18 19  1  0
 19 20  1  0
 20 21  1  0
 21  7  1  0
 22  8  1  0
  8 23  1  0
 23 24  1  0
 24 25  1  0
 25 22  1  0
  8 26  1  0
 26  9  2  0
 26 27  1  0
 27 28  1  0
 28 29  1  0
 29 30  1  0
 30 31  1  0
 17 32  1  0
 32 33  2  0
 33 34  1  0
 34 35  2  0
 35 36  1  0
 36 37  2  0
 37 32  1  0
 36 10  1  0
 35 11  1  0
 31 38  1  0
 44 42  1  0
 43 39  1  0
 39 40  1  0
 40 41  1  0
 41 42  1  0
 43 44  1  0
 43 47  1  0
 44 45  1  0
 45 46  1  0
 46 48  1  0
 47 48  2  0
 48 51  1  0
 50 49  1  0
 49 47  1  0
 50 51  2  0
 51 52  1  0
 52 53  2  0
 53 54  1  0
 54 55  2  0
 55 50  1  0
 43 56  1  1
 41 57  1  1
 57 38  1  0
 57 58  2  0
M  END