
  SciTegic09261414532D

 47 54  0  0  0  0            999 V2000
   11.5589  -26.2244    0.0000 C   0  0
   11.5578  -27.0439    0.0000 C   0  0
   12.2658  -27.4529    0.0000 C   0  0
   12.2641  -25.8155    0.0000 C   0  0
   12.9727  -26.2208    0.0000 C   0  0
   12.9729  -27.0439    0.0000 C   0  0
   13.7559  -27.2981    0.0000 N   0  0
   14.2396  -26.6320    0.0000 C   0  0
   13.7555  -25.9662    0.0000 N   0  0
   14.0086  -28.0753    0.0000 C   0  0
   15.0536  -26.6303    0.0000 C   0  0
   15.4618  -27.3395    0.0000 C   0  0
   16.2782  -27.3395    0.0000 C   0  0
   16.6874  -26.6311    0.0000 C   0  0
   16.2742  -25.9212    0.0000 C   0  0
   15.4591  -25.9247    0.0000 C   0  0
   17.5046  -26.6298    0.0000 O   0  0
   17.9144  -27.3368    0.0000 C   0  0
   18.7316  -27.3354    0.0000 C   0  0
   19.1414  -28.0425    0.0000 N   0  0
   18.8102  -28.7845    0.0000 C   0  0
   19.4179  -29.3310    0.0000 N   0  0
   19.9536  -28.1222    0.0000 C   0  0
   20.1212  -28.9184    0.0000 C   0  0
   20.8931  -29.1699    0.0000 C   0  0
   21.4981  -28.6261    0.0000 C   0  0
   21.3260  -27.8277    0.0000 C   0  0
   20.5543  -27.5799    0.0000 C   0  0
   18.1038  -29.1916    0.0000 C   0  0
   17.3972  -28.7790    0.0000 C   0  0
   16.6886  -29.1845    0.0000 C   0  0
   16.6854  -30.0026    0.0000 C   0  0
   17.3968  -30.4134    0.0000 C   0  0
   18.1024  -30.0055    0.0000 C   0  0
   13.4620  -28.6827    0.0000 C   0  0
   12.6644  -28.5116    0.0000 C   0  0
   12.1181  -29.1183    0.0000 C   0  0
   12.3706  -29.8964    0.0000 C   0  0
   13.1747  -30.0644    0.0000 C   0  0
   13.7176  -29.4564    0.0000 C   0  0
   19.1390  -26.6270    0.0000 C   0  0
   19.9546  -26.6287    0.0000 C   0  0
   20.3619  -25.9244    0.0000 C   0  0
   19.9556  -25.2150    0.0000 N   0  0
   19.1375  -25.2144    0.0000 C   0  0
   18.7257  -25.9232    0.0000 C   0  0
   14.5177  -29.6227    0.0000 C   0  0
  1  2  2  0
  2  3  1  0
  3  6  2  0
  5  4  2  0
  4  1  1  0
  5  6  1  0
  6  7  1  0
  7  8  1  0
  8  9  2  0
  9  5  1  0
  7 10  1  0
 11 12  2  0
 12 13  1  0
 13 14  2  0
 14 15  1  0
 15 16  2  0
 16 11  1  0
  8 11  1  0
 14 17  1  0
 17 18  1  0
 18 19  1  0
 19 20  1  0
 20 21  1  0
 21 22  2  0
 22 24  1  0
 23 20  1  0
 23 24  2  0
 24 25  1  0
 25 26  2  0
 26 27  1  0
 27 28  2  0
 28 23  1  0
 29 30  2  0
 30 31  1  0
 31 32  2  0
 32 33  1  0
 33 34  2  0
 34 29  1  0
 21 29  1  0
 10 35  1  0
 35 36  2  0
 36 37  1  0
 37 38  2  0
 38 39  1  0
 39 40  2  0
 40 35  1  0
 19 41  1  0
 41 42  1  0
 41 46  1  0
 42 43  1  0
 43 44  1  0
 44 45  1  0
 45 46  1  0
 40 47  1  0
M  END