
  SciTegic12231509382D

 20 21  0  0  0  0            999 V2000
   24.3777  -12.6208    0.0000 C   0  0
   24.3766  -13.4482    0.0000 C   0  0
   25.0914  -13.8610    0.0000 C   0  0
   25.0896  -12.2080    0.0000 C   0  0
   25.8050  -12.6172    0.0000 C   0  0
   25.8052  -13.4436    0.0000 C   0  0
   26.5913  -13.6988    0.0000 N   0  0
   27.0770  -13.0300    0.0000 C   0  0
   26.5909  -12.3616    0.0000 N   0  0
   27.9020  -13.0297    0.0000 O   0  0
   25.0871  -11.3830    0.0000 O   0  0
   24.3714  -10.9727    0.0000 C   0  0
   23.6582  -11.3873    0.0000 C   0  0
   22.9425  -10.9769    0.0000 C   0  0
   23.6606  -12.2123    0.0000 O   0  0
   22.2293  -11.3916    0.0000 N   0  0
   21.5136  -10.9812    0.0000 C   0  0
   20.8003  -11.3958    0.0000 C   0  0
   21.5111  -10.1562    0.0000 C   0  0
   20.7958  -10.5667    0.0000 C   0  0
  8 10  2  0
  4  1  1  0
  4 11  1  0
  5  6  1  0
 11 12  1  0
  1  2  2  0
 12 13  1  0
 13 14  1  0
  2  3  1  0
 13 15  1  0
  3  6  2  0
 14 16  1  0
 16 17  1  0
  6  7  1  0
 17 18  1  0
  7  8  1  0
 17 19  1  0
  8  9  1  0
 17 20  1  0
  9  5  1  0
  5  4  2  0
M  END