
  SciTegic12231509382D

 23 25  0  0  0  0            999 V2000
   -0.3469   -1.9978    0.0000 C   0  0
   -0.3480   -2.8242    0.0000 C   0  0
    0.3660   -3.2367    0.0000 C   0  0
    0.3642   -1.5855    0.0000 C   0  0
    1.0798   -2.8197    0.0000 C   0  0
    1.0788   -1.9941    0.0000 C   0  0
    1.7262   -1.4729    0.0000 C   0  0
    1.7316   -3.3355    0.0000 C   0  0  2  0  0  0
    2.5350   -1.6503    0.0000 C   0  0
    2.5406   -3.1467    0.0000 C   0  0
    2.8952   -2.3960    0.0000 N   0  0
    3.7193   -2.3924    0.0000 C   0  0
    4.1344   -3.1043    0.0000 C   0  0
    4.9585   -3.1007    0.0000 C   0  0
    1.5539   -4.1383    0.0000 C   0  0
    0.7660   -4.3837    0.0000 C   0  0
    0.5858   -5.1871    0.0000 C   0  0
    1.1926   -5.7460    0.0000 C   0  0
    1.9824   -5.4959    0.0000 C   0  0
    2.1588   -4.6930    0.0000 C   0  0
   -1.0607   -1.5859    0.0000 O   0  0
   -1.0621   -3.2358    0.0000 O   0  0
    0.3617   -0.7605    0.0000 Br  0  0
  1  2  2  0
 11 12  1  0
 12 13  1  0
  5  6  1  0
 13 14  2  0
  2  3  1  0
  6  7  1  0
 15 16  2  0
  3  5  2  0
 16 17  1  0
  8  5  1  0
 17 18  2  0
 18 19  1  0
  7  9  1  0
 19 20  2  0
 20 15  1  0
  8 15  1  6
  6  4  2  0
  4 23  1  0
  8 10  1  0
  1 21  1  0
  4  1  1  0
  2 22  1  0
  9 11  1  0
 10 11  1  0
M  END