
          11280715362D 1   1.00000     0.00000     0

 38 41  0     1  0            999 V2000
    3.2417   -4.2667    0.0000 C   0  0  1  0  0  0           0  0  0
    3.2792   -3.4417    0.0000 C   0  0  2  0  0  0           0  0  0
    3.8792   -4.7792    0.0000 N   0  0  3  0  0  0           0  0  0
    2.4417   -4.4792    0.0000 C   0  0  0  0  0  0           0  0  0
    6.1917   -1.7542    0.0000 C   0  0  0  0  0  0           0  0  0
    2.5167   -3.1417    0.0000 C   0  0  2  0  0  0           0  0  0
    5.3750   -1.7625    0.0000 C   0  0  0  0  0  0           0  0  0
    7.4917   -4.0542    0.0000 C   0  0  0  0  0  0           0  0  0
    2.3042   -2.3500    0.0000 O   0  0  0  0  0  0           0  0  0
    7.4375   -2.4625    0.0000 N   0  0  0  0  0  0           0  0  0
    1.9917   -3.7875    0.0000 C   0  0  0  0  0  0           0  0  0
    8.2167   -3.8667    0.0000 O   0  0  0  0  0  0           0  0  0
    6.5917   -1.0375    0.0000 C   0  0  0  0  0  0           0  0  0
    4.9625   -2.4792    0.0000 C   0  0  0  0  0  0           0  0  0
    4.9500   -1.0417    0.0000 C   0  0  0  0  0  0           0  0  0
    5.1542   -3.1167    0.0000 C   0  0  0  0  0  0           0  0  0
    5.8667   -3.2792    0.0000 C   0  0  0  0  0  0           0  0  0
    3.9792   -2.9917    0.0000 O   0  0  0  0  0  0           0  0  0
    2.8917   -1.7625    0.0000 C   0  0  0  0  0  0           0  0  0
    3.7167   -1.7667    0.0000 C   0  0  0  0  0  0           0  0  0
    7.4292   -4.8667    0.0000 O   0  0  0  0  0  0           0  0  0
    4.1250   -1.0542    0.0000 C   0  0  0  0  0  0           0  0  0
    4.1375   -2.4875    0.0000 C   0  0  0  0  0  0           0  0  0
    6.6125   -2.4667    0.0000 C   0  0  0  0  0  0           0  0  0
    4.6250   -4.4375    0.0000 C   0  0  0  0  0  0           0  0  0
    3.6917   -5.5917    0.0000 C   0  0  0  0  0  0           0  0  0
    4.5292   -3.3667    0.0000 C   0  0  0  0  0  0           0  0  0
    6.9667   -3.5917    0.0000 C   0  0  0  0  0  0           0  0  0
    7.8417   -1.7417    0.0000 C   0  0  0  0  0  0           0  0  0
    6.2167   -3.8417    0.0000 C   0  0  0  0  0  0           0  0  0
    6.1792   -0.3167    0.0000 C   0  0  0  0  0  0           0  0  0
    7.4167   -1.0292    0.0000 C   0  0  0  0  0  0           0  0  0
    6.5792    0.4000    0.0000 C   0  0  0  0  0  0           0  0  0
    4.2042   -6.2417    0.0000 C   0  0  0  0  0  0           0  0  0
    5.3667   -4.8000    0.0000 C   0  0  0  0  0  0           0  0  0
    6.1542    1.1125    0.0000 C   0  0  0  0  0  0           0  0  0
    5.0292   -6.2417    0.0000 C   0  0  0  0  0  0           0  0  0
    5.5500   -5.6042    0.0000 C   0  0  0  0  0  0           0  0  0
  2  1  1  0     0  0
  1  3  1  1     0  0
  4  1  1  0     0  0
  5  7  1  0     0  0
  6  2  1  0     0  0
  7 14  2  0     0  0
  8 28  1  0     0  0
  6  9  1  1     0  0
 10 24  1  0     0  0
 11  4  1  0     0  0
 12  8  2  0     0  0
 13  5  1  0     0  0
 14 23  1  0     0  0
 15 22  2  0     0  0
 16 27  1  0     0  0
 17 16  2  0     0  0
  2 18  1  6     0  0
 19  9  1  0     0  0
 20 19  1  0     0  0
 21  8  1  0     0  0
 22 20  1  0     0  0
 23 20  2  0     0  0
 24  5  2  0     0  0
 25  3  1  0     0  0
 26  3  1  0     0  0
 27 18  1  0     0  0
 28 30  1  0     0  0
 29 10  2  0     0  0
 30 17  1  0     0  0
 31 13  1  0     0  0
 32 13  2  0     0  0
 33 31  1  0     0  0
 34 26  1  0     0  0
 35 25  1  0     0  0
 36 33  1  0     0  0
 37 34  1  0     0  0
 38 35  1  0     0  0
 11  6  1  0     0  0
 37 38  1  0     0  0
 15  7  1  0     0  0
 32 29  1  0     0  0
M  END