
          11280715442D 1   1.00000     0.00000     0

 20 22  0     0  0            999 V2000
    9.6377    0.6080    0.0000 C   0  0  0  0  0  0           0  0  0
    9.6365   -0.2188    0.0000 C   0  0  0  0  0  0           0  0  0
   10.3509   -0.6315    0.0000 C   0  0  0  0  0  0           0  0  0
   10.3491    1.0204    0.0000 C   0  0  0  0  0  0           0  0  0
   11.0639    0.6116    0.0000 C   0  0  0  0  0  0           0  0  0
   11.0688   -0.2188    0.0000 C   0  0  0  0  0  0           0  0  0
   11.8602   -0.4709    0.0000 N   0  0  0  0  0  0           0  0  0
   12.3444    0.2039    0.0000 C   0  0  0  0  0  0           0  0  0
   11.8523    0.8728    0.0000 C   0  0  0  0  0  0           0  0  0
   13.1689    0.2088    0.0000 C   0  0  0  0  0  0           0  0  0
   13.5853   -0.5029    0.0000 O   0  0  0  0  0  0           0  0  0
   13.5768    0.9252    0.0000 N   0  0  3  0  0  0           0  0  0
   14.3985    0.9249    0.0000 C   0  0  0  0  0  0           0  0  0
   14.8064    1.6371    0.0000 C   0  0  0  0  0  0           0  0  0
   14.3935    2.3511    0.0000 N   0  0  3  0  0  0           0  0  0
   13.5681    2.3482    0.0000 C   0  0  0  0  0  0           0  0  0
   13.1557    1.6314    0.0000 C   0  0  0  0  0  0           0  0  0
   14.8042    3.0660    0.0000 C   0  0  0  0  0  0           0  0  0
    8.9236    1.0200    0.0000 C   0  0  0  0  0  0           0  0  0
   10.3499   -1.4559    0.0000 Cl  0  0  0  0  0  0           0  0  0
  4  1  2  0     0  0
  8 10  1  0     0  0
  5  6  2  0     0  0
 10 11  2  0     0  0
 10 12  1  0     0  0
 12 13  1  0     0  0
  2  3  2  0     0  0
  3  6  1  0     0  0
  1  2  1  0     0  0
  5  4  1  0     0  0
  6  7  1  0     0  0
 12 17  1  0     0  0
 13 14  1  0     0  0
 14 15  1  0     0  0
 15 16  1  0     0  0
 16 17  1  0     0  0
  7  8  1  0     0  0
 15 18  1  0     0  0
  8  9  2  0     0  0
  1 19  1  0     0  0
  9  5  1  0     0  0
  3 20  1  0     0  0
M  END