
  SciTegic07291412072D

 49 51  0  0  0  0            999 V2000
    5.6054   -0.4576    0.0000 P   0  0
    7.0344   -5.4076    0.0000 C   0  0  1  0  0  0
    7.4469   -6.1221    0.0000 C   0  0
    7.7488   -4.1701    0.0000 C   0  0
    7.7488   -4.9951    0.0000 N   0  0
    7.0344   -6.8365    0.0000 N   0  0
    7.4469   -7.5510    0.0000 C   0  0  1  0  0  0
    9.8922   -3.7576    0.0000 C   0  0
    8.2719   -7.5510    0.0000 C   0  0
    8.4633   -3.7576    0.0000 C   0  0  1  0  0  0
    9.1778   -4.1701    0.0000 N   0  0
    7.0344   -8.2655    0.0000 C   0  0
    8.6844   -8.2655    0.0000 C   0  0
    5.6054   -1.2826    0.0000 O   0  0
    5.6054    0.3674    0.0000 O   0  0
    6.3199   -5.8201    0.0000 C   0  0
    8.2719   -6.1221    0.0000 O   0  0
    7.0344   -3.7576    0.0000 O   0  0
    8.4633   -2.9326    0.0000 C   0  0
    9.8922   -2.9326    0.0000 O   0  0
    7.4469   -8.9799    0.0000 O   0  0
   10.6067   -4.1701    0.0000 O   0  0
    9.5094   -8.2655    0.0000 O   0  0
    4.7804   -0.4576    0.0000 O   0  0
    6.4304   -0.4576    0.0000 O   0  0
    6.2094   -8.2655    0.0000 N   0  0
    8.2719   -8.9799    0.0000 N   0  0
    5.6054   -5.4076    0.0000 C   0  0
    6.3199   -1.6951    0.0000 C   0  0
    7.7488   -2.5201    0.0000 C   0  0
    4.1765   -4.5826    0.0000 C   0  0
   12.0357   -4.9951    0.0000 C   0  0
   12.7501   -5.4076    0.0000 C   0  0
   11.3212   -3.7576    0.0000 C   0  0
   12.7501   -6.2326    0.0000 N   0  0
   12.0357   -4.1701    0.0000 C   0  0
    7.0344   -2.9326    0.0000 C   0  0
    5.6054   -4.5826    0.0000 C   0  0
    7.7488   -1.6951    0.0000 C   0  0
    4.8909   -5.8201    0.0000 C   0  0
    7.0344   -1.2826    0.0000 C   0  0
    6.3199   -2.5201    0.0000 C   0  0
    4.8909   -4.1701    0.0000 C   0  0
    4.1765   -5.4076    0.0000 C   0  0
    6.6219   -4.6931    0.0000 C   0  0
    3.4620   -4.1701    0.0000 O   0  0
   13.4646   -4.1701    0.0000 C   0  0
   13.4646   -4.9951    0.0000 C   0  0
   12.7501   -3.7576    0.0000 C   0  0
  2  5  1  0
  3  2  1  0
  4 10  1  0
  5  4  1  0
  6  3  1  0
  7  6  1  1
  8 11  1  0
  9  7  1  0
 10 19  1  6
 11 10  1  0
 12  7  1  0
 13  9  1  0
 14  1  1  0
 15  1  2  0
  2 16  1  6
 17  3  2  0
 18  4  2  0
 19 30  1  0
 20  8  2  0
 21 12  2  0
 22  8  1  0
 23 13  2  0
 24  1  1  0
 25  1  1  0
 26 12  1  0
 27 13  1  0
 28 16  1  0
 29 14  1  0
 30 37  2  0
 31 44  2  0
 32 36  2  0
 33 32  1  0
 34 22  1  0
 35 33  1  0
 36 34  1  0
 37 42  1  0
 38 28  1  0
 39 41  2  0
 40 28  2  0
 41 29  1  0
 42 29  2  0
 43 38  2  0
 44 40  1  0
 45  2  1  0
 46 31  1  0
 47 49  2  0
 48 47  1  0
 49 36  1  0
 30 39  1  0
 43 31  1  0
 33 48  2  0
M  END