
  SciTegic09291413392D

 31 34  0  0  0  0            999 V2000
    5.0270  -20.2482    0.0000 C   0  0
    5.0270  -21.0654    0.0000 C   0  0
    5.7322  -21.4698    0.0000 N   0  0
    6.4375  -21.0654    0.0000 C   0  0
    6.4375  -20.2482    0.0000 C   0  0  1  0  0  0
    5.7322  -19.8355    0.0000 C   0  0  2  0  0  0
    5.7327  -19.0191    0.0000 C   0  0
    6.4420  -18.6111    0.0000 C   0  0
    6.4424  -17.7947    0.0000 C   0  0
    5.7341  -17.3853    0.0000 C   0  0
    5.0241  -17.7983    0.0000 C   0  0
    5.0272  -18.6133    0.0000 C   0  0
    7.1503  -17.3864    0.0000 O   0  0
    7.1464  -19.8417    0.0000 C   0  0
    6.3064  -19.2535    0.0000 C   0  0
    5.7322  -22.2870    0.0000 C   0  0
    6.4400  -22.6956    0.0000 C   0  0
    7.1477  -22.2870    0.0000 O   0  0
    7.8554  -22.6956    0.0000 C   0  0
    8.5631  -22.2870    0.0000 C   0  0  1  0  0  0
    7.8554  -23.5128    0.0000 O   0  0
    9.2650  -22.6986    0.0000 C   0  0
    9.2672  -21.0651    0.0000 C   0  0
    8.5554  -21.4719    0.0000 N   0  0
    9.9748  -21.4759    0.0000 C   0  0
    9.9689  -22.2894    0.0000 C   0  0
   10.6693  -22.6994    0.0000 C   0  0
   11.3760  -22.2972    0.0000 C   0  0
   11.3780  -21.4806    0.0000 C   0  0
   10.6770  -21.0742    0.0000 C   0  0
   12.0866  -21.0735    0.0000 O   0  0
  1  2  1  0
  1  6  1  0
  2  3  1  0
  3  4  1  0
  4  5  1  0
  5  6  1  0
  7  8  2  0
  8  9  1  0
  9 10  2  0
 10 11  1  0
 11 12  2  0
 12  7  1  0
  6  7  1  1
  9 13  1  0
  5 14  1  1
  6 15  1  0
  3 16  1  0
 16 17  1  0
 17 18  1  0
 18 19  1  0
 20 19  1  6
 19 21  2  0
 20 22  1  0
 20 24  1  0
 22 26  1  0
 25 23  1  0
 23 24  1  0
 25 26  2  0
 26 27  1  0
 27 28  2  0
 28 29  1  0
 29 30  2  0
 30 25  1  0
 29 31  1  0
M  END