
  SciTegic12091613462D

 34 36  0  0  0  0            999 V2000
    2.7022   -0.0406    0.0000 O   0  0
    4.1697    0.2696    0.0000 C   0  0  1  0  0  0
    4.9183   -1.0302    0.0000 C   0  0
    3.9134   -2.1439    0.0000 O   0  0
    2.5987   -1.5006    0.0000 C   0  0
    1.2990   -0.7500    0.0000 C   0  0
    2.5956   -3.0018    0.0000 C   0  0
    1.2990    0.7500    0.0000 C   0  0
    0.0000    1.5000    0.0000 C   0  0
   -1.2990    0.7500    0.0000 C   0  0
   -1.2990   -0.7500    0.0000 C   0  0
    0.0000   -1.5000    0.0000 C   0  0
    3.8931   -3.7545    0.0000 C   0  0
    3.8899   -5.2545    0.0000 C   0  0
    2.5893   -6.0018    0.0000 C   0  0
    1.2919   -5.2491    0.0000 C   0  0
    1.2950   -3.7491    0.0000 C   0  0
    4.7778    1.6389    0.0000 C   0  0
    3.8952    2.8528    0.0000 N   0  0
    4.5043    4.2245    0.0000 C   0  0
    3.6217    5.4384    0.0000 C   0  0
    4.2308    6.8101    0.0000 O   0  0
    3.3483    8.0239    0.0000 C   0  0
    3.9550    9.3958    0.0000 C   0  0
    3.0705   10.6072    0.0000 C   0  0
    1.5791   10.4469    0.0000 C   0  0
    0.9722    9.0751    0.0000 C   0  0
    1.8568    7.8637    0.0000 C   0  0
   10.0183    1.9277    0.0000 C   0  0
    8.7183    2.6777    0.0000 C   0  0
    8.7183    3.8777    0.0000 O   0  0
    7.6789    2.0780    0.0000 O   0  0
   10.0183    0.7277    0.0000 O   0  0
   11.0577    2.5274    0.0000 O   0  0
  1  2  1  0
  2  3  1  0
  3  4  1  0
  4  5  1  0
  5  1  1  0
  5  6  1  0
  5  7  1  0
  6  8  2  0
  8  9  1  0
  9 10  2  0
 10 11  1  0
 11 12  2  0
 12  6  1  0
  7 13  2  0
 13 14  1  0
 14 15  2  0
 15 16  1  0
 16 17  2  0
 17  7  1  0
  2 18  1  6
 18 19  1  0
 19 20  1  0
 20 21  1  0
 21 22  1  0
 22 23  1  0
 23 24  2  0
 24 25  1  0
 25 26  2  0
 26 27  1  0
 27 28  2  0
 28 23  1  0
 29 30  1  0
 30 31  1  0
 30 32  2  0
 29 33  1  0
 29 34  2  0
M  END