
          03140815512D 1   1.00000     0.00000     0

 17 18  0     0  0            999 V2000
    3.0632   -6.2547    0.0000 C   0  0  0  0  0  0           0  0  0
    3.0632   -7.0834    0.0000 C   0  0  0  0  0  0           0  0  0
    3.7770   -7.4955    0.0000 N   0  0  3  0  0  0           0  0  0
    4.4954   -7.0834    0.0000 C   0  0  0  0  0  0           0  0  0
    4.4954   -6.2547    0.0000 C   0  0  0  0  0  0           0  0  0
    3.7770   -5.8380    0.0000 C   0  0  0  0  0  0           0  0  0
    3.7759   -8.3197    0.0000 S   0  0  3  0  0  0           0  0  0
    3.7684   -9.1394    0.0000 N   0  0  0  0  0  0           0  0  0
    4.6001   -8.3241    0.0000 O   0  0  0  0  0  0           0  0  0
    2.9517   -8.3201    0.0000 O   0  0  0  0  0  0           0  0  0
    3.0508   -9.5449    0.0000 C   0  0  0  0  0  0           0  0  0
    2.3441   -9.1235    0.0000 C   0  0  0  0  0  0           0  0  0
    1.6271   -9.5284    0.0000 C   0  0  0  0  0  0           0  0  0
    1.6190  -10.3534    0.0000 C   0  0  0  0  0  0           0  0  0
    2.3341  -10.7720    0.0000 C   0  0  0  0  0  0           0  0  0
    3.0482  -10.3646    0.0000 C   0  0  0  0  0  0           0  0  0
    0.9021  -10.7600    0.0000 F   0  0  0  0  0  0           0  0  0
  1  6  1  0     0  0
  7  9  2  0     0  0
  2  3  1  0     0  0
  7 10  2  0     0  0
  3  4  1  0     0  0
  8 11  1  0     0  0
  4  5  1  0     0  0
 11 12  2  0     0  0
  5  6  1  0     0  0
 12 13  1  0     0  0
 13 14  2  0     0  0
  3  7  1  0     0  0
 14 15  1  0     0  0
  1  2  1  0     0  0
 15 16  2  0     0  0
 16 11  1  0     0  0
  7  8  1  0     0  0
 14 17  1  0     0  0
M  END