
  SciTegic09171211542D

 35 37  0  0  0  0            999 V2000
   19.9925   -3.3912    0.0000 C   0  0
   20.7080   -2.9784    0.0000 C   0  0
   21.4205   -3.3929    0.0000 C   0  0
   21.4178   -4.2188    0.0000 C   0  0
   20.6967   -4.6284    0.0000 C   0  0
   19.9873   -4.2115    0.0000 C   0  0
   22.1301   -4.6349    0.0000 C   0  0
   22.1259   -5.4599    0.0000 C   0  0
   22.8383   -5.8731    0.0000 C   0  0
   21.4094   -5.8637    0.0000 C   0  0
   23.5556   -5.4639    0.0000 O   0  0
   22.8361   -6.6917    0.0000 O   0  0
   21.3975   -6.6851    0.0000 O   0  0
   20.6989   -5.4439    0.0000 O   0  0
   19.2794   -2.9763    0.0000 C   0  0
   12.1372   -4.6569    0.0000 C   0  0
   12.8537   -4.2435    0.0000 C   0  0
   12.8508   -3.4130    0.0000 C   0  0
   12.1354   -3.0039    0.0000 C   0  0
   11.4224   -4.2440    0.0000 C   0  0
   11.4236   -3.4151    0.0000 C   0  0
   10.6357   -3.1577    0.0000 S   0  0
   10.1474   -3.8276    0.0000 C   0  0
   10.6337   -4.4989    0.0000 N   0  0
   13.5637   -2.9978    0.0000 N   0  0
   14.2797   -3.4076    0.0000 C   0  0
   14.9927   -2.9924    0.0000 C   0  0
   14.2829   -4.2326    0.0000 O   0  0
   15.7087   -3.4022    0.0000 C   0  0
   16.4216   -2.9870    0.0000 N   0  0
   17.1376   -3.3968    0.0000 C   0  0
   17.8505   -2.9817    0.0000 N   0  0
   17.1407   -4.2218    0.0000 O   0  0
   18.5665   -3.3915    0.0000 C   0  0
    9.3224   -3.8264    0.0000 C   0  0
 17 18  1  0
  8  9  1  0
 18 19  2  0
 19 21  1  0
 20 21  2  0
  4  5  1  0
  8 10  1  0
  2  3  1  0
  5  6  2  0
  9 11  1  0
 21 22  1  0
 22 23  1  0
 23 24  2  0
 24 20  1  0
  9 12  2  0
 18 25  1  0
  6  1  1  0
 25 26  1  0
  1  2  2  0
 26 27  1  0
 10 13  1  0
 26 28  2  0
 10 14  2  0
 27 29  1  0
  4  7  1  0
 29 30  1  0
  1 15  1  0
 30 31  1  0
  3  4  2  0
 31 32  1  0
 20 16  1  0
 31 33  2  0
  7  8  1  0
 32 34  1  0
 34 15  1  0
 16 17  2  0
 23 35  1  0
M  END