
          11280715452D 1   1.00000     0.00000     0

 11 12  0     0  0            999 V2000
    0.5167   -0.7500    0.0000 N   0  0  0  0  0  0           0  0  0
    1.2292   -0.3375    0.0000 C   0  0  0  0  0  0           0  0  0
    1.2292    0.4958    0.0000 N   0  0  0  0  0  0           0  0  0
   -0.1958   -0.3375    0.0000 C   0  0  0  0  0  0           0  0  0
   -0.1958    0.4958    0.0000 C   0  0  0  0  0  0           0  0  0
    0.5167    0.9000    0.0000 C   0  0  0  0  0  0           0  0  0
    1.9417   -0.7500    0.0000 N   0  0  0  0  0  0           0  0  0
   -0.9208   -0.7500    0.0000 C   0  0  0  0  0  0           0  0  0
   -0.9083    0.9125    0.0000 C   0  0  0  0  0  0           0  0  0
   -1.6333    0.4958    0.0000 C   0  0  0  0  0  0           0  0  0
   -1.6333   -0.3375    0.0000 C   0  0  0  0  0  0           0  0  0
  2  1  2  0     0  0
  3  2  1  0     0  0
  4  1  1  0     0  0
  5  4  1  0     0  0
  6  5  1  0     0  0
  7  2  1  0     0  0
  8  4  2  0     0  0
  9  5  2  0     0  0
 10 11  2  0     0  0
 11  8  1  0     0  0
  3  6  2  0     0  0
  9 10  1  0     0  0
M  END