
  CDK    9/16/09,9:50

 13 14  0  0  0  0  0  0  0  0999 V2000
    8.3179   -9.9750    0.0000 N   0  0  0  0  0  0  0  0  0  0  0  0
    8.9343   -9.4219    0.0000 C   0  0  0  0  0  0  0  0  0  0  0  0
    9.7189   -9.6790    0.0000 C   0  0  0  0  0  0  0  0  0  0  0  0
   10.3312   -9.1259    0.0000 C   0  0  0  0  0  0  0  0  0  0  0  0
   10.2422   -8.3078    0.0000 C   0  0  0  0  0  0  0  0  0  0  0  0
   10.9966   -7.9702    0.0000 N   0  0  0  0  0  0  0  0  0  0  0  0
   11.5497   -8.5866    0.0000 C   0  0  0  0  0  0  0  0  0  0  0  0
   12.3747   -8.5866    0.0000 C   0  0  0  0  0  0  0  0  0  0  0  0
   12.7872   -9.2983    0.0000 C   0  0  0  0  0  0  0  0  0  0  0  0
   12.3747  -10.0142    0.0000 C   0  0  0  0  0  0  0  0  0  0  0  0
   11.5497  -10.0142    0.0000 C   0  0  0  0  0  0  0  0  0  0  0  0
   11.1372   -9.2983    0.0000 C   0  0  0  0  0  0  0  0  0  0  0  0
   13.6122   -9.2983    0.0000 F   0  0  0  0  0  0  0  0  0  0  0  0
  1  2  1  0  0  0  0 
  2  3  1  0  0  0  0 
  3  4  1  0  0  0  0 
  4  5  2  0  0  0  0 
  5  6  1  0  0  0  0 
  6  7  1  0  0  0  0 
  7  8  2  0  0  0  0 
  8  9  1  0  0  0  0 
  9 10  2  0  0  0  0 
 10 11  1  0  0  0  0 
 11 12  2  0  0  0  0 
  4 12  1  0  0  0  0 
  7 12  1  0  0  0  0 
  9 13  1  0  0  0  0 
M  END