
          11280715082D 1   1.00000     0.00000     0

 29 32  0     0  0            999 V2000
    3.6292   -1.6542    0.0000 C   0  0  0  0  0  0           0  0  0
    3.6292   -2.2542    0.0000 C   0  0  0  0  0  0           0  0  0
    4.1417   -1.3542    0.0000 C   0  0  0  0  0  0           0  0  0
    4.6625   -1.6542    0.0000 C   0  0  0  0  0  0           0  0  0
    5.7042   -1.6542    0.0000 C   0  0  0  0  0  0           0  0  0
    3.1042   -1.3500    0.0000 C   0  0  3  0  0  0           0  0  0
    8.3000   -2.5542    0.0000 C   0  0  0  0  0  0           0  0  0
    3.1042   -2.5542    0.0000 C   0  0  3  0  0  0           0  0  0
    7.7792   -2.2542    0.0000 C   0  0  0  0  0  0           0  0  0
    5.1792   -1.3542    0.0000 C   0  0  3  0  0  0           0  0  0
    6.2250   -1.3542    0.0000 C   0  0  0  0  0  0           0  0  0
    4.1500   -2.5542    0.0000 C   0  0  0  0  0  0           0  0  0
    7.2542   -2.5542    0.0000 C   0  0  0  0  0  0           0  0  0
    6.7417   -1.6542    0.0000 C   0  0  0  0  0  0           0  0  0
    6.7417   -2.2542    0.0000 C   0  0  0  0  0  0           0  0  0
    4.6667   -2.2542    0.0000 C   0  0  0  0  0  0           0  0  0
    5.7042   -2.2542    0.0000 C   0  0  0  0  0  0           0  0  0
    2.5875   -1.6500    0.0000 C   0  0  0  0  0  0           0  0  0
    8.3042   -3.1542    0.0000 O   0  0  0  0  0  0           0  0  0
    2.5875   -2.2542    0.0000 C   0  0  0  0  0  0           0  0  0
    7.7792   -1.6542    0.0000 C   0  0  0  0  0  0           0  0  0
    6.2250   -2.5542    0.0000 C   0  0  0  0  0  0           0  0  0
    7.2542   -1.3542    0.0000 C   0  0  0  0  0  0           0  0  0
    8.8167   -2.2542    0.0000 O   0  0  0  0  0  0           0  0  0
    5.1792   -0.7542    0.0000 O   0  0  0  0  0  0           0  0  0
    3.5292   -0.9250    0.0000 C   0  0  0  0  0  0           0  0  0
    2.5875   -1.0500    0.0000 C   0  0  0  0  0  0           0  0  0
    3.6250   -2.8542    0.0000 C   0  0  0  0  0  0           0  0  0
    2.5875   -2.8542    0.0000 C   0  0  0  0  0  0           0  0  0
  2  1  2  0     0  0
  3  1  1  0     0  0
  4  3  2  0     0  0
  5 10  1  0     0  0
  6  1  1  0     0  0
  7  9  1  0     0  0
  8  2  1  0     0  0
  9 13  2  0     0  0
 10  4  1  0     0  0
 11  5  1  0     0  0
 12  2  1  0     0  0
 13 15  1  0     0  0
 14 11  2  0     0  0
 15 22  2  0     0  0
 16  4  1  0     0  0
 17  5  2  0     0  0
 18  6  1  0     0  0
 19  7  2  0     0  0
 20 18  1  0     0  0
 21 23  2  0     0  0
 22 17  1  0     0  0
 23 14  1  0     0  0
 24  7  1  0     0  0
 10 25  1  0     0  0
 26  6  1  0     0  0
 27  6  1  0     0  0
 28  8  1  0     0  0
 29  8  1  0     0  0
 20  8  1  0     0  0
 12 16  2  0     0  0
 15 14  1  0     0  0
  9 21  1  0     0  0
M  END