
  SciTegic01161211232D

 35 37  0  0  0  0            999 V2000
   -2.3447   -3.1374    0.0000 C   0  0
   -1.3074   -3.7406    0.0000 C   0  0
   -1.3115   -4.9406    0.0000 C   0  0
   -0.0048   -2.9950    0.0000 C   0  0
    1.2926   -3.7495    0.0000 C   0  0
    2.5951   -3.0039    0.0000 N   0  0
    2.5973   -1.5030    0.0000 C   0  0
    1.2990   -0.7500    0.0000 C   0  0
    1.2990    0.7500    0.0000 C   0  0
    0.0000    1.5000    0.0000 C   0  0
   -1.2990    0.7500    0.0000 C   0  0
   -1.2990   -0.7500    0.0000 C   0  0
    0.0000   -1.5000    0.0000 C   0  0
   -2.5987    1.5004    0.0000 C   0  0
   -3.8967    0.7484    0.0000 C   0  0
   -5.1969    1.4963    0.0000 C   0  0
   -5.1993    2.9963    0.0000 C   0  0
   -3.9014    3.7484    0.0000 C   0  0
   -2.6012    3.0004    0.0000 C   0  0
   -1.3027    3.7529    0.0000 C   0  0
    0.0506    3.1362    0.0000 N   0  0
    1.0508    4.2541    0.0000 N   0  0
    0.2966    5.5507    0.0000 N   0  0
   -1.1696    5.2342    0.0000 N   0  0
    3.8934   -3.7569    0.0000 C   0  0
    3.8862   -5.2570    0.0000 N   0  0
    5.1817   -6.0132    0.0000 C   0  0
    5.1759   -7.2132    0.0000 C   0  0
    6.4843   -5.2694    0.0000 N   0  0
    6.4915   -3.7695    0.0000 C   0  0
    5.1961   -3.0132    0.0000 C   0  0
    5.2064   -1.5124    0.0000 C   0  0
    6.2493   -0.9189    0.0000 O   0  0
    4.1711   -0.9056    0.0000 O   0  0
    9.0108   -0.9816    0.0000 Cl  0  0
  1  2  1  0
  2  3  1  0
  2  4  1  0
  4  5  1  0
  5  6  1  0
  6  7  1  0
  7  8  1  0
  8  9  2  0
  9 10  1  0
 10 11  2  0
 11 12  1  0
 12 13  2  0
 13  8  1  0
 11 14  1  0
 14 15  2  0
 15 16  1  0
 16 17  2  0
 17 18  1  0
 18 19  2  0
 19 14  1  0
 19 20  1  0
 20 21  1  0
 21 22  2  0
 22 23  1  0
 23 24  1  0
 24 20  2  0
  6 25  1  0
 25 26  2  0
 26 27  1  0
 27 28  1  0
 27 29  2  0
 29 30  1  0
 30 31  2  0
 31 25  1  0
 31 32  1  0
 32 33  2  0
 32 34  1  0
M  END