
          11280715012D 1   1.00000     0.00000     0

 29 31  0     0  0            999 V2000
    8.4167   -4.3792    0.0000 N   0  0  0  0  0  0           0  0  0
    4.7542   -3.1375    0.0000 C   0  0  0  0  0  0           0  0  0
    1.9042   -2.3167    0.0000 C   0  0  0  0  0  0           0  0  0
    1.2000   -1.9042    0.0000 C   0  0  0  0  0  0           0  0  0
    1.1917   -1.0875    0.0000 C   0  0  0  0  0  0           0  0  0
    9.6417   -3.8292    0.0000 N   0  0  0  0  0  0           0  0  0
    9.2250   -4.5500    0.0000 C   0  0  0  0  0  0           0  0  0
    8.3292   -3.5542    0.0000 C   0  0  0  0  0  0           0  0  0
    4.7542   -2.3167    0.0000 N   0  0  0  0  0  0           0  0  0
    1.9042   -3.1375    0.0000 C   0  0  3  0  0  0           0  0  0
    1.9125   -0.6667    0.0000 C   0  0  0  0  0  0           0  0  0
    9.0875   -3.2167    0.0000 C   0  0  0  0  0  0           0  0  0
    2.6250   -1.9042    0.0000 C   0  0  0  0  0  0           0  0  0
    4.0417   -3.5542    0.0000 N   0  0  0  0  0  0           0  0  0
    2.6250   -1.0792    0.0000 C   0  0  0  0  0  0           0  0  0
    5.4792   -3.5542    0.0000 N   0  0  0  0  0  0           0  0  0
    1.1917   -3.5542    0.0000 C   0  0  0  0  0  0           0  0  0
    0.4792   -0.6750    0.0000 Cl  0  0  0  0  0  0           0  0  0
    1.9167    0.1583    0.0000 Cl  0  0  0  0  0  0           0  0  0
    3.3292   -3.1375    0.0000 C   0  0  0  0  0  0           0  0  0
    2.6167   -3.5542    0.0000 C   0  0  0  0  0  0           0  0  0
    7.6167   -3.1375    0.0000 C   0  0  0  0  0  0           0  0  0
    6.1917   -3.1375    0.0000 C   0  0  0  0  0  0           0  0  0
    0.4792   -3.1375    0.0000 C   0  0  0  0  0  0           0  0  0
    1.1917   -4.3750    0.0000 C   0  0  0  0  0  0           0  0  0
    6.9042   -3.5542    0.0000 C   0  0  0  0  0  0           0  0  0
    0.4792   -4.7875    0.0000 C   0  0  0  0  0  0           0  0  0
   -0.2375   -3.5542    0.0000 C   0  0  0  0  0  0           0  0  0
   -0.2375   -4.3792    0.0000 C   0  0  0  0  0  0           0  0  0
  2 16  1  0     0  0
  3 10  1  0     0  0
  4  3  1  0     0  0
  5  4  2  0     0  0
  6  7  1  0     0  0
  7  1  2  0     0  0
  8  1  1  0     0  0
  9  2  2  0     0  0
 10 21  1  0     0  0
 11 15  2  0     0  0
 12  8  2  0     0  0
 13  3  2  0     0  0
 14  2  1  0     0  0
 15 13  1  0     0  0
 16 23  1  0     0  0
 17 10  1  0     0  0
 18  5  1  0     0  0
 19 11  1  0     0  0
 20 14  1  0     0  0
 21 20  1  0     0  0
 22  8  1  0     0  0
 23 26  1  0     0  0
 24 17  2  0     0  0
 25 17  1  0     0  0
 26 22  1  0     0  0
 27 25  2  0     0  0
 28 24  1  0     0  0
 29 27  1  0     0  0
  6 12  1  0     0  0
 29 28  2  0     0  0
 11  5  1  0     0  0
M  END