
  SciTegic04091415222D

 28 31  0  0  0  0            999 V2000
   19.8629  -22.9432    0.0000 C   0  0
   21.2767  -22.9396    0.0000 C   0  0
   20.5680  -22.5344    0.0000 C   0  0
   21.2795  -23.7623    0.0000 C   0  0
   21.2757  -25.3974    0.0000 C   0  0
   21.9869  -24.9851    0.0000 C   0  0
   21.9849  -24.1694    0.0000 C   0  0
   20.5690  -24.1696    0.0000 C   0  0
   19.8618  -23.7628    0.0000 C   0  0
   19.1580  -24.1718    0.0000 C   0  0
   19.1602  -24.9874    0.0000 O   0  0
   19.8721  -25.3923    0.0000 C   0  0
   20.5730  -24.9810    0.0000 C   0  0
   21.9798  -22.5297    0.0000 C   0  0
   22.6893  -22.9373    0.0000 N   0  0
   23.3950  -22.5267    0.0000 C   0  0
   23.3924  -21.7087    0.0000 N   0  0
   22.6782  -21.3029    0.0000 C   0  0
   21.9754  -21.7158    0.0000 N   0  0
   20.5656  -21.7172    0.0000 Cl  0  0
   22.6722  -20.4857    0.0000 N   0  0
   24.1041  -22.9330    0.0000 S   0  0
   24.8104  -22.5221    0.0000 C   0  0
   25.5195  -22.9283    0.0000 C   0  0
   26.2258  -22.5174    0.0000 C   0  0
   26.9349  -22.9237    0.0000 N   0  0
   26.2232  -21.7002    0.0000 O   0  0
   27.6412  -22.5128    0.0000 C   0  0
  1  9  2  0
  4  2  1  0
  2  3  2  0
  3  1  1  0
  4  8  1  0
 13  5  1  0
  5  6  2  0
  6  7  1  0
  7  4  2  0
  8  9  1  0
  9 10  1  0
 10 11  1  0
 11 12  1  0
 12 13  1  0
 13  8  2  0
 14 15  2  0
 15 16  1  0
 16 17  2  0
 17 18  1  0
 18 19  2  0
 19 14  1  0
  2 14  1  0
  3 20  1  0
 18 21  1  0
 16 22  1  0
 22 23  1  0
 23 24  1  0
 24 25  1  0
 25 26  1  0
 25 27  2  0
 26 28  1  0
M  END