
  SciTegic12231509382D

 16 18  0  0  0  0            999 V2000
    0.7219   -2.4749    0.0000 O   0  0
    0.7219   -4.1249    0.0000 O   0  0
    2.1408   -1.6499    0.0000 N   0  0
    2.1408    0.0000    0.0000 N   0  0
    1.4190   -2.8916    0.0000 C   0  0
    2.1408   -2.4749    0.0000 C   0  0
    1.4190   -3.7124    0.0000 C   0  0
    2.8627   -2.8916    0.0000 C   0  0
    2.1408   -4.1249    0.0000 C   0  0
    2.8627   -3.7124    0.0000 C   0  0
    2.8627   -1.2334    0.0000 C   0  0
    1.4190   -1.2334    0.0000 C   0  0
    0.0000   -2.8916    0.0000 C   0  0
    0.0000   -3.7124    0.0000 C   0  0
    2.8627   -0.4125    0.0000 C   0  0
    1.4190   -0.4125    0.0000 C   0  0
  1  5  1  0
  1 13  1  0
  2  7  1  0
  2 14  1  0
  3  6  1  0
  3 11  1  0
  3 12  1  0
  4 15  1  0
  4 16  1  0
  5  6  1  0
  5  7  2  0
  6  8  2  0
  7  9  1  0
  8 10  1  0
  9 10  2  0
 11 15  1  0
 12 16  1  0
 13 14  1  0
M  END