
  SciTegic03291108482D

 17 18  0  0  0  0            999 V2000
   -2.3205   -4.1936    0.0000 O   0  0
   -3.0350   -2.9561    0.0000 O   0  0
   -0.1771   -2.9561    0.0000 N   0  0
   -1.6060   -2.9561    0.0000 C   0  0
   -0.8916   -1.7186    0.0000 C   0  0
   -1.6060   -2.1311    0.0000 C   0  0
   -2.3205   -3.3686    0.0000 C   0  0
   -0.8916   -3.3686    0.0000 C   0  0
   -0.1771   -2.1311    0.0000 C   0  0
   -0.8916   -0.8936    0.0000 C   0  0
   -0.8916    0.7564    0.0000 C   0  0
   -0.8916   -0.0686    0.0000 C   0  0
   -1.6060    1.1689    0.0000 C   0  0
   -0.1771    1.1689    0.0000 C   0  0
   -1.6060    1.9939    0.0000 C   0  0
   -0.1771    1.9939    0.0000 C   0  0
   -0.8916    2.4064    0.0000 C   0  0
  1  7  2  0
  2  7  1  0
  3  8  1  0
  3  9  2  0
  4  6  1  0
  4  7  1  0
  4  8  2  0
  5  6  2  0
  5  9  1  0
  5 10  1  0
 10 12  3  0
 11 12  1  0
 11 13  2  0
 11 14  1  0
 13 15  1  0
 14 16  2  0
 15 17  2  0
 16 17  1  0
M  END