
  SciTegic04091414152D

 32 36  0  0  0  0            999 V2000
   14.8117   -5.3516    0.0000 C   0  0
   14.0951   -5.7493    0.0000 C   0  0  2  0  0  0
   14.0862   -6.5670    0.0000 C   0  0
   14.8112   -6.9673    0.0000 N   0  3
   15.5098   -6.5841    0.0000 C   0  0
   15.5204   -5.7602    0.0000 C   0  0
   14.2808   -5.9778    0.0000 C   0  0
   15.0280   -6.3173    0.0000 C   0  0
   13.3885   -5.3317    0.0000 O   0  0
   12.0353   -4.8792    0.0000 C   0  0
   11.4951   -5.5012    0.0000 C   0  0
   12.5866   -5.4981    0.0000 C   0  0
   11.2776   -4.5578    0.0000 C   0  0
   11.0511   -3.7672    0.0000 C   0  0
   11.5324   -3.0964    0.0000 C   0  0
   12.3506   -3.0624    0.0000 C   0  0
   12.8929   -3.6777    0.0000 C   0  0
   12.7538   -4.4896    0.0000 C   0  0
   10.6773   -5.4312    0.0000 C   0  0
   10.3506   -6.1898    0.0000 C   0  0
   10.9726   -6.7339    0.0000 C   0  0
   11.6811   -6.3090    0.0000 C   0  0
   12.3296   -6.2780    0.0000 O   0  0
   14.7026   -7.7814    0.0000 C   0  0
   15.3498   -8.2845    0.0000 C   0  0
   15.2413   -9.0944    0.0000 C   0  0
   14.4816   -9.4071    0.0000 C   0  0
   14.3728  -10.2204    0.0000 C   0  0
   15.0245  -10.7203    0.0000 C   0  0
   15.7873  -10.4053    0.0000 C   0  0
   15.8924   -9.5929    0.0000 C   0  0
   16.4391  -10.9083    0.0000 Cl  0  0
  1  2  1  0
  1  6  1  0
  2  3  1  0
  3  4  1  0
  4  5  1  0
  5  6  1  0
  1  7  1  0
  4  8  1  0
  7  8  1  0
  2  9  1  6
 11 10  1  0
 10 12  1  0
 13 14  1  0
 14 15  1  0
 15 16  1  0
 13 10  1  0
 16 17  1  0
 10 18  1  0
 17 18  1  0
 11 19  2  0
 19 20  1  0
 20 21  2  0
 21 22  1  0
 22 11  1  0
 12 23  2  0
 12  9  1  0
  4 24  1  0
 24 25  1  0
 25 26  1  0
 26 27  2  0
 27 28  1  0
 28 29  2  0
 29 30  1  0
 30 31  2  0
 31 26  1  0
 30 32  1  0
M  CHG  1   4   1
M  END