
  SciTegic01091216402D

 26 28  0  0  0  0            999 V2000
    4.5702   -4.4644    0.0000 N   0  0
    4.6231   -5.2893    0.0000 N   0  0
    5.4207   -5.4895    0.0000 C   0  0
    5.8617   -4.7909    0.0000 C   0  0
    5.3335   -4.1581    0.0000 C   0  0
    3.8715   -4.0234    0.0000 C   0  0
    3.1416   -4.4079    0.0000 N   0  0
    3.9047   -3.2015    0.0000 N   0  0
    5.5374   -3.3586    0.0000 C   0  0
    6.3309   -3.1354    0.0000 C   0  0
    6.5348   -2.3360    0.0000 C   0  0
    5.9453   -1.7597    0.0000 C   0  0
    5.1482   -1.9848    0.0000 C   0  0
    4.9479   -2.7823    0.0000 C   0  0
    3.2061   -2.7604    0.0000 C   0  0
    3.2374   -1.9348    0.0000 C   0  0
    2.4449   -3.9706    0.0000 S   0  0
    2.8860   -3.2719    0.0000 O   0  0
    1.7249   -4.3678    0.0000 C   0  0
    1.0151   -3.9450    0.0000 C   0  0
    0.2975   -4.3472    0.0000 C   0  0
    0.2856   -5.1721    0.0000 C   0  0
    0.9913   -5.5948    0.0000 C   0  0
    1.7130   -5.1927    0.0000 C   0  0
   -0.4123   -3.9244    0.0000 Cl  0  0
    1.8542   -3.3792    0.0000 O   0  0
  1  2  1  0
  2  3  2  0
  3  4  1  0
  4  5  1  0
  1  5  1  0
  6  7  2  0
  6  8  1  0
  1  6  1  0
  9 10  1  0
 10 11  2  0
 11 12  1  0
 12 13  2  0
 13 14  1  0
  9 14  2  0
  5  9  1  0
 15 16  1  0
  8 15  1  0
 17 18  2  0
 19 20  1  0
 20 21  2  0
 21 22  1  0
 22 23  2  0
 23 24  1  0
 19 24  2  0
 17 19  1  0
 21 25  1  0
  7 17  1  0
 17 26  2  0
M  END