
  SciTegic12231509382D

 16 16  0  0  0  0            999 V2000
    1.5611  -15.2998    0.0000 C   0  0
    1.5598  -16.1272    0.0000 C   0  0
    2.2747  -16.5400    0.0000 C   0  0
    2.9912  -16.1267    0.0000 C   0  0
    2.9883  -15.2961    0.0000 C   0  0
    2.2729  -14.8870    0.0000 C   0  0
    2.2745  -17.3650    0.0000 C   0  0
    3.7012  -14.8810    0.0000 O   0  0
    4.4172  -15.2908    0.0000 C   0  0
    5.1301  -14.8756    0.0000 C   0  0
    5.8461  -15.2854    0.0000 C   0  0
    5.1270  -14.0506    0.0000 O   0  0
    6.5590  -14.8702    0.0000 N   0  0
    7.2750  -15.2800    0.0000 C   0  0
    7.9879  -14.8648    0.0000 C   0  0
    7.2781  -16.1050    0.0000 C   0  0
  1  2  2  0
  2  3  1  0
  3  4  2  0
  4  5  1  0
  5  6  2  0
  6  1  1  0
  3  7  1  0
  5  8  1  0
  8  9  1  0
  9 10  1  0
 10 11  1  0
 10 12  1  0
 11 13  1  0
 13 14  1  0
 14 15  1  0
 14 16  1  0
M  END