
  SciTegic09261414532D

 47 54  0  0  0  0            999 V2000
   24.2378  -19.2617    0.0000 C   0  0
   24.2367  -20.0813    0.0000 C   0  0
   24.9447  -20.4902    0.0000 C   0  0
   24.9429  -18.8529    0.0000 C   0  0
   25.6515  -19.2581    0.0000 C   0  0
   25.6518  -20.0813    0.0000 C   0  0
   26.4348  -20.3355    0.0000 N   0  0
   26.9185  -19.6693    0.0000 C   0  0
   26.4343  -19.0036    0.0000 N   0  0
   26.6875  -21.1126    0.0000 C   0  0
   27.7324  -19.6676    0.0000 C   0  0
   28.1407  -20.3768    0.0000 C   0  0
   28.9571  -20.3769    0.0000 C   0  0
   29.3663  -19.6685    0.0000 C   0  0
   28.9530  -18.9586    0.0000 C   0  0
   28.1379  -18.9620    0.0000 C   0  0
   30.1834  -19.6671    0.0000 O   0  0
   30.5932  -20.3742    0.0000 C   0  0
   31.4104  -20.3728    0.0000 C   0  0
   31.8202  -21.0798    0.0000 N   0  0
   31.4890  -21.8219    0.0000 C   0  0
   32.0967  -22.3683    0.0000 N   0  0
   32.6324  -21.1595    0.0000 C   0  0
   32.8000  -21.9558    0.0000 C   0  0
   33.5719  -22.2073    0.0000 C   0  0
   34.1770  -21.6635    0.0000 C   0  0
   34.0049  -20.8650    0.0000 C   0  0
   33.2332  -20.6173    0.0000 C   0  0
   30.7827  -22.2290    0.0000 C   0  0
   30.0760  -21.8163    0.0000 C   0  0
   29.3675  -22.2219    0.0000 C   0  0
   29.3643  -23.0400    0.0000 C   0  0
   30.0756  -23.4508    0.0000 C   0  0
   30.7813  -23.0429    0.0000 C   0  0
   26.1408  -21.7201    0.0000 C   0  0
   25.3433  -21.5490    0.0000 C   0  0
   24.7969  -22.1556    0.0000 C   0  0
   25.0495  -22.9337    0.0000 C   0  0
   25.8535  -23.1017    0.0000 C   0  0
   26.3964  -22.4937    0.0000 C   0  0
   31.8178  -19.6644    0.0000 C   0  0
   32.6335  -19.6661    0.0000 C   0  0
   33.0408  -18.9618    0.0000 C   0  0
   32.6345  -18.2524    0.0000 N   0  0
   31.8163  -18.2518    0.0000 C   0  0
   31.4045  -18.9606    0.0000 C   0  0
   24.5036  -23.5419    0.0000 F   0  0
  1  2  2  0
  2  3  1  0
  3  6  2  0
  5  4  2  0
  4  1  1  0
  5  6  1  0
  6  7  1  0
  7  8  1  0
  8  9  2  0
  9  5  1  0
  7 10  1  0
 11 12  2  0
 12 13  1  0
 13 14  2  0
 14 15  1  0
 15 16  2  0
 16 11  1  0
  8 11  1  0
 14 17  1  0
 17 18  1  0
 18 19  1  0
 19 20  1  0
 20 21  1  0
 21 22  2  0
 22 24  1  0
 23 20  1  0
 23 24  2  0
 24 25  1  0
 25 26  2  0
 26 27  1  0
 27 28  2  0
 28 23  1  0
 29 30  2  0
 30 31  1  0
 31 32  2  0
 32 33  1  0
 33 34  2  0
 34 29  1  0
 21 29  1  0
 10 35  1  0
 35 36  2  0
 36 37  1  0
 37 38  2  0
 38 39  1  0
 39 40  2  0
 40 35  1  0
 19 41  1  0
 41 42  1  0
 41 46  1  0
 42 43  1  0
 43 44  1  0
 44 45  1  0
 45 46  1  0
 38 47  1  0
M  END