
          08180812482D 1   1.00000     0.00000     0

 37 41  0     1  0            999 V2000
    5.4175    1.3332    0.0000 C   0  0  0  0  0  0           0  0  0
    5.8521    0.6292    0.0000 C   0  0  0  0  0  0           0  0  0
    6.6772    0.6545    0.0000 C   0  0  0  0  0  0           0  0  0
    7.0687    1.3831    0.0000 C   0  0  0  0  0  0           0  0  0
    6.6290    2.0877    0.0000 C   0  0  0  0  0  0           0  0  0
    5.8054    2.0589    0.0000 C   0  0  0  0  0  0           0  0  0
    5.3690    2.7590    0.0000 O   0  0  0  0  0  0           0  0  0
    7.8933    1.4098    0.0000 C   0  0  0  0  0  0           0  0  0
    5.4612   -0.0974    0.0000 C   0  0  0  0  0  0           0  0  0
    7.1113   -0.0471    0.0000 C   0  0  0  0  0  0           0  0  0
    7.1042   -0.8708    0.0000 C   0  0  1  0  0  0           0  0  0
    7.8150   -1.2895    0.0000 C   0  0  0  0  0  0           0  0  0
    6.3861   -1.2771    0.0000 N   0  0  0  0  0  0           0  0  0
    8.5331   -0.8833    0.0000 N   0  0  3  0  0  0           0  0  0
    7.8078   -2.1145    0.0000 O   0  0  0  0  0  0           0  0  0
    9.2377   -1.3055    0.0000 C   0  0  1  0  0  0           0  0  0
    9.9536   -0.9028    0.0000 C   0  0  0  0  0  0           0  0  0
    8.5322   -0.0610    0.0000 C   0  0  0  0  0  0           0  0  0
    9.2543    0.3434    0.0000 C   0  0  0  0  0  0           0  0  0
    9.9644   -0.0782    0.0000 C   0  0  0  0  0  0           0  0  0
   10.6824    0.3259    0.0000 C   0  0  0  0  0  0           0  0  0
   10.6916    1.1514    0.0000 C   0  0  0  0  0  0           0  0  0
    9.9768    1.5712    0.0000 C   0  0  0  0  0  0           0  0  0
    9.2617    1.1647    0.0000 C   0  0  0  0  0  0           0  0  0
    9.2264   -2.1305    0.0000 C   0  0  0  0  0  0           0  0  0
    8.5064   -2.5331    0.0000 O   0  0  0  0  0  0           0  0  0
    9.9352   -2.5527    0.0000 N   0  0  0  0  0  0           0  0  0
   10.6552   -2.1500    0.0000 C   0  0  0  0  0  0           0  0  0
   11.3640   -2.5723    0.0000 C   0  0  0  0  0  0           0  0  0
   11.4404   -3.3920    0.0000 O   0  0  0  0  0  0           0  0  0
   12.1235   -2.2453    0.0000 N   0  0  0  0  0  0           0  0  0
   12.6672   -2.8658    0.0000 C   0  0  0  0  0  0           0  0  0
   12.2442   -3.5725    0.0000 C   0  0  0  0  0  0           0  0  0
   12.6447   -4.2901    0.0000 C   0  0  0  0  0  0           0  0  0
   13.4680   -4.3021    0.0000 C   0  0  0  0  0  0           0  0  0
   13.8892   -3.5906    0.0000 C   0  0  0  0  0  0           0  0  0
   13.4863   -2.8760    0.0000 C   0  0  0  0  0  0           0  0  0
 17 20  1  0     0  0
 19 18  1  0     0  0
  2  9  1  0     0  0
  4  5  1  0     0  0
 19 20  2  0     0  0
  3 10  1  0     0  0
 20 21  1  0     0  0
  2  3  1  0     0  0
 21 22  2  0     0  0
 11 10  1  1     0  0
 22 23  1  0     0  0
  5  6  2  0     0  0
 23 24  2  0     0  0
 24 19  1  0     0  0
 11 12  1  0     0  0
 16 25  1  1     0  0
  6  1  1  0     0  0
 25 26  2  0     0  0
 11 13  1  0     0  0
 25 27  1  0     0  0
  1  2  2  0     0  0
 27 28  1  0     0  0
 12 14  1  0     0  0
 28 29  1  0     0  0
 29 30  1  0     0  0
  6  7  1  0     0  0
 12 15  2  0     0  0
 30 33  1  0     0  0
 32 31  1  0     0  0
 31 29  2  0     0  0
 14 16  1  0     0  0
  3  4  2  0     0  0
 32 33  2  0     0  0
  4  8  1  0     0  0
 33 34  1  0     0  0
 34 35  2  0     0  0
 14 18  1  0     0  0
 35 36  1  0     0  0
 16 17  1  0     0  0
 36 37  2  0     0  0
 37 32  1  0     0  0
M  END