
  CDK    9/16/09,9:48

 10 10  0  0  0  0  0  0  0  0999 V2000
    5.0398  -17.9061    0.0000 C   0  0  0  0  0  0  0  0  0  0  0  0
    5.0385  -18.7337    0.0000 C   0  0  0  0  0  0  0  0  0  0  0  0
    5.7515  -19.1466    0.0000 C   0  0  0  0  0  0  0  0  0  0  0  0
    6.4708  -18.7331    0.0000 C   0  0  0  0  0  0  0  0  0  0  0  0
    6.4677  -17.9021    0.0000 C   0  0  0  0  0  0  0  0  0  0  0  0
    5.7495  -17.4934    0.0000 C   0  0  0  0  0  0  0  0  0  0  0  0
    7.1800  -17.4861    0.0000 C   0  0  0  0  0  0  0  0  0  0  0  0
    7.8965  -17.8951    0.0000 C   0  0  0  0  0  0  0  0  0  0  0  0
    8.6089  -17.4790    0.0000 N   0  0  0  0  0  0  0  0  0  0  0  0
    4.3236  -19.1452    0.0000 C   0  0  0  0  0  0  0  0  0  0  0  0
  2  3  1  0  0  0  0 
  5  6  2  0  0  0  0 
  6  1  1  0  0  0  0 
  1  2  2  0  0  0  0 
  5  7  1  0  0  0  0 
  3  4  2  0  0  0  0 
  7  8  1  0  0  0  0 
  8  9  1  0  0  0  0 
  4  5  1  0  0  0  0 
  2 10  1  0  0  0  0 
M  END