
  SciTegic06051313522D

 51 54  0  0  0  0            999 V2000
   11.2511  -20.1107    0.0000 N   0  0
   11.9603  -19.7048    0.0000 C   0  0
   11.9610  -18.8893    0.0000 C   0  0
   12.6694  -18.4834    0.0000 C   0  0
   13.3766  -18.8947    0.0000 C   0  0
   13.3709  -19.7161    0.0000 C   0  0
   12.6619  -20.1183    0.0000 C   0  0
   12.6721  -17.6662    0.0000 F   0  0
   14.0716  -20.1285    0.0000 C   0  0
   14.7826  -19.7234    0.0000 N   0  0
   15.4868  -20.1365    0.0000 C   0  0
   15.4813  -20.9545    0.0000 C   0  0
   14.7656  -21.3577    0.0000 C   0  0
   14.0643  -20.9423    0.0000 C   0  0
   16.1867  -21.3705    0.0000 C   0  0
   16.8979  -20.9680    0.0000 O   0  0
   16.1796  -22.1877    0.0000 O   0  0
    4.1753  -20.1326    0.0000 C   0  0
    4.1742  -20.9521    0.0000 C   0  0
    4.8822  -21.3611    0.0000 C   0  0
    5.5919  -20.9516    0.0000 C   0  0
    5.5891  -20.1290    0.0000 C   0  0
    4.8804  -19.7237    0.0000 C   0  0
    6.3002  -21.3591    0.0000 Cl  0  0
    3.4675  -19.7242    0.0000 O   0  0
    3.4673  -18.9070    0.0000 C   0  0
    3.4662  -21.3602    0.0000 N   0  0
    3.4655  -22.1773    0.0000 C   0  0
    2.7575  -22.5854    0.0000 C   0  0
    4.1729  -22.5865    0.0000 O   0  0
    2.7568  -23.4026    0.0000 S   0  0
    2.0488  -23.8106    0.0000 C   0  0
    1.3433  -23.3974    0.0000 N   0  0
    0.6357  -23.8047    0.0000 C   0  0
    0.6346  -24.6228    0.0000 C   0  0
    1.3470  -25.0318    0.0000 C   0  0
    2.0516  -24.6221    0.0000 C   0  0
   -0.0756  -25.0289    0.0000 C   0  0
   -0.7875  -24.6207    0.0000 O   0  0
   -0.0761  -25.8461    0.0000 O   0  0
    6.2952  -19.7177    0.0000 O   0  0
    7.0045  -20.1237    0.0000 C   0  0
    7.7106  -19.7124    0.0000 C   0  0  2  0  0  0
    8.4199  -20.1183    0.0000 C   0  0  2  0  0  0
    9.1260  -19.7071    0.0000 C   0  0  1  0  0  0
    9.8353  -20.1130    0.0000 C   0  0  1  0  0  0
   10.5415  -19.7017    0.0000 C   0  0
    7.7076  -18.8952    0.0000 O   0  0
    8.4230  -20.9355    0.0000 O   0  0
    9.1230  -18.8899    0.0000 O   0  0
    9.8384  -20.9302    0.0000 O   0  0
  1  2  1  0
  2  3  2  0
  3  4  1  0
  4  5  2  0
  5  6  1  0
  6  7  2  0
  7  2  1  0
  4  8  1  0
  9 10  2  0
 10 11  1  0
 11 12  2  0
 12 13  1  0
 13 14  2  0
 14  9  1  0
  6  9  1  0
 15 16  1  0
 15 17  2  0
 12 15  1  0
 18 19  2  0
 19 20  1  0
 20 21  2  0
 21 22  1  0
 22 23  2  0
 23 18  1  0
 21 24  1  0
 18 25  1  0
 25 26  1  0
 19 27  1  0
 27 28  1  0
 28 29  1  0
 28 30  2  0
 29 31  1  0
 31 32  1  0
 32 33  2  0
 33 34  1  0
 34 35  2  0
 35 36  1  0
 36 37  2  0
 37 32  1  0
 38 39  1  0
 38 40  2  0
 35 38  1  0
 22 41  1  0
 41 42  1  0
 42 43  1  0
 43 44  1  0
 44 45  1  0
 45 46  1  0
 46 47  1  0
 47  1  1  0
 43 48  1  1
 44 49  1  6
 45 50  1  6
 46 51  1  1
M  END