
  SciTegic02271514512D

 24 26  0  0  0  0            999 V2000
   11.5604   -5.7988    0.0000 C   0  0
   11.5604   -6.6159    0.0000 C   0  0
   12.2656   -7.0204    0.0000 C   0  0
   12.9709   -6.6159    0.0000 C   0  0
   12.9709   -5.7988    0.0000 C   0  0
   12.2656   -5.3860    0.0000 C   0  0
   10.8542   -7.0260    0.0000 C   0  0
   10.1456   -6.6168    0.0000 C   0  0
    9.4390   -7.0257    0.0000 C   0  0
    9.4397   -7.8438    0.0000 C   0  0
   10.1530   -8.2512    0.0000 C   0  0
   10.8567   -7.8399    0.0000 C   0  0
   12.2656   -4.5688    0.0000 O   0  0
   13.6798   -5.3922    0.0000 S   0  0
   14.3863   -5.8029    0.0000 C   0  0
   13.6780   -7.0256    0.0000 O   0  0
   14.3824   -6.6211    0.0000 C   0  0
   15.0880   -7.0317    0.0000 C   0  0
   15.7979   -6.6251    0.0000 C   0  0
   15.7977   -5.8037    0.0000 C   0  0
   15.0914   -5.3968    0.0000 C   0  0
   15.0915   -4.5796    0.0000 Cl  0  0
    8.7332   -8.2543    0.0000 O   0  0
    8.0243   -7.8477    0.0000 C   0  0
  1  2  1  0
  1  6  1  0
  2  3  1  0
  3  4  1  0
  4  5  1  0
  5  6  2  0
  7  8  2  0
  8  9  1  0
  9 10  2  0
 10 11  1  0
 11 12  2  0
 12  7  1  0
  2  7  1  0
  6 13  1  0
  5 14  1  0
 14 15  1  0
  4 16  2  0
 15 17  2  0
 17 18  1  0
 18 19  2  0
 19 20  1  0
 20 21  2  0
 21 15  1  0
 21 22  1  0
 10 23  1  0
 23 24  1  0
M  END