
          11280715122D 1   1.00000     0.00000     0

 27 29  0     0  0            999 V2000
    5.8250   -1.8667    0.0000 C   0  0  0  0  0  0           0  0  0
    5.8250   -2.6917    0.0000 C   0  0  0  0  0  0           0  0  0
    5.1042   -3.1042    0.0000 C   0  0  0  0  0  0           0  0  0
    6.5417   -1.4542    0.0000 C   0  0  3  0  0  0           0  0  0
    4.3917   -1.8667    0.0000 C   0  0  0  0  0  0           0  0  0
    4.3917   -2.6917    0.0000 C   0  0  0  0  0  0           0  0  0
    5.1042   -1.4542    0.0000 C   0  0  0  0  0  0           0  0  0
    6.9542   -0.7375    0.0000 C   0  0  0  0  0  0           0  0  0
    6.1250   -0.7292    0.0000 C   0  0  0  0  0  0           0  0  0
    5.2750   -3.9167    0.0000 C   0  0  3  0  0  0           0  0  0
    6.4375   -3.2500    0.0000 C   0  0  0  0  0  0           0  0  0
    8.6875   -4.3500    0.0000 C   0  0  0  0  0  0           0  0  0
    8.6875   -5.1792    0.0000 C   0  0  0  0  0  0           0  0  0
    3.6750   -1.4417    0.0000 C   0  0  3  0  0  0           0  0  0
    7.9667   -3.9375    0.0000 C   0  0  0  0  0  0           0  0  0
    6.1000   -4.0042    0.0000 C   0  0  0  0  0  0           0  0  0
    7.2542   -2.6917    0.0000 C   0  0  0  0  0  0           0  0  0
    7.9667   -3.1042    0.0000 C   0  0  0  0  0  0           0  0  0
    9.4042   -5.5917    0.0000 O   0  0  0  0  0  0           0  0  0
    7.2542   -1.8667    0.0000 C   0  0  0  0  0  0           0  0  0
    7.9750   -5.5917    0.0000 O   0  0  0  0  0  0           0  0  0
    4.4750   -3.7000    0.0000 C   0  0  0  0  0  0           0  0  0
    5.4875   -4.7125    0.0000 C   0  0  0  0  0  0           0  0  0
    3.2500   -2.1625    0.0000 C   0  0  0  0  0  0           0  0  0
    4.1000   -0.7167    0.0000 C   0  0  0  0  0  0           0  0  0
    2.9542   -1.0167    0.0000 C   0  0  0  0  0  0           0  0  0
    7.2542   -4.3500    0.0000 C   0  0  0  0  0  0           0  0  0
  2  1  1  0     0  0
  3  2  2  0     0  0
  4  1  1  0     0  0
  5  7  1  0     0  0
  6  5  2  0     0  0
  7  1  2  0     0  0
  8  4  1  0     0  0
  9  4  1  0     0  0
 10  3  1  0     0  0
 11  2  1  0     0  0
 12 15  2  0     0  0
 13 12  1  0     0  0
 14  5  1  0     0  0
 15 18  1  0     0  0
 16 11  1  0     0  0
 17 20  1  0     0  0
 18 17  2  0     0  0
 19 13  2  0     0  0
 20  4  1  0     0  0
 21 13  1  0     0  0
 22 10  1  0     0  0
 23 10  1  0     0  0
 24 14  1  0     0  0
 25 14  1  0     0  0
 26 14  1  0     0  0
 27 15  1  0     0  0
  9  8  1  0     0  0
  3  6  1  0     0  0
 10 16  1  0     0  0
M  END