
  SciTegic11201309402D

 18 19  0  0  1  0            999 V2000
    0.2292   -5.2917    0.0000 N   0  0
   -1.1958   -5.2917    0.0000 C   0  0  1  0  0  0
   -0.4750   -5.7042    0.0000 C   0  0  2  0  0  0
   -1.9083   -5.7042    0.0000 C   0  0
   -2.6208   -5.2917    0.0000 O   0  0
   -1.1958   -4.4667    0.0000 O   0  0
   -3.3375   -5.7042    0.0000 C   0  0
    0.9417   -5.7042    0.0000 C   0  0
   -0.4750   -6.5292    0.0000 C   0  0
   -4.0500   -5.2917    0.0000 C   0  0
   -3.3333   -6.5292    0.0000 C   0  0
    0.9417   -6.5292    0.0000 C   0  0
    0.2292   -6.9417    0.0000 C   0  0
   -4.0458   -6.9417    0.0000 C   0  0
   -4.7708   -5.7042    0.0000 C   0  0
   -4.7708   -6.5375    0.0000 C   0  0
   -0.4833   -4.8792    0.0000 H   0  0
   -1.9083   -4.8792    0.0000 H   0  0
  2  3  1  0
  3  1  1  0
  4  2  1  0
  5  4  1  0
  2  6  1  0
  7  5  1  0
  8  1  1  0
  9  3  1  0
 10  7  2  0
 11  7  1  0
 12  8  1  0
 13 12  1  0
 14 11  2  0
 15 10  1  0
 16 14  1  0
  3 17  1  6
  2 18  1  6
 13  9  1  0
 16 15  2  0
M  END