
  Mrv0541 04051115152D          

 27 29  0  0  0  0            999 V2000
    0.6603   -0.9627    0.0000 C   0  0  0  0  0  0  0  0  0  0  0  0
    0.6603   -1.7877    0.0000 C   0  0  0  0  0  0  0  0  0  0  0  0
    0.6603   -3.4377    0.0000 C   0  0  0  0  0  0  0  0  0  0  0  0
   -0.7687   -0.9627    0.0000 C   0  0  0  0  0  0  0  0  0  0  0  0
    1.3747    1.9248    0.0000 C   0  0  0  0  0  0  0  0  0  0  0  0
    1.3747    2.7498    0.0000 C   0  0  0  0  0  0  0  0  0  0  0  0
   -0.0542   -3.0252    0.0000 C   0  0  0  0  0  0  0  0  0  0  0  0
   -0.0542   -0.5502    0.0000 C   0  0  0  0  0  0  0  0  0  0  0  0
    0.6603    1.5123    0.0000 C   0  0  0  0  0  0  0  0  0  0  0  0
   -0.7687   -4.2627    0.0000 C   0  0  0  0  0  0  0  0  0  0  0  0
   -0.7687   -3.4377    0.0000 C   0  0  0  0  0  0  0  0  0  0  0  0
   -0.0542   -4.6752    0.0000 C   0  0  0  0  0  0  0  0  0  0  0  0
   -0.0542    1.9248    0.0000 C   0  0  0  0  0  0  0  0  0  0  0  0
   -0.0542    2.7498    0.0000 C   0  0  0  0  0  0  0  0  0  0  0  0
    0.6603    3.9873    0.0000 C   0  0  0  0  0  0  0  0  0  0  0  0
    0.6603   -4.2627    0.0000 C   0  0  0  0  0  0  0  0  0  0  0  0
   -0.0542   -2.2002    0.0000 C   0  0  0  0  0  0  0  0  0  0  0  0
   -0.0542    0.2748    0.0000 C   0  0  0  0  0  0  0  0  0  0  0  0
   -0.0542    4.3998    0.0000 C   0  0  0  0  0  0  0  0  0  0  0  0
   -0.7687   -1.7877    0.0000 N   0  0  0  0  0  0  0  0  0  0  0  0
    0.6603    0.6873    0.0000 N   0  0  0  0  0  0  0  0  0  0  0  0
    0.6603    3.1623    0.0000 N   0  0  0  0  0  0  0  0  0  0  0  0
   -0.7687    0.6873    0.0000 O   0  0  0  0  0  0  0  0  0  0  0  0
    1.3747   -4.6752    0.0000 F   0  0  0  0  0  0  0  0  0  0  0  0
   -0.7687    4.8123    0.0000 F   0  0  0  0  0  0  0  0  0  0  0  0
   -0.4667    3.6853    0.0000 F   0  0  0  0  0  0  0  0  0  0  0  0
    0.3583    5.1142    0.0000 F   0  0  0  0  0  0  0  0  0  0  0  0
  1  2  2  0  0  0  0
  8  1  1  0  0  0  0
 17  2  1  0  0  0  0
  7  3  2  0  0  0  0
 16  3  1  0  0  0  0
  8  4  2  0  0  0  0
  4 20  1  0  0  0  0
  6  5  1  0  0  0  0
  9  5  1  0  0  0  0
  6 22  1  0  0  0  0
  7 11  1  0  0  0  0
  7 17  1  0  0  0  0
  8 18  1  0  0  0  0
  9 21  1  0  0  0  0
  9 13  1  0  0  0  0
 10 11  2  0  0  0  0
 10 12  1  0  0  0  0
 16 12  2  0  0  0  0
 14 13  1  0  0  0  0
 14 22  1  0  0  0  0
 15 22  1  0  0  0  0
 15 19  1  0  0  0  0
 16 24  1  0  0  0  0
 17 20  2  0  0  0  0
 18 21  1  0  0  0  0
 18 23  2  0  0  0  0
 19 27  1  0  0  0  0
 19 26  1  0  0  0  0
 19 25  1  0  0  0  0
M  END