
          11280715392D 1   1.00000     0.00000     0

 11 11  0     0  0            999 V2000
    3.4167    1.4208    0.0000 S   0  0  3  0  0  0           0  0  0
    2.7042    1.8250    0.0000 N   0  0  0  0  0  0           0  0  0
    3.6292    2.2208    0.0000 O   0  0  0  0  0  0           0  0  0
    3.2042    0.6208    0.0000 O   0  0  0  0  0  0           0  0  0
    4.1292    1.0000    0.0000 N   0  0  0  0  0  0           0  0  0
    1.9875    1.4125    0.0000 C   0  0  0  0  0  0           0  0  0
    1.2750    1.8333    0.0000 C   0  0  0  0  0  0           0  0  0
    1.9917    0.5958    0.0000 C   0  0  0  0  0  0           0  0  0
    1.2792    0.1750    0.0000 C   0  0  0  0  0  0           0  0  0
    0.5542    1.4208    0.0000 C   0  0  0  0  0  0           0  0  0
    0.5542    0.5875    0.0000 C   0  0  0  0  0  0           0  0  0
  2  1  1  0     0  0
  3  1  2  0     0  0
  4  1  2  0     0  0
  5  1  1  0     0  0
  6  2  1  0     0  0
  7  6  2  0     0  0
  8  6  1  0     0  0
  9  8  2  0     0  0
 10  7  1  0     0  0
 11  9  1  0     0  0
 11 10  2  0     0  0
M  END