
  SciTegic11201309402D

 84 87  0  0  1  0            999 V2000
   12.2792   -2.1875    0.0000 N   0  0
    6.2250   -3.2167    0.0000 N   0  0
   11.6667   -2.7375    0.0000 C   0  0
    6.8125   -3.8042    0.0000 C   0  0
    5.7167   -1.6667    0.0000 C   0  0
   10.8750   -2.4792    0.0000 C   0  0  2  0  0  0
   11.0042   -1.6667    0.0000 N   0  0
    5.8500   -0.8417    0.0000 N   0  0
    5.8500   -2.4792    0.0000 C   0  0  2  0  0  0
    9.9167    0.4750    0.0000 N   0  0
    7.5417    0.8500    0.0000 N   0  0
   10.8750   -0.8417    0.0000 C   0  0
    6.8125    0.4750    0.0000 C   0  0
   13.2292   -1.0542    0.0000 C   0  0
    9.1792    0.8500    0.0000 C   0  0
   10.5042   -0.1125    0.0000 C   0  0  1  0  0  0
   13.0417   -1.8667    0.0000 C   0  0  2  0  0  0
    6.2250   -0.1125    0.0000 C   0  0  1  0  0  0
   15.0000    0.2250    0.0000 C   0  0
    7.5417   -4.1792    0.0000 C   0  0
   14.0167   -0.8167    0.0000 N   0  0
   15.1792    1.0333    0.0000 N   0  0
   11.0792    0.4375    0.0000 C   0  0
    8.3625    0.9833    0.0000 C   0  0  2  0  0  0
   12.7667    3.2958    0.0000 C   0  0
   18.9417    1.4250    0.0000 C   0  0
    9.9167   -3.8042    0.0000 S   0  0
   16.1667    2.0833    0.0000 C   0  0
    9.1792   -4.1792    0.0000 S   0  0
   10.8625    1.2375    0.0000 C   0  0
    8.3625   -4.3042    0.0000 C   0  0
   14.2042   -0.0167    0.0000 C   0  0  1  0  0  0
   15.9750    1.2708    0.0000 C   0  0  2  0  0  0
    9.0792    3.0458    0.0000 C   0  0
   12.9542    4.0917    0.0000 N   0  0
   19.7375    1.6625    0.0000 N   0  0
   11.8292   -3.5417    0.0000 O   0  0
    5.0625   -2.7375    0.0000 C   0  0
    6.3250   -4.4667    0.0000 O   0  0
    4.8917   -1.6667    0.0000 O   0  0
   10.5042   -3.2167    0.0000 C   0  0
   12.6250   -0.4917    0.0000 O   0  0
    6.3250    1.1458    0.0000 O   0  0
   11.6667   -0.5917    0.0000 O   0  0
    9.4375    1.6375    0.0000 O   0  0
    5.5542    0.3750    0.0000 C   0  0
   15.6000   -0.3375    0.0000 O   0  0
   15.5625    2.6458    0.0000 O   0  0
   11.3667    1.8958    0.0000 O   0  0
    9.7917    3.4583    0.0000 O   0  0
    8.3625    1.8083    0.0000 C   0  0
   13.3750    2.7250    0.0000 N   0  0
   18.7542    0.6208    0.0000 N   0  0
   11.9792    3.0583    0.0000 N   0  0
   18.3417    1.9875    0.0000 N   0  0
   16.9542    2.3208    0.0000 N   0  0
   12.3500   -3.0125    0.0000 C   0  0
   10.0500    1.3375    0.0000 N   0  0
    9.0792    2.2208    0.0000 C   0  0
    4.4500   -2.1792    0.0000 C   0  0
    8.3625    3.4583    0.0000 N   0  0
    5.5542   -3.7042    0.0000 C   0  0
    3.2167   -1.0750    0.0000 C   0  0
    5.6417    1.1958    0.0000 C   0  0
    4.6167   -1.3750    0.0000 C   0  0
    3.6625   -2.4375    0.0000 C   0  0
    4.0042   -0.8167    0.0000 C   0  0
    3.0417   -1.8792    0.0000 C   0  0
   13.5792   -2.4875    0.0000 C   0  0
    2.6042   -0.5250    0.0000 O   0  0
   13.1542   -3.2000    0.0000 C   0  0
    7.6417   -4.6125    0.0000 C   0  0
    9.0792   -4.6125    0.0000 C   0  0
   13.6042    0.5500    0.0000 C   0  0
   16.5792    0.7083    0.0000 C   0  0
   13.1917    1.9208    0.0000 C   0  0
   17.9667    0.3833    0.0000 C   0  0
    4.9667    1.6833    0.0000 C   0  0
    6.3917    1.5333    0.0000 C   0  0
   17.3667    0.9458    0.0000 C   0  0
   13.7917    1.3583    0.0000 C   0  0
    5.0542    2.5083    0.0000 C   0  0
    6.4792    2.3583    0.0000 C   0  0
    5.8125    2.8458    0.0000 C   0  0
  2  4  1  0
  3  1  1  0
  4 20  1  0
  5  9  1  0
  6  3  1  1
  7  6  1  0
  8  5  1  0
  9  2  1  0
 10 16  1  0
 11 24  1  0
 12  7  1  0
 13 11  1  0
 17 14  1  6
 15 10  1  0
 16 12  1  0
 17  1  1  0
 18 13  1  0
 19 32  1  0
 20 31  1  0
 21 14  1  0
 22 19  1  0
 16 23  1  6
 24 15  1  0
 25 52  2  0
 26 53  2  0
 27 41  1  0
 28 33  1  0
 29 27  1  0
 30 23  1  0
 31 29  1  0
 32 21  1  1
 33 22  1  6
 34 59  1  0
 35 25  1  0
 36 26  1  0
 37  3  2  0
  9 38  1  1
 39  4  2  0
 40  5  2  0
  6 41  1  0
 42 14  2  0
 43 13  2  0
 44 12  2  0
 45 15  2  0
 18 46  1  6
 47 19  2  0
 48 28  2  0
 49 30  2  0
 50 34  2  0
 24 51  1  1
 52 76  1  0
 53 77  1  0
 54 25  1  0
 55 26  1  0
 56 28  1  0
 57  1  1  0
 58 30  1  0
 59 51  1  0
 60 38  1  0
 61 34  1  0
 62  2  1  0
 63 68  1  0
 64 46  1  0
 65 60  2  0
 66 60  1  0
 67 65  1  0
 68 66  2  0
 17 69  1  0
 70 63  1  0
 71 57  1  0
 72 31  1  0
 73 31  1  0
 32 74  1  0
 33 75  1  0
 76 81  1  0
 77 80  1  0
 78 64  1  0
 79 64  2  0
 80 75  1  0
 81 74  1  0
 82 78  2  0
 83 79  1  0
 84 83  2  0
 69 71  1  0
 18  8  1  0
 67 63  2  0
 84 82  1  0
M  END