
  Mrv0541 04051115152D          

 13 13  0  0  0  0            999 V2000
    0.6030   -0.4704    0.0000 C   0  0  2  0  0  0  0  0  0  0  0  0
   -0.1115   -0.8829    0.0000 C   0  0  1  0  0  0  0  0  0  0  0  0
   -0.8260   -0.4704    0.0000 C   0  0  2  0  0  0  0  0  0  0  0  0
   -0.8260    0.3546    0.0000 C   0  0  2  0  0  0  0  0  0  0  0  0
   -0.1115    0.7671    0.0000 C   0  0  1  0  0  0  0  0  0  0  0  0
   -0.1115    1.5921    0.0000 C   0  0  0  0  0  0  0  0  0  0  0  0
    2.0319   -0.4704    0.0000 C   0  0  0  0  0  0  0  0  0  0  0  0
    1.3175   -0.8829    0.0000 O   0  0  0  0  0  0  0  0  0  0  0  0
   -0.1115   -1.7079    0.0000 O   0  0  0  0  0  0  0  0  0  0  0  0
   -1.5404   -0.8829    0.0000 O   0  0  0  0  0  0  0  0  0  0  0  0
   -1.5404    0.7671    0.0000 O   0  0  0  0  0  0  0  0  0  0  0  0
    0.6030    0.3546    0.0000 O   0  0  0  0  0  0  0  0  0  0  0  0
    0.6030    2.0046    0.0000 O   0  0  0  0  0  0  0  0  0  0  0  0
  1  2  1  0  0  0  0
  1  8  1  1  0  0  0
  1 12  1  0  0  0  0
  2  3  1  0  0  0  0
  2  9  1  6  0  0  0
  3  4  1  0  0  0  0
  3 10  1  1  0  0  0
  4  5  1  0  0  0  0
  4 11  1  1  0  0  0
  5  6  1  1  0  0  0
  5 12  1  0  0  0  0
  6 13  1  0  0  0  0
  7  8  1  0  0  0  0
M  END