
          11280714562D 1   1.00000     0.00000     0

 26 28  0     0  0            999 V2000
    0.5167   -0.7042    0.0000 N   0  0  3  0  0  0           0  0  0
    0.5167   -1.3042    0.0000 C   0  0  0  0  0  0           0  0  0
    1.0917   -1.4792    0.0000 C   0  0  0  0  0  0           0  0  0
   -0.0083   -0.4042    0.0000 C   0  0  0  0  0  0           0  0  0
    1.0792   -0.5125    0.0000 N   0  0  0  0  0  0           0  0  0
    1.4417   -0.9917    0.0000 C   0  0  0  0  0  0           0  0  0
    0.0000   -1.6042    0.0000 N   0  0  0  0  0  0           0  0  0
   -0.5208   -0.7042    0.0000 C   0  0  0  0  0  0           0  0  0
    1.2875   -2.0500    0.0000 C   0  0  0  0  0  0           0  0  0
   -0.5208   -1.3042    0.0000 C   0  0  0  0  0  0           0  0  0
   -0.0083    0.1958    0.0000 N   0  0  0  0  0  0           0  0  0
    1.8667   -2.1625    0.0000 C   0  0  0  0  0  0           0  0  0
    0.8875   -2.4917    0.0000 C   0  0  0  0  0  0           0  0  0
    2.0667   -2.7292    0.0000 C   0  0  0  0  0  0           0  0  0
    1.6667   -3.1792    0.0000 C   0  0  0  0  0  0           0  0  0
    1.0792   -3.0667    0.0000 C   0  0  0  0  0  0           0  0  0
    2.0417   -0.9875    0.0000 C   0  0  0  0  0  0           0  0  0
   -0.5250    0.4958    0.0000 C   0  0  3  0  0  0           0  0  0
    1.8625   -3.7542    0.0000 O   0  0  0  0  0  0           0  0  0
    2.2667   -1.7125    0.0000 C   0  0  0  0  0  0           0  0  0
   -1.0375   -1.6042    0.0000 C   0  0  0  0  0  0           0  0  0
    1.4667   -4.2042    0.0000 C   0  0  0  0  0  0           0  0  0
   -1.0458    0.1875    0.0000 C   0  0  0  0  0  0           0  0  0
   -0.5333    1.0958    0.0000 C   0  0  0  0  0  0           0  0  0
   -1.5708    0.4875    0.0000 C   0  0  0  0  0  0           0  0  0
   -1.1125    1.2500    0.0000 C   0  0  0  0  0  0           0  0  0
  2  1  1  0     0  0
  3  2  2  0     0  0
  4  1  1  0     0  0
  5  1  1  0     0  0
  6  5  2  0     0  0
  7  2  1  0     0  0
  8  4  2  0     0  0
  9  3  1  0     0  0
 10  8  1  0     0  0
 11  4  1  0     0  0
 12  9  1  0     0  0
 13  9  2  0     0  0
 14 12  2  0     0  0
 15 16  2  0     0  0
 16 13  1  0     0  0
 17  6  1  0     0  0
 18 11  1  0     0  0
 19 15  1  0     0  0
 20 12  1  0     0  0
 21 10  1  0     0  0
 22 19  1  0     0  0
 23 18  1  0     0  0
 24 18  1  0     0  0
 25 23  1  0     0  0
 26 24  1  0     0  0
  6  3  1  0     0  0
 10  7  2  0     0  0
 14 15  1  0     0  0
M  END