
  SciTegic06051313552D

 34 37  0  0  0  0            999 V2000
    3.5686  -14.7094    0.0000 C   0  0
    3.5675  -15.5289    0.0000 C   0  0
    4.2755  -15.9379    0.0000 C   0  0
    4.2737  -14.3005    0.0000 C   0  0
    5.7661  -14.4497    0.0000 C   0  0
    4.9824  -14.7058    0.0000 C   0  0
    4.9849  -15.5311    0.0000 C   0  0
    5.7712  -15.7823    0.0000 N   0  0
    6.2520  -15.1115    0.0000 N   0  0
    6.0282  -16.5581    0.0000 C   0  0
    5.6098  -17.2592    0.0000 C   0  0
    4.7950  -17.2446    0.0000 C   0  0
    4.3761  -17.9454    0.0000 C   0  0
    4.7742  -18.6600    0.0000 C   0  0
    5.5956  -18.6695    0.0000 C   0  0
    6.0108  -17.9681    0.0000 C   0  0
    5.9962  -19.3818    0.0000 C   0  0
    5.5797  -20.0849    0.0000 N   0  0
    5.9803  -20.7971    0.0000 C   0  0
    5.5638  -21.5002    0.0000 O   0  0
    6.7974  -20.8063    0.0000 C   0  0
    6.1878  -13.7497    0.0000 N   0  0
    7.0048  -13.7649    0.0000 S   0  0
    7.4915  -14.4213    0.0000 C   0  0
    6.9774  -12.9412    0.0000 O   0  0
    7.7863  -13.5218    0.0000 O   0  0
    7.2464  -15.2029    0.0000 C   0  0
    7.9127  -15.6777    0.0000 C   0  0
    8.5694  -15.1894    0.0000 C   0  0
    8.3067  -14.4146    0.0000 S   0  0
    9.3496  -15.4327    0.0000 Cl  0  0
    4.2671  -13.4875    0.0000 C   0  0
    3.5561  -13.0847    0.0000 C   0  0
    4.9715  -13.0731    0.0000 O   0  0
  1  2  2  0
  2  3  1  0
  3  7  2  0
  6  4  2  0
  4  1  1  0
  6  7  1  0
  5  6  1  0
  7  8  1  0
  8  9  1  0
  9  5  2  0
  8 10  1  0
 10 11  1  0
 11 12  2  0
 12 13  1  0
 13 14  2  0
 14 15  1  0
 15 16  2  0
 16 11  1  0
 15 17  1  0
 17 18  1  0
 18 19  1  0
 19 20  2  0
 19 21  1  0
  5 22  1  0
 22 23  1  0
 23 24  1  0
 23 25  2  0
 23 26  2  0
 27 28  1  0
 24 27  2  0
 28 29  2  0
 29 30  1  0
 30 24  1  0
 29 31  1  0
  4 32  1  0
 32 33  1  0
 32 34  1  0
M  END