
  SciTegic01161211252D

 41 47  0  0  0  0            999 V2000
   13.5669   -6.9343    0.0000 N   0  0
   14.9933   -6.9414    0.0000 C   0  0
   14.2820   -6.5240    0.0000 C   0  0
   12.1930   -5.2410    0.0000 C   0  0
   12.8938   -5.6770    0.0000 C   0  0
   12.8701   -6.5038    0.0000 C   0  0
   15.7283   -6.5855    0.0000 C   0  0
   16.4291   -7.0174    0.0000 N   0  0
   15.7477   -5.7587    0.0000 O   0  0
   16.4011   -7.8406    0.0000 C   0  0
   17.0977   -8.2763    0.0000 C   0  0
   17.8243   -7.8848    0.0000 N   0  0
   17.8540   -7.0570    0.0000 C   0  0
   17.1489   -6.6207    0.0000 C   0  0
   18.5204   -8.3226    0.0000 C   0  0
   13.6180   -5.2820    0.0000 C   0  0
   11.4687   -5.6361    0.0000 C   0  0
   10.7674   -5.1979    0.0000 C   0  0
   10.7253   -6.8518    0.0000 C   0  0
   11.4503   -6.4592    0.0000 C   0  0
   13.5627   -7.7615    0.0000 C   0  0
   14.9891   -7.7687    0.0000 C   0  0
   14.2710   -8.1798    0.0000 C   0  0
   14.2665   -9.0014    0.0000 C   0  0
   14.9784   -9.4179    0.0000 C   0  0
   15.6968   -9.0109    0.0000 C   0  0
   15.7029   -8.1831    0.0000 C   0  0
   10.0224   -6.4261    0.0000 C   0  0
   10.0428   -5.5942    0.0000 C   0  0
    9.2578   -5.3176    0.0000 O   0  0
    8.7522   -5.9787    0.0000 C   0  0
    9.2248   -6.6638    0.0000 O   0  0
   18.4856   -9.1425    0.0000 C   0  0
   19.1809   -9.5801    0.0000 C   0  0
   19.9092   -9.1961    0.0000 C   0  0
   19.2369   -7.9361    0.0000 C   0  0
   19.9367   -8.3691    0.0000 C   0  0
   20.6594   -7.9796    0.0000 N   0  0
   20.6836   -7.1573    0.0000 C   0  0
   19.9791   -6.7261    0.0000 C   0  0
   19.2592   -7.1180    0.0000 N   0  0
  8 14  1  0
 23 21  1  0
 10 11  1  0
 11 12  1  0
 22 23  1  0
 12 13  1  0
 13 14  1  0
 22  2  1  0
  2  7  1  0
  2  3  1  0
 22 27  1  0
 23 24  1  0
 24 25  1  0
 25 26  1  0
 26 27  1  0
  7  8  1  0
  1 21  1  0
  7  9  2  0
 28 29  2  0
 12 15  1  0
  8 10  1  0
  5 16  1  0
  4 17  1  0
 29 30  1  0
 30 31  1  0
 31 32  1  0
 32 28  1  0
  4  5  1  0
 15 33  2  0
 17 18  2  0
 33 34  1  0
 18 29  1  0
 34 35  2  0
 35 37  1  0
 36 15  1  0
  1  3  1  0
 28 19  1  0
 36 37  2  0
  5  6  1  0
 37 38  1  0
 19 20  2  0
 38 39  2  0
 20 17  1  0
 39 40  1  0
  6  1  1  0
 40 41  2  0
 41 36  1  0
M  END