
          02060813482D 1   1.00000     0.00000     0

 40 43  0     0  0            999 V2000
    3.9527  -11.6750    0.0000 C   0  0  0  0  0  0           0  0  0
    3.9516  -12.5023    0.0000 C   0  0  0  0  0  0           0  0  0
    4.6664  -12.9152    0.0000 C   0  0  0  0  0  0           0  0  0
    5.3828  -12.5019    0.0000 C   0  0  0  0  0  0           0  0  0
    5.3800  -11.6713    0.0000 C   0  0  0  0  0  0           0  0  0
    4.6646  -11.2622    0.0000 C   0  0  0  0  0  0           0  0  0
    3.2368  -12.9143    0.0000 Cl  0  0  0  0  0  0           0  0  0
    4.6621  -10.4372    0.0000 C   0  0  0  0  0  0           0  0  0
    5.3754  -10.0226    0.0000 N   0  0  3  0  0  0           0  0  0
    5.3729   -9.1976    0.0000 C   0  0  0  0  0  0           0  0  0
    6.0861   -8.7829    0.0000 C   0  0  0  0  0  0           0  0  0
    4.6572   -8.7872    0.0000 O   0  0  0  0  0  0           0  0  0
    6.0929  -11.2561    0.0000 O   0  0  0  0  0  0           0  0  0
    6.0980  -12.9132    0.0000 C   0  0  0  0  0  0           0  0  0
    6.0944  -13.7386    0.0000 C   0  0  0  0  0  0           0  0  0
    6.8086  -14.1499    0.0000 C   0  0  0  0  0  0           0  0  0
    7.5234  -13.7362    0.0000 C   0  0  0  0  0  0           0  0  0
    7.5195  -12.9069    0.0000 C   0  0  0  0  0  0           0  0  0
    6.8046  -12.4994    0.0000 N   0  0  0  0  0  0           0  0  0
    8.2318  -12.4908    0.0000 O   0  0  0  0  0  0           0  0  0
    8.2391  -14.1466    0.0000 C   0  0  0  0  0  0           0  0  0
    8.9500  -14.5583    0.0000 N   0  0  0  0  0  0           0  0  0
    6.8095  -14.9749    0.0000 C   0  0  0  0  0  0           0  0  0
    6.0961  -15.3832    0.0000 C   0  0  0  0  0  0           0  0  0
    6.0966  -16.2075    0.0000 C   0  0  0  0  0  0           0  0  0
    6.8121  -16.6200    0.0000 C   0  0  0  0  0  0           0  0  0
    7.5285  -16.2023    0.0000 C   0  0  0  0  0  0           0  0  0
    7.5244  -15.3794    0.0000 C   0  0  0  0  0  0           0  0  0
    5.3822  -14.9696    0.0000 Cl  0  0  0  0  0  0           0  0  0
    8.2448  -16.6115    0.0000 C   0  0  3  0  0  0           0  0  0
    8.9542  -17.0208    0.0000 F   0  0  0  0  0  0           0  0  0
    8.6556  -15.8960    0.0000 F   0  0  0  0  0  0           0  0  0
    7.8393  -17.3300    0.0000 F   0  0  0  0  0  0           0  0  0
    6.0911  -10.4329    0.0000 C   0  0  0  0  0  0           0  0  0
    6.8018   -9.1933    0.0000 C   0  0  0  0  0  0           0  0  0
    7.5151   -8.7787    0.0000 N   0  0  3  0  0  0           0  0  0
    8.2687   -9.1071    0.0000 C   0  0  0  0  0  0           0  0  0
    8.8190   -8.4924    0.0000 C   0  0  0  0  0  0           0  0  0
    8.4043   -7.7791    0.0000 C   0  0  0  0  0  0           0  0  0
    7.5979   -7.9532    0.0000 C   0  0  0  0  0  0           0  0  0
  4  5  1  0     0  0
 18 20  2  0     0  0
  9 10  1  0     0  0
 17 21  1  0     0  0
  2  3  1  0     0  0
 21 22  3  0     0  0
 10 11  1  0     0  0
 16 23  1  0     0  0
  5  6  2  0     0  0
 23 24  2  0     0  0
 10 12  2  0     0  0
 24 25  1  0     0  0
  6  1  1  0     0  0
 25 26  2  0     0  0
  5 13  1  0     0  0
 26 27  1  0     0  0
  1  2  2  0     0  0
 27 28  2  0     0  0
 28 23  1  0     0  0
  4 14  1  0     0  0
 24 29  1  0     0  0
  2  7  1  0     0  0
 27 30  1  0     0  0
 14 15  2  0     0  0
 30 31  1  0     0  0
  3  4  2  0     0  0
 30 32  1  0     0  0
 15 16  1  0     0  0
 30 33  1  0     0  0
  6  8  1  0     0  0
  9 34  1  0     0  0
 16 17  2  0     0  0
 11 35  1  0     0  0
 35 36  1  0     0  0
 36 37  1  0     0  0
 17 18  1  0     0  0
  8  9  1  0     0  0
 18 19  1  0     0  0
 19 14  1  0     0  0
 37 38  1  0     0  0
 38 39  1  0     0  0
 39 40  1  0     0  0
 40 36  1  0     0  0
M  END