
  SciTegic02181312462D

 34 37  0  0  0  0            999 V2000
   12.9787   -6.0546    0.0000 C   0  0
   12.9776   -6.8741    0.0000 C   0  0
   13.6856   -7.2831    0.0000 C   0  0
   13.6838   -5.6457    0.0000 C   0  0
   15.1763   -5.7948    0.0000 C   0  0
   14.3924   -6.0510    0.0000 C   0  0
   14.3950   -6.8763    0.0000 C   0  0
   15.1813   -7.1276    0.0000 S   0  0
   15.6621   -6.4567    0.0000 C   0  0
   16.4781   -6.4513    0.0000 C   0  0
   16.8901   -7.1583    0.0000 C   0  0
   17.7065   -7.1540    0.0000 C   0  0
   18.1119   -6.4435    0.0000 N   0  0
   17.6949   -5.7358    0.0000 C   0  0
   16.8798   -5.7435    0.0000 C   0  0
   18.1187   -7.8596    0.0000 C   0  0
   17.7138   -8.5694    0.0000 O   0  0
   18.9359   -7.8554    0.0000 N   0  0
   19.3482   -8.5609    0.0000 C   0  0  1  0  0  0
   20.1654   -8.5567    0.0000 C   0  0
   18.9433   -9.2708    0.0000 C   0  0
   20.5776   -9.2623    0.0000 C   0  0
   20.5703   -7.8469    0.0000 C   0  0
   18.0969   -5.0243    0.0000 C   0  0
   18.9141   -5.0168    0.0000 N   0  0
   17.6818   -4.3204    0.0000 O   0  0
   19.3162   -4.3054    0.0000 C   0  0
   20.1333   -4.2979    0.0000 C   0  0
   20.5354   -3.5864    0.0000 C   0  0
   21.3497   -3.5841    0.0000 N   0  0
   21.7517   -2.8735    0.0000 C   0  0
   21.3365   -2.1686    0.0000 C   0  0
   20.5151   -2.1788    0.0000 C   0  0
   20.1169   -2.8899    0.0000 C   0  0
  1  2  2  0
  2  3  1  0
  3  7  2  0
  6  4  2  0
  4  1  1  0
  6  7  1  0
  5  6  1  0
  7  8  1  0
  8  9  1  0
  9  5  2  0
 10 11  2  0
 11 12  1  0
 12 13  2  0
 13 14  1  0
 14 15  2  0
 15 10  1  0
  9 10  1  0
 12 16  1  0
 16 17  2  0
 16 18  1  0
 18 19  1  0
 19 20  1  0
 19 21  1  1
 20 22  1  0
 20 23  1  0
 14 24  1  0
 24 25  1  0
 24 26  2  0
 25 27  1  0
 27 28  1  0
 28 29  1  0
 29 30  2  0
 30 31  1  0
 31 32  2  0
 32 33  1  0
 33 34  2  0
 34 29  1  0
M  END