
          11280715182D 1   1.00000     0.00000     0

 27 30  0     0  0            999 V2000
    5.7542   -5.5417    0.0000 C   0  0  3  0  0  0           0  0  0
    5.0500   -5.9625    0.0000 C   0  0  0  0  0  0           0  0  0
    3.6292   -5.9667    0.0000 C   0  0  0  0  0  0           0  0  0
    3.6292   -6.7875    0.0000 C   0  0  0  0  0  0           0  0  0
    5.3417   -4.8292    0.0000 C   0  0  0  0  0  0           0  0  0
    6.1667   -4.8167    0.0000 C   0  0  0  0  0  0           0  0  0
    4.3375   -5.5542    0.0000 C   0  0  0  0  0  0           0  0  0
    4.3417   -7.2000    0.0000 C   0  0  0  0  0  0           0  0  0
    5.0500   -6.7792    0.0000 C   0  0  0  0  0  0           0  0  0
    2.9167   -7.2000    0.0000 C   0  0  3  0  0  0           0  0  0
    2.9167   -5.5500    0.0000 C   0  0  3  0  0  0           0  0  0
    8.6125   -7.1792    0.0000 C   0  0  0  0  0  0           0  0  0
    6.4750   -5.9542    0.0000 C   0  0  0  0  0  0           0  0  0
    7.8917   -6.7750    0.0000 C   0  0  0  0  0  0           0  0  0
    2.2042   -6.7917    0.0000 C   0  0  0  0  0  0           0  0  0
    2.2042   -5.9667    0.0000 C   0  0  0  0  0  0           0  0  0
    8.6125   -8.0042    0.0000 O   0  0  0  0  0  0           0  0  0
    6.4750   -6.7792    0.0000 C   0  0  0  0  0  0           0  0  0
    7.1792   -5.5417    0.0000 C   0  0  0  0  0  0           0  0  0
    7.8875   -5.9500    0.0000 C   0  0  0  0  0  0           0  0  0
    7.1792   -7.1875    0.0000 C   0  0  0  0  0  0           0  0  0
    9.3250   -6.7667    0.0000 O   0  0  0  0  0  0           0  0  0
    5.7625   -7.1917    0.0000 C   0  0  0  0  0  0           0  0  0
    3.6292   -5.1292    0.0000 C   0  0  0  0  0  0           0  0  0
    2.1917   -5.1375    0.0000 C   0  0  0  0  0  0           0  0  0
    2.1917   -7.6042    0.0000 C   0  0  0  0  0  0           0  0  0
    3.6292   -7.6125    0.0000 C   0  0  0  0  0  0           0  0  0
  2  1  1  0     0  0
  3  7  1  0     0  0
  4  8  1  0     0  0
  5  1  1  0     0  0
  6  1  1  0     0  0
  7  2  2  0     0  0
  8  9  2  0     0  0
  9  2  1  0     0  0
 10  4  1  0     0  0
 11  3  1  0     0  0
 12 14  1  0     0  0
 13  1  1  0     0  0
 14 20  1  0     0  0
 15 10  1  0     0  0
 16 11  1  0     0  0
 17 12  2  0     0  0
 18 13  2  0     0  0
 19 13  1  0     0  0
 20 19  2  0     0  0
 21 18  1  0     0  0
 22 12  1  0     0  0
 23  9  1  0     0  0
 24 11  1  0     0  0
 25 11  1  0     0  0
 26 10  1  0     0  0
 27 10  1  0     0  0
  6  5  1  0     0  0
 21 14  2  0     0  0
  3  4  2  0     0  0
 16 15  1  0     0  0
M  END