
  CDK    9/16/09,9:49

 28 30  0  0  0  0  0  0  0  0999 V2000
   -3.8699   -8.8319    0.0000 C   0  0  0  0  0  0  0  0  0  0  0  0
   -3.8712   -9.6596    0.0000 C   0  0  0  0  0  0  0  0  0  0  0  0
   -3.1582  -10.0725    0.0000 N   0  0  0  0  0  0  0  0  0  0  0  0
   -3.1602   -8.4192    0.0000 C   0  0  0  0  0  0  0  0  0  0  0  0
   -2.4420   -8.8280    0.0000 N   0  0  0  0  0  0  0  0  0  0  0  0
   -2.4368   -9.6596    0.0000 C   0  0  0  0  0  0  0  0  0  0  0  0
   -1.6444   -9.9117    0.0000 C   0  0  0  0  0  0  0  0  0  0  0  0
   -1.1597   -9.2359    0.0000 C   0  0  0  0  0  0  0  0  0  0  0  0
   -1.6527   -8.5662    0.0000 N   0  0  0  0  0  0  0  0  0  0  0  0
   -3.1640   -7.5942    0.0000 N   0  0  0  0  0  0  0  0  0  0  0  0
   -2.4516   -7.1783    0.0000 C   0  0  0  0  0  0  0  0  0  0  0  0
   -4.5862  -10.0711    0.0000 C   0  0  0  0  0  0  0  0  0  0  0  0
   -1.3846  -10.6947    0.0000 C   0  0  0  0  0  0  0  0  0  0  0  0
   -1.9342  -11.3091    0.0000 C   0  0  0  0  0  0  0  0  0  0  0  0
   -1.6751  -12.0916    0.0000 N   0  0  0  0  0  0  0  0  0  0  0  0
   -0.8662  -12.2588    0.0000 C   0  0  0  0  0  0  0  0  0  0  0  0
   -0.3171  -11.6373    0.0000 C   0  0  0  0  0  0  0  0  0  0  0  0
   -0.5793  -10.8573    0.0000 C   0  0  0  0  0  0  0  0  0  0  0  0
   -0.0334  -10.2386    0.0000 C   0  0  0  0  0  0  0  0  0  0  0  0
   -0.6054  -13.0414    0.0000 N   0  0  0  0  0  0  0  0  0  0  0  0
   -1.7351   -7.5875    0.0000 C   0  0  0  0  0  0  0  0  0  0  0  0
    0.2028  -13.2068    0.0000 C   0  0  0  0  0  0  0  0  0  0  0  0
   -0.3347   -9.2307    0.0000 C   0  0  0  0  0  0  0  0  0  0  0  0
   -1.1528  -13.6586    0.0000 C   0  0  0  0  0  0  0  0  0  0  0  0
   -1.0226   -7.1717    0.0000 C   0  0  0  0  0  0  0  0  0  0  0  0
   -3.8804   -7.1850    0.0000 C   0  0  0  0  0  0  0  0  0  0  0  0
   -4.5929   -7.6008    0.0000 C   0  0  0  0  0  0  0  0  0  0  0  0
   -5.3093   -7.1917    0.0000 C   0  0  0  0  0  0  0  0  0  0  0  0
  3  6  1  0  0  0  0 
 13 14  2  0  0  0  0 
  1  2  1  0  0  0  0 
 14 15  1  0  0  0  0 
  5  4  1  0  0  0  0 
 15 16  2  0  0  0  0 
  6  7  2  0  0  0  0 
 16 17  1  0  0  0  0 
  7  8  1  0  0  0  0 
 17 18  2  0  0  0  0 
 18 13  1  0  0  0  0 
  8  9  2  0  0  0  0 
 18 19  1  0  0  0  0 
  9  5  1  0  0  0  0 
 16 20  1  0  0  0  0 
  4  1  2  0  0  0  0 
 11 21  1  0  0  0  0 
  4 10  1  0  0  0  0 
 20 22  1  0  0  0  0 
  5  6  1  0  0  0  0 
  8 23  1  0  0  0  0 
 10 11  1  0  0  0  0 
 20 24  1  0  0  0  0 
 21 25  1  0  0  0  0 
  2 12  1  0  0  0  0 
 10 26  1  0  0  0  0 
  2  3  2  0  0  0  0 
 26 27  1  0  0  0  0 
  7 13  1  0  0  0  0 
 27 28  1  0  0  0  0 
M  END