
  SciTegic12211613392D

 28 31  0  0  0  0            999 V2000
    6.1003   -4.6309    0.0000 O   0  0
    5.0501   -5.2115    0.0000 C   0  0
    3.7662   -4.4393    0.0000 C   0  0  2  0  0  0
    2.3840   -5.0218    0.0000 C   0  0  1  0  0  0
    2.1111   -6.1904    0.0000 O   0  0
    1.4028   -3.8873    0.0000 C   0  0  1  0  0  0
    0.2065   -3.9814    0.0000 O   0  0
    2.1852   -2.6281    0.0000 C   0  0  1  0  0  0
    3.6393   -2.9446    0.0000 O   0  0
    1.7138   -1.2033    0.0000 N   0  0
    2.5889    0.0182    0.0000 C   0  0
    1.7138    1.2033    0.0000 N   0  0
    0.2917    0.7475    0.0000 C   0  0
   -1.0028    1.5132    0.0000 C   0  0
   -0.9991    2.7132    0.0000 N   0  0
   -2.3155    0.7475    0.0000 N   0  0
   -2.3155   -0.7475    0.0000 C   0  0
   -1.0028   -1.5132    0.0000 N   0  0
    0.2917   -0.7475    0.0000 C   0  0
    4.0872    0.0382    0.0000 N   0  0
    4.8208    1.3475    0.0000 C   0  0
    6.3215    1.3677    0.0000 C   0  0
    7.0567    2.6752    0.0000 C   0  0
    8.5863    0.0945    0.0000 C   0  0
    7.0864    0.0773    0.0000 C   0  0
    9.3214    1.4020    0.0000 C   0  0
    8.5566    2.6924    0.0000 C   0  0
   10.5214    1.4157    0.0000 F   0  0
  1  2  1  0
  3  2  1  6
  3  4  1  0
  4  5  1  1
  4  6  1  0
  6  7  1  1
  6  8  1  0
  8  9  1  0
  3  9  1  0
  8 10  1  6
 10 11  1  0
 11 12  2  0
 12 13  1  0
 13 14  1  0
 14 15  1  0
 14 16  2  0
 16 17  1  0
 17 18  2  0
 18 19  1  0
 13 19  2  0
 10 19  1  0
 11 20  1  0
 20 21  1  0
 21 22  1  0
 22 23  2  0
 23 27  1  0
 26 24  1  0
 24 25  2  0
 25 22  1  0
 26 27  2  0
 26 28  1  0
M  END