
          01230816042D 1   1.00000     0.00000     0

 42 47  0     0  0            999 V2000
    9.3152   -5.0875    0.0000 C   0  0  0  0  0  0           0  0  0
    9.3141   -5.9148    0.0000 C   0  0  0  0  0  0           0  0  0
   10.0289   -6.3277    0.0000 C   0  0  0  0  0  0           0  0  0
   10.0271   -4.6747    0.0000 C   0  0  0  0  0  0           0  0  0
   11.4083   -6.4308    0.0000 C   0  0  0  0  0  0           0  0  0
   12.2413   -6.2117    0.0000 N   0  0  0  0  0  0           0  0  0
   12.5600   -5.4605    0.0000 N   0  0  3  0  0  0           0  0  0
   10.7427   -5.9165    0.0000 C   0  0  0  0  0  0           0  0  0
   10.7425   -5.0838    0.0000 C   0  0  0  0  0  0           0  0  0
   11.4216   -4.5422    0.0000 N   0  0  3  0  0  0           0  0  0
   12.2013   -4.7219    0.0000 C   0  0  0  0  0  0           0  0  0
   12.7154   -4.0766    0.0000 O   0  0  0  0  0  0           0  0  0
   13.3848   -5.4395    0.0000 C   0  0  0  0  0  0           0  0  0
   13.8153   -6.1432    0.0000 C   0  0  0  0  0  0           0  0  0
   14.6400   -6.1222    0.0000 N   0  0  0  0  0  0           0  0  0
   13.4211   -6.8680    0.0000 O   0  0  0  0  0  0           0  0  0
   15.0706   -6.8260    0.0000 C   0  0  0  0  0  0           0  0  0
   14.6741   -7.5496    0.0000 C   0  0  0  0  0  0           0  0  0
   15.1040   -8.2529    0.0000 C   0  0  0  0  0  0           0  0  0
   15.9296   -8.2323    0.0000 C   0  0  0  0  0  0           0  0  0
   16.3235   -7.5025    0.0000 C   0  0  0  0  0  0           0  0  0
   15.8913   -6.8023    0.0000 C   0  0  0  0  0  0           0  0  0
   11.3865   -3.7179    0.0000 C   0  0  0  0  0  0           0  0  0
   11.2441   -7.2393    0.0000 C   0  0  3  0  0  0           0  0  0
   10.4613   -7.4966    0.0000 C   0  0  0  0  0  0           0  0  0
   10.2959   -8.3012    0.0000 C   0  0  0  0  0  0           0  0  0
   10.9114   -8.8511    0.0000 C   0  0  0  0  0  0           0  0  0
   11.6952   -8.5906    0.0000 C   0  0  0  0  0  0           0  0  0
   11.8635   -7.7802    0.0000 C   0  0  0  0  0  0           0  0  0
   10.6552   -3.3362    0.0000 C   0  0  0  0  0  0           0  0  0
    9.9589   -3.7787    0.0000 O   0  0  0  0  0  0           0  0  0
   10.6201   -2.5119    0.0000 C   0  0  3  0  0  0           0  0  0
   11.2637   -2.0019    0.0000 C   0  0  0  0  0  0           0  0  0
   10.9756   -1.2288    0.0000 C   0  0  0  0  0  0           0  0  0
   10.1513   -1.2639    0.0000 C   0  0  0  0  0  0           0  0  0
    9.9301   -2.0587    0.0000 C   0  0  0  0  0  0           0  0  0
   17.1481   -7.4786    0.0000 C   0  0  0  0  0  0           0  0  0
   17.6538   -8.1273    0.0000 N   0  0  0  0  0  0           0  0  0
   18.4307   -7.8497    0.0000 C   0  0  0  0  0  0           0  0  0
   18.4068   -7.0250    0.0000 O   0  0  0  0  0  0           0  0  0
   17.6151   -6.7930    0.0000 N   0  0  0  0  0  0           0  0  0
   19.1119   -8.3151    0.0000 O   0  0  0  0  0  0           0  0  0
  9 10  1  0     0  0
 20 21  1  0     0  0
 10 11  1  0     0  0
 21 22  2  0     0  0
 22 17  1  0     0  0
 11  7  1  0     0  0
 10 23  1  0     0  0
  8  9  1  0     0  0
  5 24  1  0     0  0
 24 25  1  0     0  0
  2  3  1  0     0  0
 11 12  2  0     0  0
  3  8  2  0     0  0
  7 13  1  0     0  0
  1  2  2  0     0  0
 24 29  1  0     0  0
 25 26  1  0     0  0
 26 27  1  0     0  0
 27 28  1  0     0  0
 28 29  1  0     0  0
 13 14  1  0     0  0
 23 30  1  0     0  0
  9  4  2  0     0  0
 30 31  2  0     0  0
 14 15  1  0     0  0
 30 32  1  0     0  0
 32 33  1  0     0  0
  4  1  1  0     0  0
 14 16  2  0     0  0
 15 17  1  0     0  0
 33 34  1  0     0  0
 34 35  1  0     0  0
 35 36  1  0     0  0
 36 32  1  0     0  0
  5  6  2  0     0  0
 21 37  1  0     0  0
 37 38  1  0     0  0
 17 18  2  0     0  0
  6  7  1  0     0  0
 18 19  1  0     0  0
  5  8  1  0     0  0
 38 39  1  0     0  0
 39 40  1  0     0  0
 40 41  1  0     0  0
 41 37  2  0     0  0
 19 20  2  0     0  0
 39 42  2  0     0  0
M  END