
          02060813472D 1   1.00000     0.00000     0

 34 37  0     1  0            999 V2000
    8.0875  -19.6667    0.0000 C   0  0  0  0  0  0           0  0  0
    8.0875  -20.4917    0.0000 O   0  0  0  0  0  0           0  0  0
    8.7995  -20.9000    0.0000 C   0  0  0  0  0  0           0  0  0
    9.5115  -20.4917    0.0000 C   0  0  0  0  0  0           0  0  0
    9.5115  -19.6667    0.0000 N   0  0  3  0  0  0           0  0  0
    8.7995  -19.2500    0.0000 C   0  0  0  0  0  0           0  0  0
   10.2272  -19.2563    0.0000 C   0  0  0  0  0  0           0  0  0
   10.9405  -19.6709    0.0000 C   0  0  0  0  0  0           0  0  0
   10.2296  -18.4313    0.0000 O   0  0  0  0  0  0           0  0  0
   11.6562  -19.2604    0.0000 C   0  0  1  0  0  0           0  0  0
   11.6500  -18.4333    0.0000 C   0  0  0  0  0  0           0  0  0
   12.3614  -18.0155    0.0000 C   0  0  3  0  0  0           0  0  0
   13.0782  -18.4284    0.0000 C   0  0  0  0  0  0           0  0  0
   13.7875  -18.0141    0.0000 C   0  0  0  0  0  0           0  0  0
   13.7856  -17.1888    0.0000 C   0  0  0  0  0  0           0  0  0
   13.0682  -16.7794    0.0000 C   0  0  0  0  0  0           0  0  0
   12.3527  -17.1954    0.0000 C   0  0  0  0  0  0           0  0  0
   12.3715  -19.6713    0.0000 C   0  0  0  0  0  0           0  0  0
   12.3734  -20.4963    0.0000 O   0  0  0  0  0  0           0  0  0
   13.0851  -19.2572    0.0000 N   0  0  0  0  0  0           0  0  0
   13.7998  -19.6682    0.0000 C   0  0  1  0  0  0           0  0  0
   14.1911  -18.9382    0.0000 C   0  0  0  0  0  0           0  0  0
   14.5823  -18.2087    0.0000 N   0  0  0  0  0  0           0  0  0
   13.4589  -20.4178    0.0000 C   0  0  0  0  0  0           0  0  0
   14.2096  -20.9363    0.0000 C   0  0  0  0  0  0           0  0  0
   14.8771  -20.4514    0.0000 N   0  0  3  0  0  0           0  0  0
   14.6221  -19.6668    0.0000 C   0  0  0  0  0  0           0  0  0
   15.6617  -20.7064    0.0000 C   0  0  0  0  0  0           0  0  0
   15.8332  -21.5133    0.0000 C   0  0  3  0  0  0           0  0  0
   15.2196  -22.0599    0.0000 C   0  0  0  0  0  0           0  0  0
   15.3885  -22.8637    0.0000 C   0  0  0  0  0  0           0  0  0
   16.1721  -23.1228    0.0000 C   0  0  0  0  0  0           0  0  0
   16.7872  -22.5716    0.0000 C   0  0  0  0  0  0           0  0  0
   16.6188  -21.7613    0.0000 C   0  0  0  0  0  0           0  0  0
 15 16  1  0     0  0
 16 17  1  0     0  0
  1  6  1  0     0  0
 10 18  1  0     0  0
  7  9  2  0     0  0
 18 19  2  0     0  0
  2  3  1  0     0  0
 18 20  1  0     0  0
  8 10  1  0     0  0
 21 20  1  6     0  0
  3  4  1  0     0  0
 21 22  1  0     0  0
 10 11  1  1     0  0
 22 23  3  0     0  0
  4  5  1  0     0  0
 21 24  1  0     0  0
 11 12  1  0     0  0
 12 13  1  0     0  0
  5  6  1  0     0  0
 24 25  1  0     0  0
 25 26  1  0     0  0
 26 27  1  0     0  0
 21 27  1  0     0  0
 26 28  1  0     0  0
  5  7  1  0     0  0
 28 29  1  0     0  0
 29 30  1  0     0  0
  1  2  1  0     0  0
  7  8  1  0     0  0
 12 17  1  0     0  0
 13 14  1  0     0  0
 14 15  1  0     0  0
 29 34  1  0     0  0
 30 31  1  0     0  0
 31 32  1  0     0  0
 32 33  1  0     0  0
 33 34  1  0     0  0
M  END