
  SciTegic02011310422D

 16 18  0  0  0  0            999 V2000
   14.4901   -5.0636    0.0000 N   0  0
   14.4889   -5.8905    0.0000 C   0  0
   15.2033   -6.3032    0.0000 C   0  0
   15.2015   -4.6512    0.0000 C   0  0
   15.9164   -5.0600    0.0000 C   0  0
   15.9213   -5.8905    0.0000 C   0  0
   16.7128   -6.1426    0.0000 N   0  0
   17.1970   -5.4678    0.0000 C   0  0
   16.7049   -4.7988    0.0000 N   0  0
   18.0215   -5.4629    0.0000 N   0  0
   15.1962   -3.8294    0.0000 C   0  0
   15.9106   -3.4157    0.0000 N   0  0
   15.9085   -2.5920    0.0000 C   0  0
   15.1927   -2.1810    0.0000 C   0  0
   14.4776   -2.5999    0.0000 C   0  0
   14.4832   -3.4222    0.0000 C   0  0
  6  7  1  0
  7  8  1  0
  8  9  2  0
  9  5  1  0
  4  1  1  0
  8 10  1  0
  5  6  1  0
 11 12  2  0
  2  3  1  0
 12 13  1  0
  3  6  2  0
 13 14  2  0
  1  2  2  0
 14 15  1  0
  5  4  2  0
 15 16  2  0
 16 11  1  0
  4 11  1  0
M  END