
  SciTegic01061111512D

 42 45  0  0  0  0            999 V2000
   12.7594    3.5579    0.0000 C   0  0  2  0  0  0
   12.7594    2.7326    0.0000 C   0  0  2  0  0  0
   13.4721    2.3263    0.0000 C   0  0  1  0  0  0
   14.1849    2.7326    0.0000 C   0  0  2  0  0  0
   14.1849    3.5579    0.0000 C   0  0  1  0  0  0
   13.4721    3.9766    0.0000 O   0  0
   14.9012    3.9705    0.0000 O   0  0
   14.8994    2.3211    0.0000 N   0  0
   15.6153    2.7306    0.0000 C   0  0
   16.3298    2.3191    0.0000 C   0  0
   15.6165    3.5558    0.0000 O   0  0
   13.4721    1.5011    0.0000 O   0  0
   12.0489    2.3211    0.0000 O   0  0
   12.0471    3.9705    0.0000 C   0  0
   12.0447    4.7998    0.0000 O   0  0
   11.3330    2.7306    0.0000 C   0  0  2  0  0  0
   11.3341    3.5591    0.0000 O   0  0
   10.6224    3.9726    0.0000 C   0  0  1  0  0  0
    9.9054    3.5604    0.0000 C   0  0  1  0  0  0
    9.9046    2.7342    0.0000 C   0  0  1  0  0  0
   10.6209    2.3203    0.0000 C   0  0  1  0  0  0
   11.9134    3.3214    0.0000 H   0  0
   10.6244    4.8060    0.0000 C   0  0
    9.9101    5.2149    0.0000 O   0  0
    9.1937    3.9807    0.0000 O   0  0
    9.1886    2.3251    0.0000 N   0  0
   10.6212    1.4957    0.0000 O   0  0
    8.4402    2.6618    0.0000 N   0  0
    7.8855    2.0486    0.0000 N   0  0
    8.2988    1.3367    0.0000 C   0  0
    9.1063    1.5059    0.0000 C   0  0
    7.9634    0.5830    0.0000 C   0  0
    7.1425    0.4988    0.0000 N   0  0
    8.4448   -0.0862    0.0000 O   0  0
   14.9037    4.7998    0.0000 C   0  0
    6.8031   -0.2548    0.0000 C   0  0
    6.0904   -0.6716    0.0000 C   0  0
    5.3758   -0.2601    0.0000 C   0  0
    4.6672   -0.6776    0.0000 C   0  0
    4.6705   -1.5035    0.0000 C   0  0
    5.3886   -1.9104    0.0000 C   0  0
    6.0985   -1.4950    0.0000 C   0  0
 19 20  1  0
 20 21  1  0
  3  4  1  0
 16 22  1  6
  9 11  2  0
 18 23  1  1
  4  5  1  0
 23 24  1  0
  3 12  1  1
 19 25  1  1
  5  6  1  0
 20 26  1  1
  2 13  1  6
 21 27  1  6
 26 28  1  0
  1 14  1  1
  5  7  1  1
 14 15  1  0
 28 29  2  0
 29 30  1  0
 30 31  2  0
 31 26  1  0
  1  2  1  0
 30 32  1  0
 13 16  1  0
 32 33  1  0
 16 17  1  0
 32 34  2  0
  4  8  1  6
  7 35  1  0
  1  6  1  0
 33 36  1  0
  8  9  1  0
 36 37  1  0
  2  3  1  0
 37 38  2  0
  9 10  1  0
 38 39  1  0
 16 21  1  0
 39 40  2  0
 17 18  1  0
 40 41  1  0
 18 19  1  0
 41 42  2  0
 42 37  1  0
M  END