
          11280715062D 1   1.00000     0.00000     0

 25 26  0     1  0            999 V2000
    3.9500   -4.0042    0.0000 S   0  0  3  0  0  0           0  0  0
    4.4667   -3.7042    0.0000 C   0  0  0  0  0  0           0  0  0
    4.4667   -3.1042    0.0000 C   0  0  0  0  0  0           0  0  0
    5.0167   -2.7667    0.0000 C   0  0  0  0  0  0           0  0  0
    5.0167   -2.2125    0.0000 C   0  0  0  0  0  0           0  0  0
    7.8667   -1.8125    0.0000 N   0  0  3  0  0  0           0  0  0
    4.9875   -4.0042    0.0000 C   0  0  0  0  0  0           0  0  0
    5.6667   -1.9000    0.0000 N   0  0  0  0  0  0           0  0  0
    3.1542   -3.8750    0.0000 O   0  0  0  0  0  0           0  0  0
    4.2167   -4.8125    0.0000 O   0  0  0  0  0  0           0  0  0
    5.5042   -3.1000    0.0000 C   0  0  0  0  0  0           0  0  0
    3.2417   -4.6875    0.0000 N   0  0  0  0  0  0           0  0  0
    7.0667   -1.6250    0.0000 C   0  0  2  0  0  0           0  0  0
    4.3167   -1.7750    0.0000 O   0  0  0  0  0  0           0  0  0
    5.5042   -3.7042    0.0000 C   0  0  0  0  0  0           0  0  0
    6.4500   -2.1667    0.0000 C   0  0  0  0  0  0           0  0  0
    3.9500   -2.8000    0.0000 I   0  0  0  0  0  0           0  0  0
    8.2917   -1.1042    0.0000 C   0  0  0  0  0  0           0  0  0
    6.0292   -2.8000    0.0000 O   0  0  0  0  0  0           0  0  0
    8.1917   -2.5667    0.0000 C   0  0  0  0  0  0           0  0  0
    7.7542   -0.4792    0.0000 C   0  0  0  0  0  0           0  0  0
    6.9917   -0.8042    0.0000 C   0  0  0  0  0  0           0  0  0
    6.5417   -3.1000    0.0000 C   0  0  0  0  0  0           0  0  0
    9.0125   -2.6750    0.0000 C   0  0  0  0  0  0           0  0  0
    6.3542   -1.2125    0.0000 H   0  0  0  0  0  0           0  0  0
  2  1  1  0     0  0
  3  2  2  0     0  0
  4  3  1  0     0  0
  5  4  1  0     0  0
  6 13  1  0     0  0
  7  2  1  0     0  0
  8  5  1  0     0  0
  9  1  2  0     0  0
 10  1  2  0     0  0
 11 15  1  0     0  0
 12  1  1  0     0  0
 13 16  1  6     0  0
 14  5  2  0     0  0
 15  7  2  0     0  0
 16  8  1  0     0  0
 17  3  1  0     0  0
 18  6  1  0     0  0
 19 11  1  0     0  0
 20  6  1  0     0  0
 21 22  1  0     0  0
 22 13  1  0     0  0
 23 19  1  0     0  0
 24 20  1  0     0  0
 13 25  1  1     0  0
  4 11  2  0     0  0
 21 18  1  0     0  0
M  END