
  SciTegic09291413392D

 39 42  0  0  0  0            999 V2000
   31.0339   -5.5833    0.0000 N   0  0
   31.6874   -6.0711    0.0000 N   0  0
   32.3534   -5.6004    0.0000 C   0  0
   32.1115   -4.8216    0.0000 C   0  0
   31.2961   -4.8110    0.0000 C   0  0
   33.0506   -6.0252    0.0000 N   0  0
   33.7676   -5.6330    0.0000 C   0  0
   34.4657   -6.0578    0.0000 N   0  0
   33.7864   -4.8160    0.0000 O   0  0
   31.6795   -6.8848    0.0000 C   0  0
   30.9649   -7.2835    0.0000 C   0  0
   30.9539   -8.0999    0.0000 C   0  0
   31.6568   -8.5185    0.0000 C   0  0
   32.3722   -8.1147    0.0000 C   0  0
   32.3796   -7.2997    0.0000 C   0  0
   35.1826   -5.6656    0.0000 C   0  0
   35.9206   -6.0111    0.0000 N   0  0
   36.4813   -5.4165    0.0000 C   0  0
   36.0891   -4.6996    0.0000 C   0  0
   35.2861   -4.8511    0.0000 S   0  0
   37.2918   -5.5207    0.0000 C   0  0
   37.7872   -4.8708    0.0000 C   0  0
   37.4722   -4.1168    0.0000 O   0  0
   37.9676   -3.4669    0.0000 C   0  0
   37.6525   -2.7129    0.0000 C   0  0
   38.1499   -2.0648    0.0000 C   0  0
   37.8354   -1.3114    0.0000 C   0  0
   37.0241   -1.2067    0.0000 C   0  0
   36.5281   -1.8615    0.0000 C   0  0
   36.8453   -2.6124    0.0000 C   0  0
   30.8250   -4.1418    0.0000 C   0  0
   31.6472   -9.3356    0.0000 C   0  0
   30.9348   -9.7359    0.0000 C   0  0
   30.2289   -9.3193    0.0000 O   0  0
   30.9222  -10.5532    0.0000 O   0  0
   31.1686   -3.4003    0.0000 C   0  0
   30.0111   -4.2150    0.0000 C   0  0
   30.2402   -3.5577    0.0000 C   0  0
   36.7080   -0.4549    0.0000 F   0  0
  1  2  1  0
  2  3  1  0
  3  4  2  0
  4  5  1  0
  5  1  2  0
  3  6  1  0
  6  7  1  0
  7  8  1  0
  7  9  2  0
 10 11  2  0
 11 12  1  0
 12 13  2  0
 13 14  1  0
 14 15  2  0
 15 10  1  0
  2 10  1  0
  8 16  1  0
 16 17  2  0
 17 18  1  0
 18 19  2  0
 19 20  1  0
 20 16  1  0
 18 21  1  0
 21 22  1  0
 22 23  1  0
 23 24  1  0
 24 25  1  0
 25 26  2  0
 26 27  1  0
 27 28  2  0
 28 29  1  0
 29 30  2  0
 30 25  1  0
  5 31  1  0
 13 32  1  0
 32 33  1  0
 33 34  1  0
 33 35  2  0
 31 36  1  0
 31 37  1  0
 31 38  1  0
 28 39  1  0
M  END