
          11280715122D 1   1.00000     0.00000     0

 32 35  0     0  0            999 V2000
    8.7792   -8.6917    0.0000 C   0  0  0  0  0  0           0  0  0
    5.7750   -4.3667    0.0000 C   0  0  0  0  0  0           0  0  0
    8.2542   -9.9250    0.0000 N   0  0  0  0  0  0           0  0  0
    5.7750   -3.5375    0.0000 C   0  0  0  0  0  0           0  0  0
    8.9625   -9.5042    0.0000 N   0  0  0  0  0  0           0  0  0
    7.6375   -9.3917    0.0000 N   0  0  0  0  0  0           0  0  0
    5.0542   -4.7792    0.0000 N   0  0  0  0  0  0           0  0  0
    7.9667   -8.6167    0.0000 N   0  0  0  0  0  0           0  0  0
    9.3292   -8.0792    0.0000 C   0  0  0  0  0  0           0  0  0
    6.4875   -3.1167    0.0000 C   0  0  0  0  0  0           0  0  0
    9.3292   -7.2500    0.0000 C   0  0  0  0  0  0           0  0  0
    4.3417   -4.3667    0.0000 C   0  0  0  0  0  0           0  0  0
    4.3417   -3.5375    0.0000 N   0  0  0  0  0  0           0  0  0
    5.0542   -3.1250    0.0000 C   0  0  0  0  0  0           0  0  0
    6.4875   -4.7792    0.0000 N   0  0  0  0  0  0           0  0  0
    8.6250   -6.8417    0.0000 C   0  0  0  0  0  0           0  0  0
    6.4792   -2.2917    0.0000 O   0  0  0  0  0  0           0  0  0
    3.6292   -4.7792    0.0000 C   0  0  0  0  0  0           0  0  0
    7.9042   -7.2542    0.0000 C   0  0  0  0  0  0           0  0  0
    8.6167   -6.0125    0.0000 C   0  0  0  0  0  0           0  0  0
    6.4792   -5.6042    0.0000 C   0  0  0  0  0  0           0  0  0
    7.2042   -3.5292    0.0000 O   0  0  0  0  0  0           0  0  0
    7.2000   -6.0167    0.0000 C   0  0  0  0  0  0           0  0  0
    7.1917   -6.8417    0.0000 C   0  0  0  0  0  0           0  0  0
    7.9042   -5.6042    0.0000 C   0  0  0  0  0  0           0  0  0
   10.0417   -8.4917    0.0000 C   0  0  0  0  0  0           0  0  0
   10.0417   -6.8417    0.0000 C   0  0  0  0  0  0           0  0  0
    2.1917   -4.7792    0.0000 O   0  0  0  0  0  0           0  0  0
    2.9167   -4.3667    0.0000 C   0  0  0  0  0  0           0  0  0
    1.4875   -4.3667    0.0000 C   0  0  0  0  0  0           0  0  0
   10.7542   -7.2500    0.0000 C   0  0  0  0  0  0           0  0  0
   10.7625   -8.0792    0.0000 C   0  0  0  0  0  0           0  0  0
  2 15  1  0     0  0
  3  5  2  0     0  0
  4  2  1  0     0  0
  5  1  1  0     0  0
  6  8  1  0     0  0
  7  2  2  0     0  0
  8  1  2  0     0  0
  9  1  1  0     0  0
 10  4  1  0     0  0
 11  9  2  0     0  0
 12  7  1  0     0  0
 13 12  2  0     0  0
 14  4  2  0     0  0
 15 21  1  0     0  0
 16 11  1  0     0  0
 17 10  2  0     0  0
 18 12  1  0     0  0
 19 16  2  0     0  0
 20 16  1  0     0  0
 21 23  1  0     0  0
 22 10  1  0     0  0
 23 25  1  0     0  0
 24 19  1  0     0  0
 25 20  2  0     0  0
 26  9  1  0     0  0
 27 11  1  0     0  0
 28 29  1  0     0  0
 29 18  1  0     0  0
 30 28  1  0     0  0
 31 32  1  0     0  0
 32 26  2  0     0  0
  3  6  1  0     0  0
 27 31  2  0     0  0
 24 23  2  0     0  0
 13 14  1  0     0  0
M  END