
          11280716012D 1   1.00000     0.00000     0

110116  0     1  0            999 V2000
  -24.6750   19.5583    0.0000 N   0  0  3  0  0  0           0  0  0
  -23.3750   18.8042    0.0000 C   0  0  0  0  0  0           0  0  0
  -26.3292   17.4750    0.0000 C   0  0  0  0  0  0           0  0  0
  -12.9833   14.2750    0.0000 C   0  0  0  0  0  0           0  0  0
  -26.0292   18.9417    0.0000 C   0  0  2  0  0  0           0  0  0
  -14.2875   10.5250    0.0000 C   0  0  0  0  0  0           0  0  0
  -15.5750   18.7875    0.0000 C   0  0  0  0  0  0           0  0  0
  -12.9792   17.2792    0.0000 C   0  0  0  0  0  0           0  0  0
  -14.2917    7.5208    0.0000 C   0  0  0  0  0  0           0  0  0
  -19.4750   19.5458    0.0000 C   0  0  0  0  0  0           0  0  0
  -11.6958    6.0125    0.0000 C   0  0  0  0  0  0           0  0  0
  -14.2833   12.0250    0.0000 N   0  0  0  0  0  0           0  0  0
  -12.9833   12.7750    0.0000 C   0  0  1  0  0  0           0  0  0
  -11.6833   15.0250    0.0000 N   0  0  0  0  0  0           0  0  0
  -16.8750   19.5375    0.0000 N   0  0  0  0  0  0           0  0  0
  -12.9958    5.2667    0.0000 N   0  0  0  0  0  0           0  0  0
  -12.9750   18.7792    0.0000 N   0  0  0  0  0  0           0  0  0
  -15.5917    8.2750    0.0000 N   0  0  0  0  0  0           0  0  0
  -20.7750   18.8000    0.0000 N   0  0  0  0  0  0           0  0  0
  -25.2083   16.4792    0.0000 N   0  0  0  0  0  0           0  0  0
  -11.6792   16.5250    0.0000 C   0  0  1  0  0  0           0  0  0
  -14.2750   19.5333    0.0000 C   0  0  2  0  0  0           0  0  0
  -14.2958    6.0208    0.0000 C   0  0  2  0  0  0           0  0  0
  -15.5875    9.7750    0.0000 C   0  0  2  0  0  0           0  0  0
  -18.1750   18.7917    0.0000 C   0  0  1  0  0  0           0  0  0
   -7.7583   23.2417    0.0000 C   0  0  0  0  0  0           0  0  0
  -22.0750   19.5500    0.0000 C   0  0  1  0  0  0           0  0  0
  -10.3958    5.2583    0.0000 C   0  0  2  0  0  0           0  0  0
  -24.3958   14.0083    0.0000 C   0  0  0  0  0  0           0  0  0
  -10.4042    3.7625    0.0000 N   0  0  0  0  0  0           0  0  0
  -11.7042    3.0167    0.0000 C   0  0  0  0  0  0           0  0  0
  -25.5125   15.0083    0.0000 C   0  0  1  0  0  0           0  0  0
   -9.0500   24.0042    0.0000 N   0  0  0  0  0  0           0  0  0
   -5.2083   12.7417    0.0000 C   0  0  0  0  0  0           0  0  0
  -23.3792   17.6042    0.0000 O   0  0  0  0  0  0           0  0  0
   -5.2000   14.2417    0.0000 N   0  0  0  0  0  0           0  0  0
  -27.4708   17.1000    0.0000 O   0  0  0  0  0  0           0  0  0
   -9.0958    6.0083    0.0000 C   0  0  0  0  0  0           0  0  0
  -14.0208   14.8750    0.0000 O   0  0  0  0  0  0           0  0  0
  -19.4708   20.7458    0.0000 O   0  0  0  0  0  0           0  0  0
  -13.2500    8.1208    0.0000 O   0  0  0  0  0  0           0  0  0
  -14.0167   16.6792    0.0000 O   0  0  0  0  0  0           0  0  0
  -15.5792   17.5875    0.0000 O   0  0  0  0  0  0           0  0  0
  -13.2500    9.9250    0.0000 O   0  0  0  0  0  0           0  0  0
  -11.6917    7.2125    0.0000 O   0  0  0  0  0  0           0  0  0
   -6.5000    2.9917    0.0000 C   0  0  0  0  0  0           0  0  0
  -14.2667   21.0333    0.0000 C   0  0  0  0  0  0           0  0  0
  -10.3750   17.2708    0.0000 C   0  0  0  0  0  0           0  0  0
  -15.5958    5.2708    0.0000 C   0  0  0  0  0  0           0  0  0
   -7.7958    5.2542    0.0000 C   0  0  0  0  0  0           0  0  0
  -16.8875   10.5250    0.0000 C   0  0  0  0  0  0           0  0  0
   -7.7958    3.7458    0.0000 C   0  0  0  0  0  0           0  0  0
   -6.7125   23.8333    0.0000 O   0  0  0  0  0  0           0  0  0
  -24.6375   12.8333    0.0000 O   0  0  0  0  0  0           0  0  0
  -18.1750   17.2917    0.0000 C   0  0  0  0  0  0           0  0  0
  -19.4833    7.5208    0.0000 N   0  0  0  0  0  0           0  0  0
  -11.7125    1.8167    0.0000 O   0  0  0  0  0  0           0  0  0
   -4.1750   12.1333    0.0000 O   0  0  0  0  0  0           0  0  0
   -5.2042    3.7333    0.0000 C   0  0  0  0  0  0           0  0  0
   -7.7667   22.0417    0.0000 N   0  0  0  0  0  0           0  0  0
   -5.2000    5.2250    0.0000 C   0  0  0  0  0  0           0  0  0
  -23.2542   14.3875    0.0000 N   0  0  0  0  0  0           0  0  0
  -24.8042   21.0417    0.0000 C   0  0  0  0  0  0           0  0  0
  -10.3583   23.2625    0.0000 C   0  0  0  0  0  0           0  0  0
   -6.4875   15.0000    0.0000 C   0  0  0  0  0  0           0  0  0
  -15.5958    3.7708    0.0000 C   0  0  0  0  0  0           0  0  0
   -9.0792   16.5167    0.0000 C   0  0  0  0  0  0           0  0  0
  -12.9625   21.7792    0.0000 C   0  0  0  0  0  0           0  0  0
   -6.4958    5.9958    0.0000 C   0  0  0  0  0  0           0  0  0
  -15.5917    0.7708    0.0000 C   0  0  0  0  0  0           0  0  0
  -18.1875    9.7750    0.0000 C   0  0  0  0  0  0           0  0  0
  -19.4458   25.5458    0.0000 N   0  0  0  0  0  0           0  0  0
  -15.5875   -0.4292    0.0000 Cl  0  0  0  0  0  0           0  0  0
  -11.6875   12.0208    0.0000 C   0  0  0  0  0  0           0  0  0
   -7.7917   14.2583    0.0000 C   0  0  0  0  0  0           0  0  0
  -10.3667   21.7625    0.0000 C   0  0  0  0  0  0           0  0  0
   -6.4792   16.5000    0.0000 C   0  0  0  0  0  0           0  0  0
  -11.6500   24.0208    0.0000 C   0  0  0  0  0  0           0  0  0
  -11.6708   21.0208    0.0000 C   0  0  0  0  0  0           0  0  0
  -16.8917    3.0208    0.0000 C   0  0  0  0  0  0           0  0  0
   -7.7750   17.2583    0.0000 C   0  0  0  0  0  0           0  0  0
   -9.0875   15.0167    0.0000 C   0  0  0  0  0  0           0  0  0
  -14.2958    3.0250    0.0000 C   0  0  0  0  0  0           0  0  0
  -12.9542   23.2792    0.0000 C   0  0  0  0  0  0           0  0  0
  -16.8917    1.5208    0.0000 C   0  0  0  0  0  0           0  0  0
  -14.2917    1.5250    0.0000 C   0  0  0  0  0  0           0  0  0
  -27.0250   20.0625    0.0000 C   0  0  0  0  0  0           0  0  0
  -11.6917   10.8208    0.0000 O   0  0  0  0  0  0           0  0  0
  -18.1833    8.2750    0.0000 C   0  0  0  0  0  0           0  0  0
  -26.2708   21.3583    0.0000 C   0  0  0  0  0  0           0  0  0
  -22.0667   21.0542    0.0000 C   0  0  0  0  0  0           0  0  0
  -16.8750   16.5417    0.0000 C   0  0  3  0  0  0           0  0  0
  -12.7417    3.6208    0.0000 C   0  0  0  0  0  0           0  0  0
   -6.2500   12.1500    0.0000 C   0  0  0  0  0  0           0  0  0
  -20.7833    8.2667    0.0000 C   0  0  0  0  0  0           0  0  0
  -18.1458   26.2917    0.0000 C   0  0  3  0  0  0           0  0  0
  -26.6542   14.6292    0.0000 C   0  0  0  0  0  0           0  0  0
   -6.5083    1.4958    0.0000 C   0  0  0  0  0  0           0  0  0
  -19.4542   24.0458    0.0000 C   0  0  0  0  0  0           0  0  0
   -3.9125    2.9792    0.0000 C   0  0  0  0  0  0           0  0  0
  -19.4875   10.5208    0.0000 C   0  0  0  0  0  0           0  0  0
  -20.7625   21.8000    0.0000 C   0  0  0  0  0  0           0  0  0
  -20.7583   23.3000    0.0000 C   0  0  0  0  0  0           0  0  0
  -16.8792   15.3417    0.0000 C   0  0  0  0  0  0           0  0  0
  -15.8375   17.1375    0.0000 C   0  0  0  0  0  0           0  0  0
  -17.1083   25.6875    0.0000 C   0  0  0  0  0  0           0  0  0
  -18.1375   27.4917    0.0000 C   0  0  0  0  0  0           0  0  0
  -20.7875    9.7667    0.0000 C   0  0  0  0  0  0           0  0  0
   -5.2167    0.7417    0.0000 C   0  0  0  0  0  0           0  0  0
   -3.9167    1.4833    0.0000 C   0  0  0  0  0  0           0  0  0
  2  1  1  0     0  0
  5  3  1  6     0  0
  4 14  1  0     0  0
  5  1  1  0     0  0
  6 12  1  0     0  0
  7 15  1  0     0  0
  8 17  1  0     0  0
  9 18  1  0     0  0
 10 19  1  0     0  0
 11 16  1  0     0  0
 12 13  1  0     0  0
 13  4  1  0     0  0
 14 21  1  0     0  0
 15 25  1  0     0  0
 16 23  1  0     0  0
 17 22  1  0     0  0
 18 24  1  0     0  0
 27 19  1  6     0  0
 20  3  1  0     0  0
 21  8  1  0     0  0
 22  7  1  0     0  0
 23  9  1  0     0  0
 24  6  1  0     0  0
 25 10  1  0     0  0
 26 33  1  0     0  0
 27  2  1  0     0  0
 28 11  1  0     0  0
 29 32  1  0     0  0
 30 28  1  0     0  0
 31 30  1  0     0  0
 32 20  1  0     0  0
 33 64  1  0     0  0
 34 36  1  0     0  0
 35  2  2  0     0  0
 36 65  1  0     0  0
 37  3  2  0     0  0
 28 38  1  1     0  0
 39  4  2  0     0  0
 40 10  2  0     0  0
 41  9  2  0     0  0
 42  8  2  0     0  0
 43  7  2  0     0  0
 44  6  2  0     0  0
 45 11  2  0     0  0
 46 52  2  0     0  0
 22 47  1  1     0  0
 21 48  1  6     0  0
 23 49  1  6     0  0
 50 38  1  0     0  0
 24 51  1  6     0  0
 52 50  1  0     0  0
 53 26  2  0     0  0
 54 29  2  0     0  0
 25 55  1  1     0  0
 56 89  2  0     0  0
 57 31  2  0     0  0
 58 34  2  0     0  0
 59 46  1  0     0  0
 60 26  1  0     0  0
 61 69  1  0     0  0
 62 29  1  0     0  0
 63  1  1  0     0  0
 64 76  1  0     0  0
 65 75  1  0     0  0
 66 49  1  0     0  0
 67 48  1  0     0  0
 68 47  1  0     0  0
 69 50  2  0     0  0
 70 86  1  0     0  0
 71 51  1  0     0  0
 72 99  1  0     0  0
 73 70  1  0     0  0
 13 74  1  6     0  0
 75 82  2  0     0  0
 76 79  2  0     0  0
 77 81  1  0     0  0
 78 84  1  0     0  0
 79 68  1  0     0  0
 80 66  2  0     0  0
 81 67  2  0     0  0
 82 67  1  0     0  0
 83 66  1  0     0  0
 84 68  2  0     0  0
 85 80  1  0     0  0
 86 83  2  0     0  0
 87  5  1  0     0  0
 88 74  1  0     0  0
 89 71  1  0     0  0
 90 63  1  0     0  0
 91 27  1  0     0  0
 92 55  1  0     0  0
 93 31  1  0     0  0
 94 34  1  0     0  0
 95 56  1  0     0  0
 96 72  1  0     0  0
 32 97  1  1     0  0
 98 46  1  0     0  0
 99103  1  0     0  0
100 59  1  0     0  0
101 71  2  0     0  0
102 91  1  0     0  0
103102  1  0     0  0
104 92  1  0     0  0
105 92  1  0     0  0
106 96  1  0     0  0
107 96  1  0     0  0
108101  1  0     0  0
109 98  2  0     0  0
110100  2  0     0  0
 87 90  1  0     0  0
 64 78  2  0     0  0
 65 77  2  0     0  0
 95108  2  0     0  0
 70 85  2  0     0  0
 59 61  2  0     0  0
109110  1  0     0  0
M  END