
  Mrv0541 04051115152D          

 11 11  0  0  0  0            999 V2000
   -0.0729   -0.6320    0.0000 C   0  0  1  0  0  0  0  0  0  0  0  0
   -0.7874   -0.2195    0.0000 C   0  0  0  0  0  0  0  0  0  0  0  0
   -0.7874    0.6055    0.0000 C   0  0  0  0  0  0  0  0  0  0  0  0
   -0.0729    1.0180    0.0000 C   0  0  1  0  0  0  0  0  0  0  0  0
    0.6415    0.6055    0.0000 C   0  0  0  0  0  0  0  0  0  0  0  0
    0.6415   -0.2195    0.0000 C   0  0  0  0  0  0  0  0  0  0  0  0
   -0.0729    1.8430    0.0000 C   0  0  0  0  0  0  0  0  0  0  0  0
   -0.0729   -1.4570    0.0000 C   0  0  0  0  0  0  0  0  0  0  0  0
    0.6415    2.2555    0.0000 N   0  0  0  0  0  0  0  0  0  0  0  0
    0.6415   -1.8695    0.0000 O   0  0  0  0  0  0  0  0  0  0  0  0
   -0.7874   -1.8695    0.0000 O   0  0  0  0  0  0  0  0  0  0  0  0
  1  2  1  0  0  0  0
  1  6  1  0  0  0  0
  1  8  1  1  0  0  0
  2  3  1  0  0  0  0
  3  4  1  0  0  0  0
  4  5  1  0  0  0  0
  4  7  1  6  0  0  0
  5  6  1  0  0  0  0
  7  9  1  0  0  0  0
  8 10  2  0  0  0  0
  8 11  1  0  0  0  0
M  END