
  SciTegic05171617262D

 32 37  0  0  0  0            999 V2000
    2.3164    0.1283    0.0000 O   0  0
    1.2785    0.7306    0.0000 C   0  0
    1.2785    2.2729    0.0000 N   0  0
    2.5654    3.0449    0.0000 C   0  0
    2.5408    4.5455    0.0000 C   0  0
    1.2172    5.2770    0.0000 C   0  0
    1.1974    6.7742    0.0000 C   0  0
    2.5021    7.5402    0.0000 C   0  0
    3.8083    6.8088    0.0000 C   0  0
    5.0947    7.5745    0.0000 O   0  0
    6.4009    6.8431    0.0000 C   0  0
    6.4208    5.3459    0.0000 C   0  0
    5.1344    4.5802    0.0000 O   0  0
    3.8281    5.3116    0.0000 C   0  0
    0.0000    3.0035    0.0000 C   0  0
   -1.2988    2.2729    0.0000 C   0  0
   -1.2988    0.7306    0.0000 C   0  0
    0.0000    0.0000    0.0000 C   0  0
   -1.2988   -0.7509    0.0000 C   0  0
   -1.2988   -2.2526    0.0000 C   0  0
    0.0000   -3.0238    0.0000 N   0  0
    1.2785   -2.2526    0.0000 C   0  0
    1.2785   -0.7509    0.0000 C   0  0
    0.0052   -4.5245    0.0000 C   0  0
   -1.3105   -5.2814    0.0000 N   0  0
   -1.3170   -6.7764    0.0000 C   0  0
   -0.0077   -7.5479    0.0000 C   0  0
    1.2901   -6.7878    0.0000 C   0  0
    2.7102   -7.2498    0.0000 O   0  0
    3.5907   -6.0321    0.0000 C   0  0
    2.7207   -4.8432    0.0000 C   0  0
    1.2967   -5.2928    0.0000 C   0  0
  1  2  2  0
  2  3  1  0
  3  4  1  0
  4  5  1  0
  5  6  2  0
  6  7  1  0
  7  8  2  0
  8  9  1  0
  9 10  1  0
 10 11  1  0
 11 12  1  0
 12 13  1  0
 13 14  1  0
  5 14  1  0
  9 14  2  0
  3 15  1  0
 15 16  1  0
 16 17  1  0
 17 18  1  0
  2 18  1  0
 18 19  1  0
 19 20  1  0
 20 21  1  0
 21 22  1  0
 22 23  1  0
 18 23  1  0
 21 24  1  0
 24 25  1  0
 25 26  2  0
 26 27  1  0
 27 28  2  0
 28 29  1  0
 29 30  1  0
 30 31  2  0
 31 32  1  0
 24 32  2  0
 28 32  1  0
M  END