
          11280714492D 1   1.00000     0.00000     0

 52 57  0     0  0            999 V2000
    7.0000   -4.7750    0.0000 C   0  0  0  0  0  0           0  0  0
    7.7167   -6.0125    0.0000 C   0  0  0  0  0  0           0  0  0
    7.7167   -5.1792    0.0000 C   0  0  0  0  0  0           0  0  0
    6.9917   -3.9500    0.0000 C   0  0  0  0  0  0           0  0  0
    7.0042   -6.4292    0.0000 O   0  0  0  0  0  0           0  0  0
    6.2917   -6.0167    0.0000 C   0  0  0  0  0  0           0  0  0
    6.2917   -5.1917    0.0000 C   0  0  0  0  0  0           0  0  0
    7.7042   -3.5417    0.0000 C   0  0  0  0  0  0           0  0  0
    8.4375   -6.4167    0.0000 C   0  0  0  0  0  0           0  0  0
    8.4292   -4.7667    0.0000 C   0  0  0  0  0  0           0  0  0
    2.7167   -4.8042    0.0000 C   0  0  0  0  0  0           0  0  0
    2.0042   -5.2250    0.0000 C   0  0  0  0  0  0           0  0  0
    8.5417   -3.8500    0.0000 C   0  0  0  0  0  0           0  0  0
    5.5750   -6.4292    0.0000 C   0  0  0  0  0  0           0  0  0
    6.2792   -3.5500    0.0000 C   0  0  0  0  0  0           0  0  0
    9.1417   -5.1667    0.0000 C   0  0  0  0  0  0           0  0  0
    9.1542   -6.0042    0.0000 C   0  0  0  0  0  0           0  0  0
    5.5750   -4.7792    0.0000 C   0  0  0  0  0  0           0  0  0
    2.0167   -6.0500    0.0000 C   0  0  0  0  0  0           0  0  0
    2.7125   -3.9792    0.0000 C   0  0  0  0  0  0           0  0  0
    5.5542   -1.4917    0.0000 C   0  0  0  0  0  0           0  0  0
    7.7042   -2.7167    0.0000 C   0  0  0  0  0  0           0  0  0
    6.2667   -1.0750    0.0000 N   0  0  0  0  0  0           0  0  0
    9.0125   -4.3792    0.0000 O   0  0  0  0  0  0           0  0  0
    5.5542   -2.3167    0.0000 O   0  0  0  0  0  0           0  0  0
    9.7375   -6.5875    0.0000 O   0  0  0  0  0  0           0  0  0
    2.7292   -6.4500    0.0000 C   0  0  0  0  0  0           0  0  0
    3.4292   -3.5542    0.0000 C   0  0  0  0  0  0           0  0  0
    1.9917   -3.5750    0.0000 C   0  0  0  0  0  0           0  0  0
    1.3042   -6.4625    0.0000 C   0  0  0  0  0  0           0  0  0
    4.8625   -6.0167    0.0000 C   0  0  0  0  0  0           0  0  0
    6.9875   -2.3042    0.0000 C   0  0  0  0  0  0           0  0  0
    6.2750   -2.7292    0.0000 C   0  0  0  0  0  0           0  0  0
    9.1042   -3.2250    0.0000 O   0  0  0  0  0  0           0  0  0
    4.8625   -5.1917    0.0000 C   0  0  0  0  0  0           0  0  0
    6.9792   -1.4792    0.0000 C   0  0  0  0  0  0           0  0  0
    2.0292   -7.6917    0.0000 C   0  0  0  0  0  0           0  0  0
    2.7000   -2.3292    0.0000 C   0  0  0  0  0  0           0  0  0
    2.7417   -7.2750    0.0000 C   0  0  0  0  0  0           0  0  0
    1.3042   -7.2875    0.0000 C   0  0  0  0  0  0           0  0  0
    1.9917   -2.7500    0.0000 C   0  0  0  0  0  0           0  0  0
    3.4167   -2.7375    0.0000 C   0  0  0  0  0  0           0  0  0
    1.2917   -4.8167    0.0000 C   0  0  0  0  0  0           0  0  0
    3.4375   -5.2125    0.0000 C   0  0  0  0  0  0           0  0  0
    4.1417   -6.4292    0.0000 O   0  0  0  0  0  0           0  0  0
    2.0375   -8.5167    0.0000 O   0  0  0  0  0  0           0  0  0
    2.6917   -1.5042    0.0000 O   0  0  0  0  0  0           0  0  0
    4.8375   -1.0792    0.0000 C   0  0  0  0  0  0           0  0  0
    3.4042   -1.0917    0.0000 C   0  0  0  0  0  0           0  0  0
    4.1250   -1.5000    0.0000 C   0  0  0  0  0  0           0  0  0
    1.2792   -3.9917    0.0000 C   0  0  0  0  0  0           0  0  0
    3.4417   -6.0375    0.0000 C   0  0  0  0  0  0           0  0  0
  2  3  1  0     0  0
  3  1  2  0     0  0
  4  1  1  0     0  0
  5  6  1  0     0  0
  6  7  1  0     0  0
  7  1  1  0     0  0
  8  4  2  0     0  0
  9  2  2  0     0  0
 10  3  1  0     0  0
 11 20  1  0     0  0
 12 11  2  0     0  0
 13  8  1  0     0  0
 14  6  2  0     0  0
 15  4  1  0     0  0
 16 10  2  0     0  0
 17 16  1  0     0  0
 18  7  2  0     0  0
 19 12  1  0     0  0
 20 28  1  0     0  0
 21 23  1  0     0  0
 22  8  1  0     0  0
 23 36  1  0     0  0
 24 13  2  0     0  0
 25 21  2  0     0  0
 26 17  2  0     0  0
 27 19  1  0     0  0
 28 42  2  0     0  0
 29 41  1  0     0  0
 30 19  2  0     0  0
 31 35  2  0     0  0
 32 33  1  0     0  0
 33 15  2  0     0  0
 34 13  1  0     0  0
 35 18  1  0     0  0
 36 32  1  0     0  0
 37 40  2  0     0  0
 38 47  1  0     0  0
 39 27  2  0     0  0
 40 30  1  0     0  0
 41 38  2  0     0  0
 42 38  1  0     0  0
 43 12  1  0     0  0
 44 11  1  0     0  0
 45 31  1  0     0  0
 46 37  1  0     0  0
 47 49  1  0     0  0
 48 21  1  0     0  0
 49 50  1  0     0  0
 50 48  1  0     0  0
 51 43  1  0     0  0
 52 44  1  0     0  0
  5  2  1  0     0  0
 31 14  1  0     0  0
 22 32  2  0     0  0
  9 17  1  0     0  0
 29 20  2  0     0  0
 39 37  1  0     0  0
M  END