
          11280715122D 1   1.00000     0.00000     0

  9  9  0     0  0            999 V2000
   -3.0458    1.4875    0.0000 N   0  0  0  0  0  0           0  0  0
   -1.9500    0.7208    0.0000 N   0  0  0  0  0  0           0  0  0
   -2.7750    0.7083    0.0000 C   0  0  0  0  0  0           0  0  0
   -1.7083    1.5125    0.0000 C   0  0  0  0  0  0           0  0  0
   -2.3875    1.9833    0.0000 C   0  0  0  0  0  0           0  0  0
    1.0917    0.9708    0.0000 N   0  0  0  0  0  0           0  0  0
   -0.9333    1.7833    0.0000 C   0  0  0  0  0  0           0  0  0
    0.4750    1.5125    0.0000 C   0  0  0  0  0  0           0  0  0
   -0.3083    1.2458    0.0000 C   0  0  0  0  0  0           0  0  0
  2  3  2  0     0  0
  3  1  1  0     0  0
  4  5  2  0     0  0
  5  1  1  0     0  0
  6  8  1  0     0  0
  7  4  1  0     0  0
  8  9  1  0     0  0
  9  7  1  0     0  0
  2  4  1  0     0  0
M  END