
          11280715352D 1   1.00000     0.00000     0

 35 38  0     1  0            999 V2000
   -1.4708    1.6083    0.0000 S   0  0  3  0  0  0           0  0  0
   -1.4708    2.4333    0.0000 N   0  0  0  0  0  0           0  0  0
   -2.9083    4.0792    0.0000 N   0  0  0  0  0  0           0  0  0
   -2.1875    3.6708    0.0000 N   0  0  3  0  0  0           0  0  0
   -2.1875    2.8458    0.0000 C   0  0  0  0  0  0           0  0  0
   -2.9083    4.9042    0.0000 C   0  0  0  0  0  0           0  0  0
   -1.4833    4.9042    0.0000 C   0  0  2  0  0  0           0  0  0
   -1.4833    4.0875    0.0000 C   0  0  0  0  0  0           0  0  0
   -1.4958   -1.6792    0.0000 C   0  0  3  0  0  0           0  0  0
   -1.4708    0.7833    0.0000 C   0  0  0  0  0  0           0  0  0
   -2.1833    1.2000    0.0000 O   0  0  0  0  0  0           0  0  0
   -0.6708    1.3958    0.0000 O   0  0  0  0  0  0           0  0  0
   -3.4875    5.4917    0.0000 C   0  0  0  0  0  0           0  0  0
   -1.4875   -0.8542    0.0000 C   0  0  0  0  0  0           0  0  0
   -0.9000    5.4917    0.0000 C   0  0  0  0  0  0           0  0  0
   -2.9000    2.4333    0.0000 N   0  0  0  0  0  0           0  0  0
   -0.7708    0.3750    0.0000 C   0  0  0  0  0  0           0  0  0
   -2.1958    0.3833    0.0000 C   0  0  0  0  0  0           0  0  0
   -2.1958   -0.4417    0.0000 C   0  0  0  0  0  0           0  0  0
   -0.7708   -0.4417    0.0000 C   0  0  0  0  0  0           0  0  0
   -1.4958   -2.4292    0.0000 F   0  0  0  0  0  0           0  0  0
   -2.1625   -2.2250    0.0000 F   0  0  0  0  0  0           0  0  0
   -0.8250   -2.2292    0.0000 F   0  0  0  0  0  0           0  0  0
   -4.2833    5.2792    0.0000 C   0  0  0  0  0  0           0  0  0
   -3.2708    6.2917    0.0000 C   0  0  0  0  0  0           0  0  0
   -4.6583    6.6542    0.0000 C   0  0  0  0  0  0           0  0  0
   -3.8583    6.8667    0.0000 C   0  0  0  0  0  0           0  0  0
   -4.8708    5.8542    0.0000 C   0  0  0  0  0  0           0  0  0
   -5.2375    7.2417    0.0000 Cl  0  0  0  0  0  0           0  0  0
   -1.1208    6.2792    0.0000 C   0  0  0  0  0  0           0  0  0
   -0.1083    5.2792    0.0000 C   0  0  0  0  0  0           0  0  0
   -2.8958    1.6083    0.0000 C   0  0  0  0  0  0           0  0  0
   -0.5375    6.8667    0.0000 C   0  0  0  0  0  0           0  0  0
    0.4792    5.8542    0.0000 C   0  0  0  0  0  0           0  0  0
    0.2667    6.6542    0.0000 C   0  0  0  0  0  0           0  0  0
  2  1  1  0     0  0
  3  4  1  0     0  0
  4  5  1  0     0  0
  5  2  1  0     0  0
  6  3  2  0     0  0
  7  8  1  0     0  0
  8  4  1  0     0  0
  9 14  1  0     0  0
 10  1  1  0     0  0
 11  1  2  0     0  0
 12  1  2  0     0  0
 13  6  1  0     0  0
 14 19  2  0     0  0
  7 15  1  1     0  0
 16  5  2  0     0  0
 17 10  1  0     0  0
 18 10  2  0     0  0
 19 18  1  0     0  0
 20 17  2  0     0  0
 21  9  1  0     0  0
 22  9  1  0     0  0
 23  9  1  0     0  0
 24 13  1  0     0  0
 25 13  2  0     0  0
 26 27  2  0     0  0
 27 25  1  0     0  0
 28 24  2  0     0  0
 29 26  1  0     0  0
 30 15  1  0     0  0
 31 15  2  0     0  0
 32 16  1  0     0  0
 33 30  2  0     0  0
 34 31  1  0     0  0
 35 34  2  0     0  0
 14 20  1  0     0  0
  6  7  1  0     0  0
 26 28  1  0     0  0
 35 33  1  0     0  0
M  END