
          11280715012D 1   1.00000     0.00000     0

 40 43  0     1  0            999 V2000
    4.3417   -4.3417    0.0000 N   0  0  0  0  0  0           0  0  0
    3.7917   -4.1167    0.0000 C   0  0  0  0  0  0           0  0  0
    4.3125   -4.9417    0.0000 C   0  0  2  0  0  0           0  0  0
    3.4042   -4.5917    0.0000 O   0  0  0  0  0  0           0  0  0
    4.8292   -5.2417    0.0000 C   0  0  0  0  0  0           0  0  0
    3.7917   -1.7167    0.0000 C   0  0  0  0  0  0           0  0  0
    3.7917   -3.5167    0.0000 C   0  0  0  0  0  0           0  0  0
    3.7375   -5.0917    0.0000 C   0  0  0  0  0  0           0  0  0
    3.7917   -2.3167    0.0000 C   0  0  0  0  0  0           0  0  0
    6.9042   -1.7167    0.0000 C   0  0  0  0  0  0           0  0  0
    3.2667   -1.4167    0.0000 C   0  0  0  0  0  0           0  0  0
    4.8250   -5.8417    0.0000 O   0  0  0  0  0  0           0  0  0
    4.3042   -1.4167    0.0000 C   0  0  0  0  0  0           0  0  0
    2.7500   -0.5167    0.0000 N   0  0  0  0  0  0           0  0  0
    6.9042   -2.3167    0.0000 O   0  0  0  0  0  0           0  0  0
    4.3167   -3.2167    0.0000 C   0  0  0  0  0  0           0  0  0
    3.2750   -3.2167    0.0000 C   0  0  0  0  0  0           0  0  0
    4.3042   -2.6167    0.0000 C   0  0  0  0  0  0           0  0  0
    3.2750   -2.6167    0.0000 C   0  0  0  0  0  0           0  0  0
    5.3500   -4.9417    0.0000 N   0  0  0  0  0  0           0  0  0
    7.4250   -1.4167    0.0000 O   0  0  0  0  0  0           0  0  0
    3.2667   -0.8167    0.0000 C   0  0  0  0  0  0           0  0  0
    6.3792   -1.4167    0.0000 C   0  0  0  0  0  0           0  0  0
    2.2292   -0.8250    0.0000 C   0  0  0  0  0  0           0  0  0
    7.9292   -5.2500    0.0000 C   0  0  3  0  0  0           0  0  0
    4.8292   -1.7167    0.0000 C   0  0  0  0  0  0           0  0  0
    2.7500   -1.7167    0.0000 C   0  0  0  0  0  0           0  0  0
    5.8667   -5.2417    0.0000 C   0  0  0  0  0  0           0  0  0
    7.4167   -4.9500    0.0000 C   0  0  0  0  0  0           0  0  0
    7.9292   -5.8417    0.0000 C   0  0  0  0  0  0           0  0  0
    8.4417   -4.9500    0.0000 C   0  0  0  0  0  0           0  0  0
    5.8667   -1.7167    0.0000 C   0  0  0  0  0  0           0  0  0
    5.3500   -1.4167    0.0000 C   0  0  0  0  0  0           0  0  0
    6.3792   -4.9417    0.0000 C   0  0  0  0  0  0           0  0  0
    6.9000   -5.2417    0.0000 C   0  0  0  0  0  0           0  0  0
    2.2292   -1.4167    0.0000 C   0  0  0  0  0  0           0  0  0
    8.9667   -5.2542    0.0000 C   0  0  0  0  0  0           0  0  0
    8.4417   -6.1417    0.0000 C   0  0  0  0  0  0           0  0  0
    8.9625   -5.8500    0.0000 C   0  0  0  0  0  0           0  0  0
    4.0042   -5.4542    0.0000 H   0  0  0  0  0  0           0  0  0
  2  1  2  0     0  0
  3  1  1  0     0  0
  4  2  1  0     0  0
  5  3  1  0     0  0
  6  9  1  0     0  0
  7  2  1  0     0  0
  8  3  1  0     0  0
  9 19  2  0     0  0
 10 23  1  0     0  0
 11  6  1  0     0  0
 12  5  2  0     0  0
 13  6  2  0     0  0
 14 22  2  0     0  0
 15 10  2  0     0  0
 16  7  1  0     0  0
 17  7  2  0     0  0
 18 16  2  0     0  0
 19 17  1  0     0  0
 20  5  1  0     0  0
 21 10  1  0     0  0
 22 11  1  0     0  0
 23 32  1  0     0  0
 24 36  2  0     0  0
 25 29  1  0     0  0
 26 13  1  0     0  0
 27 11  2  0     0  0
 28 20  1  0     0  0
 29 35  1  0     0  0
 30 25  1  0     0  0
 31 25  1  0     0  0
 32 33  1  0     0  0
 33 26  1  0     0  0
 34 28  1  0     0  0
 35 34  1  0     0  0
 36 27  1  0     0  0
 37 31  1  0     0  0
 38 30  1  0     0  0
 39 37  1  0     0  0
  3 40  1  1     0  0
  8  4  1  0     0  0
  9 18  1  0     0  0
 24 14  1  0     0  0
 39 38  1  0     0  0
M  END