
  SciTegic01161211232D

 23 23  0  0  0  0            999 V2000
   -5.2751  -23.5572    0.0000 C   0  0
   -4.4936  -23.2925    0.0000 C   0  0
   -4.5019  -22.4676    0.0000 C   0  0  2  0  0  0
   -5.2920  -22.2212    0.0000 C   0  0
   -5.7658  -22.8955    0.0000 C   0  0
   -3.8398  -21.9754    0.0000 C   0  0
   -3.7818  -23.7096    0.0000 C   0  0
   -3.0825  -22.3027    0.0000 C   0  0
   -2.2583  -22.3000    0.0000 C   0  0
   -1.8482  -21.5842    0.0000 C   0  0
   -1.0232  -21.5814    0.0000 C   0  0
   -0.6131  -20.8656    0.0000 C   0  0
   -3.0647  -23.3017    0.0000 C   0  0
   -2.3529  -23.7188    0.0000 C   0  0
   -1.6358  -23.3109    0.0000 C   0  0
   -0.9240  -23.7281    0.0000 C   0  0
   -0.2069  -23.3202    0.0000 C   0  0
    0.5049  -23.7373    0.0000 C   0  0
    1.2220  -23.3294    0.0000 C   0  0
   -5.5214  -24.3446    0.0000 O   0  0
    0.2119  -20.8629    0.0000 C   0  0
    0.6220  -20.1470    0.0000 O   0  0
    0.6268  -21.5760    0.0000 O   0  0
  1  2  1  0
 11 12  1  0
  3  6  1  6
  7 13  1  0
 13 14  2  0
  2  7  2  0
 14 15  1  0
  2  3  1  0
 15 16  1  0
  6  8  1  0
 16 17  1  0
  3  4  1  0
 17 18  1  0
  8  9  2  0
 18 19  1  0
  4  5  2  0
  1 20  2  0
  9 10  1  0
 12 21  1  0
  5  1  1  0
 21 22  1  0
 10 11  1  0
 21 23  2  0
M  END