
  SciTegic11201309402D

 76 79  0  0  1  0            999 V2000
    5.0167   -6.7542    0.0000 N   0  0
    4.2792   -7.2042    0.0000 C   0  0
    6.4667   -5.7500    0.0000 C   0  0
   -0.2208   -7.2292    0.0000 C   0  0
   -1.7125   -7.2292    0.0000 N   0  0
   -2.4625   -6.8042    0.0000 C   0  0
    5.7500   -6.3000    0.0000 C   0  0  1  0  0  0
    2.0292   -6.8042    0.0000 C   0  0
   -4.7208   -7.2292    0.0000 C   0  0
    0.5292   -6.8042    0.0000 N   0  0
   -3.9625   -6.8042    0.0000 N   0  0
   -0.9625   -6.8042    0.0000 C   0  0  1  0  0  0
    2.7792   -7.2292    0.0000 N   0  0
    6.2917   -4.8167    0.0000 N   0  0
    1.2792   -7.2292    0.0000 C   0  0  1  0  0  0
    1.2792   -8.1000    0.0000 C   0  0
   -3.2125   -7.2292    0.0000 C   0  0  1  0  0  0
    3.5167   -6.7875    0.0000 C   0  0  1  0  0  0
   -5.4583   -6.8042    0.0000 C   0  0  2  0  0  0
   10.7667   -5.1917    0.0000 C   0  0
   -6.2042   -8.1000    0.0000 C   0  0
   -6.2042   -7.2292    0.0000 N   0  0
    7.1417   -3.5875    0.0000 C   0  0
    1.0667   -8.8917    0.0000 C   0  0
    7.0667   -4.4417    0.0000 C   0  0  2  0  0  0
   11.5542   -4.8167    0.0000 N   0  0
    4.2917   -8.0667    0.0000 O   0  0
    7.2792   -6.0917    0.0000 O   0  0
   -0.2208   -8.1000    0.0000 O   0  0
   -2.4625   -5.9375    0.0000 O   0  0
   -4.7208   -8.1000    0.0000 O   0  0
    2.0292   -5.9375    0.0000 O   0  0
   -5.4583   -5.9375    0.0000 C   0  0
   -3.2125   -8.1000    0.0000 C   0  0
    6.4292   -3.0917    0.0000 O   0  0
   -5.4583   -8.5292    0.0000 O   0  0
    0.2667   -9.1000    0.0000 O   0  0
   10.0542   -4.6917    0.0000 N   0  0
   -6.9167   -8.5125    0.0000 C   0  0
   10.7000   -6.0542    0.0000 N   0  0
    7.9292   -3.2167    0.0000 N   0  0
    5.2292   -7.5917    0.0000 C   0  0
   -0.9625   -5.9375    0.0000 C   0  0
    1.6417   -9.4792    0.0000 N   0  0
   -4.7208   -5.5042    0.0000 C   0  0
   -3.2125   -4.6417    0.0000 C   0  0
   -2.4625   -8.5292    0.0000 C   0  0
   -6.9167   -9.3375    0.0000 C   0  0
   -4.7208   -4.6417    0.0000 C   0  0
   -3.9625   -5.9375    0.0000 C   0  0
    2.0292   -3.5167    0.0000 N   0  0
   -3.2125   -5.5042    0.0000 C   0  0
   -3.9625   -4.2042    0.0000 C   0  0
    6.4167   -6.8542    0.0000 C   0  0
   -2.4625   -4.2042    0.0000 O   0  0
    6.0917   -7.6542    0.0000 C   0  0
    3.5042   -5.9625    0.0000 C   0  0
    7.7792   -4.9417    0.0000 C   0  0
    9.2750   -5.0667    0.0000 C   0  0
    2.0417   -4.3417    0.0000 C   0  0
   -0.2208   -5.5042    0.0000 C   0  0
   -1.7125   -5.5042    0.0000 C   0  0
   -1.7125   -8.1000    0.0000 C   0  0
   -2.4625   -9.3917    0.0000 C   0  0
   -7.6417   -9.7417    0.0000 C   0  0
   -6.2125   -9.7417    0.0000 C   0  0
   -2.4625   -3.3417    0.0000 C   0  0
    8.5625   -4.5750    0.0000 C   0  0
    2.7792   -5.5667    0.0000 C   0  0
    2.7667   -4.7417    0.0000 C   0  0
   -6.2125  -10.5667    0.0000 C   0  0
   -0.9625   -8.5292    0.0000 C   0  0
   -1.7125   -9.8292    0.0000 C   0  0
   -7.6417  -10.5667    0.0000 C   0  0
   -6.9292  -10.9792    0.0000 C   0  0
   -0.9625   -9.3917    0.0000 C   0  0
  2  1  1  0
  7  3  1  1
  4 10  1  0
 12  5  1  1
  6  5  1  0
  7  1  1  0
  8 13  1  0
  9 11  1  0
 15 10  1  6
 17 11  1  6
 12  4  1  0
 18 13  1  1
 14  3  1  0
 15  8  1  0
 15 16  1  0
 17  6  1  0
 18  2  1  0
 19  9  1  0
 20 38  2  0
 21 22  1  0
 19 22  1  6
 23 25  1  0
 24 16  1  0
 25 14  1  6
 26 20  1  0
 27  2  2  0
 28  3  2  0
 29  4  2  0
 30  6  2  0
 31  9  2  0
 32  8  2  0
 19 33  1  0
 17 34  1  0
 35 23  2  0
 36 21  2  0
 37 24  2  0
 38 59  1  0
 39 21  1  0
 40 20  1  0
 41 23  1  0
 42  1  1  0
 12 43  1  0
 44 24  1  0
 45 33  1  0
 46 52  2  0
 47 34  1  0
 48 39  1  0
 49 45  1  0
 50 45  2  0
 51 60  1  0
 52 50  1  0
 53 49  2  0
  7 54  1  0
 55 46  1  0
 56 42  1  0
 18 57  1  0
 25 58  1  0
 59 68  1  0
 60 70  1  0
 61 43  1  0
 62 43  1  0
 63 47  1  0
 64 47  2  0
 65 48  2  0
 66 48  1  0
 67 55  1  0
 68 58  1  0
 69 57  1  0
 70 69  1  0
 71 66  2  0
 72 63  2  0
 73 64  1  0
 74 65  1  0
 75 71  1  0
 76 73  2  0
 56 54  1  0
 72 76  1  0
 53 46  1  0
 74 75  2  0
M  END