
          11280714522D 1   1.00000     0.00000     0

 55 60  0     0  0            999 V2000
    2.3917   -5.9042    0.0000 N   0  0  3  0  0  0           0  0  0
    3.2125   -7.5917    0.0000 N   0  0  0  0  0  0           0  0  0
    3.5667   -6.8375    0.0000 C   0  0  3  0  0  0           0  0  0
    3.2042   -6.0792    0.0000 C   0  0  0  0  0  0           0  0  0
    2.4000   -7.7792    0.0000 C   0  0  0  0  0  0           0  0  0
    1.7417   -7.2542    0.0000 C   0  0  0  0  0  0           0  0  0
    1.7417   -6.4292    0.0000 C   0  0  0  0  0  0           0  0  0
    4.3917   -6.8292    0.0000 N   0  0  0  0  0  0           0  0  0
    4.8042   -7.5417    0.0000 C   0  0  0  0  0  0           0  0  0
    2.2042   -5.1000    0.0000 C   0  0  0  0  0  0           0  0  0
    5.6292   -7.5417    0.0000 N   0  0  0  0  0  0           0  0  0
   11.7542   -3.7542    0.0000 N   0  0  3  0  0  0           0  0  0
    2.8125   -4.5375    0.0000 C   0  0  0  0  0  0           0  0  0
    4.6167   -2.8417    0.0000 C   0  0  0  0  0  0           0  0  0
    3.7167   -5.4375    0.0000 O   0  0  0  0  0  0           0  0  0
    2.2167   -8.5792    0.0000 C   0  0  0  0  0  0           0  0  0
    4.4000   -8.2625    0.0000 O   0  0  0  0  0  0           0  0  0
    4.0167   -3.4042    0.0000 C   0  0  0  0  0  0           0  0  0
    6.0500   -8.2542    0.0000 C   0  0  0  0  0  0           0  0  0
    4.5917   -2.0167    0.0000 O   0  0  0  0  0  0           0  0  0
    3.6000   -4.7792    0.0000 O   0  0  0  0  0  0           0  0  0
   10.9917   -4.0542    0.0000 C   0  0  0  0  0  0           0  0  0
   10.3417   -3.5417    0.0000 C   0  0  0  0  0  0           0  0  0
    2.6250   -3.7292    0.0000 N   0  0  0  0  0  0           0  0  0
    5.3417   -3.2375    0.0000 N   0  0  0  0  0  0           0  0  0
    5.6375   -8.9667    0.0000 C   0  0  0  0  0  0           0  0  0
    9.5792   -3.8417    0.0000 C   0  0  0  0  0  0           0  0  0
    3.2292   -3.1667    0.0000 C   0  0  0  0  0  0           0  0  0
    1.0292   -7.6667    0.0000 C   0  0  0  0  0  0           0  0  0
    8.9375   -3.3375    0.0000 C   0  0  0  0  0  0           0  0  0
    1.0292   -6.0167    0.0000 C   0  0  0  0  0  0           0  0  0
    6.0500   -9.6792    0.0000 C   0  0  0  0  0  0           0  0  0
    6.7542   -3.4375    0.0000 C   0  0  0  0  0  0           0  0  0
    8.1750   -3.6417    0.0000 O   0  0  0  0  0  0           0  0  0
   11.8750   -2.9417    0.0000 C   0  0  0  0  0  0           0  0  0
   12.4042   -4.2542    0.0000 C   0  0  0  0  0  0           0  0  0
    7.2875   -8.9625    0.0000 C   0  0  0  0  0  0           0  0  0
    9.8125   -2.2292    0.0000 C   0  0  0  0  0  0           0  0  0
    6.1042   -2.9292    0.0000 C   0  0  0  0  0  0           0  0  0
    6.8667   -8.2542    0.0000 C   0  0  0  0  0  0           0  0  0
   10.4542   -2.7292    0.0000 C   0  0  0  0  0  0           0  0  0
    2.8167   -9.1375    0.0000 C   0  0  0  0  0  0           0  0  0
    1.4292   -8.8250    0.0000 C   0  0  0  0  0  0           0  0  0
    7.5250   -3.1375    0.0000 C   0  0  0  0  0  0           0  0  0
    9.0500   -2.5292    0.0000 C   0  0  0  0  0  0           0  0  0
    6.8750   -9.6792    0.0000 C   0  0  0  0  0  0           0  0  0
    5.6375  -10.4000    0.0000 C   0  0  0  0  0  0           0  0  0
    0.3167   -7.2542    0.0000 C   0  0  0  0  0  0           0  0  0
    0.3167   -6.4292    0.0000 C   0  0  0  0  0  0           0  0  0
   13.1667   -3.9542    0.0000 C   0  0  0  0  0  0           0  0  0
   12.6375   -2.6417    0.0000 C   0  0  0  0  0  0           0  0  0
    1.2417   -9.6250    0.0000 C   0  0  0  0  0  0           0  0  0
    2.6417   -9.9375    0.0000 C   0  0  0  0  0  0           0  0  0
    1.8500  -10.1875    0.0000 C   0  0  0  0  0  0           0  0  0
   13.2875   -3.1500    0.0000 C   0  0  0  0  0  0           0  0  0
  2  3  1  0     0  0
  3  4  1  0     0  0
  4  1  1  0     0  0
  5  6  1  0     0  0
  6  7  1  0     0  0
  7  1  1  0     0  0
  3  8  1  0     0  0
  9  8  1  0     0  0
 10  1  1  0     0  0
 11  9  1  0     0  0
 12 22  1  0     0  0
 13 10  1  0     0  0
 14 18  1  0     0  0
 15  4  2  0     0  0
 16  5  1  0     0  0
 17  9  2  0     0  0
 18 28  1  0     0  0
 19 11  1  0     0  0
 20 14  2  0     0  0
 21 13  2  0     0  0
 22 23  1  0     0  0
 23 27  2  0     0  0
 24 13  1  0     0  0
 25 14  1  0     0  0
 26 19  2  0     0  0
 27 30  1  0     0  0
 28 24  1  0     0  0
 29  6  2  0     0  0
 30 34  1  0     0  0
 31  7  2  0     0  0
 32 26  1  0     0  0
 33 39  1  0     0  0
 34 44  1  0     0  0
 35 12  1  0     0  0
 36 12  1  0     0  0
 37 40  2  0     0  0
 38 45  1  0     0  0
 39 25  1  0     0  0
 40 19  1  0     0  0
 41 38  2  0     0  0
 42 16  1  0     0  0
 43 16  2  0     0  0
 44 33  1  0     0  0
 45 30  2  0     0  0
 46 37  1  0     0  0
 47 32  1  0     0  0
 48 49  2  0     0  0
 49 31  1  0     0  0
 50 36  1  0     0  0
 51 35  1  0     0  0
 52 43  1  0     0  0
 53 42  2  0     0  0
 54 52  2  0     0  0
 55 50  1  0     0  0
  2  5  2  0     0  0
 48 29  1  0     0  0
 54 53  1  0     0  0
 46 32  2  0     0  0
 23 41  1  0     0  0
 55 51  1  0     0  0
M  END