
  SciTegic12211612372D

 29 31  0  0  0  0            999 V2000
   -3.8439   -5.8646    0.0000 O   0  0
   -4.8861   -5.2698    0.0000 S   0  0
   -5.9222   -5.8753    0.0000 O   0  0
   -4.9153    0.7304    0.0000 C   0  0
   -4.9101   -0.7696    0.0000 C   0  0
   -6.2064   -1.5242    0.0000 C   0  0
   -7.5081   -0.7788    0.0000 C   0  0
   -7.5134    0.7212    0.0000 C   0  0
   -6.2171    1.4758    0.0000 C   0  0
   -3.6204    1.4891    0.0000 C   0  0
   -3.6273    2.9899    0.0000 C   0  0
   -2.3315    3.7471    0.0000 C   0  0
   -2.3370    4.9471    0.0000 O   0  0
   -1.2893    3.1522    0.0000 O   0  0
   -8.5452   -1.3825    0.0000 Cl  0  0
   -2.3155    0.7475    0.0000 C   0  0
   -2.3155   -0.7475    0.0000 C   0  0
   -1.0028   -1.5132    0.0000 C   0  0
   -1.0028    1.5132    0.0000 C   0  0
    0.2917    0.7475    0.0000 C   0  0
    0.2917   -0.7475    0.0000 C   0  0
    1.7138   -1.2033    0.0000 N   0  0
    2.5889    0.0182    0.0000 N   0  0
    1.7138    1.2033    0.0000 N   0  0
    2.0907   -2.3426    0.0000 C   0  0
   -6.1980   -3.0250    0.0000 C   0  0
   -4.8945   -3.7690    0.0000 N   0  0
   -3.8585   -3.1635    0.0000 C   0  0
   -4.8800   -6.4698    0.0000 C   0  0
  2  1  2  0
  3  2  2  0
  4  5  2  0
  5  6  1  0
  6  7  2  0
  7  8  1  0
  8  9  2  0
  9  4  1  0
  4 10  1  0
 10 11  1  0
 11 12  1  0
 12 13  2  0
 12 14  1  0
  7 15  1  0
 10 16  1  0
 16 17  2  0
 17 18  1  0
 18 21  2  0
 20 19  2  0
 19 16  1  0
 20 21  1  0
 21 22  1  0
 22 23  1  0
 23 24  2  0
 24 20  1  0
 22 25  1  0
  6 26  1  0
 26 27  1  0
 27  2  1  0
 27 28  1  0
  2 29  1  0
M  END