
          11280715122D 1   1.00000     0.00000     0

 30 33  0     0  0            999 V2000
    6.6667   -5.4792    0.0000 C   0  0  0  0  0  0           0  0  0
    6.1375   -6.7125    0.0000 N   0  0  0  0  0  0           0  0  0
    6.8417   -6.2917    0.0000 N   0  0  0  0  0  0           0  0  0
    5.5167   -6.1792    0.0000 N   0  0  0  0  0  0           0  0  0
    3.6542   -1.1542    0.0000 C   0  0  0  0  0  0           0  0  0
    5.8500   -5.4042    0.0000 N   0  0  0  0  0  0           0  0  0
    7.2167   -4.8667    0.0000 C   0  0  0  0  0  0           0  0  0
    4.3667   -1.5667    0.0000 N   0  0  3  0  0  0           0  0  0
    7.2167   -4.0417    0.0000 C   0  0  0  0  0  0           0  0  0
    3.6542   -0.3250    0.0000 C   0  0  0  0  0  0           0  0  0
    2.9417   -1.5667    0.0000 N   0  0  0  0  0  0           0  0  0
    6.5042   -3.6292    0.0000 C   0  0  0  0  0  0           0  0  0
    4.3667   -2.3917    0.0000 C   0  0  0  0  0  0           0  0  0
    6.5042   -2.8000    0.0000 C   0  0  0  0  0  0           0  0  0
    5.7917   -4.0417    0.0000 C   0  0  0  0  0  0           0  0  0
    5.0792   -2.8042    0.0000 C   0  0  0  0  0  0           0  0  0
    5.0792   -3.6292    0.0000 C   0  0  0  0  0  0           0  0  0
    5.7875   -2.3875    0.0000 C   0  0  0  0  0  0           0  0  0
    4.3792    0.0958    0.0000 C   0  0  0  0  0  0           0  0  0
    5.0792   -1.1542    0.0000 C   0  0  0  0  0  0           0  0  0
    7.9292   -5.2792    0.0000 C   0  0  0  0  0  0           0  0  0
    2.9417    0.0875    0.0000 C   0  0  0  0  0  0           0  0  0
    7.9292   -3.6292    0.0000 C   0  0  0  0  0  0           0  0  0
    5.1000   -0.3167    0.0000 O   0  0  0  0  0  0           0  0  0
    2.2292   -1.1542    0.0000 C   0  0  0  0  0  0           0  0  0
    5.7875   -1.5667    0.0000 C   0  0  0  0  0  0           0  0  0
    2.2292   -0.3292    0.0000 C   0  0  0  0  0  0           0  0  0
    8.6417   -4.8667    0.0000 C   0  0  0  0  0  0           0  0  0
    8.6417   -4.0375    0.0000 C   0  0  0  0  0  0           0  0  0
    6.4917   -1.1542    0.0000 C   0  0  0  0  0  0           0  0  0
  2  3  2  0     0  0
  3  1  1  0     0  0
  4  6  1  0     0  0
  5  8  1  0     0  0
  6  1  2  0     0  0
  7  1  1  0     0  0
  8 13  1  0     0  0
  9  7  2  0     0  0
 10  5  1  0     0  0
 11  5  2  0     0  0
 12  9  1  0     0  0
 13 16  1  0     0  0
 14 12  2  0     0  0
 15 12  1  0     0  0
 16 17  1  0     0  0
 17 15  2  0     0  0
 18 14  1  0     0  0
 19 10  1  0     0  0
 20  8  1  0     0  0
 21  7  1  0     0  0
 22 10  2  0     0  0
 23  9  1  0     0  0
 24 19  1  0     0  0
 25 11  1  0     0  0
 26 20  1  0     0  0
 27 25  2  0     0  0
 28 21  2  0     0  0
 29 28  1  0     0  0
 30 26  1  0     0  0
  4  2  1  0     0  0
 29 23  2  0     0  0
 18 16  2  0     0  0
 22 27  1  0     0  0
M  END