
  SciTegic10011413212D

 23 24  0  0  0  0            999 V2000
    2.6667   -7.6875    0.0000 C   0  0
    3.3811   -7.2750    0.0000 C   0  0
    4.0956   -7.6875    0.0000 C   0  0
    4.8102   -7.2750    0.0000 C   0  0
    5.5246   -7.6875    0.0000 N   0  0
    6.2391   -7.2750    0.0000 C   0  0
    6.9536   -7.6875    0.0000 N   0  0
    6.2391   -6.4500    0.0000 N   0  0
    7.6680   -7.2750    0.0000 C   0  0
    8.3825   -7.6875    0.0000 C   0  0
    9.0970   -7.2750    0.0000 C   0  0
    9.8114   -7.6875    0.0000 C   0  0
    9.0970   -6.4500    0.0000 C   0  0
    7.6680   -6.4500    0.0000 O   0  0
    1.8791   -7.4271    0.0000 N   0  0
    1.3870   -8.0894    0.0000 C   0  0
    1.8649   -8.7620    0.0000 C   0  0
    2.6521   -8.5154    0.0000 N   0  0
    9.8098   -8.5136    0.0000 C   0  0
   10.5234   -8.9260    0.0000 C   0  0
   11.2388   -8.5135    0.0000 C   0  0
   11.2362   -7.6842    0.0000 C   0  0
   10.5220   -7.2755    0.0000 C   0  0
  1  2  1  0
  2  3  1  0
  3  4  1  0
  4  5  1  0
  5  6  1  0
  6  7  2  0
  6  8  1  0
  7  9  1  0
  9 10  1  0
 10 11  1  0
 11 12  1  0
 11 13  1  0
  9 14  2  0
  1 15  1  0
 15 16  1  0
 16 17  2  0
 17 18  1  0
 18  1  2  0
 12 19  2  0
 19 20  1  0
 20 21  2  0
 21 22  1  0
 22 23  2  0
 23 12  1  0
M  END