
  SciTegic05171617282D

 38 42  0  0  0  0            999 V2000
  -14.3014    6.2784    0.0000 C   0  0
  -14.3073    7.4784    0.0000 O   0  0
  -13.0117    8.2360    0.0000 C   0  0
  -13.0170    9.7360    0.0000 C   0  0
  -11.7205   10.4906    0.0000 C   0  0
  -10.4189    9.7451    0.0000 C   0  0
  -10.4136    8.2450    0.0000 C   0  0
  -11.7101    7.4906    0.0000 C   0  0
   -9.1124    7.4971    0.0000 N   0  0
   -7.8148    8.2496    0.0000 C   0  0
   -6.5144    7.5021    0.0000 C   0  0
   -6.5114    6.0021    0.0000 N   0  0
   -7.8091    5.2496    0.0000 C   0  0
   -9.1096    5.9971    0.0000 C   0  0
   -5.2118    5.2515    0.0000 C   0  0
   -4.1727    5.8517    0.0000 O   0  0
   -5.2110    3.7506    0.0000 C   0  0
   -3.9114    3.0001    0.0000 N   0  0
   -3.9106    1.4992    0.0000 S   0  0
   -4.9500    2.0989    0.0000 O   0  0
   -4.9497    0.8990    0.0000 O   0  0
   -2.6111    0.7486    0.0000 C   0  0
   -2.6111   -0.7486    0.0000 C   0  0
   -1.2964   -1.4973    0.0000 C   0  0
    0.0000   -0.7486    0.0000 C   0  0
    1.2964   -1.4973    0.0000 N   0  0
    2.5929   -0.7486    0.0000 C   0  0
    3.6321   -1.3486    0.0000 O   0  0
    2.5929    0.7486    0.0000 C   0  0
    1.2964    1.4973    0.0000 C   0  0
    0.0000    0.7486    0.0000 C   0  0
   -1.2964    1.4973    0.0000 C   0  0
   -6.5106    3.0000    0.0000 C   0  0
   -6.5124    1.5000    0.0000 C   0  0
   -7.8124    0.7515    0.0000 C   0  0
   -9.1105    1.5030    0.0000 C   0  0
   -9.1087    3.0030    0.0000 C   0  0
   -7.8088    3.7515    0.0000 C   0  0
  1  2  1  0
  2  3  1  0
  3  4  2  0
  4  5  1  0
  5  6  2  0
  6  7  1  0
  7  8  2  0
  3  8  1  0
  7  9  1  0
  9 10  1  0
 10 11  1  0
 11 12  1  0
 12 13  1  0
 13 14  1  0
  9 14  1  0
 12 15  1  0
 15 16  2  0
 15 17  1  0
 17 18  1  0
 18 19  1  0
 19 20  2  0
 19 21  2  0
 19 22  1  0
 22 23  2  0
 23 24  1  0
 24 25  2  0
 25 26  1  0
 26 27  1  0
 27 28  2  0
 27 29  1  0
 29 30  1  0
 30 31  1  0
 25 31  1  0
 31 32  2  0
 22 32  1  0
 17 33  1  0
 33 34  2  0
 34 35  1  0
 35 36  2  0
 36 37  1  0
 37 38  2  0
 33 38  1  0
M  END