
  SciTegic01061414252D

 29 31  0  0  0  0            999 V2000
   22.9413   -9.4623    0.0000 O   0  0
   22.1163   -9.4623    0.0000 S   0  0
   22.5288  -10.1768    0.0000 O   0  0
   21.4066   -7.3998    0.0000 C   0  0
   21.4054   -8.2272    0.0000 C   0  0
   22.1202   -8.6400    0.0000 C   0  0
   22.8366   -8.2267    0.0000 C   0  0
   22.8338   -7.3962    0.0000 C   0  0
   22.1184   -6.9871    0.0000 C   0  0
   23.5467   -6.9811    0.0000 C   0  0
   24.2627   -7.3908    0.0000 C   0  0
   23.5436   -6.1561    0.0000 O   0  0
   24.9756   -6.9756    0.0000 S   0  0
   25.6916   -7.3855    0.0000 C   0  0
   25.6916   -8.2093    0.0000 N   0  0
   26.4067   -8.6190    0.0000 C   0  0
   27.1207   -8.2037    0.0000 C   0  0
   27.1148   -7.3745    0.0000 C   0  0
   26.3991   -6.9685    0.0000 N   0  0
   21.4055   -9.8773    0.0000 N   0  0
   27.8262   -6.9568    0.0000 O   0  0
   27.8371   -8.6126    0.0000 C   0  0
   26.4094   -9.4440    0.0000 C   0  0
   28.5496   -8.1964    0.0000 C   0  0
   29.2649   -8.6078    0.0000 C   0  0
   29.9769   -8.1924    0.0000 C   0  0
   29.9730   -7.3666    0.0000 C   0  0
   29.2515   -6.9579    0.0000 C   0  0
   28.5426   -7.3757    0.0000 C   0  0
  2  1  2  0
  3  2  2  0
  4  5  2  0
  5  6  1  0
  6  7  2  0
  7  8  1  0
  8  9  2  0
  9  4  1  0
  8 10  1  0
 10 11  1  0
 10 12  2  0
 11 13  1  0
 13 14  1  0
 14 15  2  0
 15 16  1  0
 16 17  2  0
 17 18  1  0
 18 19  1  0
 19 14  1  0
  6  2  1  0
  2 20  1  0
 18 21  2  0
 17 22  1  0
 16 23  1  0
 22 24  1  0
 24 25  2  0
 25 26  1  0
 26 27  2  0
 27 28  1  0
 28 29  2  0
 29 24  1  0
M  END