
          11280714492D 1   1.00000     0.00000     0

 21 23  0     0  0            999 V2000
    3.6167   -6.5417    0.0000 C   0  0  3  0  0  0           0  0  0
    2.5542   -6.7042    0.0000 C   0  0  3  0  0  0           0  0  0
    1.8417   -6.2917    0.0000 N   0  0  3  0  0  0           0  0  0
    3.9125   -7.4417    0.0000 C   0  0  3  0  0  0           0  0  0
    2.1292   -7.2042    0.0000 C   0  0  3  0  0  0           0  0  0
    3.2500   -7.0417    0.0000 C   0  0  0  0  0  0           0  0  0
    3.6125   -5.7167    0.0000 C   0  0  0  0  0  0           0  0  0
    2.5000   -7.4167    0.0000 C   0  0  0  0  0  0           0  0  0
    4.7042   -7.2292    0.0000 C   0  0  0  0  0  0           0  0  0
    1.9125   -8.0042    0.0000 C   0  0  0  0  0  0           0  0  0
    2.8917   -5.3042    0.0000 O   0  0  0  0  0  0           0  0  0
    5.2917   -7.8125    0.0000 C   0  0  0  0  0  0           0  0  0
    4.9125   -6.4292    0.0000 C   0  0  0  0  0  0           0  0  0
    1.8375   -5.4667    0.0000 C   0  0  0  0  0  0           0  0  0
    4.3167   -5.2917    0.0000 O   0  0  0  0  0  0           0  0  0
    6.2917   -6.7917    0.0000 C   0  0  0  0  0  0           0  0  0
    5.7042   -6.2125    0.0000 C   0  0  0  0  0  0           0  0  0
    6.0875   -7.5917    0.0000 C   0  0  0  0  0  0           0  0  0
    7.0917   -6.5792    0.0000 I   0  0  0  0  0  0           0  0  0
    4.3167   -4.4667    0.0000 C   0  0  0  0  0  0           0  0  0
    5.0250   -4.0542    0.0000 C   0  0  0  0  0  0           0  0  0
  2  1  1  0     0  0
  3  2  1  0     0  0
  4  1  1  0     0  0
  5  6  1  0     0  0
  6  4  1  0     0  0
  7  1  1  0     0  0
  8  2  1  0     0  0
  9  4  1  0     0  0
 10  8  1  0     0  0
 11  7  2  0     0  0
 12  9  2  0     0  0
 13  9  1  0     0  0
 14  3  1  0     0  0
 15  7  1  0     0  0
 16 17  1  0     0  0
 17 13  2  0     0  0
 18 12  1  0     0  0
 19 16  1  0     0  0
 20 15  1  0     0  0
 21 20  1  0     0  0
  5  3  1  0     0  0
 10  5  1  0     0  0
 18 16  2  0     0  0
M  END