
  SciTegic06051313522D

 28 30  0  0  0  0            999 V2000
    3.0081  -12.3290    0.0000 C   0  0
    3.4148  -13.0495    0.0000 C   0  0
    4.2482  -11.6226    0.0000 C   0  0
    3.4241  -11.6191    0.0000 C   0  0
    4.6600  -12.3438    0.0000 C   0  0
    4.2384  -13.0551    0.0000 C   0  0
    4.6435  -13.7736    0.0000 C   0  0
    5.4700  -13.7821    0.0000 C   0  0
    5.8897  -13.0662    0.0000 C   0  0
    5.4822  -12.3506    0.0000 C   0  0
    6.7147  -13.0713    0.0000 C   0  0
    7.1317  -12.3595    0.0000 S   0  0
    7.9523  -12.3612    0.0000 C   0  0
    7.1330  -11.5350    0.0000 O   0  0
    6.4151  -11.9416    0.0000 O   0  0
    8.3485  -13.0849    0.0000 C   0  0
    7.9199  -13.7898    0.0000 O   0  0
    9.1733  -13.1036    0.0000 N   0  0
    9.5694  -13.8273    0.0000 C   0  0
    9.0782  -14.4881    0.0000 S   0  0
    9.5606  -15.1586    0.0000 C   0  0
   10.3470  -14.9056    0.0000 C   0  0
   10.3481  -14.0796    0.0000 N   0  0
   10.9252  -15.4934    0.0000 C   0  0
   10.7053  -16.2886    0.0000 C   0  0
   11.2839  -16.8766    0.0000 O   0  0
    9.9067  -16.4957    0.0000 O   0  0
   11.0155  -13.5947    0.0000 O   0  0
  1  2  2  0
  2  6  1  0
  5  3  1  0
  3  4  2  0
  4  1  1  0
  5  6  1  0
  6  7  2  0
  7  8  1  0
  8  9  2  0
  9 10  1  0
 10  5  2  0
  9 11  1  0
 11 12  1  0
 12 13  1  0
 12 14  2  0
 12 15  2  0
 13 16  1  0
 16 17  2  0
 16 18  1  0
 18 19  2  0
 20 21  1  0
 19 20  1  0
 21 22  2  0
 22 23  1  0
 23 19  1  0
 22 24  1  0
 24 25  1  0
 25 26  2  0
 25 27  1  0
 23 28  1  0
M  END