
          11280715392D 1   1.00000     0.00000     0

 38 39  0     0  0            999 V2000
    0.5917   -1.8750    0.0000 O   0  0  0  0  0  0           0  0  0
   13.6042   -8.6250    0.0000 O   0  0  0  0  0  0           0  0  0
    0.9542   -2.3542    0.0000 C   0  0  0  0  0  0           0  0  0
   13.2542   -9.1125    0.0000 C   0  0  0  0  0  0           0  0  0
   14.1750   -8.8125    0.0000 C   0  0  0  0  0  0           0  0  0
    0.0250   -2.0542    0.0000 C   0  0  0  0  0  0           0  0  0
    0.0250   -2.6542    0.0000 C   0  0  0  0  0  0           0  0  0
   14.1750   -9.4125    0.0000 C   0  0  0  0  0  0           0  0  0
   13.6042   -9.5917    0.0000 C   0  0  0  0  0  0           0  0  0
    0.5917   -2.8417    0.0000 C   0  0  0  0  0  0           0  0  0
   12.3542   -8.5917    0.0000 N   0  0  0  0  0  0           0  0  0
    1.8542   -2.8750    0.0000 N   0  0  0  0  0  0           0  0  0
    5.1542   -4.4292    0.0000 N   0  0  0  0  0  0           0  0  0
    9.0542   -7.0292    0.0000 N   0  0  0  0  0  0           0  0  0
   12.6542   -9.1125    0.0000 C   0  0  0  0  0  0           0  0  0
    1.5542   -2.3542    0.0000 C   0  0  0  0  0  0           0  0  0
   -0.4583   -1.7042    0.0000 C   0  0  0  0  0  0           0  0  0
   14.6625   -8.4542    0.0000 C   0  0  0  0  0  0           0  0  0
    5.4542   -4.9542    0.0000 C   0  0  0  0  0  0           0  0  0
    8.7542   -6.5125    0.0000 C   0  0  0  0  0  0           0  0  0
    4.5542   -4.4292    0.0000 C   0  0  0  0  0  0           0  0  0
    9.6542   -7.0292    0.0000 C   0  0  0  0  0  0           0  0  0
   11.7542   -8.5917    0.0000 C   0  0  0  0  0  0           0  0  0
    2.4542   -2.8750    0.0000 C   0  0  0  0  0  0           0  0  0
    2.7542   -3.3917    0.0000 C   0  0  0  0  0  0           0  0  0
    6.0542   -4.9542    0.0000 C   0  0  0  0  0  0           0  0  0
    9.9542   -7.5542    0.0000 C   0  0  0  0  0  0           0  0  0
   11.4542   -8.0667    0.0000 C   0  0  0  0  0  0           0  0  0
    8.1542   -6.5125    0.0000 C   0  0  0  0  0  0           0  0  0
    4.2542   -3.9167    0.0000 C   0  0  0  0  0  0           0  0  0
   10.8542   -8.0667    0.0000 C   0  0  0  0  0  0           0  0  0
    7.8542   -5.9917    0.0000 C   0  0  0  0  0  0           0  0  0
    3.6542   -3.9167    0.0000 C   0  0  0  0  0  0           0  0  0
    3.3542   -3.3917    0.0000 C   0  0  0  0  0  0           0  0  0
    6.3542   -5.4750    0.0000 C   0  0  0  0  0  0           0  0  0
    6.9542   -5.4750    0.0000 C   0  0  0  0  0  0           0  0  0
    7.2542   -5.9917    0.0000 C   0  0  0  0  0  0           0  0  0
   10.5542   -7.5542    0.0000 C   0  0  0  0  0  0           0  0  0
  2  4  1  0     0  0
  3  1  1  0     0  0
  4 15  1  0     0  0
  5  2  1  0     0  0
  6  1  1  0     0  0
  7  6  2  0     0  0
  8  9  1  0     0  0
  9  4  2  0     0  0
 10  3  2  0     0  0
 11 23  1  0     0  0
 12 16  1  0     0  0
 13 21  1  0     0  0
 14 20  1  0     0  0
 15 11  1  0     0  0
 16  3  1  0     0  0
 17  6  1  0     0  0
 18  5  1  0     0  0
 19 13  1  0     0  0
 20 29  1  0     0  0
 21 30  1  0     0  0
 22 14  1  0     0  0
 23 28  1  0     0  0
 24 12  1  0     0  0
 25 24  1  0     0  0
 26 19  1  0     0  0
 27 22  1  0     0  0
 28 31  1  0     0  0
 29 32  1  0     0  0
 30 33  1  0     0  0
 31 38  1  0     0  0
 32 37  1  0     0  0
 33 34  1  0     0  0
 34 25  1  0     0  0
 35 26  1  0     0  0
 36 35  1  0     0  0
 37 36  1  0     0  0
 38 27  1  0     0  0
  7 10  1  0     0  0
  8  5  2  0     0  0
M  END