
  SciTegic02181312462D

 30 34  0  0  0  0            999 V2000
    5.5088   -7.6593    0.0000 C   0  0
    5.5092   -6.8352    0.0000 C   0  0
    4.7952   -6.4219    0.0000 C   0  0
    4.0807   -6.8327    0.0000 C   0  0
    4.0803   -7.6568    0.0000 C   0  0
    4.7944   -8.0702    0.0000 N   0  0
    6.7785   -7.2464    0.0000 C   0  0
    6.2921   -7.9138    0.0000 N   0  0
    6.2919   -6.5790    0.0000 N   0  0
    4.7956   -5.5977    0.0000 N   0  0
    5.5122   -5.1833    0.0000 C   0  0
    5.5126   -4.3592    0.0000 C   0  0
    4.7986   -3.9458    0.0000 N   0  0
    4.0841   -4.3566    0.0000 C   0  0
    4.0816   -5.1844    0.0000 C   0  0
    4.7920   -3.1184    0.0000 C   0  0
    6.5056   -1.8457    0.0000 O   0  0
    5.6910   -1.9541    0.0000 N   0  0
    5.5369   -2.7637    0.0000 C   0  0
    6.2643   -3.1582    0.0000 N   0  0
    6.8601   -2.5906    0.0000 C   0  0
    3.3667   -6.4194    0.0000 Cl  0  0
    7.6032   -7.2499    0.0000 C   0  0
    8.0873   -7.9183    0.0000 C   0  0
    8.8729   -7.6632    0.0000 N   0  0
    8.8716   -6.8370    0.0000 N   0  0
    8.0852   -6.5843    0.0000 C   0  0
    9.5407   -8.1477    0.0000 C   0  0
    7.6714   -2.7406    0.0000 C   0  0
    7.8284   -5.8003    0.0000 C   0  0
  1  2  1  0
  2  3  2  0
  3  4  1  0
  4  5  2  0
  5  6  1  0
  1  6  2  0
  7  8  1  0
  7  9  2  0
  1  8  1  0
  2  9  1  0
 10 11  1  0
 11 12  1  0
 12 13  1  0
 13 14  1  0
 14 15  1  0
 10 15  1  0
 17 18  1  0
 18 19  2  0
 19 20  1  0
 20 21  2  0
 17 21  1  0
 16 19  1  0
 13 16  1  0
  3 10  1  0
  4 22  1  0
 24 25  1  0
 23 24  2  0
 25 26  1  0
 26 27  2  0
 27 23  1  0
  7 23  1  0
 25 28  1  0
 21 29  1  0
 27 30  1  0
M  END