
  Mrv0541 04051115152D          

 23 25  0  0  0  0            999 V2000
   -2.1018    0.7126    0.0000 C   0  0  0  0  0  0  0  0  0  0  0  0
    0.5966    1.1251    0.0000 C   0  0  0  0  0  0  0  0  0  0  0  0
   -0.1178    1.5376    0.0000 C   0  0  0  0  0  0  0  0  0  0  0  0
    2.7401   -0.1124    0.0000 C   0  0  0  0  0  0  0  0  0  0  0  0
    2.7401   -0.9374    0.0000 C   0  0  0  0  0  0  0  0  0  0  0  0
    2.0256   -1.3499    0.0000 C   0  0  0  0  0  0  0  0  0  0  0  0
    1.3111   -0.9374    0.0000 C   0  0  0  0  0  0  0  0  0  0  0  0
    2.7401   -2.5874    0.0000 C   0  0  0  0  0  0  0  0  0  0  0  0
   -3.7518    0.7126    0.0000 N   0  0  0  0  0  0  0  0  0  0  0  0
   -2.9268    0.7126    0.0000 S   0  0  0  0  0  0  0  0  0  0  0  0
   -2.9268    1.5376    0.0000 O   0  0  0  0  0  0  0  0  0  0  0  0
   -2.9268   -0.1124    0.0000 O   0  0  0  0  0  0  0  0  0  0  0  0
   -1.6169    0.0451    0.0000 S   0  0  0  0  0  0  0  0  0  0  0  0
   -0.8323    0.3001    0.0000 C   0  0  0  0  0  0  0  0  0  0  0  0
   -0.8323    1.1251    0.0000 C   0  0  0  0  0  0  0  0  0  0  0  0
   -1.6169    1.3800    0.0000 C   0  0  0  0  0  0  0  0  0  0  0  0
    0.5966    0.3001    0.0000 N   0  0  0  0  0  0  0  0  0  0  0  0
   -0.1178   -0.1124    0.0000 S   0  0  0  0  0  0  0  0  0  0  0  0
   -0.5051   -0.8409    0.0000 O   0  0  0  0  0  0  0  0  0  0  0  0
    0.2695   -0.8409    0.0000 O   0  0  0  0  0  0  0  0  0  0  0  0
    1.3111   -0.1124    0.0000 C   0  0  0  0  0  0  0  0  0  0  0  0
    2.0256    0.3001    0.0000 C   0  0  0  0  0  0  0  0  0  0  0  0
    2.0256   -2.1749    0.0000 O   0  0  0  0  0  0  0  0  0  0  0  0
  1 10  1  0  0  0  0
  1 13  1  0  0  0  0
  1 16  2  0  0  0  0
  3  2  1  0  0  0  0
  2 17  1  0  0  0  0
  3 15  1  0  0  0  0
  4  5  2  0  0  0  0
 22  4  1  0  0  0  0
  5  6  1  0  0  0  0
  6  7  2  0  0  0  0
  6 23  1  0  0  0  0
 21  7  1  0  0  0  0
  8 23  1  0  0  0  0
  9 10  1  0  0  0  0
 11 10  2  0  0  0  0
 12 10  2  0  0  0  0
 14 13  1  0  0  0  0
 15 14  2  0  0  0  0
 14 18  1  0  0  0  0
 16 15  1  0  0  0  0
 17 18  1  0  0  0  0
 21 17  1  0  0  0  0
 19 18  2  0  0  0  0
 20 18  2  0  0  0  0
 21 22  2  0  0  0  0
M  END