
  SciTegic05071317012D

 13 12  0  0  0  0            999 V2000
   13.2360  -11.8079    0.0000 C   0  0
   12.5555  -10.5825    0.0000 C   0  0
   14.6479  -14.2588    0.0000 C   0  0
   15.3626  -13.8534    0.0000 O   0  0
   13.9409  -13.0336    0.0000 C   0  0
   11.8548  -10.1551    0.0000 O   0  0
   13.2713  -10.1913    0.0000 C   0  0
   13.2340  -12.6224    0.0000 C   0  0
   13.2940   -9.3749    0.0000 Cl  0  0
   13.2340  -14.2588    0.0000 N   0  0
   14.6516  -15.0787    0.0000 O   0  0
   12.5329  -11.3988    0.0000 N   0  0
   13.9409  -13.8518    0.0000 C   0  0  2  0  0  0
  2  6  2  0
  7  9  1  0
  3 11  1  0
  8  1  1  0
  1 12  1  0
 13  3  1  0
 13  5  1  1
 10 13  1  0
  3  4  2  0
  5  8  1  0
 12  2  1  0
  2  7  1  0
M  END