
          11280715442D 1   1.00000     0.00000     0

 35 35  0     1  0            999 V2000
    0.9542   -0.1667    0.0000 C   0  0  0  0  0  0           0  0  0
    1.6667    0.2500    0.0000 N   0  0  3  0  0  0           0  0  0
   -1.1875    0.2458    0.0000 C   0  0  0  0  0  0           0  0  0
   -0.4750   -0.1750    0.0000 N   0  0  0  0  0  0           0  0  0
    0.2375    0.2458    0.0000 C   0  0  1  0  0  0           0  0  0
    2.3792   -0.1542    0.0000 C   0  0  2  0  0  0           0  0  0
   -2.6208    0.2333    0.0000 C   0  0  3  0  0  0           0  0  0
   -1.9083   -0.1750    0.0000 C   0  0  2  0  0  0           0  0  0
    3.1000    0.2500    0.0000 C   0  0  0  0  0  0           0  0  0
    4.5250    0.2583    0.0000 C   0  0  0  0  0  0           0  0  0
    0.2375    1.0708    0.0000 C   0  0  3  0  0  0           0  0  0
    3.8125   -0.1542    0.0000 C   0  0  2  0  0  0           0  0  0
    0.9542   -0.9917    0.0000 O   0  0  0  0  0  0           0  0  0
   -1.1958    1.0625    0.0000 O   0  0  0  0  0  0           0  0  0
   -3.3375   -0.1750    0.0000 C   0  0  0  0  0  0           0  0  0
    4.5250    1.0833    0.0000 O   0  0  0  0  0  0           0  0  0
   -1.9083   -1.0000    0.0000 N   0  0  0  0  0  0           0  0  0
    2.3792   -0.9875    0.0000 C   0  0  3  0  0  0           0  0  0
    5.2375   -0.1500    0.0000 O   0  0  0  0  0  0           0  0  0
    1.6625    1.0833    0.0000 C   0  0  0  0  0  0           0  0  0
   -3.0375    0.9500    0.0000 C   0  0  0  0  0  0           0  0  0
   -2.2125    0.9500    0.0000 C   0  0  0  0  0  0           0  0  0
    0.0167    1.8625    0.0000 C   0  0  0  0  0  0           0  0  0
   -0.4833    1.4833    0.0000 C   0  0  0  0  0  0           0  0  0
    0.9500    1.4833    0.0000 C   0  0  0  0  0  0           0  0  0
    4.3917   -0.7375    0.0000 C   0  0  0  0  0  0           0  0  0
   -4.0500    0.2500    0.0000 C   0  0  0  0  0  0           0  0  0
   -3.3250   -1.0042    0.0000 C   0  0  0  0  0  0           0  0  0
   -2.6125   -1.4167    0.0000 C   0  0  0  0  0  0           0  0  0
    3.1000   -1.4000    0.0000 C   0  0  0  0  0  0           0  0  0
    1.6750   -1.4000    0.0000 C   0  0  0  0  0  0           0  0  0
   -4.0375   -1.4167    0.0000 C   0  0  0  0  0  0           0  0  0
   -4.7708   -0.1542    0.0000 C   0  0  0  0  0  0           0  0  0
   -4.7833   -0.9875    0.0000 C   0  0  0  0  0  0           0  0  0
    3.5917   -0.9500    0.0000 H   0  0  0  0  0  0           0  0  0
  2  1  1  0     0  0
  3  4  1  0     0  0
  4  5  1  0     0  0
  5  1  1  0     0  0
  6  2  1  0     0  0
  7  8  1  0     0  0
  8  3  1  0     0  0
  9  6  1  0     0  0
 10 12  1  0     0  0
  5 11  1  1     0  0
 12  9  1  0     0  0
 13  1  2  0     0  0
 14  3  2  0     0  0
 15  7  1  0     0  0
 16 10  2  0     0  0
  8 17  1  1     0  0
  6 18  1  6     0  0
 19 10  1  0     0  0
 20  2  1  0     0  0
 21  7  1  0     0  0
 22  7  1  0     0  0
 23 11  1  0     0  0
 24 11  1  0     0  0
 25 11  1  0     0  0
 12 26  1  6     0  0
 27 15  2  0     0  0
 28 15  1  0     0  0
 29 17  1  0     0  0
 30 18  1  0     0  0
 31 18  1  0     0  0
 32 28  2  0     0  0
 33 27  1  0     0  0
 34 32  1  0     0  0
 12 35  1  1     0  0
 33 34  2  0     0  0
M  END