
  SciTegic10311217562D

141143  0  0  0  0            999 V2000
   -0.2695   -4.4122    0.0000 C   0  0  2  0  0  0
    0.4456   -3.1715    0.0000 O   0  0
    0.4456   -3.9965    0.0000 C   0  0
   -0.2695   -5.2371    0.0000 C   0  0  1  0  0  0
    0.4456   -5.6506    0.0000 C   0  0
   -0.9784   -5.6506    0.0000 C   0  0
   -0.9784   -6.4755    0.0000 C   0  0
    1.8759   -3.9965    0.0000 C   0  0  2  0  0  0
    2.5974   -5.2371    0.0000 O   0  0
    2.5974   -4.4122    0.0000 C   0  0
    1.8759   -3.1715    0.0000 C   0  0
    2.5934   -1.9322    0.0000 C   0  0
    2.5974   -2.7580    0.0000 C   0  0
    3.3056   -3.1686    0.0000 C   0  0
    4.0178   -2.7620    0.0000 C   0  0
    4.0176   -1.9320    0.0000 C   0  0
    3.3056   -1.5194    0.0000 C   0  0
    5.4517   -7.7161    0.0000 C   0  0
    6.1732   -8.1297    0.0000 N   0  0
    4.0277   -4.4122    0.0000 C   0  0  2  0  0  0
    4.7366   -3.1715    0.0000 O   0  0
    4.7366   -3.9965    0.0000 C   0  0
    4.0277   -5.2371    0.0000 C   0  0
    4.7366   -5.6506    0.0000 C   0  0
    4.7366   -6.4755    0.0000 C   0  0
    6.1732   -3.9965    0.0000 C   0  0  2  0  0  0
    6.8883   -5.2371    0.0000 O   0  0
    6.8883   -4.4122    0.0000 C   0  0
    6.1732   -3.1715    0.0000 C   0  0
    6.8883   -2.7580    0.0000 C   0  0
    6.8883   -1.9330    0.0000 C   0  0
    7.6035   -3.1715    0.0000 C   0  0
    8.3208   -4.4122    0.0000 C   0  0  2  0  0  0
    9.0360   -3.1715    0.0000 O   0  0
    9.0360   -3.9965    0.0000 C   0  0
    8.3208   -5.2371    0.0000 C   0  0
    9.0360   -5.6506    0.0000 C   0  0
    9.0360   -6.4755    0.0000 C   0  0
    9.7511   -6.8912    0.0000 O   0  0
   10.4642   -3.9965    0.0000 C   0  0  2  0  0  0
   11.1815   -5.2371    0.0000 O   0  0
   11.1815   -4.4122    0.0000 C   0  0
   10.4642   -3.1715    0.0000 C   0  0
   11.1815   -2.7580    0.0000 C   0  0
   11.1815   -1.9330    0.0000 C   0  0
   11.8966   -3.1715    0.0000 C   0  0
   12.6118   -4.4122    0.0000 C   0  0  2  0  0  0
   13.3269   -3.1715    0.0000 O   0  0
   13.3269   -3.9965    0.0000 C   0  0
   12.6118   -5.2371    0.0000 C   0  0
   13.3269   -5.6506    0.0000 C   0  0
   13.3269   -6.4755    0.0000 C   0  0
   14.0484   -5.2371    0.0000 C   0  0
   14.7635   -3.9965    0.0000 C   0  0  2  0  0  0
   15.4787   -5.2371    0.0000 O   0  0
   15.4787   -4.4122    0.0000 C   0  0
   14.7635   -3.1715    0.0000 C   0  0
   15.4787   -2.7580    0.0000 C   0  0
   15.4787   -1.9330    0.0000 C   0  0
   16.1876   -1.5174    0.0000 C   0  0
   16.9090   -4.4122    0.0000 C   0  0  1  0  0  0
   17.6242   -3.1715    0.0000 O   0  0
   16.9090   -5.2371    0.0000 C   0  0
   17.6242   -3.9965    0.0000 C   0  0
   19.0546   -3.9965    0.0000 C   0  0  2  0  0  0
   19.7697   -5.2371    0.0000 O   0  0
   19.7697   -4.4122    0.0000 C   0  0
   19.0546   -3.1715    0.0000 C   0  0
   19.7697   -2.7580    0.0000 C   0  0
   19.7697   -1.9330    0.0000 C   0  0
   20.4870   -1.5174    0.0000 O   0  0
   21.2021   -4.4122    0.0000 C   0  0  2  0  0  0
   21.9152   -3.1715    0.0000 O   0  0
   21.9152   -3.9965    0.0000 C   0  0
   21.2021   -5.2371    0.0000 C   0  0
   21.9152   -5.6506    0.0000 C   0  0
   21.9152   -6.4755    0.0000 C   0  0
   22.6304   -6.8912    0.0000 O   0  0
   23.3476   -3.9965    0.0000 C   0  0  1  0  0  0
   24.0628   -5.2371    0.0000 O   0  0
   23.3476   -3.1715    0.0000 C   0  0
   24.0628   -4.4122    0.0000 C   0  0
   25.4931   -4.4122    0.0000 C   0  0  2  0  0  0
   26.2145   -3.1715    0.0000 O   0  0
   26.2145   -3.9965    0.0000 C   0  0
   25.4931   -5.2371    0.0000 C   0  0
   26.2145   -5.6506    0.0000 C   0  0
   26.2145   -6.4755    0.0000 O   0  0
   -8.4368   -4.3357    0.0000 C   0  0
   -7.8621   -3.9995    0.0000 C   0  0
   -7.2810   -4.3357    0.0000 C   0  0
   -8.4347   -4.9957    0.0000 C   0  0
   -6.7104   -3.9995    0.0000 C   0  0
   -6.7104   -3.3416    0.0000 O   0  0
   -5.5600   -3.9995    0.0000 C   0  0  2  0  0  0
   -5.5600   -3.3416    0.0000 C   0  0
   -4.9827   -3.0053    0.0000 C   0  0
   -4.4085   -3.3483    0.0000 C   0  0
   -3.8319   -3.0131    0.0000 C   0  0
   -3.8312   -2.3476    0.0000 C   0  0
   -4.4099   -2.0178    0.0000 C   0  0
   -4.9800   -2.3503    0.0000 C   0  0
   -3.8364   -4.3357    0.0000 C   0  0  2  0  0  0
   -3.2591   -3.9995    0.0000 C   0  0
   -2.6901   -4.3357    0.0000 N   0  0
   -3.2591   -3.3416    0.0000 O   0  0
   -2.6968   -4.9957    0.0000 C   0  0
   -3.8351   -5.4406    0.0000 C   0  0
   -3.3819   -5.7434    0.0000 C   0  0
   -3.4212   -6.2825    0.0000 C   0  0
   -2.1224   -3.9974    0.0000 C   0  0
   -1.5502   -4.3274    0.0000 C   0  0
   -1.5497   -4.9862    0.0000 O   0  0
   -0.9784   -3.9965    0.0000 N   0  0
    1.1608   -4.4122    0.0000 N   0  0
    4.7307   -1.5184    0.0000 O   0  0
    5.4517   -6.8912    0.0000 N   0  0
    4.7366   -8.1297    0.0000 N   0  0
    3.3125   -3.9965    0.0000 N   0  0
    5.4517   -4.4122    0.0000 N   0  0
    7.6035   -3.9965    0.0000 N   0  0
    8.3208   -6.8912    0.0000 O   0  0
    9.7511   -4.4122    0.0000 N   0  0
   11.8966   -3.9965    0.0000 N   0  0
   14.0484   -4.4122    0.0000 N   0  0
   16.1876   -0.6924    0.0000 N   0  0
   16.1876   -3.9965    0.0000 N   0  0
   18.3393   -4.4122    0.0000 N   0  0
   19.0546   -1.5174    0.0000 O   0  0
   20.4870   -3.9965    0.0000 N   0  0
   21.2021   -6.8912    0.0000 O   0  0
   22.6304   -4.4122    0.0000 N   0  0
   24.7779   -3.9965    0.0000 N   0  0
   26.9297   -5.2371    0.0000 N   0  0
   26.9297   -4.4122    0.0000 N   0  0
   -6.1356   -4.3357    0.0000 N   0  0
   -4.4075   -3.9995    0.0000 N   0  0
   -4.9827   -4.3357    0.0000 C   0  0
   -4.9827   -5.1607    0.0000 O   0  0
   -3.9077   -6.5180    0.0000 O   0  0
   -2.9739   -6.5861    0.0000 O   0  0
 12 13  2  0
 13 14  1  0
 14 15  2  0
 15 16  1  0
 16 17  2  0
 17 12  1  0
 16116  1  0
117 18  1  0
 18118  1  0
 18 19  2  0
119 20  1  0
 20 22  1  0
 22 21  2  0
 20 23  1  6
 23 24  1  0
 24 25  1  0
 25117  1  0
120 26  1  0
 26 28  1  0
 28 27  2  0
 26 29  1  1
 29 30  1  0
 30 31  1  0
 30 32  1  0
121 33  1  0
 33 35  1  0
 35 34  2  0
 33 36  1  6
 36 37  1  0
 37 38  1  0
 38 39  2  0
 38122  1  0
123 40  1  0
 40 42  1  0
 42 41  2  0
 40 43  1  1
 43 44  1  0
 44 45  1  0
 44 46  1  0
124 47  1  0
 47 49  1  0
 49 48  2  0
 47 50  1  6
 50 51  1  0
 51 52  1  0
 51 53  1  0
125 54  1  0
 54 56  1  0
 56 55  2  0
 54 57  1  1
 57 58  1  0
 58 59  1  0
 59 60  1  0
 60126  1  0
127 61  1  0
 61 64  1  0
 64 62  2  0
 61 63  1  6
128 65  1  0
 65 67  1  0
 67 66  2  0
 65 68  1  1
 68 69  1  0
 69 70  1  0
 70 71  2  0
 70129  1  0
130 72  1  0
 72 74  1  0
 74 73  2  0
 72 75  1  6
 75 76  1  0
 76 77  1  0
 77 78  2  0
 77131  1  0
132 79  1  0
 79 82  1  0
 82 80  2  0
 79 81  1  1
133 83  1  0
 83 85  1  0
 85 84  2  0
 83 86  1  6
 86 87  1  0
 87 88  2  0
 87134  1  0
 89 90  1  0
 90 91  1  0
 89 92  2  0
 91 93  1  0
 93136  1  0
 93 94  2  0
136 95  1  0
 95138  1  0
 95 96  1  1
 96 97  1  0
 97 98  2  0
 98 99  1  0
 99100  2  0
100101  1  0
101102  2  0
102 97  1  0
138137  1  0
137103  1  0
103104  1  0
104105  1  0
104106  2  0
105107  1  0
 92107  1  0
103108  1  6
108109  1  0
109110  1  0
105111  1  0
111112  1  0
112114  1  0
112113  2  0
  3115  1  0
 10119  1  0
 22120  1  0
 28121  1  0
 35123  1  0
 42124  1  0
 49125  1  0
 56127  1  0
 64128  1  0
 67130  1  0
 74132  1  0
 82133  1  0
 85135  1  0
114  1  1  0
  1  3  1  6
  3  2  2  0
  1  4  1  0
  4  5  1  1
  4  6  1  0
  6  7  1  0
115  8  1  0
  8 10  1  0
 10  9  2  0
  8 11  1  1
138139  2  0
110140  2  0
 11 13  1  0
110141  1  0
M  END