
  SciTegic12171312552D

 37 40  0  0  0  0            999 V2000
    0.9231  -15.2377    0.0000 C   0  0
    0.9219  -16.0572    0.0000 C   0  0
    1.6300  -16.4662    0.0000 C   0  0
    2.3396  -16.0568    0.0000 C   0  0
    2.3368  -15.2341    0.0000 C   0  0
    1.6282  -14.8288    0.0000 C   0  0
    3.0430  -14.8228    0.0000 C   0  0
    3.7522  -15.2288    0.0000 N   0  0
    3.0399  -14.0056    0.0000 O   0  0
    3.7553  -16.0459    0.0000 C   0  0
    4.4584  -14.8175    0.0000 C   0  0  2  0  0  0
    5.1676  -15.2234    0.0000 C   0  0
    5.8738  -14.8122    0.0000 C   0  0
    6.5830  -15.2181    0.0000 N   0  0
    7.2892  -14.8068    0.0000 C   0  0
    7.9984  -15.2128    0.0000 C   0  0
    7.2861  -13.9896    0.0000 O   0  0
    4.4553  -14.0003    0.0000 C   0  0
    5.1615  -13.5891    0.0000 C   0  0
    5.8671  -13.9989    0.0000 C   0  0
    6.5728  -13.5883    0.0000 C   0  0
    6.5702  -12.7703    0.0000 C   0  0
    5.8560  -12.3645    0.0000 C   0  0
    5.1532  -12.7774    0.0000 C   0  0
    8.0907  -16.0203    0.0000 C   0  0
    8.8907  -16.1872    0.0000 C   0  0
    9.2967  -15.4779    0.0000 N   0  0
    8.7475  -14.8727    0.0000 N   0  0
    8.9129  -14.0725    0.0000 C   0  0
    1.6298  -17.2834    0.0000 C   0  0
    1.6199  -14.0107    0.0000 N   0  0
    2.2796  -13.5284    0.0000 N   0  0
    2.0247  -12.7520    0.0000 C   0  0
    1.2075  -12.7544    0.0000 C   0  0
    0.9574  -13.5324    0.0000 N   0  0
    9.6887  -13.8156    0.0000 C   0  0
    9.2259  -16.9324    0.0000 C   0  0
  1  2  2  0
  2  3  1  0
  3  4  2  0
  4  5  1  0
  5  6  2  0
  6  1  1  0
  5  7  1  0
  7  8  1  0
  7  9  2  0
  8 10  1  0
  8 11  1  0
 11 12  1  0
 12 13  1  0
 13 14  1  0
 14 15  1  0
 15 16  1  0
 15 17  2  0
 11 18  1  1
 18 19  1  0
 19 20  2  0
 20 21  1  0
 21 22  2  0
 22 23  1  0
 23 24  2  0
 24 19  1  0
 16 25  2  0
 25 26  1  0
 26 27  2  0
 27 28  1  0
 28 16  1  0
 28 29  1  0
  3 30  1  0
 31 32  1  0
 32 33  2  0
 33 34  1  0
 34 35  2  0
 35 31  1  0
  6 31  1  0
 29 36  1  0
 26 37  1  0
M  END