
  CDK    9/16/09,9:47

 36 38  0  0  0  0  0  0  0  0999 V2000
   13.8703   -0.3900    0.0000 N   0  0  0  0  0  0  0  0  0  0  0  0
   14.6820   -0.5467    0.0000 C   0  0  0  0  0  0  0  0  0  0  0  0
   15.0851    0.1772    0.0000 C   0  0  0  0  0  0  0  0  0  0  0  0
   14.5207    0.7786    0.0000 N   0  0  0  0  0  0  0  0  0  0  0  0
   13.7739    0.4238    0.0000 C   0  0  0  0  0  0  0  0  0  0  0  0
   15.0817   -1.2670    0.0000 C   0  0  0  0  0  0  0  0  0  0  0  0
   14.6530   -1.9730    0.0000 C   0  0  0  0  0  0  0  0  0  0  0  0
   15.0468   -2.6984    0.0000 C   0  0  0  0  0  0  0  0  0  0  0  0
   15.8756   -2.7125    0.0000 C   0  0  0  0  0  0  0  0  0  0  0  0
   16.2995   -2.0005    0.0000 C   0  0  0  0  0  0  0  0  0  0  0  0
   15.9049   -1.2809    0.0000 C   0  0  0  0  0  0  0  0  0  0  0  0
   16.2707   -3.4355    0.0000 F   0  0  0  0  0  0  0  0  0  0  0  0
   14.5168    1.6082    0.0000 C   0  0  0  0  0  0  0  0  0  0  0  0
   15.2275    2.0242    0.0000 C   0  0  0  0  0  0  0  0  0  0  0  0
   13.7977    2.0134    0.0000 C   0  0  0  0  0  0  0  0  0  0  0  0
   15.7988    0.5911    0.0000 C   0  0  0  0  0  0  0  0  0  0  0  0
   16.5121    0.1766    0.0000 C   0  0  0  0  0  0  0  0  0  0  0  0
   17.2328    0.5910    0.0000 C   0  0  0  0  0  0  0  0  0  0  0  0
   17.9452    0.1797    0.0000 C   0  0  0  0  0  0  0  0  0  0  0  0
   18.6592    0.5930    0.0000 C   0  0  0  0  0  0  0  0  0  0  0  0
   19.3705    0.1822    0.0000 C   0  0  0  0  0  0  0  0  0  0  0  0
   20.0900    0.5921    0.0000 C   0  0  0  0  0  0  0  0  0  0  0  0
   20.8000    0.1833    0.0000 O   0  0  0  0  0  0  0  0  0  0  0  0
   20.0889    1.4187    0.0000 O   0  0  0  0  0  0  0  0  0  0  0  0
   17.2274    1.4126    0.0000 O   0  0  0  0  0  0  0  0  0  0  0  0
   18.6538    1.4193    0.0000 O   0  0  0  0  0  0  0  0  0  0  0  0
   13.0515    0.8209    0.0000 C   0  0  0  0  0  0  0  0  0  0  0  0
   12.3235    0.4440    0.0000 N   0  0  0  0  0  0  0  0  0  0  0  0
   13.0342    1.6408    0.0000 O   0  0  0  0  0  0  0  0  0  0  0  0
   11.6325    0.8872    0.0000 C   0  0  0  0  0  0  0  0  0  0  0  0
   10.8997    0.5149    0.0000 C   0  0  0  0  0  0  0  0  0  0  0  0
   10.2134    0.9624    0.0000 C   0  0  0  0  0  0  0  0  0  0  0  0
    9.4800    0.5907    0.0000 C   0  0  0  0  0  0  0  0  0  0  0  0
    9.4384   -0.2332    0.0000 C   0  0  0  0  0  0  0  0  0  0  0  0
   10.1317   -0.6815    0.0000 C   0  0  0  0  0  0  0  0  0  0  0  0
   10.8641   -0.3012    0.0000 C   0  0  0  0  0  0  0  0  0  0  0  0
  1  2  1  0  0  0  0 
  2  3  2  0  0  0  0 
  3  4  1  0  0  0  0 
  4  5  1  0  0  0  0 
  5  1  2  0  0  0  0 
  2  6  1  0  0  0  0 
  6  7  2  0  0  0  0 
  7  8  1  0  0  0  0 
  8  9  2  0  0  0  0 
  9 10  1  0  0  0  0 
 10 11  2  0  0  0  0 
 11  6  1  0  0  0  0 
  9 12  1  0  0  0  0 
  4 13  1  0  0  0  0 
 13 14  1  0  0  0  0 
 13 15  1  0  0  0  0 
  3 16  1  0  0  0  0 
 16 17  1  0  0  0  0 
 17 18  1  0  0  0  0 
 18 19  1  0  0  0  0 
 19 20  1  0  0  0  0 
 20 21  1  0  0  0  0 
 21 22  1  0  0  0  0 
 22 23  1  0  0  0  0 
 22 24  2  0  0  0  0 
 18 25  1  1  0  0  0 
 20 26  1  1  0  0  0 
  5 27  1  0  0  0  0 
 27 28  1  0  0  0  0 
 27 29  2  0  0  0  0 
 28 30  1  0  0  0  0 
 30 31  1  0  0  0  0 
 31 32  2  0  0  0  0 
 32 33  1  0  0  0  0 
 33 34  2  0  0  0  0 
 34 35  1  0  0  0  0 
 35 36  2  0  0  0  0 
 36 31  1  0  0  0  0 
M  END