
          11280714542D 1   1.00000     0.00000     0

 19 21  0     1  0            999 V2000
    0.7667   -4.3750    0.0000 N   0  0  3  0  0  0           0  0  0
    1.5000   -3.9625    0.0000 C   0  0  2  0  0  0           0  0  0
    0.0500   -3.9500    0.0000 C   0  0  0  0  0  0           0  0  0
    2.2667   -4.2542    0.0000 C   0  0  0  0  0  0           0  0  0
    1.5042   -3.1167    0.0000 C   0  0  1  0  0  0           0  0  0
    0.0542   -3.1042    0.0000 C   0  0  0  0  0  0           0  0  0
    2.9167   -3.7417    0.0000 N   0  0  0  0  0  0           0  0  0
    0.7792   -2.6917    0.0000 C   0  0  0  0  0  0           0  0  0
    2.5542   -5.0250    0.0000 N   0  0  0  0  0  0           0  0  0
    0.7667   -5.2000    0.0000 C   0  0  0  0  0  0           0  0  0
    2.2667   -2.8000    0.0000 C   0  0  0  0  0  0           0  0  0
   -0.6708   -4.3625    0.0000 C   0  0  0  0  0  0           0  0  0
    3.6042   -4.1917    0.0000 C   0  0  0  0  0  0           0  0  0
   -0.6708   -2.7042    0.0000 C   0  0  0  0  0  0           0  0  0
    3.3792   -4.9917    0.0000 C   0  0  0  0  0  0           0  0  0
   -1.3833   -3.9500    0.0000 C   0  0  0  0  0  0           0  0  0
   -1.3833   -3.1250    0.0000 C   0  0  0  0  0  0           0  0  0
    1.4000   -2.2917    0.0000 H   0  0  0  0  0  0           0  0  0
    1.4917   -4.8917    0.0000 H   0  0  0  0  0  0           0  0  0
  2  1  1  0     0  0
  3  1  1  0     0  0
  2  4  1  1     0  0
  5  2  1  0     0  0
  6  3  1  0     0  0
  7  4  2  0     0  0
  8  6  1  0     0  0
  9  4  1  0     0  0
 10  1  1  0     0  0
  5 11  1  1     0  0
 12  3  2  0     0  0
 13  7  1  0     0  0
 14  6  2  0     0  0
 15  9  1  0     0  0
 16 12  1  0     0  0
 17 16  2  0     0  0
  5 18  1  6     0  0
  2 19  1  6     0  0
  5  8  1  0     0  0
 14 17  1  0     0  0
 15 13  1  0     0  0
M  END