
  SciTegic12231509382D

 16 17  0  0  0  0            999 V2000
    0.6309   -1.8368    0.0000 C   0  0
    0.8983   -1.2334    0.0000 C   0  0
    1.5545   -1.1635    0.0000 O   0  0
    0.4125   -0.5678    0.0000 N   0  0
    0.6674    0.2169    0.0000 C   0  0
    0.0000    0.7018    0.0000 C   0  0
   -0.6674    0.2169    0.0000 C   0  0
   -0.4125   -0.5678    0.0000 C   0  0  2  0  0  0
   -0.8968   -1.2344    0.0000 C   0  0
   -1.3820   -1.9022    0.0000 C   0  0
   -1.8673   -2.5701    0.0000 C   0  0
   -2.6882   -2.4843    0.0000 N   0  0
   -3.2292   -3.0979    0.0000 C   0  0
   -3.9824   -2.7612    0.0000 C   0  0
   -3.8950   -1.9408    0.0000 C   0  0
   -3.0878   -1.7705    0.0000 C   0  0
  1  2  1  0
  2  3  2  0
  2  4  1  0
  4  5  1  0
  5  6  1  0
  6  7  1  0
  7  8  1  0
  8  4  1  0
  8  9  1  1
  9 10  3  0
 10 11  1  0
 11 12  1  0
 12 13  1  0
 13 14  1  0
 14 15  1  0
 15 16  1  0
 16 12  1  0
M  END