
          11280716012D 1   1.00000     0.00000     0

113120  0     1  0            999 V2000
  -24.6708   19.5875    0.0000 N   0  0  3  0  0  0           0  0  0
  -19.4667   10.5167    0.0000 N   0  0  0  0  0  0           0  0  0
  -23.3708   18.8333    0.0000 C   0  0  0  0  0  0           0  0  0
  -19.4667   12.0167    0.0000 C   0  0  0  0  0  0           0  0  0
  -26.3292   17.5083    0.0000 C   0  0  0  0  0  0           0  0  0
  -18.1708   12.7667    0.0000 N   0  0  0  0  0  0           0  0  0
  -18.1708    9.7667    0.0000 C   0  0  0  0  0  0           0  0  0
   -7.7708   18.7583    0.0000 C   0  0  0  0  0  0           0  0  0
  -26.0250   18.9750    0.0000 C   0  0  2  0  0  0           0  0  0
  -16.8708   12.0167    0.0000 C   0  0  1  0  0  0           0  0  0
   -3.8750   19.4917    0.0000 C   0  0  0  0  0  0           0  0  0
  -11.6708   19.5292    0.0000 C   0  0  0  0  0  0           0  0  0
  -15.5708   18.7958    0.0000 C   0  0  0  0  0  0           0  0  0
    0.0250   18.7208    0.0000 C   0  0  0  0  0  0           0  0  0
  -19.4708   19.5625    0.0000 C   0  0  0  0  0  0           0  0  0
    3.9250   19.4542    0.0000 C   0  0  0  0  0  0           0  0  0
  -15.5708   12.7667    0.0000 C   0  0  0  0  0  0           0  0  0
   -5.1750   18.7458    0.0000 N   0  0  0  0  0  0           0  0  0
   -6.4708   19.5042    0.0000 C   0  0  1  0  0  0           0  0  0
   -9.0708   19.5167    0.0000 N   0  0  0  0  0  0           0  0  0
  -16.8708   19.5500    0.0000 N   0  0  0  0  0  0           0  0  0
    2.6250   18.7083    0.0000 N   0  0  0  0  0  0           0  0  0
  -12.9708   18.7833    0.0000 N   0  0  0  0  0  0           0  0  0
   -1.2750   19.4792    0.0000 N   0  0  0  0  0  0           0  0  0
  -20.7708   18.8208    0.0000 N   0  0  0  0  0  0           0  0  0
  -16.8708   10.5167    0.0000 C   0  0  0  0  0  0           0  0  0
  -25.2125   16.5083    0.0000 N   0  0  0  0  0  0           0  0  0
  -14.2708   19.5417    0.0000 C   0  0  2  0  0  0           0  0  0
  -10.3708   18.7708    0.0000 C   0  0  1  0  0  0           0  0  0
    1.3250   19.4667    0.0000 C   0  0  2  0  0  0           0  0  0
   -2.5750   18.7333    0.0000 C   0  0  2  0  0  0           0  0  0
  -18.1708   18.8083    0.0000 C   0  0  1  0  0  0           0  0  0
  -22.0708   19.5750    0.0000 C   0  0  1  0  0  0           0  0  0
    5.2250   18.6958    0.0000 C   0  0  2  0  0  0           0  0  0
  -24.4000   14.0375    0.0000 C   0  0  0  0  0  0           0  0  0
    5.2125   17.1958    0.0000 N   0  0  0  0  0  0           0  0  0
  -15.5750   14.2708    0.0000 N   0  0  0  0  0  0           0  0  0
    3.9083   16.4542    0.0000 C   0  0  0  0  0  0           0  0  0
  -25.5208   15.0417    0.0000 C   0  0  1  0  0  0           0  0  0
  -23.3792   17.6333    0.0000 O   0  0  0  0  0  0           0  0  0
  -20.5083   12.6167    0.0000 O   0  0  0  0  0  0           0  0  0
  -27.4708   17.1375    0.0000 O   0  0  0  0  0  0           0  0  0
    6.5250   19.4417    0.0000 C   0  0  0  0  0  0           0  0  0
   -7.7792   17.5583    0.0000 O   0  0  0  0  0  0           0  0  0
  -19.4625   20.7625    0.0000 O   0  0  0  0  0  0           0  0  0
    0.0167   17.5208    0.0000 O   0  0  0  0  0  0           0  0  0
  -15.5792   17.5958    0.0000 O   0  0  0  0  0  0           0  0  0
  -11.6625   20.7292    0.0000 O   0  0  0  0  0  0           0  0  0
   -3.8667   20.6917    0.0000 O   0  0  0  0  0  0           0  0  0
    3.9333   20.6542    0.0000 O   0  0  0  0  0  0           0  0  0
  -14.5333   12.1708    0.0000 O   0  0  0  0  0  0           0  0  0
    9.1125   16.4167    0.0000 C   0  0  0  0  0  0           0  0  0
  -18.1708    8.5667    0.0000 O   0  0  0  0  0  0           0  0  0
    1.3375   20.9667    0.0000 C   0  0  0  0  0  0           0  0  0
  -10.3750   17.2708    0.0000 C   0  0  0  0  0  0           0  0  0
    7.8208   18.6875    0.0000 C   0  0  0  0  0  0           0  0  0
   -2.5792   17.2333    0.0000 C   0  0  0  0  0  0           0  0  0
  -14.2583   21.0417    0.0000 C   0  0  0  0  0  0           0  0  0
    7.8208   17.1708    0.0000 C   0  0  0  0  0  0           0  0  0
  -24.6458   12.8625    0.0000 O   0  0  0  0  0  0           0  0  0
  -18.1750   17.3083    0.0000 C   0  0  0  0  0  0           0  0  0
   -6.4750   16.4958    0.0000 N   0  0  0  0  0  0           0  0  0
  -18.1500   21.8125    0.0000 N   0  0  0  0  0  0           0  0  0
    3.9000   15.2542    0.0000 O   0  0  0  0  0  0           0  0  0
   10.4167   17.1542    0.0000 C   0  0  0  0  0  0           0  0  0
  -14.2750   15.0208    0.0000 C   0  0  0  0  0  0           0  0  0
   10.4250   18.6542    0.0000 C   0  0  0  0  0  0           0  0  0
  -23.2625   14.4125    0.0000 N   0  0  0  0  0  0           0  0  0
  -24.7958   21.0708    0.0000 C   0  0  0  0  0  0           0  0  0
    0.0417   21.7250    0.0000 C   0  0  0  0  0  0           0  0  0
  -11.6792   16.5208    0.0000 C   0  0  0  0  0  0           0  0  0
    9.1250   19.4250    0.0000 C   0  0  0  0  0  0           0  0  0
   -2.5458   23.2417    0.0000 C   0  0  0  0  0  0           0  0  0
  -15.5542   21.8000    0.0000 C   0  0  0  0  0  0           0  0  0
   -3.8833   16.4875    0.0000 C   0  0  0  0  0  0           0  0  0
  -19.4292   25.5625    0.0000 N   0  0  0  0  0  0           0  0  0
   -3.5833   23.8458    0.0000 Cl  0  0  0  0  0  0           0  0  0
   -6.4583   21.0042    0.0000 C   0  0  0  0  0  0           0  0  0
  -12.9750   14.2708    0.0000 C   0  0  0  0  0  0           0  0  0
  -14.2750   16.5208    0.0000 C   0  0  0  0  0  0           0  0  0
   -1.2625   20.9833    0.0000 C   0  0  0  0  0  0           0  0  0
    0.0500   23.2250    0.0000 C   0  0  0  0  0  0           0  0  0
  -12.9750   17.2708    0.0000 C   0  0  0  0  0  0           0  0  0
  -11.6792   15.0208    0.0000 C   0  0  0  0  0  0           0  0  0
   -1.2458   23.9833    0.0000 C   0  0  0  0  0  0           0  0  0
   -2.5542   21.7417    0.0000 C   0  0  0  0  0  0           0  0  0
  -27.0208   20.0958    0.0000 C   0  0  0  0  0  0           0  0  0
   -5.4208   21.5958    0.0000 O   0  0  0  0  0  0           0  0  0
  -16.8542   21.0583    0.0000 C   0  0  0  0  0  0           0  0  0
   -5.1792   17.2417    0.0000 C   0  0  0  0  0  0           0  0  0
  -26.2625   21.3917    0.0000 C   0  0  0  0  0  0           0  0  0
  -22.0583   21.0792    0.0000 C   0  0  0  0  0  0           0  0  0
  -16.8792   16.5542    0.0000 C   0  0  3  0  0  0           0  0  0
    2.8750   17.0625    0.0000 C   0  0  0  0  0  0           0  0  0
   -6.4833   14.9958    0.0000 C   0  0  0  0  0  0           0  0  0
  -18.1417   23.3125    0.0000 C   0  0  0  0  0  0           0  0  0
  -18.1250   26.3042    0.0000 C   0  0  3  0  0  0           0  0  0
  -26.6583   14.6667    0.0000 C   0  0  0  0  0  0           0  0  0
    9.1042   14.9167    0.0000 C   0  0  0  0  0  0           0  0  0
  -19.4417   24.0625    0.0000 C   0  0  0  0  0  0           0  0  0
   11.7083   16.4000    0.0000 C   0  0  0  0  0  0           0  0  0
   -3.8875   14.9875    0.0000 C   0  0  0  0  0  0           0  0  0
  -15.5458   23.3000    0.0000 C   0  0  0  0  0  0           0  0  0
  -20.7542   21.8208    0.0000 C   0  0  0  0  0  0           0  0  0
  -20.7458   23.3208    0.0000 C   0  0  0  0  0  0           0  0  0
  -16.8833   15.3542    0.0000 C   0  0  0  0  0  0           0  0  0
  -15.8375   17.1500    0.0000 C   0  0  0  0  0  0           0  0  0
  -17.0917   25.7000    0.0000 C   0  0  0  0  0  0           0  0  0
  -18.1167   27.5042    0.0000 C   0  0  0  0  0  0           0  0  0
   -5.1917   14.2417    0.0000 C   0  0  0  0  0  0           0  0  0
  -16.8417   24.0583    0.0000 C   0  0  0  0  0  0           0  0  0
   10.3958   14.1625    0.0000 C   0  0  0  0  0  0           0  0  0
   11.6958   14.9000    0.0000 C   0  0  0  0  0  0           0  0  0
  2  4  1  0     0  0
  3  1  1  0     0  0
  4  6  1  0     0  0
  9  5  1  6     0  0
  6 10  1  0     0  0
  7 26  1  0     0  0
  8 20  1  0     0  0
  9  1  1  0     0  0
 10 17  1  1     0  0
 11 18  1  0     0  0
 12 23  1  0     0  0
 13 21  1  0     0  0
 14 24  1  0     0  0
 15 25  1  0     0  0
 16 22  1  0     0  0
 17 37  1  0     0  0
 18 19  1  0     0  0
 19  8  1  0     0  0
 20 29  1  0     0  0
 21 32  1  0     0  0
 22 30  1  0     0  0
 23 28  1  0     0  0
 24 31  1  0     0  0
 33 25  1  6     0  0
 26 10  1  0     0  0
 27  5  1  0     0  0
 28 13  1  0     0  0
 29 12  1  0     0  0
 30 14  1  0     0  0
 31 11  1  0     0  0
 32 15  1  0     0  0
 33  3  1  0     0  0
 34 16  1  0     0  0
 35 39  1  0     0  0
 36 34  1  0     0  0
 37 66  1  0     0  0
 38 36  1  0     0  0
 39 27  1  0     0  0
 40  3  2  0     0  0
 41  4  2  0     0  0
 42  5  2  0     0  0
 34 43  1  1     0  0
 44  8  2  0     0  0
 45 15  2  0     0  0
 46 14  2  0     0  0
 47 13  2  0     0  0
 48 12  2  0     0  0
 49 11  2  0     0  0
 50 16  2  0     0  0
 51 17  2  0     0  0
 52 59  2  0     0  0
 53  7  2  0     0  0
 30 54  1  1     0  0
 29 55  1  1     0  0
 56 43  1  0     0  0
 31 57  1  6     0  0
 28 58  1  1     0  0
 59 56  1  0     0  0
 60 35  2  0     0  0
 32 61  1  1     0  0
 62 90  2  0     0  0
 63 89  2  0     0  0
 64 38  2  0     0  0
 65 52  1  0     0  0
 66 79  1  0     0  0
 67 72  1  0     0  0
 68 35  1  0     0  0
 69  1  1  0     0  0
 70 54  1  0     0  0
 71 55  1  0     0  0
 72 56  2  0     0  0
 73 86  1  0     0  0
 74 58  1  0     0  0
 75 57  1  0     0  0
 76100  1  0     0  0
 77 73  1  0     0  0
 19 78  1  6     0  0
 79 84  2  0     0  0
 80 83  1  0     0  0
 81 70  1  0     0  0
 82 70  2  0     0  0
 83 71  2  0     0  0
 84 71  1  0     0  0
 85 82  1  0     0  0
 86 81  2  0     0  0
 87  9  1  0     0  0
 88 78  1  0     0  0
 89 74  1  0     0  0
 90 75  1  0     0  0
 91 69  1  0     0  0
 92 33  1  0     0  0
 93 61  1  0     0  0
 94 38  1  0     0  0
 95 62  1  0     0  0
 96 63  1  0     0  0
 97 76  1  0     0  0
 39 98  1  1     0  0
 99 52  1  0     0  0
100105  1  0     0  0
101 65  1  0     0  0
102 75  2  0     0  0
103 74  2  0     0  0
104 92  1  0     0  0
105104  1  0     0  0
106 93  1  0     0  0
107 93  1  0     0  0
108 97  1  0     0  0
109 97  1  0     0  0
110102  1  0     0  0
111103  1  0     0  0
112 99  2  0     0  0
113101  2  0     0  0
 87 91  1  0     0  0
 96111  2  0     0  0
 66 80  2  0     0  0
 95110  2  0     0  0
  2  7  1  0     0  0
 73 85  2  0     0  0
 65 67  2  0     0  0
112113  1  0     0  0
M  END