
  SciTegic09261414532D

 12 13  0  0  0  0            999 V2000
   12.8202   -9.9679    0.0000 C   0  0
   12.0403  -10.2309    0.0000 N   0  0
   12.0521  -11.0521    0.0000 C   0  0
   12.8366  -11.2952    0.0000 S   0  0
   13.3107  -10.6247    0.0000 C   0  0
   14.1291  -10.6099    0.0000 C   0  0
   14.6171  -11.2656    0.0000 N   0  0
   15.3919  -11.0029    0.0000 N   0  0
   15.3799  -10.1846    0.0000 C   0  0
   14.5978   -9.9445    0.0000 C   0  0
   11.3977  -11.5416    0.0000 C   0  0
   13.0632   -9.1877    0.0000 C   0  0
  2  3  2  0
  1  2  1  0
  3  4  1  0
  4  5  1  0
  5  1  2  0
  7  8  1  0
  6  7  2  0
  8  9  1  0
  9 10  2  0
 10  6  1  0
  5  6  1  0
  3 11  1  0
  1 12  1  0
M  END