
          11280715402D 1   1.00000     0.00000     0

 59 63  0     1  0            999 V2000
    1.0250   -3.6042    0.0000 C   0  0  1  0  0  0           0  0  0
    0.3167   -3.2000    0.0000 C   0  0  1  0  0  0           0  0  0
   10.5125   -2.9417    0.0000 C   0  0  0  0  0  0           0  0  0
    1.7375   -2.3750    0.0000 C   0  0  1  0  0  0           0  0  0
   11.9292   -2.9250    0.0000 C   0  0  0  0  0  0           0  0  0
   11.2125   -2.5250    0.0000 C   0  0  0  0  0  0           0  0  0
    9.7917   -2.5375    0.0000 C   0  0  0  0  0  0           0  0  0
    1.7375   -3.2000    0.0000 C   0  0  2  0  0  0           0  0  0
    0.3167   -2.3750    0.0000 C   0  0  2  0  0  0           0  0  0
    1.0250   -1.9542    0.0000 C   0  0  1  0  0  0           0  0  0
   12.6375   -2.5125    0.0000 C   0  0  0  0  0  0           0  0  0
   11.2250   -4.1750    0.0000 C   0  0  0  0  0  0           0  0  0
   11.9375   -3.7542    0.0000 O   0  0  0  0  0  0           0  0  0
    9.7875   -1.7042    0.0000 C   0  0  0  0  0  0           0  0  0
   10.5125   -3.7667    0.0000 C   0  0  0  0  0  0           0  0  0
   -1.2000   -3.8250    0.0000 P   0  0  3  0  0  0           0  0  0
    1.0250   -5.2542    0.0000 P   0  0  3  0  0  0           0  0  0
    3.2500   -1.7417    0.0000 P   0  0  3  0  0  0           0  0  0
   12.6250   -1.6875    0.0000 C   0  0  0  0  0  0           0  0  0
   11.2125   -1.6917    0.0000 C   0  0  0  0  0  0           0  0  0
   13.3375   -1.2667    0.0000 N   0  3  0  0  0  0           0  0  0
    1.0250   -4.4292    0.0000 O   0  0  0  0  0  0           0  0  0
   -0.4000   -3.6125    0.0000 O   0  0  0  0  0  0           0  0  0
    2.4542   -1.9625    0.0000 O   0  0  0  0  0  0           0  0  0
    9.0667   -1.3000    0.0000 C   0  0  0  0  0  0           0  0  0
   10.2250   -1.1875    0.0000 C   0  0  0  0  0  0           0  0  0
   11.2375   -4.9917    0.0000 C   0  0  0  0  0  0           0  0  0
   11.9042   -1.2875    0.0000 C   0  0  0  0  0  0           0  0  0
    7.6417   -1.3125    0.0000 C   0  0  0  0  0  0           0  0  0
    8.3625   -1.7167    0.0000 C   0  0  0  0  0  0           0  0  0
   10.5292   -5.4125    0.0000 C   0  0  0  0  0  0           0  0  0
    9.0792   -2.9500    0.0000 C   0  0  0  0  0  0           0  0  0
    9.8042   -4.1792    0.0000 C   0  0  0  0  0  0           0  0  0
   -1.4125   -3.0250    0.0000 O   0  0  0  0  0  0           0  0  0
    0.2000   -5.2542    0.0000 O   0  0  0  0  0  0           0  0  0
    3.2500   -2.5667    0.0000 O   0  0  0  0  0  0           0  0  0
   10.5375   -6.2375    0.0000 N   0  0  3  0  0  0           0  0  0
   11.0375   -0.8500    0.0000 O   0  5  0  0  0  0           0  0  0
    8.3625   -2.5417    0.0000 C   0  0  0  0  0  0           0  0  0
    9.8125   -5.0000    0.0000 C   0  0  0  0  0  0           0  0  0
   10.0042   -0.4125    0.0000 O   0  0  0  0  0  0           0  0  0
    7.6375   -0.4875    0.0000 O   0  0  0  0  0  0           0  0  0
   -2.0250   -3.8167    0.0000 O   0  0  0  0  0  0           0  0  0
    1.8500   -5.2542    0.0000 O   0  0  0  0  0  0           0  0  0
   -1.2000   -4.6500    0.0000 O   0  0  0  0  0  0           0  0  0
    1.0125   -6.0792    0.0000 O   0  0  0  0  0  0           0  0  0
    2.4542   -3.6125    0.0000 O   0  0  0  0  0  0           0  0  0
    3.2500   -0.9167    0.0000 O   0  0  0  0  0  0           0  0  0
    1.0250   -1.1292    0.0000 O   0  0  0  0  0  0           0  0  0
   -0.4000   -1.9625    0.0000 O   0  0  0  0  0  0           0  0  0
    6.9292   -1.7250    0.0000 N   0  0  0  0  0  0           0  0  0
    4.0750   -1.7417    0.0000 O   0  0  0  0  0  0           0  0  0
   14.0542   -1.6750    0.0000 C   0  0  0  0  0  0           0  0  0
   13.3250   -0.4417    0.0000 C   0  0  0  0  0  0           0  0  0
    5.5042   -1.7375    0.0000 C   0  0  0  0  0  0           0  0  0
    6.2125   -1.3167    0.0000 C   0  0  0  0  0  0           0  0  0
   11.2542   -6.6375    0.0000 C   0  0  0  0  0  0           0  0  0
    9.8250   -6.6500    0.0000 C   0  0  0  0  0  0           0  0  0
    4.7875   -1.3250    0.0000 C   0  0  0  0  0  0           0  0  0
  2  1  1  0     0  0
  3  7  1  0     0  0
  4  8  1  0     0  0
  5  6  1  0     0  0
  6  3  2  0     0  0
  7 32  2  0     0  0
  8  1  1  0     0  0
  9  2  1  0     0  0
 10  4  1  0     0  0
 11  5  2  0     0  0
 12 15  2  0     0  0
 13 12  1  0     0  0
 14 25  2  0     0  0
 15  3  1  0     0  0
 16 23  1  0     0  0
 17 22  1  0     0  0
 18 24  1  0     0  0
 19 28  1  0     0  0
 20  6  1  0     0  0
 21 19  2  0     0  0
  1 22  1  1     0  0
  2 23  1  6     0  0
  4 24  1  1     0  0
 25 30  1  0     0  0
 26 14  1  0     0  0
 27 12  1  0     0  0
 28 20  2  0     0  0
 29 51  1  0     0  0
 30 29  1  0     0  0
 31 40  1  0     0  0
 32 39  1  0     0  0
 33 15  1  0     0  0
 34 16  2  0     0  0
 35 17  2  0     0  0
 36 18  2  0     0  0
 37 31  1  0     0  0
 38 26  1  0     0  0
 39 30  2  0     0  0
 40 33  2  0     0  0
 41 26  2  0     0  0
 42 29  2  0     0  0
 43 16  1  0     0  0
 44 17  1  0     0  0
 45 16  1  0     0  0
 46 17  1  0     0  0
  8 47  1  6     0  0
 48 18  1  0     0  0
 10 49  1  1     0  0
  9 50  1  1     0  0
 51 56  1  0     0  0
 52 18  1  0     0  0
 53 21  1  0     0  0
 54 21  1  0     0  0
 55 59  1  0     0  0
 56 55  1  0     0  0
 57 37  1  0     0  0
 58 37  1  0     0  0
 59 52  1  0     0  0
 10  9  1  0     0  0
  7 14  1  0     0  0
 13  5  1  0     0  0
 27 31  2  0     0  0
 19 11  1  0     0  0
M  CHG  2  21   1  38  -1
M  END