
          03140815512D 1   1.00000     0.00000     0

 19 20  0     0  0            999 V2000
   22.3750  -26.1167    0.0000 N   0  0  3  0  0  0           0  0  0
   22.3750  -26.9417    0.0000 C   0  0  0  0  0  0           0  0  0
   23.0870  -27.3500    0.0000 C   0  0  0  0  0  0           0  0  0
   23.7990  -26.9417    0.0000 O   0  0  0  0  0  0           0  0  0
   23.7990  -26.1167    0.0000 C   0  0  0  0  0  0           0  0  0
   23.0870  -25.7000    0.0000 C   0  0  0  0  0  0           0  0  0
   21.6593  -25.7063    0.0000 C   0  0  0  0  0  0           0  0  0
   21.6569  -24.8813    0.0000 O   0  0  0  0  0  0           0  0  0
   20.9461  -26.1209    0.0000 C   0  0  0  0  0  0           0  0  0
   20.2304  -25.7104    0.0000 O   0  0  0  0  0  0           0  0  0
   19.5171  -26.1250    0.0000 C   0  0  0  0  0  0           0  0  0
   18.8022  -25.7113    0.0000 C   0  0  0  0  0  0           0  0  0
   18.0894  -26.1252    0.0000 C   0  0  0  0  0  0           0  0  0
   18.0914  -26.9511    0.0000 C   0  0  0  0  0  0           0  0  0
   18.8121  -27.3613    0.0000 C   0  0  0  0  0  0           0  0  0
   19.5219  -26.9451    0.0000 C   0  0  0  0  0  0           0  0  0
   17.3787  -27.3666    0.0000 Cl  0  0  0  0  0  0           0  0  0
   17.3739  -25.7145    0.0000 C   0  0  0  0  0  0           0  0  0
   18.8174  -28.1863    0.0000 C   0  0  0  0  0  0           0  0  0
  2  3  1  0     0  0
  9 10  1  0     0  0
  3  4  1  0     0  0
 10 11  1  0     0  0
  4  5  1  0     0  0
 11 12  2  0     0  0
  5  6  1  0     0  0
 12 13  1  0     0  0
 13 14  2  0     0  0
  1  7  1  0     0  0
 14 15  1  0     0  0
  1  2  1  0     0  0
 15 16  2  0     0  0
 16 11  1  0     0  0
  7  8  2  0     0  0
 14 17  1  0     0  0
  1  6  1  0     0  0
 13 18  1  0     0  0
  7  9  1  0     0  0
 15 19  1  0     0  0
M  END