
  SciTegic11201309402D

 23 26  0  0  1  0            999 V2000
   10.3716   -1.9612    0.0000 C   0  0
   10.3778   -0.6251    0.0000 C   0  0  2  0  0  0
    9.8924   -1.2911    0.0000 C   0  0
   11.1635   -0.8851    0.0000 C   0  0  1  0  0  0
   11.1575   -1.7102    0.0000 N   0  0
   11.9404   -1.9709    0.0000 C   0  0
   12.4303   -1.3068    0.0000 C   0  0
   11.9501   -0.6359    0.0000 C   0  0
   10.1255    0.1604    0.0000 C   0  0
    9.3192    0.3347    0.0000 N   0  0
    9.0669    1.1202    0.0000 C   0  0
    8.2605    1.2944    0.0000 C   0  0
    9.6210    1.7314    0.0000 O   0  0
    8.0131    2.0811    0.0000 C   0  0
    7.2075    2.2556    0.0000 C   0  0
    6.6525    1.6440    0.0000 C   0  0
    7.7135    0.6846    0.0000 C   0  0
    6.9047    0.8575    0.0000 N   0  0
    6.4902    0.1416    0.0000 C   0  0
    7.0430   -0.4738    0.0000 C   0  0
    7.7990   -0.1381    0.0000 N   0  0
    6.9557    3.0412    0.0000 Cl  0  0
   11.1699    0.1149    0.0000 H   0  0
  9 10  1  0
  4  2  1  0
 10 11  1  0
  2  3  1  0
 11 12  1  0
  3  1  1  0
 11 13  2  0
  5  6  1  0
 12 14  2  0
  6  7  1  0
 14 15  1  0
  7  8  1  0
 15 16  2  0
 16 18  1  0
 17 12  1  0
 17 18  1  0
  4  8  1  0
  4  5  1  0
  1  5  1  0
  2  9  1  1
 18 19  1  0
 19 20  2  0
 20 21  1  0
 21 17  2  0
 15 22  1  0
  4 23  1  1
M  END