
          11280715382D 1   1.00000     0.00000     0

  6  5  0     0  0            999 V2000
    0.8167   -3.4292    0.0000 N   0  0  0  0  0  0           0  0  0
    0.0542   -3.8667    0.0000 C   0  0  0  0  0  0           0  0  0
   -0.7083   -3.4292    0.0000 C   0  0  0  0  0  0           0  0  0
   -0.7083   -2.5417    0.0000 O   0  0  0  0  0  0           0  0  0
    1.5875   -3.8667    0.0000 O   0  0  0  0  0  0           0  0  0
   -1.4708   -3.8667    0.0000 C   0  0  0  0  0  0           0  0  0
  2  1  2  0     0  0
  3  2  1  0     0  0
  4  3  2  0     0  0
  5  1  1  0     0  0
  6  3  1  0     0  0
M  END