
  SciTegic06051315212D

 39 42  0  0  0  0            999 V2000
   22.7130  -28.4110    0.0000 O   0  0
   22.7171  -27.5862    0.0000 C   0  0  2  0  0  0
   22.0008  -27.9950    0.0000 C   0  0
   24.2372  -28.5330    0.0000 O   0  0
   25.6309  -27.6414    0.0000 O   0  0
   27.1003  -28.4031    0.0000 O   0  0
   27.1737  -30.0531    0.0000 O   0  0
   25.0097  -29.7406    0.0000 O   0  0
   26.5707  -31.1899    0.0000 O   0  0
   24.9701  -28.9149    0.0000 C   0  0  2  0  0  0
   25.6669  -28.4692    0.0000 C   0  0  1  0  0  0
   26.4034  -28.8489    0.0000 C   0  0  2  0  0  0
   26.4395  -29.6767    0.0000 C   0  0  1  0  0  0
   25.7427  -30.1225    0.0000 C   0  0  1  0  0  0
   25.7801  -30.9446    0.0000 C   0  0
   24.2212  -27.7083    0.0000 C   0  0  2  0  0  0
   24.9249  -27.2865    0.0000 O   0  0
   24.9090  -26.4619    0.0000 C   0  0
   24.1893  -26.0593    0.0000 C   0  0
   23.5017  -27.3141    0.0000 C   0  0  1  0  0  0
   23.4810  -26.4850    0.0000 C   0  0  2  0  0  0
   22.6862  -26.2484    0.0000 C   0  0  1  0  0  0
   22.2124  -26.9282    0.0000 C   0  0
   23.4571  -25.6568    0.0000 H   0  0
   23.5134  -28.1387    0.0000 H   0  0
   22.4140  -25.4699    0.0000 O   0  0
   24.2616  -29.3365    0.0000 H   0  0
   22.9522  -24.8449    0.0000 C   0  0
   22.6799  -24.0664    0.0000 O   0  0
   21.2887  -27.5790    0.0000 O   0  0
   23.7624  -24.9984    0.0000 C   0  0
   24.3006  -24.3734    0.0000 C   0  0
   24.0283  -23.5949    0.0000 C   0  0
   24.5665  -22.9728    0.0000 C   0  0
   24.2948  -22.1949    0.0000 C   0  0
   23.4838  -22.0409    0.0000 C   0  0
   22.9449  -22.6708    0.0000 C   0  0
   23.2194  -23.4462    0.0000 C   0  0
   23.2105  -21.2626    0.0000 O   0  0
  2  1  1  0
  2  3  1  6
  9 15  1  0
 14  8  1  0
  8 10  1  0
 10 11  1  0
 11 12  1  0
 12 13  1  0
 13 14  1  0
 14 15  1  1
 10  4  1  0
 11  5  1  6
 12  6  1  1
 13  7  1  6
 21 19  1  0
 20 16  1  0
 16 17  1  0
 17 18  1  0
 18 19  2  0
 20 21  1  0
 21 22  1  0
 22 23  1  0
  2 20  1  0
 23  2  1  0
 21 24  1  1
 20 25  1  1
 22 26  1  1
 16  4  1  1
 10 27  1  6
 26 28  1  0
 28 29  2  0
  3 30  1  0
 28 31  1  0
 31 32  2  0
 32 33  1  0
 33 34  2  0
 34 35  1  0
 35 36  2  0
 36 37  1  0
 37 38  2  0
 38 33  1  0
 36 39  1  0
M  END