
  SciTegic01161211252D

 43 48  0  0  0  0            999 V2000
    9.0632  -11.9492    0.0000 C   0  0
    4.1077  -10.5608    0.0000 N   0  0
    5.5336  -10.5679    0.0000 C   0  0  1  0  0  0
    4.8225  -10.1507    0.0000 C   0  0
    2.7343   -8.8682    0.0000 C   0  0
    3.4348   -9.3040    0.0000 C   0  0  1  0  0  0
    3.4111  -10.1305    0.0000 C   0  0
    6.2683  -10.2122    0.0000 C   0  0
    6.9688  -10.6439    0.0000 N   0  0
    6.2877   -9.3857    0.0000 O   0  0
    6.9408  -11.4668    0.0000 C   0  0
    7.6372  -11.9023    0.0000 C   0  0
    8.3635  -11.5110    0.0000 N   0  0
    8.3932  -10.6835    0.0000 C   0  0
    7.6884  -10.2474    0.0000 C   0  0
    4.1588   -8.9091    0.0000 C   0  0
    2.0103   -9.2631    0.0000 C   0  0
    1.3092   -8.8251    0.0000 C   0  0
    1.2671  -10.4784    0.0000 C   0  0
    1.9919  -10.0859    0.0000 C   0  0
    4.1035  -11.3877    0.0000 C   0  0
    5.5294  -11.3949    0.0000 C   0  0  2  0  0  0
    4.8115  -11.8059    0.0000 C   0  0  1  0  0  0
    4.8070  -12.6272    0.0000 C   0  0
    5.5187  -13.0435    0.0000 C   0  0
    6.2368  -12.6367    0.0000 C   0  0
    6.2429  -11.8092    0.0000 C   0  0
    9.0302  -12.7718    0.0000 C   0  0
    9.7290  -13.2098    0.0000 C   0  0
   10.4593  -12.8230    0.0000 C   0  0
   10.4864  -11.9936    0.0000 C   0  0
    9.7869  -11.5593    0.0000 C   0  0
   11.2138  -11.6045    0.0000 F   0  0
   11.1590  -13.2600    0.0000 F   0  0
    5.5292   -9.7417    0.0000 H   0  0
    6.2417  -10.9750    0.0000 H   0  0
    4.2208  -12.3875    0.0000 H   0  0
    0.5667  -10.0562    0.0000 C   0  0
    0.5849   -9.2212    0.0000 C   0  0
   -0.1251   -8.7904    0.0000 N   0  0
   -0.8579   -9.1898    0.0000 C   0  0
   -0.8761  -10.0247    0.0000 C   0  0
   -0.1615  -10.4603    0.0000 N   0  0
 12 13  1  0
 22 23  1  0
 13 14  1  0
 14 15  1  0
 22  3  1  0
  3  8  1  0
  3  4  1  0
 22 27  1  0
 23 24  1  0
 24 25  1  0
 25 26  1  0
 26 27  1  0
  8  9  1  0
  2 21  1  0
  8 10  2  0
 13  1  1  0
  1 28  2  0
  9 11  1  0
 28 29  1  0
  6 16  1  6
 29 30  2  0
  5 17  1  0
 30 31  1  0
  5  6  1  0
 31 32  2  0
 32  1  1  0
 17 18  2  0
 31 33  1  0
 18 39  1  0
 30 34  1  0
  2  4  1  0
  3 35  1  6
 38 19  1  0
 22 36  1  6
  6  7  1  0
 23 37  1  6
 38 39  2  0
 19 20  2  0
 20 17  1  0
  7  2  1  0
  9 15  1  0
 23 21  1  0
 11 12  1  0
 38 43  1  0
 39 40  1  0
 40 41  2  0
 41 42  1  0
 42 43  2  0
M  END