
          11280715362D 1   1.00000     0.00000     0

 27 29  0     0  0            999 V2000
    4.0667   -6.7792    0.0000 C   0  0  0  0  0  0           0  0  0
    3.5500   -6.4792    0.0000 C   0  0  3  0  0  0           0  0  0
    4.0667   -7.3792    0.0000 C   0  0  0  0  0  0           0  0  0
    3.5500   -7.6792    0.0000 O   0  0  0  0  0  0           0  0  0
    3.0250   -7.3875    0.0000 C   0  0  3  0  0  0           0  0  0
    3.0250   -6.7792    0.0000 C   0  0  3  0  0  0           0  0  0
    4.5875   -6.4792    0.0000 C   0  0  0  0  0  0           0  0  0
    2.5000   -6.4792    0.0000 C   0  0  0  0  0  0           0  0  0
    6.1500   -7.3625    0.0000 C   0  0  0  0  0  0           0  0  0
    6.6667   -7.0500    0.0000 C   0  0  0  0  0  0           0  0  0
    3.5500   -5.8750    0.0000 C   0  0  0  0  0  0           0  0  0
    2.5000   -5.8750    0.0000 C   0  0  0  0  0  0           0  0  0
    3.0375   -5.5750    0.0000 C   0  0  0  0  0  0           0  0  0
    4.5875   -7.6792    0.0000 C   0  0  0  0  0  0           0  0  0
    5.1125   -6.7792    0.0000 C   0  0  0  0  0  0           0  0  0
    5.1125   -7.3792    0.0000 C   0  0  0  0  0  0           0  0  0
    4.5750   -5.8792    0.0000 O   0  0  0  0  0  0           0  0  0
    5.6375   -7.6667    0.0000 C   0  0  0  0  0  0           0  0  0
    2.4625   -7.1875    0.0000 C   0  0  0  0  0  0           0  0  0
    2.8250   -7.9542    0.0000 C   0  0  0  0  0  0           0  0  0
    7.1875   -6.7375    0.0000 C   0  0  0  0  0  0           0  0  0
    3.0500   -4.9750    0.0000 C   0  0  0  0  0  0           0  0  0
    7.7125   -7.0292    0.0000 C   0  0  0  0  0  0           0  0  0
    9.2625   -6.7042    0.0000 C   0  0  0  0  0  0           0  0  0
    8.7500   -7.0125    0.0000 C   0  0  0  0  0  0           0  0  0
    8.2250   -6.7167    0.0000 C   0  0  0  0  0  0           0  0  0
    9.7875   -6.9917    0.0000 C   0  0  0  0  0  0           0  0  0
  2  1  1  0     0  0
  3  1  1  0     0  0
  4  3  1  0     0  0
  5  4  1  0     0  0
  6  2  1  0     0  0
  7  1  2  0     0  0
  8  6  1  0     0  0
  9 18  1  0     0  0
 10  9  3  0     0  0
 11  2  1  0     0  0
 12 13  2  0     0  0
 13 11  1  0     0  0
 14  3  2  0     0  0
 15  7  1  0     0  0
 16 15  2  0     0  0
 17  7  1  0     0  0
 18 16  1  0     0  0
 19  5  1  0     0  0
 20  5  1  0     0  0
 21 10  1  0     0  0
 22 13  1  0     0  0
 23 21  1  0     0  0
 24 25  1  0     0  0
 25 26  1  0     0  0
 26 23  1  0     0  0
 27 24  1  0     0  0
  5  6  1  0     0  0
 16 14  1  0     0  0
 12  8  1  0     0  0
M  END