
          11280714442D 1   1.00000     0.00000     0

 17 19  0     0  0            999 V2000
    3.2667   -2.5792    0.0000 C   0  0  3  0  0  0           0  0  0
    2.5500   -2.1667    0.0000 O   0  0  0  0  0  0           0  0  0
    4.0792   -2.7167    0.0000 C   0  0  0  0  0  0           0  0  0
    4.6500   -2.1167    0.0000 N   0  0  0  0  0  0           0  0  0
    2.5500   -3.8167    0.0000 O   0  0  0  0  0  0           0  0  0
    1.8375   -2.5792    0.0000 C   0  0  0  0  0  0           0  0  0
    3.2667   -3.4042    0.0000 C   0  0  0  0  0  0           0  0  0
    4.4750   -3.4417    0.0000 N   0  0  0  0  0  0           0  0  0
    1.8375   -3.4042    0.0000 C   0  0  0  0  0  0           0  0  0
    3.4792   -1.7792    0.0000 C   0  0  0  0  0  0           0  0  0
    5.3792   -2.4667    0.0000 C   0  0  0  0  0  0           0  0  0
    5.2875   -3.2875    0.0000 C   0  0  0  0  0  0           0  0  0
    1.1250   -2.1667    0.0000 C   0  0  0  0  0  0           0  0  0
    1.1250   -3.8167    0.0000 C   0  0  0  0  0  0           0  0  0
    2.8917   -1.2000    0.0000 C   0  0  0  0  0  0           0  0  0
    0.4042   -2.5792    0.0000 C   0  0  0  0  0  0           0  0  0
    0.4042   -3.4042    0.0000 C   0  0  0  0  0  0           0  0  0
  2  1  1  0     0  0
  3  1  1  0     0  0
  4  3  2  0     0  0
  5  7  1  0     0  0
  6  2  1  0     0  0
  7  1  1  0     0  0
  8  3  1  0     0  0
  9  5  1  0     0  0
 10  1  1  0     0  0
 11  4  1  0     0  0
 12  8  1  0     0  0
 13  6  2  0     0  0
 14  9  2  0     0  0
 15 10  1  0     0  0
 16 13  1  0     0  0
 17 14  1  0     0  0
  6  9  1  0     0  0
 12 11  1  0     0  0
 16 17  2  0     0  0
M  END