
          02060813472D 1   1.00000     0.00000     0

 16 18  0     0  0            999 V2000
   -2.5289   -4.3025    0.0000 C   0  0  0  0  0  0           0  0  0
   -2.5300   -5.1279    0.0000 C   0  0  0  0  0  0           0  0  0
   -1.8169   -5.5398    0.0000 C   0  0  0  0  0  0           0  0  0
   -1.8187   -3.8907    0.0000 C   0  0  0  0  0  0           0  0  0
   -1.1049   -4.2988    0.0000 C   0  0  0  0  0  0           0  0  0
   -1.1047   -5.1280    0.0000 C   0  0  0  0  0  0           0  0  0
   -0.3165   -4.0424    0.0000 N   0  0  0  0  0  0           0  0  0
    0.1711   -4.7131    0.0000 C   0  0  0  0  0  0           0  0  0
   -0.3194   -5.3817    0.0000 N   0  0  3  0  0  0           0  0  0
    0.1651   -6.0549    0.0000 N   0  0  0  0  0  0           0  0  0
    0.9551   -5.8021    0.0000 S   0  0  0  0  0  0           0  0  0
    0.9587   -4.9729    0.0000 C   0  0  0  0  0  0           0  0  0
   -3.2432   -5.5390    0.0000 S   0  0  3  0  0  0           0  0  0
   -3.9616   -5.9445    0.0000 N   0  0  0  0  0  0           0  0  0
   -2.8353   -6.2539    0.0000 O   0  0  0  0  0  0           0  0  0
   -3.6493   -4.8230    0.0000 O   0  0  0  0  0  0           0  0  0
  7  5  1  0     0  0
  8  9  1  0     0  0
  1  2  2  0     0  0
  5  4  2  0     0  0
  4  1  1  0     0  0
  5  6  1  0     0  0
  9 10  1  0     0  0
 10 11  2  0     0  0
 11 12  2  0     0  0
 12  8  1  0     0  0
  2  3  1  0     0  0
  2 13  1  0     0  0
  3  6  2  0     0  0
 13 14  1  0     0  0
  6  9  1  0     0  0
 13 15  2  0     0  0
  8  7  2  0     0  0
 13 16  2  0     0  0
M  END