
          11280714452D 1   1.00000     0.00000     0

 25 28  0     0  0            999 V2000
    4.5167   -0.3375    0.0000 C   0  0  0  0  0  0           0  0  0
    5.2292    0.0833    0.0000 C   0  0  0  0  0  0           0  0  0
    3.8000    0.0708    0.0000 O   0  0  0  0  0  0           0  0  0
    4.5167   -1.1667    0.0000 C   0  0  0  0  0  0           0  0  0
    3.0917   -0.3500    0.0000 C   0  0  0  0  0  0           0  0  0
    3.0917   -1.1750    0.0000 C   0  0  0  0  0  0           0  0  0
    3.8042   -1.5792    0.0000 C   0  0  0  0  0  0           0  0  0
    1.6667   -0.3542    0.0000 N   0  0  0  0  0  0           0  0  0
    5.2167    0.9083    0.0000 C   0  0  0  0  0  0           0  0  0
    2.3792    0.0583    0.0000 C   0  0  0  0  0  0           0  0  0
    5.9417   -0.3292    0.0000 C   0  0  0  0  0  0           0  0  0
    0.9500    0.0583    0.0000 C   0  0  0  0  0  0           0  0  0
    5.2375   -1.5750    0.0000 C   0  0  0  0  0  0           0  0  0
    5.9542   -1.1542    0.0000 C   0  0  0  0  0  0           0  0  0
    3.8125   -2.4042    0.0000 O   0  0  0  0  0  0           0  0  0
    4.5042    1.3083    0.0000 O   0  0  0  0  0  0           0  0  0
    2.3750    0.8875    0.0000 C   0  0  0  0  0  0           0  0  0
    0.9500    0.8833    0.0000 C   0  0  0  0  0  0           0  0  0
    1.6542    1.2958    0.0000 C   0  0  0  0  0  0           0  0  0
    5.9292    1.3208    0.0000 O   0  0  0  0  0  0           0  0  0
    6.6667   -1.5667    0.0000 Br  0  0  0  0  0  0           0  0  0
    0.2292   -0.3625    0.0000 C   0  0  0  0  0  0           0  0  0
    0.2292    1.2958    0.0000 C   0  0  0  0  0  0           0  0  0
   -0.4833    0.0500    0.0000 C   0  0  0  0  0  0           0  0  0
   -0.4833    0.8750    0.0000 C   0  0  0  0  0  0           0  0  0
  2  1  1  0     0  0
  3  1  1  0     0  0
  4  1  2  0     0  0
  5  3  1  0     0  0
  6  7  1  0     0  0
  7  4  1  0     0  0
  8 10  2  0     0  0
  9  2  1  0     0  0
 10  5  1  0     0  0
 11  2  2  0     0  0
 12  8  1  0     0  0
 13  4  1  0     0  0
 14 13  2  0     0  0
 15  7  2  0     0  0
 16  9  2  0     0  0
 17 10  1  0     0  0
 18 19  1  0     0  0
 19 17  2  0     0  0
 20  9  1  0     0  0
 21 14  1  0     0  0
 22 12  2  0     0  0
 23 18  2  0     0  0
 24 22  1  0     0  0
 25 23  1  0     0  0
 14 11  1  0     0  0
  6  5  2  0     0  0
 12 18  1  0     0  0
 24 25  2  0     0  0
M  END