
          11280715472D 1   1.00000     0.00000     0

 27 30  0     0  0            999 V2000
   10.8792   -1.5792    0.0000 C   0  0  0  0  0  0           0  0  0
   11.6375   -1.9042    0.0000 O   0  0  0  0  0  0           0  0  0
   10.9542   -0.7625    0.0000 C   0  0  0  0  0  0           0  0  0
    5.8667   -2.9000    0.0000 N   0  0  3  0  0  0           0  0  0
   10.1750   -2.0042    0.0000 C   0  0  0  0  0  0           0  0  0
   12.1792   -1.2792    0.0000 C   0  0  0  0  0  0           0  0  0
   11.7542   -0.5792    0.0000 C   0  0  0  0  0  0           0  0  0
    7.3000   -2.0542    0.0000 N   0  0  3  0  0  0           0  0  0
    5.1542   -3.3125    0.0000 C   0  0  0  0  0  0           0  0  0
    5.8667   -2.0542    0.0000 C   0  0  0  0  0  0           0  0  0
    6.5792   -3.2917    0.0000 C   0  0  0  0  0  0           0  0  0
   10.1917   -2.8292    0.0000 O   0  0  0  0  0  0           0  0  0
    9.4500   -1.6000    0.0000 N   0  0  0  0  0  0           0  0  0
    5.1625   -4.1292    0.0000 C   0  0  0  0  0  0           0  0  0
    4.4375   -2.9042    0.0000 C   0  0  0  0  0  0           0  0  0
    7.3000   -2.9000    0.0000 C   0  0  0  0  0  0           0  0  0
    6.5792   -1.6417    0.0000 C   0  0  0  0  0  0           0  0  0
    3.7167   -3.3167    0.0000 C   0  0  0  0  0  0           0  0  0
    4.4500   -4.5625    0.0000 C   0  0  0  0  0  0           0  0  0
    3.7250   -4.1500    0.0000 C   0  0  0  0  0  0           0  0  0
    8.7375   -2.0292    0.0000 C   0  0  0  0  0  0           0  0  0
    8.0292   -1.6292    0.0000 C   0  0  0  0  0  0           0  0  0
   12.9917   -1.2750    0.0000 C   0  0  0  0  0  0           0  0  0
   12.1542    0.1375    0.0000 C   0  0  0  0  0  0           0  0  0
    3.0125   -4.5667    0.0000 C   0  0  0  0  0  0           0  0  0
   12.9750    0.1500    0.0000 C   0  0  0  0  0  0           0  0  0
   13.4000   -0.5542    0.0000 C   0  0  0  0  0  0           0  0  0
  2  1  1  0     0  0
  3  1  2  0     0  0
  4 10  1  0     0  0
  5  1  1  0     0  0
  6  2  1  0     0  0
  7  3  1  0     0  0
  8 22  1  0     0  0
  9  4  1  0     0  0
 10 17  1  0     0  0
 11 16  1  0     0  0
 12  5  2  0     0  0
 13  5  1  0     0  0
 14  9  1  0     0  0
 15  9  2  0     0  0
 16  8  1  0     0  0
 17  8  1  0     0  0
 18 15  1  0     0  0
 19 14  2  0     0  0
 20 18  2  0     0  0
 21 13  1  0     0  0
 22 21  1  0     0  0
 23  6  1  0     0  0
 24  7  1  0     0  0
 25 20  1  0     0  0
 26 24  2  0     0  0
 27 23  2  0     0  0
  6  7  2  0     0  0
 26 27  1  0     0  0
  4 11  1  0     0  0
 19 20  1  0     0  0
M  END