
  SciTegic10161213532D

 32 36  0  0  0  0            999 V2000
    5.7277   -0.9291    0.0000 C   0  0
    5.7266   -1.7565    0.0000 C   0  0
    6.4414   -2.1694    0.0000 C   0  0
    6.4396   -0.5164    0.0000 C   0  0
    7.1550   -0.9255    0.0000 C   0  0
    7.1552   -1.7565    0.0000 C   0  0
    7.9457   -2.0131    0.0000 N   0  0
    7.9453   -0.6685    0.0000 C   0  0
    8.4341   -1.3420    0.0000 C   0  0
    9.2572   -1.2559    0.0000 C   0  0
    9.5979   -0.4973    0.0000 N   0  0
    9.1091    0.1762    0.0000 C   0  0  2  0  0  0
    8.2795    0.0911    0.0000 C   0  0
    9.0375   -2.0500    0.0000 C   0  0
   10.0500   -1.4667    0.0000 C   0  0
    9.6161   -2.6381    0.0000 O   0  0
   10.2651   -2.2631    0.0000 O   0  0
    9.3962   -3.4332    0.0000 C   0  0
   11.0624   -2.4751    0.0000 C   0  0
    9.9748   -4.0213    0.0000 C   0  0
   11.2775   -3.2716    0.0000 C   0  0
    9.4457    0.9293    0.0000 C   0  0
   10.2486    1.0985    0.0000 N   0  0
   10.3360    1.9189    0.0000 C   0  0
    9.5828    2.2556    0.0000 C   0  0
    9.0300    1.6433    0.0000 N   0  0
   11.0508    2.3276    0.0000 C   0  0
   11.7633    1.9094    0.0000 C   0  0
   12.4795    2.3172    0.0000 C   0  0
   12.4845    3.1402    0.0000 C   0  0
   11.7673    3.5573    0.0000 C   0  0
   11.0474    3.1469    0.0000 C   0  0
 10 15  1  0
  7  9  1  0
 14 16  1  0
  8  5  1  0
 15 17  1  0
  8  9  2  0
 16 18  1  0
  1  2  2  0
 17 19  1  0
  5  4  2  0
 18 20  1  0
  4  1  1  0
 19 21  1  0
  5  6  1  0
 12 22  1  6
 22 23  2  0
  2  3  1  0
  8 13  1  0
  9 10  1  0
 23 24  1  0
 24 25  2  0
 25 26  1  0
 26 22  1  0
 10 11  1  0
 11 12  1  0
 27 28  2  0
 12 13  1  0
 28 29  1  0
  3  6  2  0
 29 30  2  0
 10 14  1  0
 30 31  1  0
  6  7  1  0
 31 32  2  0
 32 27  1  0
 24 27  1  0
M  END