
          11280715112D 1   1.00000     0.00000     0

 22 24  0     0  0            999 V2000
    1.6250   -1.5375    0.0000 N   0  3  0  0  0  0           0  0  0
   -0.9458   -0.3417    0.0000 N   0  0  0  0  0  0           0  0  0
   -1.2458    0.1708    0.0000 C   0  0  0  0  0  0           0  0  0
   -0.8458    0.6125    0.0000 N   0  0  0  0  0  0           0  0  0
   -0.3625   -0.2167    0.0000 C   0  0  0  0  0  0           0  0  0
   -0.3000    0.3708    0.0000 C   0  0  0  0  0  0           0  0  0
   -3.2125   -0.7042    0.0000 N   0  0  0  0  0  0           0  0  0
    1.1042   -1.2375    0.0000 C   0  0  0  0  0  0           0  0  0
   -3.3958   -0.1292    0.0000 C   0  0  0  0  0  0           0  0  0
   -4.1833   -0.6917    0.0000 N   0  0  0  0  0  0           0  0  0
   -3.7000   -1.0542    0.0000 C   0  0  0  0  0  0           0  0  0
    1.6167   -2.1292    0.0000 O   0  5  0  0  0  0           0  0  0
    0.0792   -0.6292    0.0000 C   0  0  0  0  0  0           0  0  0
    2.1417   -1.2417    0.0000 O   0  0  0  0  0  0           0  0  0
   -3.9958   -0.1250    0.0000 C   0  0  0  0  0  0           0  0  0
   -1.8458    0.1708    0.0000 S   0  0  0  0  0  0           0  0  0
    0.5875   -1.5292    0.0000 C   0  0  0  0  0  0           0  0  0
    1.1125   -0.6292    0.0000 C   0  0  0  0  0  0           0  0  0
    0.0750   -1.2292    0.0000 C   0  0  0  0  0  0           0  0  0
    0.5917   -0.3292    0.0000 C   0  0  0  0  0  0           0  0  0
   -2.8750    0.1708    0.0000 C   0  0  0  0  0  0           0  0  0
   -2.3583   -0.1292    0.0000 C   0  0  0  0  0  0           0  0  0
  2  5  1  0     0  0
  3  2  2  0     0  0
  4  6  1  0     0  0
  5 13  1  0     0  0
  6  5  2  0     0  0
  7  9  1  0     0  0
  8  1  1  0     0  0
  9 21  1  0     0  0
 10 15  1  0     0  0
 11  7  2  0     0  0
 12  1  1  0     0  0
 13 20  1  0     0  0
 14  1  2  0     0  0
 15  9  2  0     0  0
 16  3  1  0     0  0
 17  8  2  0     0  0
 18  8  1  0     0  0
 19 17  1  0     0  0
 20 18  2  0     0  0
 21 22  1  0     0  0
 22 16  1  0     0  0
 19 13  2  0     0  0
  3  4  1  0     0  0
 11 10  1  0     0  0
M  CHG  2   1   1  12  -1
M  END