
          11280715132D 1   1.00000     0.00000     0

 27 30  0     0  0            999 V2000
    3.8125   -3.6125    0.0000 C   0  0  0  0  0  0           0  0  0
    8.1375   -4.1750    0.0000 N   0  0  3  0  0  0           0  0  0
    3.0042   -3.7792    0.0000 C   0  0  0  0  0  0           0  0  0
    8.9417   -4.0042    0.0000 C   0  0  0  0  0  0           0  0  0
    6.5250   -4.5042    0.0000 N   0  0  3  0  0  0           0  0  0
    4.3625   -4.2250    0.0000 C   0  0  3  0  0  0           0  0  0
    2.7417   -4.5625    0.0000 C   0  0  0  0  0  0           0  0  0
    4.0667   -2.8250    0.0000 O   0  0  0  0  0  0           0  0  0
    7.8667   -4.9625    0.0000 C   0  0  0  0  0  0           0  0  0
    7.5875   -3.5625    0.0000 C   0  0  0  0  0  0           0  0  0
    9.4875   -4.6375    0.0000 C   0  0  0  0  0  0           0  0  0
    3.2917   -5.1750    0.0000 C   0  0  0  0  0  0           0  0  0
    4.1000   -5.0125    0.0000 C   0  0  0  0  0  0           0  0  0
    5.1667   -4.0625    0.0000 C   0  0  0  0  0  0           0  0  0
    5.7167   -4.6750    0.0000 C   0  0  0  0  0  0           0  0  0
    6.7750   -3.7250    0.0000 C   0  0  0  0  0  0           0  0  0
    7.0625   -5.1250    0.0000 C   0  0  0  0  0  0           0  0  0
    9.2250   -5.4125    0.0000 O   0  0  0  0  0  0           0  0  0
    2.4625   -3.1667    0.0000 C   0  0  0  0  0  0           0  0  0
    9.2000   -3.2375    0.0000 C   0  0  0  0  0  0           0  0  0
    1.9500   -4.7375    0.0000 C   0  0  0  0  0  0           0  0  0
   10.2917   -4.4750    0.0000 C   0  0  0  0  0  0           0  0  0
    8.4125   -5.5750    0.0000 C   0  0  0  0  0  0           0  0  0
    1.6542   -3.3375    0.0000 C   0  0  0  0  0  0           0  0  0
   10.0042   -3.0667    0.0000 C   0  0  0  0  0  0           0  0  0
    1.4000   -4.1167    0.0000 C   0  0  0  0  0  0           0  0  0
   10.5542   -3.6875    0.0000 C   0  0  0  0  0  0           0  0  0
  2  9  1  0     0  0
  3  1  1  0     0  0
  4  2  1  0     0  0
  5 15  1  0     0  0
  6  1  1  0     0  0
  7  3  1  0     0  0
  8  1  2  0     0  0
  9 17  1  0     0  0
 10 16  1  0     0  0
 11  4  2  0     0  0
 12 13  1  0     0  0
 13  6  1  0     0  0
 14  6  1  0     0  0
 15 14  1  0     0  0
 16  5  1  0     0  0
 17  5  1  0     0  0
 18 11  1  0     0  0
 19  3  2  0     0  0
 20  4  1  0     0  0
 21  7  2  0     0  0
 22 11  1  0     0  0
 23 18  1  0     0  0
 24 19  1  0     0  0
 25 20  2  0     0  0
 26 24  2  0     0  0
 27 25  1  0     0  0
 12  7  1  0     0  0
 26 21  1  0     0  0
 10  2  1  0     0  0
 22 27  2  0     0  0
M  END