
  SciTegic10121214052D

 48 54  0  0  1  0            999 V2000
    3.6621   -5.8701    0.0000 C   0  0
    0.9454   -7.0817    0.0000 C   0  0
    2.5696   -6.7912    0.0000 C   0  0
    2.0378   -6.1605    0.0000 C   0  0
    3.3818   -6.6460    0.0000 C   0  0
    1.2257   -6.3058    0.0000 C   0  0  1  0  0  0
    0.1333   -7.2269    0.0000 C   0  0
    3.1302   -5.2394    0.0000 C   0  0
    4.8448   -5.0682    0.0000 C   0  0
    2.3181   -5.3846    0.0000 C   0  0
    2.2893   -7.5672    0.0000 C   0  0
    5.6676   -5.0087    0.0000 C   0  0
    0.6939   -5.6750    0.0000 C   0  0
    4.0219   -5.1277    0.0000 C   0  0  1  0  0  0
    1.4772   -7.7124    0.0000 C   0  0
   -0.3985   -6.5962    0.0000 C   0  0
   -1.2106   -6.7414    0.0000 O   0  0
   -0.1182   -5.8203    0.0000 C   0  0
    4.4866   -5.8969    0.0000 C   0  0
    4.0331   -7.1524    0.0000 C   0  0
    4.7159   -6.6894    0.0000 C   0  0
    1.5060   -5.5298    0.0000 H   0  0
    3.5590   -4.4449    0.0000 O   0  0
   11.1030   -5.7902    0.0000 C   0  0
    8.9664   -7.8446    0.0000 C   0  0
   10.3973   -7.0180    0.0000 C   0  0
    9.6818   -6.6072    0.0000 C   0  0
   11.1030   -6.6072    0.0000 C   0  0
    8.9664   -7.0180    0.0000 C   0  0  1  0  0  0
    8.2606   -8.2556    0.0000 C   0  0
   10.3973   -5.3745    0.0000 C   0  0
   11.8089   -4.5381    0.0000 C   0  0
    9.6818   -5.7902    0.0000 C   0  0
   10.3973   -7.8446    0.0000 C   0  0
   12.5291   -4.1273    0.0000 C   0  0
    8.2606   -6.6072    0.0000 C   0  0
   11.1030   -4.9490    0.0000 C   0  0  2  0  0  0
    9.6818   -8.2556    0.0000 C   0  0
    7.5452   -7.8446    0.0000 C   0  0
    6.8248   -8.2652    0.0000 O   0  0
    7.5452   -7.0180    0.0000 C   0  0
   11.8765   -5.5340    0.0000 C   0  0
   11.8765   -6.8682    0.0000 C   0  0
   12.3696   -6.1962    0.0000 C   0  0
    8.9664   -6.1962    0.0000 H   0  0
   10.3907   -4.5394    0.0000 O   0  0
    3.2283   -4.9022    0.0000 H   0  0
   11.1030   -4.1240    0.0000 H   0  0
  2  6  1  0
  3  5  1  0
  4 10  1  0
  5  1  1  0
  6  4  1  0
  7  2  2  0
  8  1  1  0
  9 14  1  0
 10  8  1  0
 11  3  1  0
 12  9  3  0
 13  6  1  0
 14  1  1  0
 15 11  1  0
 16 18  1  0
 17 16  2  0
 18 13  1  0
 19  1  1  0
 20  5  1  0
 21 19  1  0
  6 22  1  1
 21 20  1  0
  4  3  1  0
 15  2  1  0
 16  7  1  0
 14 23  1  6
 25 29  1  0
 26 28  1  0
 27 33  1  0
 28 24  1  0
 29 27  1  0
 30 25  2  0
 31 24  1  0
 32 37  1  0
 33 31  1  0
 34 26  1  0
 35 32  3  0
 36 29  1  0
 37 24  1  0
 38 34  1  0
 39 41  1  0
 40 39  2  0
 41 36  1  0
 42 24  1  0
 43 28  1  0
 44 42  1  0
 29 45  1  1
 44 43  1  0
 27 26  1  0
 38 25  1  0
 39 30  1  0
 37 46  1  1
 14 47  1  1
 37 48  1  6
M  END