
  SciTegic12231509382D

 28 30  0  0  1  0            999 V2000
    3.4198   -2.9075    0.0000 C   0  0
    2.6040   -3.0304    0.0000 O   0  0
    2.0896   -2.3854    0.0000 C   0  0
    1.2739   -2.5084    0.0000 C   0  0
    0.7595   -1.8634    0.0000 C   0  0
    1.0609   -1.0954    0.0000 C   0  0
    1.8767   -0.9724    0.0000 C   0  0
    2.3910   -1.6174    0.0000 C   0  0
    0.5465   -0.4504    0.0000 C   0  0  2  0  0  0
   -0.2578   -0.6340    0.0000 C   0  0
   -0.9028   -0.1196    0.0000 C   0  0
   -1.6173   -0.5321    0.0000 C   0  0
   -1.6173   -1.3571    0.0000 O   0  0
   -2.3318   -1.7696    0.0000 C   0  0
   -2.3318   -0.1196    0.0000 C   0  0
   -2.3318    0.7054    0.0000 C   0  0
   -1.6173    1.1179    0.0000 C   0  0
   -0.9028    0.7054    0.0000 C   0  0
   -0.2578    1.2198    0.0000 N   0  0
   -0.4414    2.0241    0.0000 C   0  0
   -1.2297    2.2673    0.0000 C   0  0
   -1.4133    3.0716    0.0000 N   0  0
   -2.2017    3.3148    0.0000 C   0  0
   -0.8086    3.6328    0.0000 C   0  0
    0.5465    1.0362    0.0000 C   0  0
    1.0609    1.6812    0.0000 O   0  0
    0.9045    0.2929    0.0000 C   0  0  2  0  0  0
    1.7295    0.2929    0.0000 C   0  0
  1  2  1  0
  2  3  1  0
  3  4  2  0
  4  5  1  0
  5  6  2  0
  6  7  1  0
  7  8  2  0
  3  8  1  0
  9  6  1  6
  9 10  1  0
 10 11  1  0
 11 12  2  0
 12 13  1  0
 13 14  1  0
 12 15  1  0
 15 16  2  0
 16 17  1  0
 17 18  2  0
 11 18  1  0
 18 19  1  0
 19 20  1  0
 20 21  1  0
 21 22  1  0
 22 23  1  0
 22 24  1  0
 19 25  1  0
 25 26  2  0
 25 27  1  0
  9 27  1  0
 27 28  1  6
M  END