
  SciTegic11241610372D

 26 29  0  0  0  0            999 V2000
   -0.3026    6.2126    0.0000 O   0  0
    0.8855    6.3807    0.0000 S   0  0
    1.3336    7.4939    0.0000 O   0  0
   -2.3155    0.7475    0.0000 N   0  0
   -2.3155   -0.7475    0.0000 C   0  0
   -1.0028   -1.5132    0.0000 N   0  0
   -1.0028    1.5132    0.0000 C   0  0
    0.2917    0.7475    0.0000 C   0  0
    0.2917   -0.7475    0.0000 C   0  0
    1.7138   -1.2033    0.0000 S   0  0
    2.5889    0.0182    0.0000 C   0  0
    1.7138    1.2033    0.0000 C   0  0
    2.1749    2.6315    0.0000 C   0  0
    1.2517    3.8078    0.0000 C   0  0
    1.8114    5.1995    0.0000 C   0  0
    3.2965    5.4106    0.0000 C   0  0
    4.2218    4.2301    0.0000 C   0  0
    3.6621    2.8384    0.0000 C   0  0
   -0.9982    3.0140    0.0000 N   0  0
    0.1457    7.3255    0.0000 C   0  0
    0.2243    3.8612    0.0000 C   0  0
   -0.2247    5.2924    0.0000 N   0  0
   -1.7246    5.3077    0.0000 N   0  0
   -2.2026    3.8859    0.0000 C   0  0
   -3.3455    3.5199    0.0000 S   0  0
   -2.4201    6.2856    0.0000 C   0  0
  2  1  2  0
  3  2  2  0
  4  5  2  0
  5  6  1  0
  6  9  2  0
  8  7  2  0
  7  4  1  0
  8  9  1  0
  9 10  1  0
 10 11  1  0
 11 12  2  0
 12  8  1  0
 13 14  2  0
 14 15  1  0
 15 16  2  0
 16 17  1  0
 17 18  2  0
 18 13  1  0
 12 13  1  0
  7 19  1  0
 15  2  1  0
  2 20  1  0
 19 21  1  0
 21 22  2  0
 22 23  1  0
 23 24  1  0
 24 19  1  0
 24 25  2  0
 23 26  1  0
M  END