
  Mrv0541 04051115152D          

 10 11  0  0  0  0            999 V2000
   -0.6981    0.0204    0.0000 C   0  0  0  0  0  0  0  0  0  0  0  0
   -0.2131    0.6879    0.0000 N   0  0  0  0  0  0  0  0  0  0  0  0
    0.5715    0.4329    0.0000 C   0  0  0  0  0  0  0  0  0  0  0  0
    0.5715   -0.3921    0.0000 N   0  0  0  0  0  0  0  0  0  0  0  0
   -0.2131   -0.6470    0.0000 C   0  0  0  0  0  0  0  0  0  0  0  0
    1.3561   -0.6470    0.0000 C   0  0  0  0  0  0  0  0  0  0  0  0
    1.8410    0.0204    0.0000 C   0  0  0  0  0  0  0  0  0  0  0  0
    1.3561    0.6879    0.0000 S   0  0  0  0  0  0  0  0  0  0  0  0
   -1.5231    0.0204    0.0000 C   0  0  0  0  0  0  0  0  0  0  0  0
   -1.9356   -0.6940    0.0000 O   0  0  0  0  0  0  0  0  0  0  0  0
  1  2  1  0  0  0  0
  1  5  2  0  0  0  0
  1  9  1  0  0  0  0
  3  2  2  0  0  0  0
  3  8  1  0  0  0  0
  3  4  1  0  0  0  0
  6  4  1  0  0  0  0
  5  4  1  0  0  0  0
  6  7  2  0  0  0  0
  7  8  1  0  0  0  0
  9 10  1  0  0  0  0
M  END