
          11280715152D 1   1.00000     0.00000     0

 32 35  0     0  0            999 V2000
    1.1917   -6.2417    0.0000 C   0  0  3  0  0  0           0  0  0
    0.0417   -7.9542    0.0000 O   0  0  0  0  0  0           0  0  0
    0.9542   -7.1250    0.0000 C   0  0  3  0  0  0           0  0  0
   -0.4083   -7.1667    0.0000 C   0  0  3  0  0  0           0  0  0
    0.4000   -6.7042    0.0000 C   0  0  3  0  0  0           0  0  0
    1.7792   -6.1167    0.0000 C   0  0  0  0  0  0           0  0  0
    2.7917   -7.7292    0.0000 C   0  0  0  0  0  0           0  0  0
    1.9750   -5.5500    0.0000 C   0  0  0  0  0  0           0  0  0
    1.7500   -7.7292    0.0000 N   0  0  0  0  0  0           0  0  0
    3.3042   -8.0292    0.0000 N   0  0  0  0  0  0           0  0  0
    4.5292   -6.0917    0.0000 C   0  0  0  0  0  0           0  0  0
    2.2667   -8.0292    0.0000 N   0  0  0  0  0  0           0  0  0
    1.2292   -8.0292    0.0000 C   0  0  0  0  0  0           0  0  0
    2.7917   -7.1292    0.0000 O   0  0  0  0  0  0           0  0  0
   -0.5708   -6.5792    0.0000 C   0  0  0  0  0  0           0  0  0
    0.0917   -6.1792    0.0000 C   0  0  0  0  0  0           0  0  0
    4.7250   -5.5250    0.0000 O   0  0  0  0  0  0           0  0  0
    2.5625   -5.4292    0.0000 C   0  0  0  0  0  0           0  0  0
    3.8292   -7.7292    0.0000 C   0  0  0  0  0  0           0  0  0
    4.9292   -6.5417    0.0000 O   0  0  0  0  0  0           0  0  0
    3.9417   -6.2125    0.0000 C   0  0  0  0  0  0           0  0  0
    3.5417   -5.7625    0.0000 C   0  0  0  0  0  0           0  0  0
    2.9542   -5.8792    0.0000 C   0  0  0  0  0  0           0  0  0
    1.5750   -5.1042    0.0000 C   0  0  0  0  0  0           0  0  0
    2.7500   -4.8625    0.0000 C   0  0  0  0  0  0           0  0  0
    3.8250   -7.1375    0.0000 C   0  0  0  0  0  0           0  0  0
    4.3417   -8.0292    0.0000 C   0  0  0  0  0  0           0  0  0
    1.7625   -4.5375    0.0000 C   0  0  0  0  0  0           0  0  0
    2.3542   -4.4125    0.0000 C   0  0  0  0  0  0           0  0  0
    4.8667   -7.7292    0.0000 C   0  0  0  0  0  0           0  0  0
    4.3417   -6.8292    0.0000 C   0  0  0  0  0  0           0  0  0
    4.8667   -7.1292    0.0000 C   0  0  0  0  0  0           0  0  0
  2  5  1  0     0  0
  3  1  1  0     0  0
  4  3  1  0     0  0
  5  1  1  0     0  0
  6  1  1  0     0  0
  7 12  1  0     0  0
  8  6  1  0     0  0
  9 13  2  0     0  0
 10  7  1  0     0  0
 11 21  1  0     0  0
 12  9  1  0     0  0
 13  3  1  0     0  0
 14  7  2  0     0  0
 15 16  1  0     0  0
 16  5  1  0     0  0
 17 11  2  0     0  0
 18  8  2  0     0  0
 19 10  1  0     0  0
 20 11  1  0     0  0
 21 22  1  0     0  0
 22 23  1  0     0  0
 23 18  1  0     0  0
 24  8  1  0     0  0
 25 18  1  0     0  0
 26 19  1  0     0  0
 27 19  2  0     0  0
 28 24  2  0     0  0
 29 28  1  0     0  0
 30 27  1  0     0  0
 31 26  2  0     0  0
 32 30  2  0     0  0
  4  2  1  0     0  0
  4 15  1  0     0  0
 25 29  2  0     0  0
 32 31  1  0     0  0
M  END