
          11280715492D 1   1.00000     0.00000     0

 20 20  0     1  0            999 V2000
   13.6625   -6.0250    0.0000 C   0  0  0  0  0  0           0  0  0
   13.6625   -6.8500    0.0000 C   0  0  0  0  0  0           0  0  0
   14.3745   -7.2583    0.0000 N   0  0  3  0  0  0           0  0  0
   15.0865   -6.8500    0.0000 C   0  0  0  0  0  0           0  0  0
   15.0865   -6.0250    0.0000 N   0  0  3  0  0  0           0  0  0
   14.3745   -5.6083    0.0000 C   0  0  0  0  0  0           0  0  0
   14.3745   -4.7833    0.0000 O   0  0  0  0  0  0           0  0  0
   15.8004   -7.2635    0.0000 O   0  0  0  0  0  0           0  0  0
   14.3745   -8.0833    0.0000 C   0  0  0  0  0  0           0  0  0
   13.6600   -8.4958    0.0000 C   0  0  1  0  0  0           0  0  0
   13.6600   -9.3208    0.0000 C   0  0  0  0  0  0           0  0  0
   12.9456   -8.0833    0.0000 N   0  0  0  0  0  0           0  0  0
   12.9456   -9.7333    0.0000 O   0  0  0  0  0  0           0  0  0
   14.3745   -9.7333    0.0000 O   0  0  0  0  0  0           0  0  0
   15.8022   -5.6146    0.0000 C   0  0  0  0  0  0           0  0  0
   16.5155   -6.0292    0.0000 C   0  0  0  0  0  0           0  0  0
   17.2312   -5.6188    0.0000 C   0  0  0  0  0  0           0  0  0
   17.9444   -6.0334    0.0000 O   0  0  0  0  0  0           0  0  0
   17.2336   -4.7938    0.0000 O   0  0  0  0  0  0           0  0  0
   12.9468   -5.6146    0.0000 I   0  0  0  0  0  0           0  0  0
  9 10  1  0     0  0
  3  4  1  0     0  0
 10 11  1  0     0  0
  4  5  1  0     0  0
 10 12  1  1     0  0
  5  6  1  0     0  0
 11 13  1  0     0  0
 11 14  2  0     0  0
  6  7  2  0     0  0
  5 15  1  0     0  0
  1  2  2  0     0  0
 15 16  1  0     0  0
  4  8  2  0     0  0
 16 17  1  0     0  0
  1  6  1  0     0  0
 17 18  1  0     0  0
  3  9  1  0     0  0
 17 19  2  0     0  0
  2  3  1  0     0  0
  1 20  1  0     0  0
M  END