
  SciTegic12201609462D

 30 32  0  0  0  0            999 V2000
    2.3383   -1.3500    0.0000 C   0  0
    1.2990   -0.7500    0.0000 N   0  0
    1.2990    0.7500    0.0000 C   0  0
    0.0000    1.5000    0.0000 C   0  0
    0.0000   -1.5000    0.0000 C   0  0
   -1.2990   -0.7500    0.0000 C   0  0
   -1.2990    0.7500    0.0000 N   0  0
   -2.5987    1.5004    0.0000 C   0  0
   -2.6012    3.0004    0.0000 C   0  0
   -1.3042    3.7556    0.0000 N   0  0
   -1.3088    5.2565    0.0000 C   0  0
   -0.0119    6.0117    0.0000 C   0  0
    1.2885    5.2639    0.0000 C   0  0
    2.5863    6.0160    0.0000 N   0  0
    2.5838    7.5160    0.0000 C   0  0
    1.2835    8.2639    0.0000 C   0  0
   -0.0143    7.5117    0.0000 C   0  0
    3.6220    8.1177    0.0000 O   0  0
   -2.3501    5.8529    0.0000 O   0  0
   -3.9015    3.7484    0.0000 C   0  0
   -5.1993    2.9963    0.0000 C   0  0
   -6.5018    3.7420    0.0000 N   0  3
   -6.5058    4.9420    0.0000 O   0  5
   -7.5392    3.1388    0.0000 O   0  0
   -5.1969    1.4963    0.0000 C   0  0
   -3.8967    0.7484    0.0000 C   0  0
   -1.3152    8.2600    0.0000 C   0  0
   -1.3180    9.4600    0.0000 F   0  0
   -2.3533    7.6580    0.0000 F   0  0
   -2.3557    8.8578    0.0000 F   0  0
  1  2  1  0
  2  3  1  0
  3  4  1  0
  2  5  1  0
  5  6  1  0
  6  7  1  0
  4  7  1  0
  7  8  1  0
  8  9  2  0
  9 10  1  0
 10 11  1  0
 11 12  1  0
 12 13  2  0
 13 14  1  0
 14 15  1  0
 15 16  1  0
 16 17  2  0
 12 17  1  0
 15 18  2  0
 11 19  2  0
  9 20  1  0
 20 21  2  0
 21 22  1  0
 22 23  1  0
 22 24  2  0
 21 25  1  0
 25 26  2  0
  8 26  1  0
 17 27  1  0
 27 28  1  0
 27 29  1  0
 27 30  1  0
M  CHG  2  22   1  23  -1
M  END