
          11280715142D 1   1.00000     0.00000     0

 27 28  0     0  0            999 V2000
    4.3292   -1.8625    0.0000 C   0  0  0  0  0  0           0  0  0
    4.3292   -2.6875    0.0000 C   0  0  0  0  0  0           0  0  0
    5.0292   -1.4417    0.0000 C   0  0  0  0  0  0           0  0  0
    2.1792   -1.4542    0.0000 C   0  0  0  0  0  0           0  0  0
    2.9000   -1.8667    0.0000 C   0  0  0  0  0  0           0  0  0
    1.4667   -1.8750    0.0000 C   0  0  0  0  0  0           0  0  0
    3.6125   -1.4542    0.0000 C   0  0  3  0  0  0           0  0  0
    5.7500   -1.8500    0.0000 C   0  0  0  0  0  0           0  0  0
    5.0417   -3.0917    0.0000 C   0  0  0  0  0  0           0  0  0
    7.9000   -3.0792    0.0000 C   0  0  0  0  0  0           0  0  0
    1.4667   -2.7000    0.0000 C   0  0  0  0  0  0           0  0  0
    5.7542   -2.6792    0.0000 C   0  0  0  0  0  0           0  0  0
    2.9000   -2.7000    0.0000 C   0  0  0  0  0  0           0  0  0
    8.6125   -2.6667    0.0000 O   0  0  0  0  0  0           0  0  0
    2.1792   -3.1125    0.0000 C   0  0  0  0  0  0           0  0  0
    6.4750   -3.0917    0.0000 O   0  0  0  0  0  0           0  0  0
    4.3167   -0.2125    0.0000 C   0  0  0  0  0  0           0  0  0
    0.7542   -1.4625    0.0000 C   0  0  3  0  0  0           0  0  0
    4.3167    0.6125    0.0000 C   0  0  0  0  0  0           0  0  0
    7.1875   -2.6750    0.0000 C   0  0  0  0  0  0           0  0  0
    7.9042   -3.9042    0.0000 O   0  0  0  0  0  0           0  0  0
    0.7542   -3.1125    0.0000 O   0  0  0  0  0  0           0  0  0
    3.6042   -0.6292    0.0000 C   0  0  0  0  0  0           0  0  0
    5.0292   -0.6167    0.0000 C   0  0  0  0  0  0           0  0  0
    3.6125   -3.1000    0.0000 C   0  0  0  0  0  0           0  0  0
    0.0417   -1.8750    0.0000 C   0  0  0  0  0  0           0  0  0
    0.7542   -0.6375    0.0000 C   0  0  0  0  0  0           0  0  0
  2  1  2  0     0  0
  3  1  1  0     0  0
  4  5  2  0     0  0
  5  7  1  0     0  0
  6  4  1  0     0  0
  7  1  1  0     0  0
  8  3  2  0     0  0
  9  2  1  0     0  0
 10 20  1  0     0  0
 11 15  1  0     0  0
 12  8  1  0     0  0
 13  5  1  0     0  0
 14 10  2  0     0  0
 15 13  2  0     0  0
 16 12  1  0     0  0
 17 23  1  0     0  0
 18  6  1  0     0  0
 19 17  2  0     0  0
 20 16  1  0     0  0
 21 10  1  0     0  0
 22 11  1  0     0  0
 23  7  1  0     0  0
 24  3  1  0     0  0
 25  2  1  0     0  0
 26 18  1  0     0  0
 27 18  1  0     0  0
 12  9  2  0     0  0
 11  6  2  0     0  0
M  END