
  SciTegic02011310442D

 41 46  0  0  0  0            999 V2000
   13.3834  -13.8126    0.0000 F   0  0
   12.5876  -13.6001    0.0000 C   0  0
   12.8014  -14.3955    0.0000 F   0  0
    2.8914  -12.4944    0.0000 N   0  0
    3.6079  -12.0811    0.0000 C   0  0
    3.6050  -11.2505    0.0000 N   0  0
    2.8896  -10.8414    0.0000 C   0  0
    2.1766  -12.0815    0.0000 N   0  0
    2.1778  -11.2527    0.0000 C   0  0
    1.3899  -10.9952    0.0000 C   0  0
    0.9015  -11.6652    0.0000 C   0  0
    1.3878  -12.3364    0.0000 C   0  0
    4.3229  -12.4925    0.0000 S   0  0
    5.0368  -12.0788    0.0000 C   0  0
    2.8877  -10.0165    0.0000 N   0  0
    3.6013   -9.6023    0.0000 C   0  0
    5.7485  -12.4907    0.0000 C   0  0
    6.4619  -12.0777    0.0000 C   0  0
    6.4611  -11.2519    0.0000 C   0  0
    5.7409  -10.8407    0.0000 C   0  0
    5.0305  -11.2559    0.0000 C   0  0
    4.3535   -9.9375    0.0000 C   0  0
    4.9042   -9.3232    0.0000 C   0  0
    4.4901   -8.6096    0.0000 N   0  0
    3.6836   -8.7830    0.0000 N   0  0
    5.7249   -9.4076    0.0000 C   0  0
    7.1743  -10.8372    0.0000 N   0  0
    7.8900  -11.2477    0.0000 C   0  0
    8.6033  -10.8331    0.0000 C   0  0
    9.3189  -11.2436    0.0000 N   0  0
    7.8923  -12.0727    0.0000 O   0  0
    9.4048  -12.0616    0.0000 C   0  0
   10.2122  -12.2307    0.0000 C   0  0  1  0  0  0
   10.6227  -11.5150    0.0000 C   0  0
   10.0687  -10.9037    0.0000 C   0  0
   10.5499  -12.9834    0.0000 C   0  0
   10.0669  -13.6523    0.0000 O   0  0
   11.3707  -13.0673    0.0000 N   0  0
   11.7836  -13.7765    0.0000 C   0  0
   12.6739  -12.7818    0.0000 C   0  0
   11.9193  -12.4486    0.0000 C   0  0
  2  1  1  0
  3  2  1  0
  8  4  1  0
  4  5  2  0
  5  6  1  0
  6  7  2  0
  7  9  1  0
  8  9  1  0
  9 10  2  0
 10 11  1  0
 11 12  2  0
 12  8  1  0
  5 13  1  0
 13 14  1  0
  7 15  1  0
 15 16  1  0
 14 17  2  0
 17 18  1  0
 18 19  2  0
 19 20  1  0
 20 21  2  0
 21 14  1  0
 16 22  1  0
 22 23  2  0
 23 24  1  0
 24 25  1  0
 25 16  2  0
 23 26  1  0
 19 27  1  0
 27 28  1  0
 28 29  1  0
 29 30  1  0
 28 31  2  0
 30 32  1  0
 32 33  1  0
 33 34  1  0
 34 35  1  0
 35 30  1  0
 33 36  1  1
 36 37  2  0
 36 38  1  0
 38 39  1  0
 39  2  1  0
  2 40  1  0
 40 41  1  0
 41 38  1  0
M  END