
  SciTegic11201309402D

 71 74  0  0  1  0            999 V2000
    3.4792    1.9708    0.0000 N   0  0
    4.9000    1.1458    0.0000 C   0  0
    5.2250   -1.9417    0.0000 N   0  0
    5.3500    0.4583    0.0000 N   0  0
    1.1667    1.3458    0.0000 N   0  0
    2.6542    2.0083    0.0000 C   0  0
    5.5167   -1.1667    0.0000 C   0  0
    0.6417    0.6958    0.0000 C   0  0
    4.7042   -2.5792    0.0000 C   0  0  1  0  0  0
    4.2542    1.6708    0.0000 C   0  0  2  0  0  0
    5.5667   -0.3417    0.0000 C   0  0  1  0  0  0
    0.3042   -0.8917    0.0000 N   0  0
    1.8625    1.7958    0.0000 C   0  0  1  0  0  0
    0.5167   -1.6917    0.0000 C   0  0
    0.3500   -0.0667    0.0000 C   0  0  2  0  0  0
    6.3875   -0.2542    0.0000 C   0  0
    5.2542   -3.1917    0.0000 C   0  0
    6.3250   -6.9292    0.0000 C   0  0
    0.9667   -2.3917    0.0000 C   0  0
    3.2125   -3.2417    0.0000 S   0  0
    2.4125   -3.2542    0.0000 S   0  0
    8.8000   -4.0792    0.0000 C   0  0
    7.0667   -0.7417    0.0000 C   0  0
    1.6125   -2.9042    0.0000 C   0  0
    6.7375   -7.6500    0.0000 N   0  0
    5.5167    1.7083    0.0000 O   0  0
    2.5042    2.6208    0.0000 O   0  0
   -0.0708    1.1208    0.0000 O   0  0
    6.3292   -1.3417    0.0000 O   0  0
    4.0125   -3.0292    0.0000 C   0  0
   -0.4583    0.1083    0.0000 C   0  0
    1.5167    2.5458    0.0000 C   0  0
   -0.2375   -2.0292    0.0000 O   0  0
    5.0000   -3.9792    0.0000 O   0  0
    9.2042   -3.3667    0.0000 O   0  0
    6.8792   -1.3667    0.0000 O   0  0
    6.7375   -6.2167    0.0000 N   0  0
    6.0667   -3.0167    0.0000 N   0  0
    7.9792   -4.0792    0.0000 N   0  0
    9.2125   -4.7917    0.0000 C   0  0
    5.5000   -6.9292    0.0000 N   0  0
    4.6667    2.3833    0.0000 C   0  0
    7.8917   -0.6542    0.0000 N   0  0
   -1.0125   -0.5167    0.0000 C   0  0
   -2.1208   -1.7417    0.0000 C   0  0
   10.0292   -4.7917    0.0000 N   0  0
    2.0042    3.2208    0.0000 C   0  0
   -0.7583   -1.3042    0.0000 C   0  0
   -1.8208   -0.3417    0.0000 C   0  0
   -1.3083   -1.9167    0.0000 C   0  0
   -2.3750   -0.9542    0.0000 C   0  0
   -2.6708   -2.3542    0.0000 O   0  0
    0.8417   -2.8042    0.0000 C   0  0
    2.0792   -3.5167    0.0000 C   0  0
    7.4250   -3.4667    0.0000 C   0  0
    6.6167   -3.6417    0.0000 C   0  0
    7.5625   -6.2167    0.0000 C   0  0
    8.8000   -5.5042    0.0000 C   0  0
    5.5000    2.3833    0.0000 C   0  0
    4.2542    3.1083    0.0000 C   0  0
   -3.4833   -2.1792    0.0000 C   0  0
    2.8292    3.1333    0.0000 C   0  0
    1.6667    3.9708    0.0000 C   0  0
    7.9750   -5.5042    0.0000 C   0  0
   -4.0333   -2.7917    0.0000 C   0  0
    1.6667   -4.2417    0.0000 C   0  0
    0.4292   -3.5167    0.0000 C   0  0
    2.1542    4.6417    0.0000 C   0  0
    3.3167    3.8083    0.0000 C   0  0
    2.9792    4.5542    0.0000 C   0  0
    0.8417   -4.2417    0.0000 C   0  0
  2 10  1  0
  3  7  1  0
  4  2  1  0
  5 13  1  0
  6  1  1  0
  7 11  1  0
  8  5  1  0
  9  3  1  0
 10  1  1  0
 11  4  1  0
 12 15  1  0
 13  6  1  0
 14 12  1  0
 15  8  1  0
 11 16  1  6
  9 17  1  1
 18 37  2  0
 19 14  1  0
 20 30  1  0
 21 20  1  0
 22 39  1  0
 23 16  1  0
 24 19  1  0
 25 18  1  0
 26  2  2  0
 27  6  2  0
 28  8  2  0
 29  7  2  0
  9 30  1  0
 15 31  1  6
 13 32  1  6
 33 14  2  0
 34 17  2  0
 35 22  2  0
 36 23  2  0
 37 57  1  0
 38 17  1  0
 39 55  1  0
 40 22  1  0
 41 18  1  0
 10 42  1  1
 43 23  1  0
 44 31  1  0
 45 51  2  0
 46 40  1  0
 47 32  1  0
 48 44  1  0
 49 44  2  0
 50 48  2  0
 51 49  1  0
 52 45  1  0
 53 24  1  0
 54 24  1  0
 55 56  1  0
 56 38  1  0
 57 64  1  0
 58 40  1  0
 59 42  1  0
 60 42  1  0
 61 52  1  0
 62 47  1  0
 63 47  2  0
 64 58  1  0
 65 61  1  0
 66 54  1  0
 67 53  1  0
 68 63  1  0
 69 62  2  0
 70 68  2  0
 71 66  1  0
 69 70  1  0
 50 45  1  0
 24 21  1  0
 67 71  1  0
M  END