
          11280715232D 1   1.00000     0.00000     0

 18 18  0     0  0            999 V2000
    8.6292   -7.9375    0.0000 C   0  0  0  0  0  0           0  0  0
    4.3542   -7.9500    0.0000 C   0  0  0  0  0  0           0  0  0
    9.2125   -7.3500    0.0000 C   0  0  0  0  0  0           0  0  0
    3.6417   -7.5375    0.0000 C   0  0  0  0  0  0           0  0  0
    6.4917   -7.5250    0.0000 C   0  0  0  0  0  0           0  0  0
    7.9167   -7.5250    0.0000 C   0  0  0  0  0  0           0  0  0
    5.0667   -7.5292    0.0000 C   0  0  0  0  0  0           0  0  0
    7.2042   -7.9375    0.0000 C   0  0  0  0  0  0           0  0  0
    5.7792   -7.9417    0.0000 C   0  0  0  0  0  0           0  0  0
    2.9292   -7.9417    0.0000 C   0  0  0  0  0  0           0  0  0
    9.2042   -6.5250    0.0000 O   0  0  0  0  0  0           0  0  0
    2.2167   -7.5375    0.0000 C   0  0  0  0  0  0           0  0  0
    9.9250   -7.7625    0.0000 O   0  0  0  0  0  0           0  0  0
    3.6417   -6.7125    0.0000 C   0  0  0  0  0  0           0  0  0
    5.0625   -6.7042    0.0000 C   0  0  0  0  0  0           0  0  0
    7.9125   -6.7000    0.0000 C   0  0  0  0  0  0           0  0  0
    2.2167   -6.7125    0.0000 C   0  0  0  0  0  0           0  0  0
    2.9292   -6.2917    0.0000 C   0  0  0  0  0  0           0  0  0
  2  7  1  0     0  0
  3  1  1  0     0  0
  4  2  2  0     0  0
  5  8  2  0     0  0
  6  1  2  0     0  0
  7  9  2  0     0  0
  8  6  1  0     0  0
  9  5  1  0     0  0
 10  4  1  0     0  0
 11  3  2  0     0  0
 12 10  2  0     0  0
 13  3  1  0     0  0
 14  4  1  0     0  0
 15  7  1  0     0  0
 16  6  1  0     0  0
 17 18  1  0     0  0
 18 14  1  0     0  0
 12 17  1  0     0  0
M  END