
  CDK    6/4/10,11:42

 27 31  0  0  0  0  0  0  0  0999 V2000
    0.3598  -18.4167    0.0000 C   0  0  0  0  0  0  0  0  0  0  0  0
   -0.5361  -18.6922    0.0000 C   0  0  0  0  0  0  0  0  0  0  0  0
   -0.4504  -18.2130    0.0000 C   0  0  0  0  0  0  0  0  0  0  0  0
   -1.0256  -18.1149    0.0000 C   0  0  0  0  0  0  0  0  0  0  0  0
   -0.9558  -17.5804    0.0000 C   0  0  0  0  0  0  0  0  0  0  0  0
   -1.7670  -17.9050    0.0000 C   0  0  0  0  0  0  0  0  0  0  0  0
   -0.8709  -18.9546    0.0000 C   0  0  0  0  0  0  0  0  0  0  0  0
   -1.6805  -19.2498    0.0000 C   0  0  0  0  0  0  0  0  0  0  0  0
   -0.9289  -19.3887    0.0000 C   0  0  0  0  0  0  0  0  0  0  0  0
   -2.1782  -18.6132    0.0000 C   0  0  0  0  0  0  0  0  0  0  0  0
   -2.4989  -17.5244    0.0000 N   0  0  0  0  0  0  0  0  0  0  0  0
   -4.8598  -20.7458    0.0000 C   0  0  0  0  0  0  0  0  0  0  0  0
   -4.8609  -21.5732    0.0000 C   0  0  0  0  0  0  0  0  0  0  0  0
   -4.1461  -21.9860    0.0000 C   0  0  0  0  0  0  0  0  0  0  0  0
   -3.4297  -21.5727    0.0000 C   0  0  0  0  0  0  0  0  0  0  0  0
   -3.4325  -20.7422    0.0000 C   0  0  0  0  0  0  0  0  0  0  0  0
   -4.1479  -20.3330    0.0000 C   0  0  0  0  0  0  0  0  0  0  0  0
   -4.1526  -19.5044    0.0000 N   0  0  0  0  0  0  0  0  0  0  0  0
   -3.4866  -19.0175    0.0000 C   0  0  0  0  0  0  0  0  0  0  0  0
   -3.7439  -18.2336    0.0000 C   0  0  0  0  0  0  0  0  0  0  0  0
   -4.5689  -18.2361    0.0000 N   0  0  0  0  0  0  0  0  0  0  0  0
   -4.8214  -19.0215    0.0000 C   0  0  0  0  0  0  0  0  0  0  0  0
   -2.7012  -19.2701    0.0000 C   0  0  0  0  0  0  0  0  0  0  0  0
   -3.3261  -17.5220    0.0000 C   0  0  0  0  0  0  0  0  0  0  0  0
   -3.7332  -16.8045    0.0000 O   0  0  0  0  0  0  0  0  0  0  0  0
   -5.6052  -19.2788    0.0000 C   0  0  0  0  0  0  0  0  0  0  0  0
   -5.7743  -20.0863    0.0000 C   0  0  0  0  0  0  0  0  0  0  0  0
 12 13  2  0  0  0  0 
  2  4  1  0  0  0  0 
 13 14  1  0  0  0  0 
  3  5  1  0  0  0  0 
 14 15  2  0  0  0  0 
  4  6  1  0  0  0  0 
 15 16  1  0  0  0  0 
  5  6  1  0  0  0  0 
 16 17  2  0  0  0  0 
 17 12  1  0  0  0  0 
 18 19  1  0  0  0  0 
  7  8  1  0  0  0  0 
  3  7  1  0  0  0  0 
  2  9  1  0  0  0  0 
  6 10  1  0  0  0  0 
 10  8  1  0  0  0  0 
 19 20  2  0  0  0  0 
 20 21  1  0  0  0  0 
 21 22  2  0  0  0  0 
 22 18  1  0  0  0  0 
 17 18  1  0  0  0  0 
  8  9  1  0  0  0  0 
 19 23  1  0  0  0  0 
 20 24  1  0  0  0  0 
 24 11  1  0  0  0  0 
  6 11  1  0  0  0  0 
 24 25  2  0  0  0  0 
  1  2  1  0  0  0  0 
 22 26  1  0  0  0  0 
  1  3  1  0  0  0  0 
 26 27  1  0  0  0  0 
M  END