
  SciTegic11161115462D

 34 35  0  0  0  0            999 V2000
   -3.7417   -0.0792    0.0000 C   0  0
   -3.7417   -0.9042    0.0000 C   0  0
   -3.0296   -1.3125    0.0000 C   0  0
   -2.3176   -0.9042    0.0000 C   0  0
   -2.3176   -0.0792    0.0000 C   0  0
   -3.0296    0.3375    0.0000 C   0  0
   -1.6020    0.3312    0.0000 C   0  0
   -0.8887   -0.0834    0.0000 C   0  0
   -0.1730    0.3271    0.0000 C   0  0
    0.5402   -0.0875    0.0000 C   0  0
    1.2559    0.3229    0.0000 C   0  0
    1.9692   -0.0917    0.0000 C   0  0
    2.6849    0.3187    0.0000 C   0  0
    3.3981   -0.0959    0.0000 C   0  0
    4.1138    0.3145    0.0000 C   0  0
    4.8270   -0.1001    0.0000 N   0  0
    2.6873    1.1437    0.0000 C   0  0
   -0.1706    1.1520    0.0000 C   0  0
    4.1162    1.1395    0.0000 O   0  0
    5.5427    0.3103    0.0000 C   0  0
    6.2531   -0.1070    0.0000 C   0  0
    6.9683    0.3027    0.0000 C   0  0
    6.9711    1.1286    0.0000 C   0  0
    6.2529    1.5430    0.0000 C   0  0
    5.5406    1.1309    0.0000 C   0  0
    7.6863    1.5399    0.0000 O   0  0
    8.4001    1.1263    0.0000 C   0  0
    9.1152    1.5376    0.0000 C   0  0
    9.8290    1.1240    0.0000 O   0  0
    9.1165    2.3626    0.0000 O   0  0
   10.5442    1.5353    0.0000 C   0  0
   -3.4500    1.0542    0.0000 C   0  0
   -2.6250    1.0542    0.0000 C   0  0
   -1.6038   -1.3177    0.0000 C   0  0
 13 17  1  0
  1  6  1  0
  9 18  1  0
  8  9  1  0
 15 19  2  0
  2  3  1  0
 16 20  1  0
  9 10  2  0
 20 21  2  0
  3  4  1  0
 21 22  1  0
 10 11  1  0
 22 23  2  0
  4  5  2  0
 23 24  1  0
 11 12  2  0
 24 25  2  0
 25 20  1  0
  5  6  1  0
 23 26  1  0
 12 13  1  0
 26 27  1  0
 27 28  1  0
 13 14  2  0
 28 29  1  0
  5  7  1  0
 28 30  2  0
 14 15  1  0
 29 31  1  0
  1  2  1  0
  6 32  1  0
 15 16  1  0
  6 33  1  0
  7  8  2  0
  4 34  1  0
M  END