
  SciTegic01061111512D

 43 45  0  0  0  0            999 V2000
    3.5918  -16.8534    0.0000 C   0  0  1  0  0  0
    4.4177  -16.8534    0.0000 C   0  0
    4.9317  -17.4871    0.0000 C   0  0  1  0  0  0
    3.2888  -18.2092    0.0000 C   0  0
    3.1543  -17.3846    0.0000 C   0  0  2  0  0  0
    2.3237  -17.2914    0.0000 C   0  0  1  0  0  0
    1.9908  -18.0323    0.0000 C   0  0  2  0  0  0
    2.5707  -18.6122    0.0000 C   0  0
    4.7476  -18.2893    0.0000 C   0  0  1  0  0  0
    4.0014  -18.6167    0.0000 C   0  0  1  0  0  0
    4.0714  -19.4507    0.0000 O   0  0
    4.8867  -19.6508    0.0000 C   0  0
    5.2990  -18.9312    0.0000 C   0  0  1  0  0  0
    5.2086  -20.4104    0.0000 O   0  0
    5.5548  -18.0908    0.0000 O   0  0
    2.4592  -19.4307    0.0000 C   0  0
    1.1758  -18.1796    0.0000 O   0  0
    1.9083  -16.5734    0.0000 O   0  0
    5.7565  -17.5022    0.0000 O   0  0
    0.8954  -18.9633    0.0000 C   0  0
    1.3961  -19.6221    0.0000 O   0  0
    0.0810  -19.1098    0.0000 C   0  0
   -0.2397  -19.8748    0.0000 C   0  0
   -0.4156  -18.4511    0.0000 C   0  0
    0.2569  -20.5336    0.0000 C   0  0
    2.5679  -16.7983    0.0000 H   0  0
    3.4151  -19.2031    0.0000 H   0  0
    6.1208  -18.9292    0.0000 O   0  0
    5.7042  -19.6417    0.0000 C   0  0
    4.0000  -16.1333    0.0000 O   0  0
    3.0042  -16.2625    0.0000 C   0  0
    1.1917  -16.1583    0.0000 C   0  0
    1.1928  -15.3333    0.0000 O   0  0
    0.4767  -16.5699    0.0000 C   0  0
   -0.2373  -16.1564    0.0000 C   0  0
   -0.9523  -16.5680    0.0000 C   0  0
   -1.6662  -16.1546    0.0000 C   0  0
   -2.3812  -16.5661    0.0000 C   0  0
   -3.0952  -16.1527    0.0000 C   0  0
   -3.8102  -16.5642    0.0000 C   0  0
    4.7125  -15.7167    0.0000 C   0  0
    5.4293  -16.1252    0.0000 O   0  0
    4.7079  -14.8917    0.0000 C   0  0
  6 18  1  1
  3 19  1  6
 17 20  1  0
 20 21  2  0
 20 22  1  0
 22 23  2  0
 22 24  1  0
 23 25  1  0
  5 26  1  1
 10 27  1  6
  5  1  1  0
  1  2  1  0
  2  3  1  0
  4 10  1  0
 13 28  1  6
  3  9  1  0
 13 29  1  0
  4  5  1  0
  1 30  1  1
  5  6  1  0
  1 31  1  0
  6  7  1  0
 18 32  1  0
  7  8  1  0
 32 33  2  0
  8  4  2  0
 32 34  1  0
  9 10  1  0
 34 35  1  0
 10 11  1  0
 35 36  1  0
 11 12  1  0
 36 37  1  0
 12 13  1  0
 37 38  1  0
 13  9  1  0
 38 39  1  0
 12 14  2  0
 39 40  1  0
  9 15  1  1
 30 41  1  0
  8 16  1  0
 41 42  2  0
  7 17  1  6
 41 43  1  0
M  END