
          01230816042D 1   1.00000     0.00000     0

 40 43  0     0  0            999 V2000
    3.7027  -18.0750    0.0000 C   0  0  0  0  0  0           0  0  0
    3.7016  -18.9023    0.0000 C   0  0  0  0  0  0           0  0  0
    4.4164  -19.3152    0.0000 C   0  0  0  0  0  0           0  0  0
    4.4146  -17.6622    0.0000 C   0  0  0  0  0  0           0  0  0
    5.7958  -19.4183    0.0000 C   0  0  0  0  0  0           0  0  0
    6.6288  -19.1992    0.0000 N   0  0  0  0  0  0           0  0  0
    6.9475  -18.4480    0.0000 N   0  0  3  0  0  0           0  0  0
    5.1302  -18.9040    0.0000 C   0  0  0  0  0  0           0  0  0
    5.1300  -18.0713    0.0000 C   0  0  0  0  0  0           0  0  0
    5.8091  -17.5297    0.0000 N   0  0  3  0  0  0           0  0  0
    6.5888  -17.7094    0.0000 C   0  0  0  0  0  0           0  0  0
    7.1029  -17.0641    0.0000 O   0  0  0  0  0  0           0  0  0
    7.7723  -18.4270    0.0000 C   0  0  0  0  0  0           0  0  0
    8.2028  -19.1307    0.0000 C   0  0  0  0  0  0           0  0  0
    9.0275  -19.1097    0.0000 N   0  0  0  0  0  0           0  0  0
    7.8086  -19.8555    0.0000 O   0  0  0  0  0  0           0  0  0
    9.4581  -19.8135    0.0000 C   0  0  0  0  0  0           0  0  0
    9.0616  -20.5371    0.0000 C   0  0  0  0  0  0           0  0  0
    9.4915  -21.2404    0.0000 C   0  0  0  0  0  0           0  0  0
   10.3171  -21.2198    0.0000 C   0  0  0  0  0  0           0  0  0
   10.7110  -20.4900    0.0000 C   0  0  0  0  0  0           0  0  0
   10.2788  -19.7898    0.0000 C   0  0  0  0  0  0           0  0  0
    5.7740  -16.7054    0.0000 C   0  0  0  0  0  0           0  0  0
   11.5356  -20.4661    0.0000 C   0  0  0  0  0  0           0  0  0
    5.6316  -20.2268    0.0000 C   0  0  3  0  0  0           0  0  0
    4.8488  -20.4841    0.0000 C   0  0  0  0  0  0           0  0  0
    4.6834  -21.2887    0.0000 C   0  0  0  0  0  0           0  0  0
    5.2989  -21.8386    0.0000 C   0  0  0  0  0  0           0  0  0
    6.0827  -21.5781    0.0000 C   0  0  0  0  0  0           0  0  0
    6.2510  -20.7677    0.0000 C   0  0  0  0  0  0           0  0  0
    5.0427  -16.3237    0.0000 C   0  0  0  0  0  0           0  0  0
    4.3464  -16.7662    0.0000 O   0  0  0  0  0  0           0  0  0
    5.0076  -15.4994    0.0000 C   0  0  3  0  0  0           0  0  0
    5.0000  -14.6708    0.0000 C   0  0  0  0  0  0           0  0  0
    4.1829  -15.5207    0.0000 C   0  0  0  0  0  0           0  0  0
    5.8324  -15.4818    0.0000 C   0  0  0  0  0  0           0  0  0
   11.9687  -21.1684    0.0000 C   0  0  0  0  0  0           0  0  0
   12.7933  -21.1445    0.0000 C   0  0  0  0  0  0           0  0  0
   13.2263  -21.8467    0.0000 O   0  0  0  0  0  0           0  0  0
   13.1850  -20.4184    0.0000 O   0  0  0  0  0  0           0  0  0
  5  8  1  0     0  0
 19 20  2  0     0  0
  9 10  1  0     0  0
 20 21  1  0     0  0
 10 11  1  0     0  0
 21 22  2  0     0  0
 22 17  1  0     0  0
 11  7  1  0     0  0
 10 23  1  0     0  0
  8  9  1  0     0  0
 21 24  1  0     0  0
  2  3  1  0     0  0
  5 25  1  0     0  0
 25 26  1  0     0  0
 11 12  2  0     0  0
  3  8  2  0     0  0
  7 13  1  0     0  0
  1  2  2  0     0  0
 13 14  1  0     0  0
 25 30  1  0     0  0
 26 27  1  0     0  0
 27 28  1  0     0  0
 28 29  1  0     0  0
 29 30  1  0     0  0
  9  4  2  0     0  0
 23 31  1  0     0  0
 14 15  1  0     0  0
 31 32  2  0     0  0
  4  1  1  0     0  0
 31 33  1  0     0  0
 14 16  2  0     0  0
 33 34  1  0     0  0
 33 35  1  0     0  0
 15 17  1  0     0  0
 33 36  1  0     0  0
  5  6  2  0     0  0
 24 37  1  0     0  0
 17 18  2  0     0  0
 37 38  1  0     0  0
  6  7  1  0     0  0
 38 39  2  0     0  0
 18 19  1  0     0  0
 38 40  1  0     0  0
M  END