
  SciTegic12231509382D

 21 23  0  0  0  0            999 V2000
   -0.3000  -26.2667    0.0000 O   0  0
   -1.0125  -26.6875    0.0000 C   0  0
   -1.0208  -27.5125    0.0000 C   0  0
    0.4167  -26.6875    0.0000 C   0  0  2  0  0  0
   -0.3000  -27.9292    0.0000 C   0  0
   -1.7333  -27.9292    0.0000 C   0  0
    1.1292  -26.2792    0.0000 C   0  0
    0.4167  -27.5167    0.0000 C   0  0  2  0  0  0
   -1.7333  -26.2750    0.0000 C   0  0
   -2.4458  -27.5167    0.0000 C   0  0
    1.1292  -25.4542    0.0000 C   0  0
    1.8417  -25.0417    0.0000 C   0  0
   -2.4458  -26.6875    0.0000 C   0  0
    2.5625  -25.4542    0.0000 C   0  0
    1.8417  -26.6917    0.0000 C   0  0
    2.5542  -26.2875    0.0000 C   0  0
   -1.7250  -28.7542    0.0000 O   0  0
    1.1292  -27.9292    0.0000 O   0  0
    1.8417  -24.2167    0.0000 O   0  0
    3.2792  -25.0500    0.0000 O   0  0
   -3.1583  -26.2792    0.0000 O   0  0
  2  1  1  0
  3  2  1  0
  4  1  1  0
  5  8  1  0
  6  3  2  0
  4  7  1  6
  8  4  1  0
  9  2  2  0
 10 13  2  0
 11  7  1  0
 12 11  2  0
 13  9  1  0
 14 16  2  0
 15  7  2  0
 16 15  1  0
 17  6  1  0
  8 18  1  1
 19 12  1  0
 20 14  1  0
 21 13  1  0
  3  5  1  0
 10  6  1  0
 12 14  1  0
M  END