
  SciTegic12011114592D

 42 47  0  0  0  0            999 V2000
   16.8885  -26.8727    0.0000 N   0  0
   17.6038  -26.4630    0.0000 C   0  0
   17.6066  -25.6370    0.0000 N   0  0
   16.8883  -25.2226    0.0000 C   0  0
   16.8878  -24.3975    0.0000 N   0  0
   17.6025  -23.9844    0.0000 C   0  0
   18.3168  -26.8779    0.0000 S   0  0
   19.0328  -26.4679    0.0000 C   0  0
   19.7417  -26.8859    0.0000 C   0  0
   20.4571  -26.4765    0.0000 C   0  0
   20.4604  -25.6506    0.0000 C   0  0
   19.7422  -25.2358    0.0000 C   0  0
   19.0298  -25.6475    0.0000 C   0  0
   21.1758  -25.2396    0.0000 N   0  0
   18.3882  -24.2326    0.0000 C   0  0
   18.8674  -23.5609    0.0000 C   0  0
   18.3765  -22.8976    0.0000 N   0  0
   17.5942  -23.1594    0.0000 N   0  0
   19.6923  -23.5537    0.0000 C   0  0
   15.4016  -25.3834    0.0000 C   0  0
   14.9204  -26.0447    0.0000 C   0  0
   15.4007  -26.7064    0.0000 C   0  0
   16.1785  -26.4543    0.0000 N   0  0
   16.1791  -25.6365    0.0000 C   0  0
   21.8894  -25.6535    0.0000 C   0  0
   22.6049  -25.2425    0.0000 C   0  0
   23.3184  -25.6570    0.0000 N   0  0
   21.8877  -26.4786    0.0000 O   0  0
   23.3098  -26.4775    0.0000 C   0  0
   24.0917  -26.7409    0.0000 C   0  0  1  0  0  0
   24.5839  -26.0787    0.0000 C   0  0
   24.1061  -25.4061    0.0000 C   0  0  1  0  0  0
   24.3675  -24.6235    0.0000 C   0  0
   25.1760  -24.4586    0.0000 O   0  0
   24.3381  -27.5284    0.0000 O   0  0
   25.1433  -27.7086    0.0000 C   0  0
   25.3872  -28.4957    0.0000 C   0  0
   26.1915  -28.6762    0.0000 C   0  0
   26.7511  -28.0686    0.0000 C   0  0
   26.5009  -27.2780    0.0000 C   0  0
   25.6971  -27.1013    0.0000 C   0  0
   27.5565  -28.2478    0.0000 F   0  0
 23 24  1  0
  8  9  2  0
  4 24  1  0
 21 22  2  0
  9 10  1  0
  1  2  2  0
 10 11  2  0
 20 21  1  0
 22 23  1  0
 24 20  2  0
  4  5  1  0
 14 25  1  0
 11 12  1  0
 25 26  1  0
 23  1  1  0
 26 27  1  0
 12 13  2  0
 25 28  2  0
 27 29  1  0
 13  8  1  0
  5  6  1  0
 11 14  1  0
 17 18  1  0
 29 30  1  0
 30 31  1  0
 31 32  1  0
 32 27  1  0
  2  3  1  0
 32 33  1  6
 15 16  2  0
 33 34  1  0
  2  7  1  0
 30 35  1  1
 35 36  1  0
  7  8  1  0
 36 37  2  0
  6 15  1  0
 37 38  1  0
 16 17  1  0
 38 39  2  0
 18  6  2  0
 39 40  1  0
  3  4  2  0
 40 41  2  0
 41 36  1  0
 16 19  1  0
 39 42  1  0
M  END