
  SciTegic01091216402D

 25 27  0  0  0  0            999 V2000
   -0.6460  -12.5532    0.0000 N   0  0
   -0.6274  -13.3795    0.0000 N   0  0
    0.1611  -13.6128    0.0000 C   0  0
    0.6309  -12.9332    0.0000 C   0  0
    0.1295  -12.2790    0.0000 C   0  0
   -1.3253  -12.0831    0.0000 C   0  0
   -2.0428  -12.4904    0.0000 N   0  0
   -1.3179  -11.2605    0.0000 N   0  0
    1.4572  -12.9146    0.0000 C   0  0
    1.8847  -13.6174    0.0000 C   0  0
   -0.6005  -10.8533    0.0000 C   0  0
    0.1096  -11.2686    0.0000 C   0  0
   -2.7535  -12.0739    0.0000 S   0  0
   -2.3376  -11.3650    0.0000 O   0  0
   -3.4559  -12.5088    0.0000 C   0  0
   -3.4298  -13.3334    0.0000 C   0  0
   -4.1323  -13.7684    0.0000 C   0  0
   -4.8608  -13.3787    0.0000 C   0  0
   -3.3417  -11.4833    0.0000 O   0  0
   -4.8859  -12.5558    0.0000 C   0  0
   -4.1845  -12.1192    0.0000 C   0  0
   -4.2129  -11.2953    0.0000 C   0  0
   -4.9419  -10.9071    0.0000 C   0  0
   -5.6439  -11.3488    0.0000 C   0  0
   -5.6121  -12.1712    0.0000 C   0  0
  6  8  1  0
  1  6  1  0
  9 10  1  0
  4  9  1  0
 11 12  1  0
  8 11  1  0
 13 14  2  0
 15 16  1  0
 16 17  2  0
 17 18  1  0
 18 20  2  0
 15 21  2  0
 13 15  1  0
  7 13  1  0
 13 19  2  0
  1  2  1  0
  2  3  2  0
 20 21  1  0
  3  4  1  0
 21 22  1  0
  4  5  1  0
 22 23  2  0
  1  5  1  0
 23 24  1  0
  6  7  2  0
 24 25  2  0
 25 20  1  0
M  END