
  CDK    6/4/10,11:42

 23 22  0  0  0  0  0  0  0  0999 V2000
   21.7666   -4.7746    0.0000 C   0  0  0  0  0  0  0  0  0  0  0  0
   21.7678   -5.6020    0.0000 C   0  0  0  0  0  0  0  0  0  0  0  0
   21.0530   -6.0149    0.0000 C   0  0  0  0  0  0  0  0  0  0  0  0
   20.3365   -5.6015    0.0000 N   0  0  0  0  0  0  0  0  0  0  0  0
   20.3394   -4.7710    0.0000 C   0  0  0  0  0  0  0  0  0  0  0  0
   21.0548   -4.3619    0.0000 C   0  0  0  0  0  0  0  0  0  0  0  0
   16.0486   -4.7791    0.0000 C   0  0  0  0  0  0  0  0  0  0  0  0
   16.0474   -5.6065    0.0000 C   0  0  0  0  0  0  0  0  0  0  0  0
   16.7622   -6.0194    0.0000 C   0  0  0  0  0  0  0  0  0  0  0  0
   17.4787   -5.6060    0.0000 N   0  0  0  0  0  0  0  0  0  0  0  0
   17.4758   -4.7755    0.0000 C   0  0  0  0  0  0  0  0  0  0  0  0
   16.7604   -4.3664    0.0000 C   0  0  0  0  0  0  0  0  0  0  0  0
   18.1938   -6.0174    0.0000 C   0  0  0  0  0  0  0  0  0  0  0  0
   18.9076   -5.6038    0.0000 C   0  0  0  0  0  0  0  0  0  0  0  0
   19.6227   -6.0152    0.0000 C   0  0  0  0  0  0  0  0  0  0  0  0
   22.4812   -4.3623    0.0000 C   0  0  0  0  0  0  0  0  0  0  0  0
   23.1956   -4.7750    0.0000 N   0  0  0  0  0  0  0  0  0  0  0  0
   22.4814   -3.5373    0.0000 O   0  0  0  0  0  0  0  0  0  0  0  0
   15.3340   -4.3668    0.0000 C   0  0  0  0  0  0  0  0  0  0  0  0
   15.3338   -3.5418    0.0000 N   0  0  0  0  0  0  0  0  0  0  0  0
   14.6192   -3.1295    0.0000 O   0  0  0  0  0  0  0  0  0  0  0  0
   18.1562   -4.7188    0.0000 Br  0  0  0  0  0  0  0  0  0  0  0  0
   19.6562   -4.6562    0.0000 Br  0  0  0  0  0  0  0  0  0  0  0  0
 10 11  1  0  0  0  0 
  5  6  2  0  0  0  0 
 11 12  2  0  0  0  0 
 12  7  1  0  0  0  0 
  6  1  1  0  0  0  0 
 10 13  1  0  0  0  0 
  1  2  2  0  0  0  0 
 13 14  1  0  0  0  0 
  3  4  2  0  0  0  0 
 14 15  1  0  0  0  0 
 15  4  1  0  0  0  0 
  7  8  2  0  0  0  0 
  1 16  1  0  0  0  0 
 16 17  1  0  0  0  0 
  8  9  1  0  0  0  0 
 16 18  2  0  0  0  0 
  4  5  1  0  0  0  0 
  7 19  1  0  0  0  0 
  9 10  2  0  0  0  0 
 19 20  2  0  0  0  0 
  2  3  1  0  0  0  0 
 20 21  1  0  0  0  0 
M  CHG  1   4   1
M  CHG  1  10   1
M  CHG  1  22  -1
M  CHG  1  23  -1
M  END