
  SciTegic06051315212D

 55 57  0  0  0  0            999 V2000
    4.6708   -7.4625    0.0000 C   0  0
    5.3852   -7.0500    0.0000 C   0  0
    4.6708   -8.2875    0.0000 C   0  0
    6.0997   -7.4625    0.0000 C   0  0
    5.3852   -6.2250    0.0000 C   0  0
    6.0997   -8.2875    0.0000 O   0  0
    6.8141   -7.0500    0.0000 O   0  0
    7.4589   -7.5640    0.0000 C   0  0  1  0  0  0
    7.4216   -8.3881    0.0000 C   0  0
    8.2511   -7.3429    0.0000 C   0  0  2  0  0  0
    6.7331   -8.8426    0.0000 C   0  0
    8.1996   -8.6799    0.0000 C   0  0
    8.7085   -8.0307    0.0000 C   0  0  1  0  0  0
    9.5391   -8.0209    0.0000 C   0  0  1  0  0  0
   10.0649   -8.6597    0.0000 C   0  0
    9.8875   -9.4675    0.0000 C   0  0  1  0  0  0
    9.0432  -10.6671    0.0000 C   0  0  2  0  0  0
    9.1453   -9.8387    0.0000 C   0  0  2  0  0  0
    8.3880   -9.4865    0.0000 C   0  0  1  0  0  0
    7.8198  -10.0990    0.0000 O   0  0
    8.2280  -10.8278    0.0000 C   0  0
    7.8819  -11.5767    0.0000 O   0  0
    9.0374  -11.4915    0.0000 C   0  0
    9.8374  -10.8791    0.0000 O   0  0
    9.9374  -10.0499    0.0000 O   0  0
    9.3207   -7.2208    0.0000 C   0  0
   10.2499   -7.6041    0.0000 O   0  0
   10.2443   -6.7791    0.0000 C   0  0
   10.9560   -6.3617    0.0000 O   0  0
    9.5271   -6.3714    0.0000 C   0  0
   10.7130   -9.4717    0.0000 O   0  0
   11.1292   -8.7594    0.0000 C   0  0
   11.9542   -8.7639    0.0000 C   0  0
   10.7207   -8.0427    0.0000 O   0  0
   12.3706   -8.0516    0.0000 C   0  0
   13.1956   -8.0561    0.0000 C   0  0
    8.5291   -6.5669    0.0000 O   0  0
    8.1131   -5.8545    0.0000 C   0  0
    8.5220   -5.1380    0.0000 O   0  0
    7.2881   -5.8586    0.0000 C   0  0
    8.9207   -8.8249    0.0000 H   0  0
    6.8721   -5.1462    0.0000 C   0  0
    6.0471   -5.1503    0.0000 C   0  0
    5.6309   -4.4380    0.0000 C   0  0
    4.8060   -4.4421    0.0000 C   0  0
    4.3899   -3.7297    0.0000 C   0  0
    3.5650   -3.7338    0.0000 C   0  0
   10.6767  -10.4151    0.0000 C   0  0
   10.6509  -11.2397    0.0000 O   0  0
   11.3999  -10.0172    0.0000 C   0  0
   12.1057  -10.4443    0.0000 C   0  0
   12.8285  -10.0467    0.0000 C   0  0
   13.5343  -10.4738    0.0000 C   0  0
   14.2571  -10.0762    0.0000 C   0  0
    7.5874   -9.2666    0.0000 H   0  0
  1  2  2  0
  1  3  1  0
  2  4  1  0
  2  5  1  0
  4  6  2  0
  4  7  1  0
  8  7  1  6
  9 12  2  0
  8  9  1  0
 13 10  1  0
 10  8  1  0
  9 11  1  0
 12 13  1  0
 13 14  1  0
 12 19  1  0
 14 15  1  0
 15 16  1  0
 18 16  1  0
 18 19  1  0
 17 18  1  0
 19 20  1  0
 20 21  1  0
 21 17  1  0
 21 22  2  0
 17 23  1  1
 17 24  1  0
 18 25  1  1
 14 26  1  0
 14 27  1  1
 27 28  1  0
 28 29  2  0
 28 30  1  0
 16 31  1  6
 31 32  1  0
 32 33  1  0
 32 34  2  0
 33 35  1  0
 35 36  1  0
 10 37  1  1
 37 38  1  0
 38 39  2  0
 38 40  1  0
 13 41  1  1
 40 42  1  0
 42 43  1  0
 43 44  1  0
 44 45  1  0
 45 46  1  0
 46 47  1  0
 25 48  1  0
 48 49  2  0
 48 50  1  0
 50 51  1  0
 51 52  1  0
 52 53  1  0
 53 54  1  0
 19 55  1  6
M  END