
  SciTegic10311316212D

 25 27  0  0  0  0            999 V2000
    9.9081  -29.0639    0.0000 C   0  0
    9.9069  -29.8834    0.0000 C   0  0
   10.6150  -30.2924    0.0000 C   0  0
   11.3246  -29.8830    0.0000 C   0  0
   11.3218  -29.0603    0.0000 C   0  0
   10.6132  -28.6550    0.0000 C   0  0
   10.6049  -27.8369    0.0000 N   0  0
   11.2646  -27.3546    0.0000 C   0  0
   11.0097  -26.5782    0.0000 N   0  0
   10.1925  -26.5806    0.0000 N   0  0
    9.9424  -27.3586    0.0000 C   0  0
   12.0425  -27.6048    0.0000 S   0  0
   12.6482  -27.0562    0.0000 C   0  0
   13.4261  -27.3064    0.0000 C   0  0
   14.0318  -26.7577    0.0000 O   0  0
   13.5984  -28.1052    0.0000 O   0  0
    9.1655  -27.6175    0.0000 C   0  0
    8.5566  -27.0708    0.0000 C   0  0
    7.7808  -27.3251    0.0000 C   0  0
    7.6127  -28.1257    0.0000 C   0  0
    8.2266  -28.6716    0.0000 C   0  0
    9.0000  -28.4143    0.0000 C   0  0
   10.6148  -31.1096    0.0000 Cl  0  0
   12.0330  -30.2905    0.0000 Cl  0  0
    6.8366  -28.3817    0.0000 O   0  0
  1  2  2  0
  2  3  1  0
  3  4  2  0
  4  5  1  0
  5  6  2  0
  6  1  1  0
  7  8  1  0
  8  9  2  0
  9 10  1  0
 10 11  2  0
 11  7  1  0
  6  7  1  0
  8 12  1  0
 12 13  1  0
 13 14  1  0
 14 15  1  0
 14 16  2  0
 17 18  2  0
 18 19  1  0
 19 20  2  0
 20 21  1  0
 21 22  2  0
 22 17  1  0
 11 17  1  0
  3 23  1  0
  4 24  1  0
 20 25  1  0
M  END