
  SciTegic02131210002D

 44 48  0  0  0  0            999 V2000
   -1.7197  -11.6422    0.0000 C   0  0
   -2.1281  -10.9261    0.0000 C   0  0
   -2.9537  -10.9261    0.0000 C   0  0
   -3.3707  -11.6422    0.0000 C   0  0
   -2.1281  -12.3537    0.0000 N   0  0
   -2.9536  -12.3583    0.0000 C   0  0
   -3.2031  -13.1449    0.0000 C   0  0
   -2.5359  -13.6283    0.0000 C   0  0
   -1.8700  -13.1377    0.0000 C   0  0
   -4.1980  -11.6421    0.0000 C   0  0
   -4.6087  -10.9266    0.0000 O   0  0
   -4.6086  -12.3576    0.0000 O   0  0
   -5.4342  -10.9267    0.0000 C   0  0
   -1.7164  -10.2112    0.0000 N   0  0
   -0.8942  -11.6434    0.0000 O   0  0
   -1.1574  -13.5485    0.0000 C   0  0
   -1.1553  -14.3740    0.0000 O   0  0
   -0.4429  -13.1319    0.0000 N   0  0
    0.2736  -13.5449    0.0000 C   0  0  2  0  0  0
    0.9880  -13.1283    0.0000 C   0  0
    0.2756  -14.3704    0.0000 C   0  0
    0.9921  -14.7793    0.0000 C   0  0
    1.7045  -13.5372    0.0000 O   0  0
    0.9859  -12.3028    0.0000 N   0  0
    1.7004  -11.8862    0.0000 C   0  0
    1.6983  -11.0607    0.0000 C   0  0
    2.4108  -10.6521    0.0000 C   0  0
    2.4091   -9.8273    0.0000 C   0  0
    1.6962   -9.4134    0.0000 C   0  0
    0.9794   -9.8345    0.0000 C   0  0
    0.9846  -10.6578    0.0000 C   0  0
   -2.1261   -9.4993    0.0000 C   0  0
   -1.7144   -8.7844    0.0000 C   0  0
   -2.9517   -9.4982    0.0000 O   0  0
    0.9942  -15.6049    0.0000 C   0  0
    0.3311  -16.0943    0.0000 C   0  0
    0.5869  -16.8790    0.0000 N   0  0
    1.6643  -16.0909    0.0000 C   0  0
    1.4131  -16.8737    0.0000 C   0  0
    1.9653  -17.4784    0.0000 C   0  0
    2.7690  -17.3059    0.0000 C   0  0
    3.0173  -16.5189    0.0000 C   0  0
    2.4633  -15.9133    0.0000 C   0  0
    0.2694  -11.8898    0.0000 C   0  0
  5  6  1  0
 21 22  1  0
 20 23  2  0
 10 11  1  0
 20 24  1  0
 10 12  2  0
 24 25  1  0
  4 10  1  0
 25 26  1  0
  6  4  2  0
 26 27  2  0
 11 13  1  0
 27 28  1  0
  5  1  1  0
 28 29  2  0
  2 14  1  0
 29 30  1  0
  1  2  1  0
 30 31  2  0
 31 26  1  0
  1 15  2  0
 14 32  1  0
  2  3  1  0
 32 33  1  0
  9 16  1  0
 32 34  2  0
  6  7  1  0
 22 35  1  0
 35 36  2  0
 16 17  2  0
  7  8  1  0
 36 37  1  0
 37 39  1  0
 38 35  1  0
 16 18  1  0
  8  9  1  0
 38 39  2  0
 18 19  1  0
 39 40  1  0
  9  5  1  0
 40 41  2  0
 19 20  1  0
 41 42  1  0
  3  4  1  0
 42 43  2  0
 43 38  1  0
 19 21  1  6
 24 44  1  0
M  END