
          11280715462D 1   1.00000     0.00000     0

 25 27  0     0  0            999 V2000
    6.1125   -2.6167    0.0000 N   0  0  3  0  0  0           0  0  0
    5.4042   -3.0292    0.0000 C   0  0  0  0  0  0           0  0  0
   10.4167   -1.7250    0.0000 C   0  0  0  0  0  0           0  0  0
   11.1250   -1.3042    0.0000 C   0  0  0  0  0  0           0  0  0
    5.4042   -3.8542    0.0000 C   0  0  0  0  0  0           0  0  0
    7.5417   -1.7792    0.0000 N   0  0  3  0  0  0           0  0  0
    4.6792   -2.6250    0.0000 C   0  0  0  0  0  0           0  0  0
    4.6917   -4.2792    0.0000 C   0  0  0  0  0  0           0  0  0
    6.8250   -3.0167    0.0000 C   0  0  0  0  0  0           0  0  0
    6.1125   -1.7792    0.0000 C   0  0  0  0  0  0           0  0  0
   10.4375   -2.5542    0.0000 O   0  0  0  0  0  0           0  0  0
   12.5417   -1.2792    0.0000 N   0  0  0  0  0  0           0  0  0
    9.6917   -1.3167    0.0000 N   0  0  0  0  0  0           0  0  0
    7.5417   -2.6167    0.0000 C   0  0  0  0  0  0           0  0  0
    6.8250   -1.3625    0.0000 C   0  0  0  0  0  0           0  0  0
    3.9667   -3.0417    0.0000 C   0  0  0  0  0  0           0  0  0
    3.9667   -3.8667    0.0000 C   0  0  0  0  0  0           0  0  0
   11.8417   -1.7042    0.0000 C   0  0  0  0  0  0           0  0  0
    8.9792   -1.7500    0.0000 C   0  0  0  0  0  0           0  0  0
    8.2750   -1.3542    0.0000 C   0  0  0  0  0  0           0  0  0
   11.1042   -0.4875    0.0000 C   0  0  0  0  0  0           0  0  0
    6.1292   -4.2667    0.0000 C   0  0  0  0  0  0           0  0  0
   12.5292   -0.4625    0.0000 C   0  0  0  0  0  0           0  0  0
    3.2542   -4.2875    0.0000 C   0  0  0  0  0  0           0  0  0
   11.8042   -0.0625    0.0000 C   0  0  0  0  0  0           0  0  0
  2  1  1  0     0  0
  3 13  1  0     0  0
  4  3  1  0     0  0
  5  2  1  0     0  0
  6 15  1  0     0  0
  7  2  2  0     0  0
  8  5  2  0     0  0
  9  1  1  0     0  0
 10  1  1  0     0  0
 11  3  2  0     0  0
 12 18  1  0     0  0
 13 19  1  0     0  0
 14  9  1  0     0  0
 15 10  1  0     0  0
 16  7  1  0     0  0
 17 16  2  0     0  0
 18  4  2  0     0  0
 19 20  1  0     0  0
 20  6  1  0     0  0
 21  4  1  0     0  0
 22  5  1  0     0  0
 23 25  1  0     0  0
 24 17  1  0     0  0
 25 21  2  0     0  0
  6 14  1  0     0  0
  8 17  1  0     0  0
 23 12  2  0     0  0
M  END