
  SciTegic12121614132D

 35 38  0  0  0  0            999 V2000
   -2.6111    0.7486    0.0000 C   0  0
   -2.6111   -0.7486    0.0000 C   0  0
   -1.2964   -1.4973    0.0000 C   0  0
   -1.2964    1.4973    0.0000 C   0  0
    0.0000    0.7486    0.0000 C   0  0
    0.0000   -0.7486    0.0000 C   0  0
    1.2964   -1.4973    0.0000 N   0  0
    2.5929   -0.7486    0.0000 C   0  0
    2.5929    0.7486    0.0000 C   0  0
    1.2964    1.4973    0.0000 C   0  0
    3.6321   -1.3486    0.0000 O   0  0
    1.2964    2.6973    0.0000 C   0  0
    1.2964   -2.6973    0.0000 C   0  0
   -3.9086   -1.5029    0.0000 N   0  0
   -3.9097   -3.0028    0.0000 C   0  0  1  0  0  0
   -5.2093   -3.7519    0.0000 C   0  0  2  0  0  0
   -6.5078   -3.0010    0.0000 C   0  0
   -6.5067   -1.5010    0.0000 C   0  0
   -5.2071   -0.7519    0.0000 C   0  0
   -5.2063    0.4481    0.0000 O   0  0
   -2.6105   -3.7541    0.0000 C   0  0
   -1.3097   -3.0072    0.0000 C   0  0
   -0.0124   -3.7601    0.0000 C   0  0
   -0.0158   -5.2601    0.0000 C   0  0
   -1.3166   -6.0072    0.0000 C   0  0
   -2.6139   -5.2542    0.0000 C   0  0
   -5.2072   -5.2527    0.0000 N   0  0
    1.0220   -5.8625    0.0000 Cl  0  0
   -6.5055   -6.0057    0.0000 S   0  0
   -6.5035   -7.5065    0.0000 C   0  0
   -7.8017   -8.2595    0.0000 C   0  0
   -7.8001   -9.4595    0.0000 C   0  0
   -8.8420   -7.6612    0.0000 C   0  0
   -6.5077   -4.8057    0.0000 O   0  0
   -7.5457   -5.4074    0.0000 O   0  0
  1  2  2  0
  2  3  1  0
  3  6  2  0
  5  4  2  0
  4  1  1  0
  5  6  1  0
  5 10  1  0
  6  7  1  0
  7  8  1  0
  8  9  1  0
  9 10  2  0
  8 11  2  0
 10 12  1  0
  7 13  1  0
  2 14  1  0
 14 15  1  0
 14 19  1  0
 15 16  1  0
 16 17  1  0
 17 18  1  0
 18 19  1  0
 19 20  2  0
 21 22  2  0
 22 23  1  0
 23 24  2  0
 24 25  1  0
 25 26  2  0
 26 21  1  0
 15 21  1  6
 16 27  1  1
 24 28  1  0
 27 29  1  0
 29 30  1  0
 30 31  1  0
 31 32  1  0
 31 33  1  0
 29 34  2  0
 29 35  2  0
M  END