
  SciTegic11201309402D

 34 36  0  0  1  0            999 V2000
    7.3292   -5.3625    0.0000 S   0  0
    3.0417   -3.6917    0.0000 N   0  0
    6.6167   -4.9417    0.0000 N   0  0
    2.3292   -4.1042    0.0000 C   0  0
    6.6167   -4.1167    0.0000 C   0  0  2  0  0  0
    7.3292   -3.7125    0.0000 C   0  0
    3.7667   -4.1042    0.0000 C   0  0
    7.5417   -6.1500    0.0000 O   0  0
    6.6167   -5.7625    0.0000 O   0  0
    4.4792   -3.7000    0.0000 C   0  0
    8.1417   -5.3625    0.0000 C   0  0
    5.1917   -4.1125    0.0000 N   0  0
    2.3292   -4.9292    0.0000 O   0  0
    5.9042   -3.7000    0.0000 C   0  0
    1.6167   -3.6917    0.0000 C   0  0  2  0  0  0
   -1.9583   -4.9375    0.0000 N   0  0
    7.3417   -2.8875    0.0000 O   0  0
    4.4792   -2.8750    0.0000 O   0  0
    0.9042   -4.1125    0.0000 C   0  0
    3.0417   -2.8625    0.0000 C   0  0
    8.0542   -4.1250    0.0000 O   0  0
    0.1917   -3.7000    0.0000 C   0  0
    2.3292   -2.4500    0.0000 C   0  0
   -0.5208   -4.1125    0.0000 C   0  0
   -1.9583   -4.1125    0.0000 C   0  0
   -1.2458   -5.3500    0.0000 C   0  0
    1.6167   -2.8667    0.0000 C   0  0
    8.5667   -6.0750    0.0000 C   0  0
    8.5542   -4.6500    0.0000 C   0  0
   -1.2458   -3.7000    0.0000 C   0  0
   -0.5208   -4.9375    0.0000 C   0  0
    9.3792   -4.6417    0.0000 C   0  0
    9.3792   -6.0750    0.0000 C   0  0
    9.7917   -5.3625    0.0000 C   0  0
  2  7  1  0
  3  1  1  0
  4  2  1  0
  5  3  1  1
  6  5  1  0
  7 10  1  0
  8  1  2  0
  9  1  2  0
 10 12  1  0
 11  1  1  0
 12 14  1  0
 13  4  2  0
 14  5  1  0
 15  4  1  0
 16 26  1  0
 17  6  2  0
 18 10  2  0
 15 19  1  6
 20  2  1  0
 21  6  1  0
 22 19  1  0
 23 20  1  0
 24 22  1  0
 25 30  1  0
 26 31  1  0
 27 23  1  0
 28 11  2  0
 29 11  1  0
 30 24  1  0
 31 24  1  0
 32 29  2  0
 33 28  1  0
 34 32  1  0
 33 34  2  0
 15 27  1  0
 16 25  1  0
M  END