
  SciTegic04151115542D

 34 36  0  0  0  0            999 V2000
   -1.8500  -10.5292    0.0000 C   0  0
   -1.4417   -9.8125    0.0000 C   0  0
   -0.6167   -9.8078    0.0000 C   0  0
   -1.8582   -9.1004    0.0000 C   0  0
   -1.4498   -8.3836    0.0000 O   0  0
   -2.6832   -9.1051    0.0000 C   0  0
   -3.0998   -8.3930    0.0000 O   0  0
   -3.9248   -8.3977    0.0000 C   0  0
   -3.0916   -9.8219    0.0000 O   0  0
   -0.2001  -10.5199    0.0000 O   0  0
   -0.2083   -9.0910    0.0000 C   0  0
    0.6167   -9.0863    0.0000 N   0  0
   -0.6248   -8.3789    0.0000 O   0  0
    1.0251   -8.3695    0.0000 C   0  0
    1.8484   -8.3677    0.0000 C   0  0
    2.2568   -7.6517    0.0000 C   0  0
    1.8401   -6.9386    0.0000 C   0  0
    1.0109   -6.9460    0.0000 C   0  0
    0.6063   -7.6625    0.0000 C   0  0
   -2.6759  -10.5311    0.0000 N   0  0
   -1.8386  -11.9525    0.0000 N   0  0
   -1.4340  -11.2361    0.0000 C   0  0
   -2.6676  -11.9599    0.0000 C   0  0
   -3.0812  -11.2486    0.0000 C   0  0
   -3.9021  -11.2521    0.0000 C   0  0
   -4.3104  -11.9661    0.0000 C   0  0
   -3.8918  -12.6781    0.0000 C   0  0
   -3.0723  -12.6711    0.0000 C   0  0
   -0.6091  -11.2288    0.0000 O   0  0
    2.2636   -9.0806    0.0000 C   0  0
    1.8537   -9.7966    0.0000 C   0  0
    3.0886   -9.0775    0.0000 C   0  0
   -0.2187   -7.6711    0.0000 C   0  0
   -0.6386   -6.9610    0.0000 C   0  0
  6  9  2  0
 17 18  1  0
  4  5  2  0
 18 19  2  0
 19 14  1  0
  3 10  2  0
  1 20  1  0
 20 24  2  0
  2  3  1  0
 23 21  2  0
  3 11  1  0
 21 22  1  0
 22  1  2  0
  4  6  1  0
 11 12  1  0
 23 24  1  0
  1  2  1  0
 24 25  1  0
 11 13  2  0
 25 26  2  0
  6  7  1  0
 26 27  1  0
 12 14  1  0
 27 28  2  0
 28 23  1  0
  2  4  1  0
 22 29  1  0
 14 15  2  0
 15 30  1  0
  7  8  1  0
 30 31  1  0
 15 16  1  0
 30 32  1  0
 19 33  1  0
 16 17  2  0
 33 34  1  0
M  END