
  SciTegic08041117222D

 19 21  0  0  0  0            999 V2000
   14.4439   -9.7015    0.0000 N   0  0
   14.4428  -10.5287    0.0000 C   0  0
   15.1571  -10.9415    0.0000 C   0  0
   15.8731  -10.5279    0.0000 C   0  0
   15.8703   -9.6980    0.0000 C   0  0
   15.1554   -9.2887    0.0000 C   0  0
   15.1531   -8.4637    0.0000 N   0  0
   13.7783  -11.0172    0.0000 N   0  0
   16.5886  -10.9386    0.0000 N   0  0
   16.6806  -11.7549    0.0000 C   0  0
   17.4880  -11.9245    0.0000 C   0  0
   17.8989  -11.2090    0.0000 C   0  0  2  0  0  0
   17.3452  -10.5973    0.0000 C   0  0
   18.7191  -11.1207    0.0000 N   0  0
   19.0528  -10.3662    0.0000 C   0  0
   12.9953  -10.7681    0.0000 C   0  0
   12.5143  -11.4380    0.0000 C   0  0
   13.0029  -12.1024    0.0000 C   0  0
   13.7857  -11.8431    0.0000 C   0  0
  9 10  1  0
  4  5  1  0
  2  3  1  0
  5  6  2  0
  6  1  1  0
 10 11  1  0
 11 12  1  0
 12 13  1  0
 13  9  1  0
  1  2  2  0
 12 14  1  6
  6  7  1  0
 14 15  1  0
  8 16  1  0
  3  4  2  0
  2  8  1  0
  4  9  1  0
 16 17  1  0
 17 18  1  0
 18 19  1  0
 19  8  1  0
M  END