
  CDK    6/4/10,11:41

 24 28  0  0  0  0  0  0  0  0999 V2000
    4.8106  -15.2302    0.0000 C   0  0  0  0  0  0  0  0  0  0  0  0
    4.8094  -16.0576    0.0000 C   0  0  0  0  0  0  0  0  0  0  0  0
    5.5242  -16.4704    0.0000 C   0  0  0  0  0  0  0  0  0  0  0  0
    5.5224  -14.8174    0.0000 C   0  0  0  0  0  0  0  0  0  0  0  0
    6.2378  -15.2266    0.0000 C   0  0  0  0  0  0  0  0  0  0  0  0
    6.2386  -16.0534    0.0000 C   0  0  0  0  0  0  0  0  0  0  0  0
    6.9539  -16.4644    0.0000 C   0  0  0  0  0  0  0  0  0  0  0  0
    7.6689  -16.0496    0.0000 C   0  0  0  0  0  0  0  0  0  0  0  0
    7.6641  -15.2196    0.0000 C   0  0  0  0  0  0  0  0  0  0  0  0
    6.9483  -14.8124    0.0000 C   0  0  0  0  0  0  0  0  0  0  0  0
    5.7750  -14.0288    0.0000 C   0  0  0  0  0  0  0  0  0  0  0  0
    6.6000  -14.0333    0.0000 C   0  0  0  0  0  0  0  0  0  0  0  0
    6.8592  -13.2501    0.0000 C   0  0  0  0  0  0  0  0  0  0  0  0
    6.1944  -12.7615    0.0000 C   0  0  0  0  0  0  0  0  0  0  0  0
    5.5244  -13.2428    0.0000 N   0  0  0  0  0  0  0  0  0  0  0  0
    6.1989  -11.9365    0.0000 O   0  0  0  0  0  0  0  0  0  0  0  0
    7.5708  -12.8333    0.0000 C   0  0  0  0  0  0  0  0  0  0  0  0
    8.2833  -12.4167    0.0000 N   0  0  0  0  0  0  0  0  0  0  0  0
    6.9556  -17.2894    0.0000 N   0  0  0  0  0  0  0  0  0  0  0  0
    6.2434  -17.7037    0.0000 C   0  0  0  0  0  0  0  0  0  0  0  0
    6.2432  -18.5251    0.0000 C   0  0  0  0  0  0  0  0  0  0  0  0
    6.9567  -18.9400    0.0000 S   0  0  0  0  0  0  0  0  0  0  0  0
    7.6721  -18.5272    0.0000 C   0  0  0  0  0  0  0  0  0  0  0  0
    7.6740  -17.6996    0.0000 C   0  0  0  0  0  0  0  0  0  0  0  0
 11 12  1  0  0  0  0 
  2  3  1  0  0  0  0 
  5  6  1  0  0  0  0 
  3  6  2  0  0  0  0 
  6  7  1  0  0  0  0 
 12 13  2  0  0  0  0 
 13 14  1  0  0  0  0 
 14 15  1  0  0  0  0 
 15 11  2  0  0  0  0 
  1  2  2  0  0  0  0 
 14 16  2  0  0  0  0 
  7  8  2  0  0  0  0 
 13 17  1  0  0  0  0 
  5  4  2  0  0  0  0 
 17 18  3  0  0  0  0 
  8  9  1  0  0  0  0 
  7 19  1  0  0  0  0 
 19 20  1  0  0  0  0 
  4  1  1  0  0  0  0 
  9 10  2  0  0  0  0 
 10  5  1  0  0  0  0 
 12 10  1  0  0  0  0 
  4 11  1  0  0  0  0 
 19 24  1  0  0  0  0 
 20 21  1  0  0  0  0 
 21 22  1  0  0  0  0 
 22 23  1  0  0  0  0 
 23 24  1  0  0  0  0 
M  END