
          11280714532D 1   1.00000     0.00000     0

 43 45  0     1  0            999 V2000
    2.8375   -3.0417    0.0000 C   0  0  0  0  0  0           0  0  0
    3.5500   -3.4542    0.0000 C   0  0  0  0  0  0           0  0  0
    2.8417   -2.2167    0.0000 N   0  0  3  0  0  0           0  0  0
    3.5417   -4.2792    0.0000 C   0  0  2  0  0  0           0  0  0
    4.3667   -4.3167    0.0000 O   0  0  0  0  0  0           0  0  0
    4.2667   -2.2250    0.0000 C   0  0  0  0  0  0           0  0  0
    3.5500   -1.8125    0.0000 C   0  0  2  0  0  0           0  0  0
    4.9792   -1.8125    0.0000 O   0  0  0  0  0  0           0  0  0
    4.2667   -0.5792    0.0000 C   0  0  0  0  0  0           0  0  0
    4.7375   -5.0625    0.0000 C   0  0  1  0  0  0           0  0  0
    4.2750    0.2458    0.0000 C   0  0  0  0  0  0           0  0  0
    4.9792   -0.9917    0.0000 C   0  0  2  0  0  0           0  0  0
    4.3750   -3.4542    0.0000 O   0  0  0  0  0  0           0  0  0
    2.1167   -3.4542    0.0000 O   0  0  0  0  0  0           0  0  0
    3.0917   -4.9750    0.0000 C   0  0  0  0  0  0           0  0  0
    2.1292    0.6583    0.0000 C   0  0  2  0  0  0           0  0  0
    4.2417   -2.7792    0.0000 O   0  0  0  0  0  0           0  0  0
    3.5542    0.6583    0.0000 C   0  0  1  0  0  0           0  0  0
    4.2875   -5.7542    0.0000 C   0  0  2  0  0  0           0  0  0
    2.8417    0.2500    0.0000 C   0  0  0  0  0  0           0  0  0
    2.1292    1.4833    0.0000 C   0  0  1  0  0  0           0  0  0
    2.7167   -4.2792    0.0000 O   0  0  0  0  0  0           0  0  0
    3.4667   -5.7042    0.0000 C   0  0  0  0  0  0           0  0  0
    7.8375   -1.0042    0.0000 C   0  0  0  0  0  0           0  0  0
    2.8417    1.9000    0.0000 C   0  0  0  0  0  0           0  0  0
    8.5542   -0.6000    0.0000 C   0  0  0  0  0  0           0  0  0
    2.1292   -1.8125    0.0000 C   0  0  0  0  0  0           0  0  0
    3.5542    1.4833    0.0000 C   0  0  0  0  0  0           0  0  0
    1.4167    0.2458    0.0000 O   0  0  0  0  0  0           0  0  0
    1.4167    1.8958    0.0000 O   0  0  0  0  0  0           0  0  0
    4.6542   -6.4917    0.0000 O   0  0  0  0  0  0           0  0  0
    5.1792   -4.3667    0.0000 C   0  0  0  0  0  0           0  0  0
    3.5500   -0.9875    0.0000 C   0  0  0  0  0  0           0  0  0
    3.7000   -0.8250    0.0000 C   0  0  0  0  0  0           0  0  0
    5.9917   -4.1917    0.0000 O   0  0  0  0  0  0           0  0  0
    5.6917   -0.5792    0.0000 C   0  0  0  0  0  0           0  0  0
    7.1250   -0.5917    0.0000 C   0  0  0  0  0  0           0  0  0
    1.4167   -0.5792    0.0000 C   0  0  0  0  0  0           0  0  0
    4.2042   -7.1792    0.0000 C   0  0  0  0  0  0           0  0  0
    6.2500   -3.4125    0.0000 C   0  0  0  0  0  0           0  0  0
    6.4042   -1.0000    0.0000 C   0  0  0  0  0  0           0  0  0
    2.1292   -0.9875    0.0000 C   0  0  0  0  0  0           0  0  0
    2.8417   -0.5667    0.0000 C   0  0  0  0  0  0           0  0  0
  2  1  1  0     0  0
  3  1  1  0     0  0
  4  2  1  0     0  0
  5  4  1  0     0  0
  7  6  1  1     0  0
  7  3  1  0     0  0
  8  6  1  0     0  0
  9 12  1  0     0  0
 10  5  1  0     0  0
 11  9  2  0     0  0
 12  8  1  6     0  0
 13  2  2  0     0  0
 14  1  2  0     0  0
 15  4  1  0     0  0
 16 20  1  0     0  0
 17  6  2  0     0  0
 18 11  1  1     0  0
 19 23  1  0     0  0
 20 18  1  0     0  0
 21 25  1  0     0  0
  4 22  1  1     0  0
 23 15  1  0     0  0
 24 37  1  0     0  0
 25 28  1  0     0  0
 26 24  2  0     0  0
 27  3  1  0     0  0
 28 18  1  0     0  0
 16 29  1  1     0  0
 21 30  1  6     0  0
 19 31  1  1     0  0
 10 32  1  6     0  0
 33  7  1  0     0  0
 34  9  1  0     0  0
 35 32  1  0     0  0
 36 12  1  0     0  0
 37 41  1  0     0  0
 38 29  1  0     0  0
 39 31  1  0     0  0
 40 35  1  0     0  0
 41 36  1  0     0  0
 42 27  1  0     0  0
 43 42  1  0     0  0
 33 43  1  0     0  0
 10 19  1  0     0  0
 21 16  1  0     0  0
M  END