
  SciTegic05221516342D

 29 33  0  0  0  0            999 V2000
    3.2926   -0.7199    0.0000 C   0  0
    2.7578   -0.0937    0.0000 C   0  0
    1.9462   -0.2497    0.0000 C   0  0
    1.6744   -1.0287    0.0000 C   0  0
    2.2100   -1.6507    0.0000 C   0  0
    3.0206   -1.4988    0.0000 C   0  0
    3.6780   -1.9969    0.0000 N   0  0
    3.6588   -2.8216    0.0000 C   0  0
    2.9597   -3.2574    0.0000 C   0  0
    2.9836   -4.0821    0.0000 C   0  0
    2.2804   -4.5168    0.0000 N   0  0
    2.3082   -5.3424    0.0000 C   0  0
    1.6060   -5.7732    0.0000 C   0  0
    1.6298   -6.5978    0.0000 C   0  0
    2.3113   -7.0650    0.0000 C   0  0
    3.1138   -6.8671    0.0000 C   0  0
    3.6844   -7.4652    0.0000 C   0  0
    3.4534   -8.2573    0.0000 C   0  0
    2.6519   -8.4512    0.0000 C   0  0
    2.0804   -7.8571    0.0000 C   0  0
    1.2558   -7.8809    0.0000 N   0  0
    0.9755   -7.1032    0.0000 C   0  0
    2.2327   -2.8677    0.0000 O   0  0
    4.3567   -1.5302    0.0000 C   0  0
    4.1173   -0.7390    0.0000 C   0  0
    4.6850   -0.1381    0.0000 C   0  0
    5.4879   -0.3276    0.0000 C   0  0
    5.1598   -1.7195    0.0000 C   0  0
    5.7233   -1.1178    0.0000 C   0  0
  1  2  1  0
  2  3  2  0
  3  4  1  0
  4  5  2  0
  1  6  2  0
  5  6  1  0
  6  7  1  0
  7  8  1  0
  8  9  1  0
  9 10  1  0
 10 11  1  0
 11 12  1  0
 12 13  1  0
 13 14  1  0
 14 15  1  0
 15 16  1  0
 16 17  2  0
 17 18  1  0
 18 19  2  0
 15 20  2  0
 19 20  1  0
 20 21  1  0
 21 22  1  0
 14 22  2  0
  9 23  1  0
  7 24  1  0
 24 25  2  0
  1 25  1  0
 25 26  1  0
 26 27  2  0
 24 28  1  0
 28 29  2  0
 27 29  1  0
M  END