
  CDK    9/16/09,10:4

 33 36  0  0  0  0  0  0  0  0999 V2000
   18.6683    0.6875    0.0000 Br  0  0  0  0  0  0  0  0  0  0  0  0
   19.4695   -3.5744    0.0000 C   0  0  0  0  0  0  0  0  0  0  0  0
   20.2988   -3.5555    0.0000 C   0  0  0  0  0  0  0  0  0  0  0  0
   20.6949   -2.8317    0.0000 C   0  0  0  0  0  0  0  0  0  0  0  0
   20.2661   -2.1223    0.0000 C   0  0  0  0  0  0  0  0  0  0  0  0
   19.4367   -2.1412    0.0000 C   0  0  0  0  0  0  0  0  0  0  0  0
   19.0362   -2.8696    0.0000 N   0  0  0  0  0  0  0  0  0  0  0  0
   19.6717   -3.1938    0.0000 C   0  0  0  0  0  0  0  0  0  0  0  0
   19.9951   -2.4987    0.0000 C   0  0  0  0  0  0  0  0  0  0  0  0
   18.2115   -2.8970    0.0000 C   0  0  0  0  0  0  0  0  0  0  0  0
   21.5199   -2.8216    0.0000 C   0  0  0  0  0  0  0  0  0  0  0  0
   22.3448   -2.8073    0.0000 C   0  0  0  0  0  0  0  0  0  0  0  0
   21.5321   -3.6465    0.0000 O   0  0  0  0  0  0  0  0  0  0  0  0
   21.5077   -1.9967    0.0000 C   0  0  0  0  0  0  0  0  0  0  0  0
   22.2168   -1.5763    0.0000 C   0  0  0  0  0  0  0  0  0  0  0  0
   22.2050   -0.7522    0.0000 C   0  0  0  0  0  0  0  0  0  0  0  0
   21.4840   -0.3495    0.0000 C   0  0  0  0  0  0  0  0  0  0  0  0
   20.7733   -0.7769    0.0000 C   0  0  0  0  0  0  0  0  0  0  0  0
   20.7886   -1.5997    0.0000 C   0  0  0  0  0  0  0  0  0  0  0  0
   22.7678   -3.5169    0.0000 C   0  0  0  0  0  0  0  0  0  0  0  0
   23.5919   -3.5030    0.0000 C   0  0  0  0  0  0  0  0  0  0  0  0
   23.9929   -2.7810    0.0000 C   0  0  0  0  0  0  0  0  0  0  0  0
   23.5637   -2.0715    0.0000 C   0  0  0  0  0  0  0  0  0  0  0  0
   22.7408   -2.0888    0.0000 C   0  0  0  0  0  0  0  0  0  0  0  0
   17.7754   -2.1966    0.0000 C   0  0  0  0  0  0  0  0  0  0  0  0
   16.9509   -2.2241    0.0000 O   0  0  0  0  0  0  0  0  0  0  0  0
   16.5148   -1.5238    0.0000 C   0  0  0  0  0  0  0  0  0  0  0  0
   15.6903   -1.5513    0.0000 C   0  0  0  0  0  0  0  0  0  0  0  0
   15.2579   -0.8496    0.0000 C   0  0  0  0  0  0  0  0  0  0  0  0
   14.4341   -0.8766    0.0000 C   0  0  0  0  0  0  0  0  0  0  0  0
   14.0448   -1.6049    0.0000 C   0  0  0  0  0  0  0  0  0  0  0  0
   14.4854   -2.3075    0.0000 C   0  0  0  0  0  0  0  0  0  0  0  0
   15.3076   -2.2769    0.0000 C   0  0  0  0  0  0  0  0  0  0  0  0
 15 16  1  0  0  0  0 
  7  8  1  0  0  0  0 
 16 17  2  0  0  0  0 
 17 18  1  0  0  0  0 
  8  9  1  0  0  0  0 
 18 19  2  0  0  0  0 
 19 14  1  0  0  0  0 
  4  9  1  0  0  0  0 
 12 20  2  0  0  0  0 
  2  3  1  0  0  0  0 
 20 21  1  0  0  0  0 
  7 10  1  0  0  0  0 
 21 22  2  0  0  0  0 
  2  7  1  0  0  0  0 
 22 23  1  0  0  0  0 
  4 11  1  0  0  0  0 
 23 24  2  0  0  0  0 
 24 12  1  0  0  0  0 
  3  4  1  0  0  0  0 
 10 25  1  0  0  0  0 
 11 12  1  0  0  0  0 
 25 26  1  0  0  0  0 
  4  5  1  0  0  0  0 
 26 27  1  0  0  0  0 
 11 13  1  0  0  0  0 
 27 28  1  0  0  0  0 
  5  6  1  0  0  0  0 
 28 29  2  0  0  0  0 
 11 14  1  0  0  0  0 
 29 30  1  0  0  0  0 
  6  7  1  0  0  0  0 
 30 31  2  0  0  0  0 
 14 15  2  0  0  0  0 
 31 32  1  0  0  0  0 
 32 33  2  0  0  0  0 
 33 28  1  0  0  0  0 
M  CHG  1   1  -1
M  CHG  1   7   1
M  END