
          11280715132D 1   1.00000     0.00000     0

 25 27  0     0  0            999 V2000
    2.0292   -2.4292    0.0000 C   0  0  0  0  0  0           0  0  0
    2.0292   -3.2542    0.0000 C   0  0  0  0  0  0           0  0  0
    2.7417   -2.0167    0.0000 C   0  0  0  0  0  0           0  0  0
    3.4542   -2.4292    0.0000 C   0  0  0  0  0  0           0  0  0
    4.1667   -2.0042    0.0000 C   0  0  0  0  0  0           0  0  0
    1.3167   -2.0167    0.0000 C   0  0  3  0  0  0           0  0  0
    1.3167   -3.6667    0.0000 C   0  0  3  0  0  0           0  0  0
    7.0292   -3.6417    0.0000 C   0  0  0  0  0  0           0  0  0
    2.7417   -3.6667    0.0000 C   0  0  0  0  0  0           0  0  0
    4.8792   -2.4250    0.0000 C   0  0  0  0  0  0           0  0  0
    6.3167   -3.2375    0.0000 C   0  0  0  0  0  0           0  0  0
    3.4542   -3.2542    0.0000 C   0  0  0  0  0  0           0  0  0
    0.6125   -2.4292    0.0000 C   0  0  0  0  0  0           0  0  0
    0.6125   -3.2542    0.0000 C   0  0  0  0  0  0           0  0  0
    7.0417   -4.4667    0.0000 O   0  0  0  0  0  0           0  0  0
    4.1667   -1.1792    0.0000 C   0  0  0  0  0  0           0  0  0
    4.8875   -3.2500    0.0000 C   0  0  0  0  0  0           0  0  0
    5.5875   -2.0042    0.0000 C   0  0  0  0  0  0           0  0  0
    6.3042   -2.4042    0.0000 C   0  0  0  0  0  0           0  0  0
    5.6042   -3.6542    0.0000 C   0  0  0  0  0  0           0  0  0
    7.7417   -3.2167    0.0000 O   0  0  0  0  0  0           0  0  0
    2.0292   -1.6000    0.0000 C   0  0  0  0  0  0           0  0  0
    0.6042   -1.6042    0.0000 C   0  0  0  0  0  0           0  0  0
    0.6042   -4.0667    0.0000 C   0  0  0  0  0  0           0  0  0
    2.0292   -4.0792    0.0000 C   0  0  0  0  0  0           0  0  0
  2  1  2  0     0  0
  3  1  1  0     0  0
  4  3  2  0     0  0
  5  4  1  0     0  0
  6  1  1  0     0  0
  7  2  1  0     0  0
  8 11  1  0     0  0
  9  2  1  0     0  0
 10  5  1  0     0  0
 11 19  1  0     0  0
 12  4  1  0     0  0
 13  6  1  0     0  0
 14 13  1  0     0  0
 15  8  2  0     0  0
 16  5  2  0     0  0
 17 10  2  0     0  0
 18 10  1  0     0  0
 19 18  2  0     0  0
 20 17  1  0     0  0
 21  8  1  0     0  0
 22  6  1  0     0  0
 23  6  1  0     0  0
 24  7  1  0     0  0
 25  7  1  0     0  0
 14  7  1  0     0  0
  9 12  2  0     0  0
 20 11  2  0     0  0
M  END