
  SciTegic12171313052D

 36 40  0  0  0  0            999 V2000
   23.3925   -4.1681    0.0000 C   0  0
   24.1050   -4.5806    0.0000 C   0  0
   24.8145   -4.1721    0.0000 C   0  0
   24.8178   -3.3494    0.0000 N   0  0
   24.1053   -2.9369    0.0000 C   0  0
   23.3895   -3.3471    0.0000 C   0  0
   25.5333   -2.9387    0.0000 C   0  0
   26.2467   -3.3531    0.0000 C   0  0
   26.2425   -4.1772    0.0000 C   0  0
   26.9518   -4.5914    0.0000 C   0  0
   27.6698   -4.1843    0.0000 N   0  0
   27.6739   -3.3584    0.0000 C   0  0
   26.9601   -2.9395    0.0000 C   0  0
   22.7114   -4.6336    0.0000 N   0  0
   21.8986   -5.6925    0.0000 N   0  0
   22.6901   -5.4601    0.0000 C   0  0
   21.4330   -5.0113    0.0000 C   0  0
   21.9377   -4.3590    0.0000 C   0  0
   21.6250   -3.5978    0.0000 C   0  0
   20.8078   -3.4877    0.0000 C   0  0
   20.3042   -4.1450    0.0000 C   0  0
   20.6198   -4.9036    0.0000 C   0  0
   28.3816   -4.6013    0.0000 C   0  0
   29.0987   -4.1934    0.0000 C   0  0
   29.8088   -4.6150    0.0000 C   0  0
   30.5253   -4.2077    0.0000 C   0  0
   30.5310   -3.3819    0.0000 N   0  0
   29.8142   -2.9650    0.0000 C   0  0
   29.1005   -3.3746    0.0000 C   0  0
   23.3441   -5.9630    0.0000 O   0  0
   25.5354   -2.1137    0.0000 O   0  0
   31.2370   -4.6251    0.0000 N   0  0
   21.6212   -6.4695    0.0000 C   0  0
   20.8096   -6.6178    0.0000 C   0  0
   20.2754   -5.9891    0.0000 O   0  0
   19.4639   -6.1374    0.0000 C   0  0
  1  2  1  0
  1  6  1  0
  2  3  1  0
  3  4  1  0
  4  5  1  0
  5  6  1  0
  4  7  1  0
  7  8  1  0
  8  9  1  0
  8 13  1  0
  9 10  1  0
 10 11  1  0
 11 12  1  0
 12 13  1  0
  1 14  1  0
 14 18  1  0
 17 15  1  0
 15 16  1  0
 16 14  1  0
 17 18  2  0
 18 19  1  0
 19 20  2  0
 20 21  1  0
 21 22  2  0
 22 17  1  0
 11 23  1  0
 23 24  1  0
 24 25  2  0
 25 26  1  0
 26 27  2  0
 27 28  1  0
 28 29  2  0
 29 24  1  0
 16 30  2  0
  7 31  2  0
 26 32  1  0
 15 33  1  0
 33 34  1  0
 34 35  1  0
 35 36  1  0
M  END