
  SciTegic02011310422D

 26 29  0  0  0  0            999 V2000
    7.1811   -6.0811    0.0000 N   0  0
    7.8923   -5.6631    0.0000 C   0  0
    8.6106   -6.0710    0.0000 C   0  0
    9.3218   -5.6530    0.0000 C   0  0
    9.3146   -4.8269    0.0000 C   0  0
    8.5963   -4.4189    0.0000 C   0  0
    7.8851   -4.8369    0.0000 C   0  0
   11.4725   -6.8699    0.0000 C   0  0
   11.4674   -6.0474    0.0000 C   0  0
   10.7492   -5.6394    0.0000 C   0  0
   10.0379   -6.0574    0.0000 C   0  0
   10.0451   -6.8835    0.0000 C   0  0
   10.7614   -7.2880    0.0000 N   0  0
   12.2616   -7.1210    0.0000 N   0  0
   12.2531   -5.7854    0.0000 C   0  0
   12.7409   -6.4477    0.0000 C   0  0
   12.6735   -5.0759    0.0000 C   0  0
   13.4978   -5.0851    0.0000 C   0  0
   13.9188   -4.3756    0.0000 C   0  0
   13.5154   -3.6568    0.0000 C   0  0
   12.6911   -3.6477    0.0000 C   0  0
   12.2701   -4.3572    0.0000 C   0  0
   13.9376   -2.9512    0.0000 O   0  0
   14.7632   -2.9161    0.0000 C   0  0
   14.7443   -4.3887    0.0000 O   0  0
   15.1651   -3.6791    0.0000 C   0  0
  2  3  1  0
  3  4  2  0
  4  5  1  0
  5  6  2  0
  6  7  1  0
  2  7  2  0
  8  9  1  0
  9 10  2  0
 10 11  1  0
 11 12  2  0
 12 13  1  0
  8 13  2  0
 15 16  2  0
 14 16  1  0
  8 14  1  0
  9 15  1  0
 17 18  1  0
 18 19  2  0
 19 20  1  0
 20 21  2  0
 21 22  1  0
 17 22  2  0
 23 24  1  0
 20 23  1  0
 25 26  1  0
 19 25  1  0
 15 17  1  0
  4 11  1  0
  1  2  1  0
M  END