
          11280714462D 1   1.00000     0.00000     0

 40 42  0     1  0            999 V2000
    3.8042  -19.6292    0.0000 N   0  0  0  0  0  0           0  0  0
    3.0917  -19.2167    0.0000 C   0  0  0  0  0  0           0  0  0
    9.5250  -17.9792    0.0000 C   0  0  0  0  0  0           0  0  0
    8.8125  -18.3917    0.0000 C   0  0  1  0  0  0           0  0  0
    9.5417  -22.9375    0.0000 C   0  0  0  0  0  0           0  0  0
    2.3792  -19.6292    0.0000 C   0  0  0  0  0  0           0  0  0
    8.8250  -23.3500    0.0000 C   0  0  3  0  0  0           0  0  0
    8.1000  -19.6292    0.0000 S   0  0  0  0  0  0           0  0  0
    7.3792  -20.8792    0.0000 C   0  0  0  0  0  0           0  0  0
    8.8125  -19.2167    0.0000 C   0  0  0  0  0  0           0  0  0
   10.2417  -18.3917    0.0000 O   0  5  0  0  0  0           0  0  0
    3.0917  -18.3917    0.0000 C   0  0  0  0  0  0           0  0  0
    9.5417  -22.1042    0.0000 C   0  0  0  0  0  0           0  0  0
    8.1042  -20.4542    0.0000 C   0  0  1  0  0  0           0  0  0
    9.5250  -17.1500    0.0000 O   0  0  0  0  0  0           0  0  0
    6.6667  -20.4667    0.0000 C   0  0  0  0  0  0           0  0  0
    4.5167  -19.2167    0.0000 C   0  0  0  0  0  0           0  0  0
    8.8292  -21.6917    0.0000 C   0  0  0  0  0  0           0  0  0
    8.8250  -20.8667    0.0000 C   0  0  0  0  0  0           0  0  0
    1.6625  -19.2167    0.0000 C   0  0  0  0  0  0           0  0  0
    3.8042  -17.9792    0.0000 C   0  0  0  0  0  0           0  0  0
    2.3792  -17.9792    0.0000 C   0  0  0  0  0  0           0  0  0
    5.2375  -20.4667    0.0000 O   0  0  0  0  0  0           0  0  0
    5.9500  -20.8792    0.0000 C   0  0  0  0  0  0           0  0  0
    8.8250  -24.1750    0.0000 O   0  0  0  0  0  0           0  0  0
    5.2417  -19.6375    0.0000 C   0  0  0  0  0  0           0  0  0
    4.5167  -18.3917    0.0000 C   0  0  0  0  0  0           0  0  0
    1.6625  -18.3917    0.0000 C   0  0  0  0  0  0           0  0  0
    0.9417  -19.6375    0.0000 Cl  0  0  0  0  0  0           0  0  0
   11.1917  -18.4792    0.0000 Na  0  3  0  0  0  0           0  0  0
    7.3792  -21.7042    0.0000 C   0  0  0  0  0  0           0  0  0
    8.0917  -17.9792    0.0000 C   0  0  0  0  0  0           0  0  0
    6.6625  -22.1167    0.0000 C   0  0  0  0  0  0           0  0  0
   10.2542  -23.3500    0.0000 C   0  0  0  0  0  0           0  0  0
    8.1125  -22.9292    0.0000 C   0  0  0  0  0  0           0  0  0
    7.9917  -23.3417    0.0000 C   0  0  0  0  0  0           0  0  0
   10.2542  -21.6917    0.0000 C   0  0  0  0  0  0           0  0  0
    5.9500  -21.7042    0.0000 C   0  0  0  0  0  0           0  0  0
   10.9792  -22.9375    0.0000 C   0  0  0  0  0  0           0  0  0
   10.9750  -22.1042    0.0000 C   0  0  0  0  0  0           0  0  0
  2  1  1  0     0  0
  3  4  1  0     0  0
  4 10  1  0     0  0
  5 13  2  0     0  0
  6  2  2  0     0  0
  7  5  1  0     0  0
 14  8  1  6     0  0
  9 16  2  0     0  0
 10  8  1  0     0  0
 11  3  1  0     0  0
 12  2  1  0     0  0
 13 18  1  0     0  0
 14  9  1  0     0  0
 15  3  2  0     0  0
 16 24  1  0     0  0
 17  1  2  0     0  0
 18 19  1  0     0  0
 19 14  1  0     0  0
 20  6  1  0     0  0
 21 27  2  0     0  0
 22 12  2  0     0  0
 23 26  1  0     0  0
 24 23  1  0     0  0
 25  7  1  0     0  0
 26 17  1  0     0  0
 27 17  1  0     0  0
 28 22  1  0     0  0
 29 20  1  0     0  0
 31 33  2  0     0  0
  4 32  1  1     0  0
 33 38  1  0     0  0
 34  5  1  0     0  0
 35  7  1  0     0  0
 36  7  1  0     0  0
 37 13  1  0     0  0
 38 24  2  0     0  0
 39 40  1  0     0  0
 40 37  2  0     0  0
 21 12  1  0     0  0
 20 28  2  0     0  0
 31  9  1  0     0  0
 34 39  2  0     0  0
M  CHG  2  11  -1  30   1
M  END