
          05080814042D 1   1.00000     0.00000     0

 34 39  0     1  0            999 V2000
    8.1426  -21.5061    0.0000 C   0  0  0  0  0  0           0  0  0
    7.4313  -21.9214    0.0000 C   0  0  0  0  0  0           0  0  0
    7.4383  -22.7485    0.0000 C   0  0  0  0  0  0           0  0  0
    8.1527  -23.1524    0.0000 C   0  0  0  0  0  0           0  0  0
    8.8566  -21.9137    0.0000 C   0  0  0  0  0  0           0  0  0
    8.8627  -22.7422    0.0000 C   0  0  0  0  0  0           0  0  0
    9.5791  -23.1490    0.0000 C   0  0  0  0  0  0           0  0  0
    9.5670  -21.4920    0.0000 C   0  0  0  0  0  0           0  0  0
   10.2882  -21.9033    0.0000 C   0  0  2  0  0  0           0  0  0
   10.2927  -22.7337    0.0000 C   0  0  2  0  0  0           0  0  0
   11.0102  -23.1427    0.0000 N   0  0  3  0  0  0           0  0  0
   11.7276  -22.7258    0.0000 C   0  0  0  0  0  0           0  0  0
   11.7230  -21.8954    0.0000 C   0  0  1  0  0  0           0  0  0
   11.0011  -21.4819    0.0000 C   0  0  0  0  0  0           0  0  0
   10.2803  -21.0736    0.0000 H   0  0  0  0  0  0           0  0  0
   10.2845  -23.5592    0.0000 H   0  0  0  0  0  0           0  0  0
   12.4364  -21.4793    0.0000 C   0  0  0  0  0  0           0  0  0
   13.1533  -21.8890    0.0000 N   0  0  3  0  0  0           0  0  0
   12.4327  -20.6536    0.0000 O   0  0  0  0  0  0           0  0  0
   13.1510  -22.7180    0.0000 C   0  0  0  0  0  0           0  0  0
   14.5779  -21.8883    0.0000 C   0  0  0  0  0  0           0  0  0
   13.8604  -21.4741    0.0000 C   0  0  0  0  0  0           0  0  0
    8.1387  -20.6804    0.0000 O   0  0  0  0  0  0           0  0  0
    7.4215  -20.2710    0.0000 C   0  0  0  0  0  0           0  0  0
   11.0135  -23.9684    0.0000 C   0  0  0  0  0  0           0  0  0
   14.5796  -22.7150    0.0000 C   0  0  0  0  0  0           0  0  0
   13.8660  -23.1288    0.0000 C   0  0  0  0  0  0           0  0  0
   14.0391  -23.9355    0.0000 N   0  0  0  0  0  0           0  0  0
   15.1936  -23.2658    0.0000 C   0  0  0  0  0  0           0  0  0
   14.8588  -24.0154    0.0000 C   0  0  0  0  0  0           0  0  0
   15.3403  -24.6781    0.0000 C   0  0  0  0  0  0           0  0  0
   16.1565  -24.5924    0.0000 C   0  0  0  0  0  0           0  0  0
   16.4890  -23.8383    0.0000 C   0  0  0  0  0  0           0  0  0
   16.0056  -23.1788    0.0000 C   0  0  0  0  0  0           0  0  0
 10 16  1  1     0  0
  6  7  1  0     0  0
 13 17  1  1     0  0
  7 10  1  0     0  0
 17 18  1  0     0  0
  9  8  1  0     0  0
 17 19  2  0     0  0
 18 20  1  0     0  0
  9 10  1  0     0  0
  3  4  2  0     0  0
  4  6  1  0     0  0
 18 22  1  0     0  0
 20 27  1  0     0  0
 26 21  1  0     0  0
 21 22  1  0     0  0
  5  6  2  0     0  0
  1 23  1  0     0  0
  1  2  2  0     0  0
 23 24  1  0     0  0
  5  1  1  0     0  0
 11 25  1  0     0  0
 26 27  2  0     0  0
  2  3  1  0     0  0
  9 14  1  0     0  0
 10 11  1  0     0  0
 27 28  1  0     0  0
 28 30  1  0     0  0
 29 26  1  0     0  0
 11 12  1  0     0  0
 12 13  1  0     0  0
 29 30  2  0     0  0
 13 14  1  0     0  0
 30 31  1  0     0  0
 31 32  2  0     0  0
  9 15  1  6     0  0
 32 33  1  0     0  0
  5  8  1  0     0  0
 33 34  2  0     0  0
 34 29  1  0     0  0
M  END