
          11280715182D 1   1.00000     0.00000     0

 47 51  0     0  0            999 V2000
    3.8042   -3.7417    0.0000 N   0  0  3  0  0  0           0  0  0
    3.8000   -2.0917    0.0000 N   0  0  3  0  0  0           0  0  0
    3.0917   -3.3292    0.0000 C   0  0  3  0  0  0           0  0  0
    3.8000   -1.2667    0.0000 C   0  0  0  0  0  0           0  0  0
    4.5125   -0.8542    0.0000 C   0  0  0  0  0  0           0  0  0
    5.7792    0.9125    0.0000 C   0  0  3  0  0  0           0  0  0
    6.4500   -1.8667    0.0000 C   0  0  3  0  0  0           0  0  0
    3.0792   -2.5042    0.0000 C   0  0  0  0  0  0           0  0  0
    5.5500    0.1208    0.0000 C   0  0  0  0  0  0           0  0  0
    5.8792   -1.2667    0.0000 C   0  0  0  0  0  0           0  0  0
    3.8042   -4.5667    0.0000 C   0  0  0  0  0  0           0  0  0
    2.3792   -3.7417    0.0000 C   0  0  0  0  0  0           0  0  0
    4.7500   -0.0667    0.0000 C   0  0  0  0  0  0           0  0  0
    5.0750   -1.4542    0.0000 C   0  0  0  0  0  0           0  0  0
    4.5167   -3.3292    0.0000 C   0  0  0  0  0  0           0  0  0
    6.1167   -0.4792    0.0000 C   0  0  0  0  0  0           0  0  0
    7.3750   -5.8042    0.0000 N   0  0  3  0  0  0           0  0  0
    1.6625   -3.3292    0.0000 C   0  0  0  0  0  0           0  0  0
    0.9500   -3.7500    0.0000 C   0  0  0  0  0  0           0  0  0
    4.5167   -2.5042    0.0000 C   0  0  0  0  0  0           0  0  0
    3.0792   -0.8542    0.0000 O   0  0  0  0  0  0           0  0  0
    0.9500   -4.5750    0.0000 C   0  0  0  0  0  0           0  0  0
    4.5167   -4.9792    0.0000 C   0  0  0  0  0  0           0  0  0
    3.0917   -4.9792    0.0000 O   0  0  0  0  0  0           0  0  0
    2.3792   -4.5750    0.0000 C   0  0  0  0  0  0           0  0  0
    5.2292   -4.5667    0.0000 N   0  0  0  0  0  0           0  0  0
    6.5750    1.2458    0.0000 F   0  0  0  0  0  0           0  0  0
    5.2917    1.6250    0.0000 F   0  0  0  0  0  0           0  0  0
    5.9917    1.6333    0.0000 F   0  0  0  0  0  0           0  0  0
    6.9625   -2.4167    0.0000 F   0  0  0  0  0  0           0  0  0
    6.3292   -2.7250    0.0000 F   0  0  0  0  0  0           0  0  0
    7.3042   -1.8125    0.0000 F   0  0  0  0  0  0           0  0  0
    1.6625   -4.9875    0.0000 C   0  0  0  0  0  0           0  0  0
    8.0875   -6.2167    0.0000 C   0  0  0  0  0  0           0  0  0
    6.6542   -4.5625    0.0000 C   0  0  0  0  0  0           0  0  0
    5.9417   -5.8042    0.0000 C   0  0  0  0  0  0           0  0  0
    6.6542   -6.2167    0.0000 C   0  0  0  0  0  0           0  0  0
    7.3750   -4.9792    0.0000 C   0  0  0  0  0  0           0  0  0
    5.9500   -4.9792    0.0000 C   0  0  3  0  0  0           0  0  0
    0.2375   -3.3375    0.0000 Cl  0  0  0  0  0  0           0  0  0
    0.2292   -4.9875    0.0000 Cl  0  0  0  0  0  0           0  0  0
    8.8000   -5.8125    0.0000 C   0  0  0  0  0  0           0  0  0
    9.5667   -6.1042    0.0000 C   0  0  0  0  0  0           0  0  0
    8.6667   -4.9917    0.0000 C   0  0  0  0  0  0           0  0  0
   10.2042   -5.5792    0.0000 C   0  0  0  0  0  0           0  0  0
    9.3042   -4.4667    0.0000 C   0  0  0  0  0  0           0  0  0
   10.0792   -4.7667    0.0000 C   0  0  0  0  0  0           0  0  0
  2 20  1  0     0  0
  3  1  1  0     0  0
  4  2  1  0     0  0
  5  4  1  0     0  0
  6  9  1  0     0  0
  7 10  1  0     0  0
  8  3  1  0     0  0
  9 13  2  0     0  0
 10 14  1  0     0  0
 11  1  1  0     0  0
  3 12  1  0     0  0
 13  5  1  0     0  0
 14  5  2  0     0  0
 15  1  1  0     0  0
 16 10  2  0     0  0
 17 37  1  0     0  0
 18 12  2  0     0  0
 19 18  1  0     0  0
 20 15  1  0     0  0
 21  4  2  0     0  0
 22 33  1  0     0  0
 23 11  1  0     0  0
 24 11  2  0     0  0
 25 12  1  0     0  0
 26 23  1  0     0  0
 27  6  1  0     0  0
 28  6  1  0     0  0
 29  6  1  0     0  0
 30  7  1  0     0  0
 31  7  1  0     0  0
 32  7  1  0     0  0
 33 25  2  0     0  0
 34 17  1  0     0  0
 35 39  1  0     0  0
 36 39  1  0     0  0
 37 36  1  0     0  0
 38 35  1  0     0  0
 39 26  1  0     0  0
 40 19  1  0     0  0
 41 22  1  0     0  0
 42 34  1  0     0  0
 43 42  2  0     0  0
 44 42  1  0     0  0
 45 43  1  0     0  0
 46 44  2  0     0  0
 47 46  1  0     0  0
  8  2  1  0     0  0
 22 19  2  0     0  0
 17 38  1  0     0  0
  9 16  1  0     0  0
 47 45  2  0     0  0
M  END