
          11280715412D 1   1.00000     0.00000     0

 49 53  0     0  0            999 V2000
   10.8625    2.7708    0.0000 S   0  0  3  0  0  0           0  0  0
   11.5875    1.5333    0.0000 C   0  0  0  0  0  0           0  0  0
   10.8750    1.1208    0.0000 N   0  0  0  0  0  0           0  0  0
   10.8750    0.2958    0.0000 C   0  0  0  0  0  0           0  0  0
   11.5875   -0.1167    0.0000 N   0  0  0  0  0  0           0  0  0
   11.5792    2.3583    0.0000 N   0  0  0  0  0  0           0  0  0
   12.3042    1.1208    0.0000 C   0  0  0  0  0  0           0  0  0
   15.2417   -2.3667    0.0000 S   0  0  3  0  0  0           0  0  0
   12.3042    0.2958    0.0000 C   0  0  0  0  0  0           0  0  0
   10.1417    2.3583    0.0000 C   0  0  0  0  0  0           0  0  0
   13.0167    1.5375    0.0000 O   0  0  0  0  0  0           0  0  0
   10.1542   -0.1167    0.0000 N   0  0  3  0  0  0           0  0  0
    9.4292    2.7833    0.0000 N   0  0  0  0  0  0           0  0  0
   16.0292   -2.1292    0.0000 C   0  0  0  0  0  0           0  0  0
   13.7292    1.1333    0.0000 C   0  0  0  0  0  0           0  0  0
   10.1417    3.1833    0.0000 O   0  0  0  0  0  0           0  0  0
   11.2667    3.4833    0.0000 O   0  0  0  0  0  0           0  0  0
   14.8125   -1.6542    0.0000 O   0  0  0  0  0  0           0  0  0
   15.6625   -3.0750    0.0000 O   0  0  0  0  0  0           0  0  0
   14.4542   -2.5917    0.0000 N   0  0  0  0  0  0           0  0  0
    8.7125    2.3750    0.0000 C   0  0  0  0  0  0           0  0  0
    8.7042    1.5500    0.0000 C   0  0  0  0  0  0           0  0  0
   10.1375    1.5375    0.0000 C   0  0  0  0  0  0           0  0  0
   14.4375    1.5458    0.0000 C   0  0  0  0  0  0           0  0  0
    9.4167    1.1333    0.0000 C   0  0  0  0  0  0           0  0  0
    8.7167   -0.9292    0.0000 O   0  0  0  0  0  0           0  0  0
   16.2250   -1.3292    0.0000 C   0  0  0  0  0  0           0  0  0
   16.6292   -2.7042    0.0000 C   0  0  0  0  0  0           0  0  0
   13.0167   -0.1167    0.0000 O   0  0  0  0  0  0           0  0  0
    7.9875    1.1458    0.0000 C   0  0  3  0  0  0           0  0  0
   17.4250   -2.4750    0.0000 C   0  0  0  0  0  0           0  0  0
   17.0167   -1.1000    0.0000 C   0  0  0  0  0  0           0  0  0
   17.6167   -1.6667    0.0000 C   0  0  0  0  0  0           0  0  0
   14.4292    2.3708    0.0000 O   0  0  0  0  0  0           0  0  0
    9.4417    0.3000    0.0000 C   0  0  0  0  0  0           0  0  0
   10.1542   -0.9417    0.0000 C   0  0  0  0  0  0           0  0  0
   13.7375   -1.3542    0.0000 C   0  0  0  0  0  0           0  0  0
   13.7375   -2.1792    0.0000 C   0  0  0  0  0  0           0  0  0
   13.7292    0.3083    0.0000 C   0  0  0  0  0  0           0  0  0
    9.4375   -1.3500    0.0000 C   0  0  0  0  0  0           0  0  0
    8.7292   -0.1042    0.0000 C   0  0  0  0  0  0           0  0  0
   13.0167   -0.9417    0.0000 C   0  0  0  0  0  0           0  0  0
   15.1542    1.1458    0.0000 C   0  0  0  0  0  0           0  0  0
    7.9792    0.3208    0.0000 C   0  0  0  0  0  0           0  0  0
    7.2750    1.5583    0.0000 C   0  0  0  0  0  0           0  0  0
   18.4125   -1.4375    0.0000 C   0  0  0  0  0  0           0  0  0
   13.7167    2.7833    0.0000 C   0  0  0  0  0  0           0  0  0
   14.4417   -0.1042    0.0000 C   0  0  0  0  0  0           0  0  0
   15.1625    0.3125    0.0000 C   0  0  0  0  0  0           0  0  0
  2  6  1  0     0  0
  3  2  1  0     0  0
  4  3  2  0     0  0
  5  9  2  0     0  0
  6  1  1  0     0  0
  7  2  2  0     0  0
  8 20  1  0     0  0
  9  7  1  0     0  0
 10  1  1  0     0  0
 11  7  1  0     0  0
 12  4  1  0     0  0
 13 10  2  0     0  0
 14  8  1  0     0  0
 15 11  1  0     0  0
 16  1  2  0     0  0
 17  1  2  0     0  0
 18  8  2  0     0  0
 19  8  2  0     0  0
 20 38  1  0     0  0
 21 13  1  0     0  0
 22 25  1  0     0  0
 23 10  1  0     0  0
 24 15  1  0     0  0
 25 23  2  0     0  0
 26 40  1  0     0  0
 27 14  1  0     0  0
 28 14  2  0     0  0
 29  9  1  0     0  0
 30 22  1  0     0  0
 31 28  1  0     0  0
 32 27  2  0     0  0
 33 31  2  0     0  0
 34 24  1  0     0  0
 35 12  1  0     0  0
 36 12  1  0     0  0
 37 42  1  0     0  0
 38 37  1  0     0  0
 39 15  2  0     0  0
 40 36  1  0     0  0
 41 35  1  0     0  0
 42 29  1  0     0  0
 43 24  2  0     0  0
 44 30  1  0     0  0
 45 30  1  0     0  0
 46 33  1  0     0  0
 47 34  1  0     0  0
 48 39  1  0     0  0
 49 48  2  0     0  0
 22 21  2  0     0  0
  5  4  1  0     0  0
 26 41  1  0     0  0
 49 43  1  0     0  0
 33 32  1  0     0  0
M  END