
  SciTegic01161211252D

102109  0  0  0  0            999 V2000
   12.4929  -18.4036    0.0000 C   0  0
   -6.4231  -13.8138    0.0000 C   0  0
   -7.2046  -15.2730    0.0000 O   0  0
    7.1784  -15.1760    0.0000 C   0  0
    8.0034  -15.1756    0.0000 N   0  0
    6.7663  -15.8907    0.0000 O   0  0
    8.4163  -15.8899    0.0000 C   0  0  2  0  0  0
    9.2413  -15.8895    0.0000 C   0  0
    8.0041  -16.6046    0.0000 C   0  0  1  0  0  0
    7.1791  -16.6050    0.0000 C   0  0
    8.4169  -17.3188    0.0000 O   0  0
    9.6541  -16.6038    0.0000 N   0  0
    9.6534  -15.1748    0.0000 O   0  0
    5.9457  -14.4612    0.0000 N   0  0
    6.7660  -14.4620    0.0000 C   0  0  1  0  0  0
    7.0200  -13.6818    0.0000 C   0  0
    6.3565  -13.1991    0.0000 C   0  0
    5.6925  -13.6810    0.0000 C   0  0
   10.4791  -16.6034    0.0000 C   0  0  2  0  0  0
   10.8919  -17.3176    0.0000 C   0  0
   10.8913  -15.8887    0.0000 C   0  0
   10.4798  -18.0323    0.0000 O   0  0
   11.7145  -17.3172    0.0000 N   0  0
   11.7109  -18.1409    0.0000 C   0  0
   12.9845  -17.7410    0.0000 C   0  0
   12.5064  -17.0673    0.0000 C   0  0  1  0  0  0
   12.8923  -16.3381    0.0000 C   0  0
   13.7160  -16.3077    0.0000 N   0  0
   12.4537  -15.6393    0.0000 O   0  0
   13.9990  -17.0819    0.0000 C   0  0
   14.8235  -17.0542    0.0000 C   0  0
   15.0519  -16.2614    0.0000 C   0  0
   14.3680  -15.7987    0.0000 C   0  0  1  0  0  0
   14.3537  -14.9738    0.0000 C   0  0
   15.1417  -14.7175    0.0000 N   0  0
   13.6323  -14.5737    0.0000 O   0  0
    8.8237  -15.1677    0.0000 H   0  0
    5.5392  -15.1791    0.0000 C   0  0
    4.7142  -15.1861    0.0000 C   0  0  1  0  0  0
    5.9577  -15.8901    0.0000 O   0  0
    4.2957  -14.4752    0.0000 N   0  0
    4.3078  -15.9040    0.0000 C   0  0
    4.7263  -16.6150    0.0000 C   0  0
    3.4707  -14.4821    0.0000 C   0  0
    3.0522  -13.7712    0.0000 C   0  0
    3.0643  -15.2001    0.0000 O   0  0
    1.5041  -13.3789    0.0000 C   0  0
    0.7985  -13.8065    0.0000 C   0  0
    1.4865  -12.5541    0.0000 O   0  0
    0.0754  -13.4093    0.0000 C   0  0
   -0.6301  -13.8369    0.0000 C   0  0
   -1.3532  -13.4397    0.0000 C   0  0
   -2.0587  -13.8673    0.0000 N   0  0
   -2.7818  -13.4702    0.0000 C   0  0
   -3.4873  -13.8978    0.0000 N   0  0
   -2.7994  -12.6453    0.0000 S   0  0
   -4.2104  -13.5006    0.0000 C   0  0
   -4.2227  -12.6782    0.0000 C   0  0
   -4.9448  -12.2810    0.0000 C   0  0
   -4.9066  -13.9311    0.0000 C   0  0
   -5.6258  -13.5377    0.0000 C   0  0
   -5.6461  -12.7041    0.0000 C   0  0
   -6.4572  -12.4651    0.0000 C   0  0
   -6.9267  -13.1511    0.0000 O   0  0
   -6.7243  -11.6867    0.0000 O   0  0
   -5.9762  -14.5132    0.0000 C   0  0
   -6.3808  -15.2429    0.0000 C   0  0
   -5.9413  -15.9474    0.0000 C   0  0
   -5.1121  -15.9235    0.0000 C   0  0
   -4.7197  -15.1892    0.0000 C   0  0
   -5.1513  -14.4877    0.0000 C   0  0
   -7.6416  -14.5688    0.0000 C   0  0
   -7.2542  -13.8444    0.0000 C   0  0
   -7.6864  -13.1472    0.0000 C   0  0
   -8.5061  -13.1731    0.0000 C   0  0
   -8.8955  -13.9021    0.0000 C   0  0
   -8.4573  -14.5964    0.0000 C   0  0
   -4.6782  -16.6250    0.0000 O   0  0
   -9.7207  -13.9315    0.0000 O   0  0
    4.3198  -17.3329    0.0000 C   0  0
    3.4931  -17.3410    0.0000 O   0  0
    4.7366  -18.0450    0.0000 O   0  0
    2.6285  -13.0588    0.0000 C   0  0
    2.2266  -13.7793    0.0000 N   0  0
    2.2055  -12.3505    0.0000 C   0  0
    2.6074  -11.6300    0.0000 C   0  0
   15.1718  -13.8645    0.0000 C   0  0  1  0  0  0
   14.5962  -13.5026    0.0000 C   0  0
   14.5906  -12.6776    0.0000 C   0  0
   13.8734  -12.2700    0.0000 C   0  0
   13.8678  -11.4450    0.0000 O   0  0
   13.1617  -12.6873    0.0000 O   0  0
   15.9008  -13.4782    0.0000 C   0  0
   16.5998  -13.9165    0.0000 N   0  0
   15.9308  -12.6538    0.0000 O   0  0
   17.3288  -13.5303    0.0000 C   0  0
   18.0278  -13.9685    0.0000 C   0  0
   18.7568  -13.5823    0.0000 O   0  0
   17.9977  -14.7930    0.0000 N   0  0
   16.5697  -14.7409    0.0000 C   0  0
   17.2687  -15.1792    0.0000 C   0  0
   17.2387  -16.0036    0.0000 C   0  0
 44 46  2  0
 45 84  1  0
 16 17  1  0
 84 47  1  0
 17 18  1  0
 47 48  1  0
 18 14  1  0
 47 49  2  0
  3 67  1  0
 48 50  1  0
 12 19  1  0
 50 51  1  0
 51 52  1  0
 19 20  1  0
 52 53  1  0
 15  4  1  1
 53 54  1  0
 19 21  1  1
 54 55  1  0
 54 56  2  0
 20 22  2  0
 55 57  1  0
  4  5  1  0
 57 58  2  0
 20 23  1  0
 58 59  1  0
 59 62  2  0
 23 24  1  0
 61 60  2  0
 60 57  1  0
 61 62  1  0
  4  6  2  0
 24  1  1  0
 62 63  1  0
 63 64  1  0
 64  2  1  0
  2 61  1  0
  1 25  1  0
 63 65  2  0
 25 26  1  0
 26 23  1  0
 66 67  2  0
  5  7  1  0
 67 68  1  0
 26 27  1  6
 68 69  2  0
 69 70  1  0
 27 28  1  0
 70 71  2  0
 71 66  1  0
  7  8  1  0
 27 29  2  0
 72 73  2  0
 28 30  1  0
 73 74  1  0
 74 75  2  0
  7  9  1  0
 75 76  1  0
 76 77  2  0
 77 72  1  0
  9 10  1  0
 69 78  1  0
 30 31  1  0
 76 79  1  0
 31 32  1  0
 43 80  1  0
 32 33  1  0
 33 28  1  0
 80 81  1  0
 80 82  2  0
 33 34  1  6
 83 84  1  0
  9 11  1  6
 83 85  1  0
 34 35  1  0
 85 86  2  0
 34 36  2  0
  8 12  1  0
 35 87  1  0
  7 37  1  1
 87 88  1  1
 14 38  1  0
 88 89  1  0
  8 13  2  0
 89 90  1  0
 38 39  1  0
 90 91  2  0
 14 15  1  0
 90 92  1  0
 38 40  2  0
 87 93  1  0
  2 73  1  0
 93 94  1  0
 39 41  1  0
 93 95  2  0
 39 42  1  6
 94 96  1  0
 42 43  1  0
 96 97  1  0
  2 66  1  0
 97 98  2  0
 41 44  1  0
 97 99  1  0
 72  3  1  0
 94100  1  0
 44 45  1  0
100101  1  0
 15 16  1  0
101102  2  0
M  END