
  CDK    9/16/09,9:57

 18 20  0  0  0  0  0  0  0  0999 V2000
    7.1046   -1.7817    0.0000 C   0  0  0  0  0  0  0  0  0  0  0  0
    7.1034   -2.6083    0.0000 C   0  0  0  0  0  0  0  0  0  0  0  0
    7.8176   -3.0208    0.0000 C   0  0  0  0  0  0  0  0  0  0  0  0
    7.8158   -1.3693    0.0000 C   0  0  0  0  0  0  0  0  0  0  0  0
    8.5305   -1.7781    0.0000 C   0  0  0  0  0  0  0  0  0  0  0  0
    8.5308   -2.6083    0.0000 C   0  0  0  0  0  0  0  0  0  0  0  0
    9.3205   -2.8647    0.0000 N   0  0  0  0  0  0  0  0  0  0  0  0
    9.3201   -1.5213    0.0000 C   0  0  0  0  0  0  0  0  0  0  0  0
    9.8053   -2.1941    0.0000 C   0  0  0  0  0  0  0  0  0  0  0  0
   10.6285   -2.1095    0.0000 C   0  0  0  0  0  0  0  0  0  0  0  0
   10.9677   -1.3528    0.0000 C   0  0  0  0  0  0  0  0  0  0  0  0
   10.4774   -0.6798    0.0000 N   0  0  0  0  0  0  0  0  0  0  0  0
    9.6558   -0.7677    0.0000 C   0  0  0  0  0  0  0  0  0  0  0  0
    9.1709   -0.1013    0.0000 N   0  0  0  0  0  0  0  0  0  0  0  0
    9.5054    0.6519    0.0000 C   0  0  0  0  0  0  0  0  0  0  0  0
    9.0204    1.3184    0.0000 C   0  0  0  0  0  0  0  0  0  0  0  0
    9.3550    2.0716    0.0000 C   0  0  0  0  0  0  0  0  0  0  0  0
    8.8699    2.7381    0.0000 C   0  0  0  0  0  0  0  0  0  0  0  0
  5  4  2  0  0  0  0 
  8  9  2  0  0  0  0 
  4  1  1  0  0  0  0 
  9 10  1  0  0  0  0 
  5  6  1  0  0  0  0 
 10 11  2  0  0  0  0 
 11 12  1  0  0  0  0 
  2  3  1  0  0  0  0 
 12 13  2  0  0  0  0 
 13  8  1  0  0  0  0 
  3  6  2  0  0  0  0 
 13 14  1  0  0  0  0 
  6  7  1  0  0  0  0 
 14 15  1  0  0  0  0 
  7  9  1  0  0  0  0 
 15 16  1  0  0  0  0 
  8  5  1  0  0  0  0 
 16 17  1  0  0  0  0 
  1  2  2  0  0  0  0 
 17 18  1  0  0  0  0 
M  END