
  SciTegic01161211252D

 23 21  0  0  0  0            999 V2000
    5.5000   -1.6792    0.0000 C   0  0
    5.4917   -3.3292    0.0000 C   0  0
    4.7792   -2.9167    0.0000 C   0  0
    4.7875   -2.0917    0.0000 C   0  0
    3.2042   -0.2042    0.0000 N   0  0
    6.2042   -2.9167    0.0000 O   0  0
    6.2125   -2.0917    0.0000 O   0  0
    3.1875   -3.8875    0.0000 N   0  0
    5.5000   -0.8542    0.0000 O   0  0
    5.4875   -4.1542    0.0000 O   0  0
    3.5917   -4.6042    0.0000 C   0  0
    3.2042   -1.0292    0.0000 O   0  0
    2.4917    0.2000    0.0000 C   0  0
    3.2000   -2.4625    0.0000 C   0  0
    3.6042   -3.1750    0.0000 C   0  0
    3.6167   -1.7500    0.0000 C   0  0
    2.3750   -2.4500    0.0000 O   0  0
    4.4167   -4.6125    0.0000 C   0  0
    3.1750   -5.3167    0.0000 C   0  0
    4.1750   -5.1917    0.0000 C   0  0
    1.7792   -0.2125    0.0000 C   0  0
    2.4875    1.0250    0.0000 C   0  0
    1.0542    0.2000    0.0000 C   0  0
  2  3  1  0
  3  4  2  0
  4  1  1  0
  6  2  1  0
  7  1  1  0
  8 15  1  0
  9  1  2  0
 10  2  2  0
 11  8  1  0
 12  5  1  0
 13  5  2  0
 14 16  1  0
 15 14  1  0
 16 12  1  0
 17 14  1  0
 18 11  1  0
 19 11  1  0
 20 11  1  0
 21 13  1  0
 22 13  1  0
 23 21  1  0
M  END