
          11280715092D 1   1.00000     0.00000     0

 46 50  0     0  0            999 V2000
    2.7292   -6.7500    0.0000 C   0  0  0  0  0  0           0  0  0
    4.1792   -7.0792    0.0000 N   0  0  0  0  0  0           0  0  0
    3.3792   -5.4167    0.0000 N   0  0  3  0  0  0           0  0  0
    3.3792   -7.2667    0.0000 C   0  0  0  0  0  0           0  0  0
    4.1792   -5.6000    0.0000 C   0  0  0  0  0  0           0  0  0
    2.7375   -5.9250    0.0000 C   0  0  0  0  0  0           0  0  0
    4.5375   -6.3375    0.0000 C   0  0  3  0  0  0           0  0  0
    2.0167   -7.1667    0.0000 C   0  0  0  0  0  0           0  0  0
    0.5917   -7.1667    0.0000 N   0  0  3  0  0  0           0  0  0
    1.3042   -6.7542    0.0000 C   0  0  0  0  0  0           0  0  0
    7.3875   -6.7917    0.0000 C   0  0  0  0  0  0           0  0  0
    4.0542   -1.8792    0.0000 C   0  0  0  0  0  0           0  0  0
    2.0167   -5.5125    0.0000 C   0  0  0  0  0  0           0  0  0
    8.0000   -7.3417    0.0000 N   0  0  0  0  0  0           0  0  0
    3.2667   -1.6375    0.0000 N   0  0  0  0  0  0           0  0  0
    4.6917   -4.9542    0.0000 O   0  0  0  0  0  0           0  0  0
    3.1917   -8.0667    0.0000 C   0  0  0  0  0  0           0  0  0
    0.5917   -7.9917    0.0000 C   0  0  0  0  0  0           0  0  0
   -0.1208   -6.7542    0.0000 C   0  0  0  0  0  0           0  0  0
    1.3042   -5.9250    0.0000 C   0  0  0  0  0  0           0  0  0
    6.6000   -7.0500    0.0000 N   0  0  0  0  0  0           0  0  0
    4.2375   -2.6875    0.0000 N   0  0  0  0  0  0           0  0  0
    3.2000   -4.6125    0.0000 C   0  0  0  0  0  0           0  0  0
    4.6625   -1.3250    0.0000 N   0  0  0  0  0  0           0  0  0
    7.5542   -5.9875    0.0000 N   0  0  0  0  0  0           0  0  0
    5.3625   -6.3375    0.0000 C   0  0  0  0  0  0           0  0  0
    5.7750   -7.0500    0.0000 C   0  0  0  0  0  0           0  0  0
   -0.1208   -5.9292    0.0000 C   0  0  0  0  0  0           0  0  0
   -0.1208   -8.4042    0.0000 C   0  0  0  0  0  0           0  0  0
    3.8042   -4.0542    0.0000 C   0  0  0  0  0  0           0  0  0
    3.6292   -3.2417    0.0000 C   0  0  0  0  0  0           0  0  0
    3.8000   -8.6250    0.0000 C   0  0  0  0  0  0           0  0  0
    2.4042   -8.3042    0.0000 C   0  0  0  0  0  0           0  0  0
    0.5917   -5.5167    0.0000 C   0  0  0  0  0  0           0  0  0
   -0.8333   -5.5167    0.0000 C   0  0  0  0  0  0           0  0  0
   -0.8333   -7.9875    0.0000 C   0  0  0  0  0  0           0  0  0
   -0.1208   -9.2250    0.0000 C   0  0  0  0  0  0           0  0  0
    2.2167   -9.1125    0.0000 C   0  0  0  0  0  0           0  0  0
    3.6167   -9.4292    0.0000 C   0  0  0  0  0  0           0  0  0
   -0.8333   -4.7000    0.0000 C   0  0  0  0  0  0           0  0  0
   -1.5500   -8.4000    0.0000 C   0  0  0  0  0  0           0  0  0
   -0.8333   -9.6375    0.0000 C   0  0  0  0  0  0           0  0  0
    0.5917   -4.6917    0.0000 C   0  0  0  0  0  0           0  0  0
    2.8250   -9.6750    0.0000 C   0  0  0  0  0  0           0  0  0
   -1.5500   -9.2250    0.0000 C   0  0  0  0  0  0           0  0  0
   -0.1208   -4.2792    0.0000 C   0  0  0  0  0  0           0  0  0
  2  4  2  0     0  0
  3  6  1  0     0  0
  4  1  1  0     0  0
  5  3  1  0     0  0
  6  1  1  0     0  0
  7  2  1  0     0  0
  8  1  2  0     0  0
  9 10  1  0     0  0
 10  8  1  0     0  0
 11 21  1  0     0  0
 12 22  2  0     0  0
 13  6  2  0     0  0
 14 11  2  0     0  0
 15 12  1  0     0  0
 16  5  2  0     0  0
 17  4  1  0     0  0
 18  9  1  0     0  0
 19  9  1  0     0  0
 20 10  2  0     0  0
 21 27  1  0     0  0
 22 31  1  0     0  0
 23  3  1  0     0  0
 24 12  1  0     0  0
 25 11  1  0     0  0
 26  7  1  0     0  0
 27 26  1  0     0  0
 28 19  1  0     0  0
 29 18  1  0     0  0
 30 23  1  0     0  0
 31 30  1  0     0  0
 32 17  1  0     0  0
 33 17  2  0     0  0
 34 28  2  0     0  0
 35 28  1  0     0  0
 36 29  2  0     0  0
 37 29  1  0     0  0
 38 33  1  0     0  0
 39 32  2  0     0  0
 40 35  2  0     0  0
 41 36  1  0     0  0
 42 37  2  0     0  0
 43 34  1  0     0  0
 44 38  2  0     0  0
 45 42  1  0     0  0
 46 40  1  0     0  0
 20 13  1  0     0  0
  7  5  1  0     0  0
 44 39  1  0     0  0
 46 43  2  0     0  0
 45 41  2  0     0  0
M  END