
  SciTegic12011114592D

 21 23  0  0  0  0            999 V2000
    2.5053    1.3908    0.0000 C   0  0
    2.5041    0.5639    0.0000 C   0  0
    3.2186    0.1514    0.0000 C   0  0
    3.2168    1.8034    0.0000 C   0  0
    3.9316    1.3944    0.0000 C   0  0
    3.9304    0.5619    0.0000 C   0  0
    4.6469    0.1469    0.0000 C   0  0
    5.3691    0.5598    0.0000 C   0  0
    5.3703    1.3924    0.0000 C   0  0
    4.6493    1.8120    0.0000 O   0  0
    4.6446   -0.6776    0.0000 O   0  0
    6.0837    1.8003    0.0000 C   0  0
    6.7969    1.3846    0.0000 C   0  0
    7.5115    1.7944    0.0000 C   0  0
    7.5139    2.6197    0.0000 C   0  0
    6.7959    3.0336    0.0000 C   0  0
    6.0843    2.6213    0.0000 C   0  0
    3.2183   -0.6731    0.0000 O   0  0
    1.7912    1.8029    0.0000 O   0  0
    6.7950    3.8581    0.0000 F   0  0
    8.2284    3.0312    0.0000 F   0  0
  9 10  1  0
  5  6  1  0
  7 11  2  0
  2  3  1  0
 12 13  2  0
  3  6  2  0
 13 14  1  0
  1  2  2  0
 14 15  2  0
  5  4  2  0
 15 16  1  0
  4  1  1  0
 16 17  2  0
 17 12  1  0
  9 12  1  0
  5 10  1  0
  3 18  1  0
  6  7  1  0
  1 19  1  0
  7  8  1  0
 16 20  1  0
  8  9  2  0
 15 21  1  0
M  END