
  SciTegic05161214222D

 56 59  0  0  0  0            999 V2000
    2.2027  -28.1166    0.0000 C   0  0
   -1.3625  -27.7125    0.0000 C   0  0
   -1.3625  -28.5375    0.0000 C   0  0
   -0.6505  -28.9458    0.0000 O   0  0
    0.0615  -28.5375    0.0000 C   0  0
    0.0615  -27.7125    0.0000 C   0  0
   -0.6505  -27.2958    0.0000 C   0  0
   -2.0802  -27.3073    0.0000 S   0  0
   -2.4885  -28.0241    0.0000 O   0  0
   -1.6635  -28.0193    0.0000 O   0  0
   -4.9473  -22.3708    0.0000 C   0  0
   -4.9484  -23.1982    0.0000 C   0  0
   -4.2336  -23.6110    0.0000 C   0  0
   -4.2354  -21.9580    0.0000 C   0  0
   -3.5200  -22.3672    0.0000 C   0  0
   -3.5193  -23.1940    0.0000 C   0  0
   -2.8040  -23.6050    0.0000 N   0  0
   -2.0889  -23.1902    0.0000 C   0  0
   -2.0937  -22.3602    0.0000 C   0  0
   -2.8096  -21.9530    0.0000 C   0  0
   -1.3729  -23.5999    0.0000 C   0  0
   -2.8140  -21.1280    0.0000 C   0  0
   -4.2317  -24.4360    0.0000 O   0  0
   -3.5163  -24.8469    0.0000 C   0  0
   -3.5144  -25.6719    0.0000 C   0  0
   -4.2305  -26.0817    0.0000 C   0  0
   -4.2289  -26.9059    0.0000 C   0  0
   -3.5129  -27.3176    0.0000 C   0  0
   -2.7971  -26.8990    0.0000 C   0  0
   -2.8021  -26.0761    0.0000 C   0  0
   -4.9445  -25.6685    0.0000 Cl  0  0
   -2.0905  -25.6588    0.0000 Cl  0  0
   -1.3681  -26.8906    0.0000 N   0  0
    0.0608  -26.8823    0.0000 C   0  0
    0.7765  -27.2926    0.0000 N   0  0
    0.0582  -26.0573    0.0000 O   0  0
    0.7754  -28.1175    0.0000 C   0  0
    1.4871  -28.5278    0.0000 C   0  0
    2.2021  -27.2906    0.0000 C   0  0
    1.4859  -26.8758    0.0000 C   0  0
    2.9169  -28.5296    0.0000 C   0  0
    3.6316  -28.1176    0.0000 N   0  0
    4.3458  -28.5306    0.0000 C   0  0
    5.0606  -28.1186    0.0000 C   0  0
    5.7748  -28.5316    0.0000 C   0  0
    6.4895  -28.1196    0.0000 N   0  3
    7.2037  -28.5326    0.0000 C   0  0
    6.4901  -27.2946    0.0000 C   0  0
    6.4833  -28.9417    0.0000 C   0  0
    3.8784  -26.4301    0.0000 F   0  0
    4.5928  -26.0176    0.0000 C   0  0
    5.3073  -26.4301    0.0000 F   0  0
    4.5867  -26.8384    0.0000 F   0  0
    4.5959  -25.1926    0.0000 C   0  0
    5.3119  -24.7828    0.0000 O   0  5
    3.8830  -24.7774    0.0000 O   0  0
 24 25  1  0
  6  7  1  0
 25 26  2  0
 15 14  2  0
 26 27  1  0
 14 11  1  0
 27 28  2  0
  9  8  2  0
 28 29  1  0
  8 10  2  0
 29 30  2  0
 30 25  1  0
 15 16  1  0
 26 31  1  0
 30 32  1  0
 29  8  1  0
 16 17  1  0
  8 33  1  0
 33  7  1  0
  2  3  1  0
  7 34  1  0
 17 18  2  0
 34 35  1  0
  2  7  1  0
 34 36  2  0
 35 37  1  0
 18 19  1  0
  3  4  1  0
 19 20  2  0
 20 15  1  0
 35 40  1  0
 37 38  1  0
 38  1  1  0
  1 39  1  0
 39 40  1  0
  4  5  1  0
  1 41  1  0
 18 21  1  0
 41 42  1  0
 11 12  2  0
 42 43  1  0
 20 22  1  0
 43 44  1  0
  5  6  1  0
 44 45  1  0
 13 23  1  0
 45 46  1  0
 12 13  1  0
 46 47  1  0
 23 24  1  0
 46 48  1  0
 13 16  2  0
 46 49  1  0
 50 51  1  0
 51 53  1  0
 51 54  1  0
 51 52  1  0
 54 55  1  0
 54 56  2  0
M  CHG  2  46   1  55  -1
M  END