
          11280715232D 1   1.00000     0.00000     0

 46 51  0     1  0            999 V2000
   -2.0125   -2.7167    0.0000 C   0  0  0  0  0  0           0  0  0
   -2.0125   -3.5292    0.0000 C   0  0  0  0  0  0           0  0  0
    9.3917   -2.7167    0.0000 N   0  0  0  0  0  0           0  0  0
    2.2542   -2.7042    0.0000 C   0  0  0  0  0  0           0  0  0
    1.5417   -2.2917    0.0000 O   0  0  0  0  0  0           0  0  0
   10.1042   -2.3042    0.0000 C   0  0  0  0  0  0           0  0  0
   -1.3000   -2.3042    0.0000 C   0  0  0  0  0  0           0  0  0
    2.9667   -2.2917    0.0000 C   0  0  0  0  0  0           0  0  0
   -1.3000   -3.9417    0.0000 C   0  0  0  0  0  0           0  0  0
   -0.5958   -2.7042    0.0000 C   0  0  0  0  0  0           0  0  0
    0.8292   -2.7042    0.0000 C   0  0  0  0  0  0           0  0  0
    2.2542   -3.5292    0.0000 C   0  0  0  0  0  0           0  0  0
   -2.7250   -3.9417    0.0000 C   0  0  3  0  0  0           0  0  0
   -2.7250   -2.2917    0.0000 C   0  0  3  0  0  0           0  0  0
    8.6792   -2.3042    0.0000 C   0  0  0  0  0  0           0  0  0
   -0.5875   -3.5292    0.0000 C   0  0  0  0  0  0           0  0  0
    0.8292   -3.5292    0.0000 C   0  0  0  0  0  0           0  0  0
    3.6792   -2.7167    0.0000 N   0  0  0  0  0  0           0  0  0
   10.1042   -1.4792    0.0000 N   0  0  0  0  0  0           0  0  0
    0.1167   -2.2917    0.0000 C   0  0  0  0  0  0           0  0  0
   10.8167   -2.7167    0.0000 N   0  0  0  0  0  0           0  0  0
    7.9667   -2.7167    0.0000 N   0  0  0  0  0  0           0  0  0
    8.6792   -1.4792    0.0000 C   0  0  0  0  0  0           0  0  0
    2.9792   -1.4667    0.0000 O   0  0  0  0  0  0           0  0  0
   -3.4375   -3.5417    0.0000 C   0  0  0  0  0  0           0  0  0
   -3.4375   -2.7167    0.0000 C   0  0  0  0  0  0           0  0  0
   12.9542   -2.2917    0.0000 O   0  0  0  0  0  0           0  0  0
    9.3917   -1.0667    0.0000 C   0  0  0  0  0  0           0  0  0
    4.4042   -2.3042    0.0000 C   0  0  0  0  0  0           0  0  0
    7.2542   -2.3042    0.0000 C   0  0  0  0  0  0           0  0  0
   11.5417   -2.3042    0.0000 C   0  0  0  0  0  0           0  0  0
    5.8292   -2.3042    0.0000 C   0  0  0  0  0  0           0  0  0
    5.1167   -2.7167    0.0000 C   0  0  0  0  0  0           0  0  0
    6.5417   -2.7167    0.0000 C   0  0  0  0  0  0           0  0  0
   12.2542   -2.7167    0.0000 C   0  0  1  0  0  0           0  0  0
   -2.0125   -4.3542    0.0000 C   0  0  0  0  0  0           0  0  0
   -3.4458   -1.8792    0.0000 C   0  0  0  0  0  0           0  0  0
   -2.0125   -1.8792    0.0000 C   0  0  0  0  0  0           0  0  0
   -3.4458   -4.3542    0.0000 C   0  0  0  0  0  0           0  0  0
    5.8167   -3.9542    0.0000 C   0  0  0  0  0  0           0  0  0
    0.1167   -3.9417    0.0000 C   0  0  0  0  0  0           0  0  0
   13.6792   -2.6792    0.0000 C   0  0  0  0  0  0           0  0  0
    5.1042   -3.5417    0.0000 C   0  0  0  0  0  0           0  0  0
    6.5417   -3.5417    0.0000 C   0  0  0  0  0  0           0  0  0
   12.2792   -3.5417    0.0000 C   0  0  0  0  0  0           0  0  0
   13.0167   -3.9292    0.0000 C   0  0  0  0  0  0           0  0  0
  2  1  2  0     0  0
  3 15  2  0     0  0
  4  5  1  0     0  0
  5 11  1  0     0  0
  6  3  1  0     0  0
  7  1  1  0     0  0
  8  4  1  0     0  0
  9  2  1  0     0  0
 10  7  2  0     0  0
 11 20  1  0     0  0
 12 17  1  0     0  0
 13  2  1  0     0  0
 14  1  1  0     0  0
 15 22  1  0     0  0
 16 10  1  0     0  0
 17 11  2  0     0  0
 18  8  1  0     0  0
 19 28  1  0     0  0
 20 10  1  0     0  0
 21  6  1  0     0  0
 22 30  1  0     0  0
 23 15  1  0     0  0
 24  8  2  0     0  0
 25 26  1  0     0  0
 26 14  1  0     0  0
 27 35  1  0     0  0
 28 23  2  0     0  0
 29 18  1  0     0  0
 30 34  1  0     0  0
 31 21  1  0     0  0
 32 33  1  0     0  0
 33 29  1  0     0  0
 34 32  2  0     0  0
 35 31  1  6     0  0
 36 13  1  0     0  0
 37 14  1  0     0  0
 38 14  1  0     0  0
 39 13  1  0     0  0
 40 43  1  0     0  0
 41 16  1  0     0  0
 42 27  1  0     0  0
 43 33  2  0     0  0
 44 40  2  0     0  0
 45 35  1  0     0  0
 46 45  1  0     0  0
 13 25  1  0     0  0
  9 16  2  0     0  0
 12  4  2  0     0  0
 34 44  1  0     0  0
  6 19  2  0     0  0
 46 42  1  0     0  0
M  END