
          11280714462D 1   1.00000     0.00000     0

 23 24  0     0  0            999 V2000
   -0.1458   -1.1500    0.0000 C   0  0  0  0  0  0           0  0  0
   -0.1458   -1.7500    0.0000 N   0  0  3  0  0  0           0  0  0
   -0.6708   -0.8500    0.0000 C   0  0  0  0  0  0           0  0  0
   -0.4458   -2.6750    0.0000 N   0  0  0  0  0  0           0  0  0
   -0.6250   -2.0917    0.0000 C   0  0  0  0  0  0           0  0  0
   -0.6708   -0.2417    0.0000 C   0  0  0  0  0  0           0  0  0
    0.3375   -2.1042    0.0000 C   0  0  0  0  0  0           0  0  0
    0.1500   -2.6750    0.0000 C   0  0  0  0  0  0           0  0  0
   -0.1500    0.0583    0.0000 O   0  0  0  0  0  0           0  0  0
    0.3750   -0.8417    0.0000 C   0  0  0  0  0  0           0  0  0
    1.9792   -0.4917    0.0000 N   0  0  0  0  0  0           0  0  0
    2.2792   -1.0125    0.0000 C   0  0  3  0  0  0           0  0  0
    0.9500   -0.0792    0.0000 C   0  0  3  0  0  0           0  0  0
    0.3667   -0.2375    0.0000 C   0  0  0  0  0  0           0  0  0
    1.3792   -0.4917    0.0000 C   0  0  0  0  0  0           0  0  0
   -1.1875   -1.1500    0.0000 C   0  0  0  0  0  0           0  0  0
    1.0917    0.5083    0.0000 O   0  0  0  0  0  0           0  0  0
   -1.1875    0.0583    0.0000 C   0  0  0  0  0  0           0  0  0
    1.9792   -1.5292    0.0000 C   0  0  0  0  0  0           0  0  0
    2.8792   -1.0042    0.0000 C   0  0  0  0  0  0           0  0  0
    2.7042   -1.4292    0.0000 C   0  0  0  0  0  0           0  0  0
   -1.7083   -0.8500    0.0000 C   0  0  0  0  0  0           0  0  0
   -1.7083   -0.2500    0.0000 C   0  0  0  0  0  0           0  0  0
  2  1  1  0     0  0
  3  1  1  0     0  0
  4  5  2  0     0  0
  5  2  1  0     0  0
  6  3  1  0     0  0
  7  2  1  0     0  0
  8  7  2  0     0  0
  9  6  1  0     0  0
 10  1  2  0     0  0
 11 15  1  0     0  0
 12 11  1  0     0  0
 13 14  1  0     0  0
 14  9  1  0     0  0
 15 13  1  0     0  0
 16  3  2  0     0  0
 17 13  1  0     0  0
 18  6  2  0     0  0
 19 12  1  0     0  0
 20 12  1  0     0  0
 21 12  1  0     0  0
 22 16  1  0     0  0
 23 22  2  0     0  0
  8  4  1  0     0  0
 23 18  1  0     0  0
M  END