
          11280715212D 1   1.00000     0.00000     0

 28 28  0     0  0            999 V2000
   -3.6750   -1.2167    0.0000 N   0  0  0  0  0  0           0  0  0
    2.1417   -1.5417    0.0000 C   0  0  0  0  0  0           0  0  0
   -4.0958   -2.4917    0.0000 N   0  0  0  0  0  0           0  0  0
    1.9667   -2.3542    0.0000 C   0  0  0  0  0  0           0  0  0
   -4.3458   -1.7042    0.0000 C   0  0  0  0  0  0           0  0  0
   -3.0083   -1.7042    0.0000 C   0  0  0  0  0  0           0  0  0
   11.6917   -2.0417    0.0000 C   0  0  0  0  0  0           0  0  0
   11.6792   -3.6917    0.0000 C   0  0  0  0  0  0           0  0  0
   10.9792   -2.4542    0.0000 C   0  0  0  0  0  0           0  0  0
   10.9750   -3.2792    0.0000 C   0  0  0  0  0  0           0  0  0
    1.1875   -2.6042    0.0000 C   0  0  0  0  0  0           0  0  0
    2.9292   -1.2917    0.0000 C   0  0  0  0  0  0           0  0  0
    3.1000   -0.4792    0.0000 N   0  0  0  0  0  0           0  0  0
   -3.2625   -2.4917    0.0000 C   0  0  0  0  0  0           0  0  0
    0.5750   -2.0542    0.0000 C   0  0  0  0  0  0           0  0  0
    1.5250   -0.9917    0.0000 C   0  0  0  0  0  0           0  0  0
   11.6917   -1.2167    0.0000 O   0  0  0  0  0  0           0  0  0
   11.6792   -4.5167    0.0000 O   0  0  0  0  0  0           0  0  0
    0.7417   -1.2500    0.0000 C   0  0  0  0  0  0           0  0  0
   12.4000   -3.2792    0.0000 O   0  0  0  0  0  0           0  0  0
   12.4042   -2.4542    0.0000 O   0  0  0  0  0  0           0  0  0
    3.8792   -0.2292    0.0000 O   0  0  0  0  0  0           0  0  0
   -0.2083   -2.3042    0.0000 O   0  0  0  0  0  0           0  0  0
   -2.2208   -1.4542    0.0000 C   0  0  0  0  0  0           0  0  0
    1.0125   -3.4125    0.0000 C   0  0  0  0  0  0           0  0  0
    3.5417   -1.8417    0.0000 C   0  0  0  0  0  0           0  0  0
   -0.8208   -1.7542    0.0000 C   0  0  0  0  0  0           0  0  0
   -1.6083   -2.0042    0.0000 C   0  0  0  0  0  0           0  0  0
  2  4  2  0     0  0
  3  5  1  0     0  0
  4 11  1  0     0  0
  5  1  2  0     0  0
  6  1  1  0     0  0
  8 10  1  0     0  0
  9  7  1  0     0  0
 10  9  2  0     0  0
 11 15  2  0     0  0
 12  2  1  0     0  0
 13 12  2  0     0  0
 14  6  2  0     0  0
 15 23  1  0     0  0
 16 19  2  0     0  0
 17  7  2  0     0  0
 18  8  2  0     0  0
 19 15  1  0     0  0
 20  8  1  0     0  0
 21  7  1  0     0  0
 22 13  1  0     0  0
 23 27  1  0     0  0
 24  6  1  0     0  0
 25 11  1  0     0  0
 26 12  1  0     0  0
 27 28  1  0     0  0
 28 24  1  0     0  0
 14  3  1  0     0  0
  2 16  1  0     0  0
M  END