
          11280714572D 1   1.00000     0.00000     0

 46 49  0     0  0            999 V2000
   11.8500    0.8208    0.0000 C   0  0  0  0  0  0           0  0  0
   12.5792    0.4208    0.0000 C   0  0  0  0  0  0           0  0  0
   11.1417    0.3958    0.0000 C   0  0  0  0  0  0           0  0  0
   13.2875    0.8458    0.0000 N   0  3  0  0  0  0           0  0  0
   11.6625    1.6208    0.0000 N   0  0  0  0  0  0           0  0  0
   12.5875   -0.4125    0.0000 C   0  0  0  0  0  0           0  0  0
   10.5167    0.9333    0.0000 N   0  0  0  0  0  0           0  0  0
   10.8417    1.6958    0.0000 O   0  0  0  0  0  0           0  0  0
    2.5667    0.3000    0.0000 N   0  0  0  0  0  0           0  0  0
   11.1542   -0.4292    0.0000 C   0  0  0  0  0  0           0  0  0
    3.2792    0.7125    0.0000 C   0  0  0  0  0  0           0  0  0
    2.5667   -0.5250    0.0000 C   0  0  0  0  0  0           0  0  0
   11.8792   -0.8375    0.0000 C   0  0  0  0  0  0           0  0  0
    3.9917    1.1250    0.0000 N   0  0  0  0  0  0           0  0  0
   -4.5833   -0.5292    0.0000 N   0  0  3  0  0  0           0  0  0
   14.0042    0.4458    0.0000 O   0  5  0  0  0  0           0  0  0
   13.2667    1.6708    0.0000 O   0  0  0  0  0  0           0  0  0
    6.1625   -0.9042    0.0000 C   0  0  0  0  0  0           0  0  0
    6.1875   -1.7292    0.0000 O   0  0  0  0  0  0           0  0  0
   -3.8583   -0.9417    0.0000 C   0  0  0  0  0  0           0  0  0
    1.8542   -0.9375    0.0000 N   0  0  0  0  0  0           0  0  0
    3.2875   -0.9375    0.0000 N   0  0  0  0  0  0           0  0  0
   10.4417   -0.8542    0.0000 N   0  0  0  0  0  0           0  0  0
   -3.1458   -0.5292    0.0000 C   0  0  0  0  0  0           0  0  0
    5.4292   -0.5125    0.0000 N   0  0  0  0  0  0           0  0  0
   -2.4333   -0.9417    0.0000 C   0  0  0  0  0  0           0  0  0
   -1.7125   -0.5292    0.0000 C   0  0  0  0  0  0           0  0  0
    0.4292   -0.9417    0.0000 C   0  0  0  0  0  0           0  0  0
   -1.0000   -0.9417    0.0000 O   0  0  0  0  0  0           0  0  0
   -4.5833    0.3000    0.0000 C   0  0  0  0  0  0           0  0  0
   -5.2958   -0.9417    0.0000 C   0  0  0  0  0  0           0  0  0
   -2.4333    0.7083    0.0000 C   0  0  0  0  0  0           0  0  0
    6.8667   -0.4792    0.0000 C   0  0  0  0  0  0           0  0  0
    1.1417   -0.5250    0.0000 C   0  0  0  0  0  0           0  0  0
   -3.1458    0.2958    0.0000 C   0  0  0  0  0  0           0  0  0
   -0.2875   -0.5292    0.0000 C   0  0  0  0  0  0           0  0  0
    4.0042   -0.5167    0.0000 C   0  0  0  0  0  0           0  0  0
    4.7167   -0.9292    0.0000 C   0  0  0  0  0  0           0  0  0
    9.7292   -0.4500    0.0000 C   0  0  0  0  0  0           0  0  0
   -1.7208    0.3000    0.0000 C   0  0  0  0  0  0           0  0  0
    7.5875   -0.8875    0.0000 C   0  0  0  0  0  0           0  0  0
    9.0167   -0.8667    0.0000 C   0  0  0  0  0  0           0  0  0
    8.3000   -0.4667    0.0000 C   0  0  0  0  0  0           0  0  0
   -5.2833    0.7125    0.0000 C   0  0  0  0  0  0           0  0  0
   -6.0042   -0.5167    0.0000 C   0  0  0  0  0  0           0  0  0
   -5.9958    0.3083    0.0000 C   0  0  0  0  0  0           0  0  0
  2  1  1  0     0  0
  3  1  1  0     0  0
  4  2  1  0     0  0
  5  1  2  0     0  0
  6  2  2  0     0  0
  7  3  2  0     0  0
  8  5  1  0     0  0
  9 12  1  0     0  0
 10  3  1  0     0  0
 11  9  1  0     0  0
 12 22  2  0     0  0
 13 10  2  0     0  0
 14 11  3  0     0  0
 15 20  1  0     0  0
 16  4  1  0     0  0
 17  4  2  0     0  0
 18 33  1  0     0  0
 19 18  2  0     0  0
 20 24  1  0     0  0
 21 12  1  0     0  0
 22 37  1  0     0  0
 23 10  1  0     0  0
 24 26  1  0     0  0
 25 18  1  0     0  0
 26 27  2  0     0  0
 27 29  1  0     0  0
 28 34  1  0     0  0
 29 36  1  0     0  0
 30 15  1  0     0  0
 31 15  1  0     0  0
 32 40  2  0     0  0
 33 41  1  0     0  0
 34 21  1  0     0  0
 35 32  1  0     0  0
 36 28  1  0     0  0
 37 38  1  0     0  0
 38 25  1  0     0  0
 39 23  1  0     0  0
 40 27  1  0     0  0
 41 43  1  0     0  0
 42 39  1  0     0  0
 43 42  1  0     0  0
 44 30  1  0     0  0
 45 31  1  0     0  0
 46 45  1  0     0  0
  7  8  1  0     0  0
  6 13  1  0     0  0
 24 35  2  0     0  0
 46 44  1  0     0  0
M  CHG  2   4   1  16  -1
M  END