
  Mrv0541 04051115152D          

 20 22  0  0  0  0            999 V2000
   -0.4811   -1.4054    0.0000 C   0  0  0  0  0  0  0  0  0  0  0  0
   -0.4811   -0.5804    0.0000 C   0  0  0  0  0  0  0  0  0  0  0  0
   -1.1955   -0.1679    0.0000 C   0  0  0  0  0  0  0  0  0  0  0  0
   -1.9100   -0.5804    0.0000 N   0  0  0  0  0  0  0  0  0  0  0  0
   -1.9100   -1.4054    0.0000 C   0  0  0  0  0  0  0  0  0  0  0  0
   -1.1955   -1.8179    0.0000 N   0  0  0  0  0  0  0  0  0  0  0  0
   -1.1955    0.6571    0.0000 N   0  0  0  0  0  0  0  0  0  0  0  0
    0.2334   -1.8179    0.0000 C   0  0  0  0  0  0  0  0  0  0  0  0
    0.9479   -1.4054    0.0000 C   0  0  0  0  0  0  0  0  0  0  0  0
    0.9479   -0.5804    0.0000 C   0  0  0  0  0  0  0  0  0  0  0  0
    0.2334   -0.1679    0.0000 C   0  0  0  0  0  0  0  0  0  0  0  0
   -2.6245   -1.8179    0.0000 N   0  0  0  0  0  0  0  0  0  0  0  0
    0.2334    0.6571    0.0000 S   0  0  0  0  0  0  0  0  0  0  0  0
    0.9479    1.0696    0.0000 C   0  0  0  0  0  0  0  0  0  0  0  0
    0.9479    1.8946    0.0000 C   0  0  0  0  0  0  0  0  0  0  0  0
    1.6624    2.3071    0.0000 C   0  0  0  0  0  0  0  0  0  0  0  0
    2.3768    1.8946    0.0000 C   0  0  0  0  0  0  0  0  0  0  0  0
    3.0913    2.3071    0.0000 Cl  0  0  0  0  0  0  0  0  0  0  0  0
    2.3768    1.0696    0.0000 C   0  0  0  0  0  0  0  0  0  0  0  0
    1.6624    0.6571    0.0000 C   0  0  0  0  0  0  0  0  0  0  0  0
  1  2  2  0  0  0  0
  1  6  1  0  0  0  0
  1  8  1  0  0  0  0
  2  3  1  0  0  0  0
 11  2  1  0  0  0  0
  3  4  2  0  0  0  0
  3  7  1  0  0  0  0
  5  4  1  0  0  0  0
  5  6  2  0  0  0  0
  5 12  1  0  0  0  0
  8  9  2  0  0  0  0
 10  9  1  0  0  0  0
 10 11  2  0  0  0  0
 11 13  1  0  0  0  0
 14 13  1  0  0  0  0
 14 15  2  0  0  0  0
 14 20  1  0  0  0  0
 15 16  1  0  0  0  0
 16 17  2  0  0  0  0
 17 18  1  0  0  0  0
 17 19  1  0  0  0  0
 19 20  2  0  0  0  0
M  END