
          11280714512D 1   1.00000     0.00000     0

 30 32  0     0  0            999 V2000
    0.2792   -0.7667    0.0000 N   0  0  0  0  0  0           0  0  0
   -1.1458   -0.7792    0.0000 C   0  0  0  0  0  0           0  0  0
   -0.4375   -0.3625    0.0000 C   0  0  0  0  0  0           0  0  0
   -1.1458   -1.6042    0.0000 C   0  0  0  0  0  0           0  0  0
    0.2792   -1.6000    0.0000 C   0  0  0  0  0  0           0  0  0
   -0.4333   -2.0167    0.0000 N   0  0  0  0  0  0           0  0  0
   -1.8625   -0.3667    0.0000 C   0  0  0  0  0  0           0  0  0
   -1.8625   -2.0167    0.0000 C   0  0  0  0  0  0           0  0  0
    7.4292   -1.5917    0.0000 C   0  0  0  0  0  0           0  0  0
    6.7167   -2.0042    0.0000 C   0  0  0  0  0  0           0  0  0
   -2.5750   -0.7792    0.0000 C   0  0  0  0  0  0           0  0  0
   -2.5750   -1.6042    0.0000 C   0  0  0  0  0  0           0  0  0
    8.1792   -1.9292    0.0000 O   0  0  0  0  0  0           0  0  0
    7.5167   -0.7750    0.0000 C   0  0  0  0  0  0           0  0  0
    6.7167   -2.8292    0.0000 O   0  0  0  0  0  0           0  0  0
    8.7292   -1.3167    0.0000 C   0  0  0  0  0  0           0  0  0
    8.3167   -0.6042    0.0000 C   0  0  0  0  0  0           0  0  0
    1.0000   -2.0042    0.0000 N   0  0  0  0  0  0           0  0  0
   -0.4458    0.4625    0.0000 N   0  0  0  0  0  0           0  0  0
    6.0000   -1.5917    0.0000 N   0  0  0  0  0  0           0  0  0
    3.8542   -2.0042    0.0000 S   0  0  0  0  0  0           0  0  0
    3.1417   -1.5917    0.0000 S   0  0  0  0  0  0           0  0  0
   -3.2875   -0.3667    0.0000 O   0  0  0  0  0  0           0  0  0
   -3.2958   -2.0167    0.0000 O   0  0  0  0  0  0           0  0  0
    4.5667   -1.5917    0.0000 C   0  0  0  0  0  0           0  0  0
    2.4292   -2.0042    0.0000 C   0  0  0  0  0  0           0  0  0
    1.7167   -1.5917    0.0000 C   0  0  0  0  0  0           0  0  0
    5.2875   -2.0042    0.0000 C   0  0  0  0  0  0           0  0  0
   -3.2875    0.4583    0.0000 C   0  0  0  0  0  0           0  0  0
   -4.0083   -1.6042    0.0000 C   0  0  0  0  0  0           0  0  0
  2  3  1  0     0  0
  3  1  2  0     0  0
  4  6  1  0     0  0
  5  1  1  0     0  0
  6  5  2  0     0  0
  7  2  2  0     0  0
  8  4  2  0     0  0
  9 10  1  0     0  0
 10 20  1  0     0  0
 11  7  1  0     0  0
 12  8  1  0     0  0
 13  9  1  0     0  0
 14  9  2  0     0  0
 15 10  2  0     0  0
 16 13  1  0     0  0
 17 14  1  0     0  0
 18  5  1  0     0  0
 19  3  1  0     0  0
 20 28  1  0     0  0
 21 22  1  0     0  0
 22 26  1  0     0  0
 23 11  1  0     0  0
 24 12  1  0     0  0
 25 21  1  0     0  0
 26 27  1  0     0  0
 27 18  1  0     0  0
 28 25  1  0     0  0
 29 23  1  0     0  0
 30 24  1  0     0  0
  2  4  1  0     0  0
 11 12  2  0     0  0
 16 17  2  0     0  0
M  END