
  SciTegic05171617262D

 34 39  0  0  0  0            999 V2000
    2.3164    0.1283    0.0000 O   0  0
    1.2785    0.7306    0.0000 C   0  0
    1.2785    2.2729    0.0000 N   0  0
    2.5654    3.0449    0.0000 C   0  0
    2.5408    4.5455    0.0000 C   0  0
    3.8260    5.3192    0.0000 C   0  0
    3.7987    6.8189    0.0000 C   0  0
    2.4862    7.5451    0.0000 C   0  0
    1.2010    6.7716    0.0000 C   0  0
    1.2283    5.2718    0.0000 C   0  0
   -0.1121    7.4982    0.0000 N   0  0
   -0.2793    8.9760    0.0000 C   0  0
   -1.7524    9.2588    0.0000 C   0  0
   -2.4765    7.9451    0.0000 C   0  0
   -1.4510    6.8505    0.0000 N   0  0
    0.0000    3.0035    0.0000 C   0  0
   -1.2988    2.2729    0.0000 C   0  0
   -1.2988    0.7306    0.0000 C   0  0
    0.0000    0.0000    0.0000 C   0  0
   -1.2988   -0.7509    0.0000 C   0  0
   -1.2988   -2.2526    0.0000 C   0  0
    0.0000   -3.0238    0.0000 N   0  0
    1.2785   -2.2526    0.0000 C   0  0
    1.2785   -0.7509    0.0000 C   0  0
    0.0052   -4.5245    0.0000 C   0  0
    1.2944   -5.2850    0.0000 C   0  0
    1.2697   -6.7977    0.0000 N   0  0
   -0.0345   -7.5327    0.0000 C   0  0
   -0.0499   -9.0297    0.0000 C   0  0
   -1.3541   -9.7646    0.0000 C   0  0
   -2.6430   -9.0026    0.0000 C   0  0
   -2.6276   -7.5056    0.0000 C   0  0
   -1.3234   -6.7707    0.0000 C   0  0
   -1.3080   -5.2737    0.0000 N   0  0
  1  2  2  0
  2  3  1  0
  3  4  1  0
  4  5  1  0
  5  6  2  0
  6  7  1  0
  7  8  2  0
  8  9  1  0
  9 10  2  0
  5 10  1  0
  9 11  1  0
 11 12  1  0
 12 13  2  0
 13 14  1  0
 14 15  2  0
 11 15  1  0
  3 16  1  0
 16 17  1  0
 17 18  1  0
 18 19  1  0
  2 19  1  0
 19 20  1  0
 20 21  1  0
 21 22  1  0
 22 23  1  0
 23 24  1  0
 19 24  1  0
 22 25  1  0
 25 26  2  0
 26 27  1  0
 27 28  2  0
 28 29  1  0
 29 30  2  0
 30 31  1  0
 31 32  2  0
 32 33  1  0
 28 33  1  0
 33 34  2  0
 25 34  1  0
M  END