
  SciTegic11201309402D

 83 86  0  0  1  0            999 V2000
   11.0000   -7.4792    0.0000 N   0  0
   11.7875   -6.1625    0.0000 C   0  0
    4.2625   -7.9875    0.0000 C   0  0
    2.7667   -7.9875    0.0000 N   0  0
    2.0167   -7.5542    0.0000 C   0  0
   -0.2333   -7.9875    0.0000 C   0  0
   11.7292   -7.0250    0.0000 C   0  0  1  0  0  0
   10.4125   -4.3292    0.0000 C   0  0
    5.0125   -7.5542    0.0000 N   0  0
    0.5167   -7.5542    0.0000 N   0  0
    3.5167   -7.5542    0.0000 C   0  0  1  0  0  0
   11.0667   -5.6750    0.0000 N   0  0
   10.4667   -3.4667    0.0000 N   0  0
    5.7625   -7.9875    0.0000 C   0  0  1  0  0  0
   10.2542   -7.9292    0.0000 C   0  0
    5.7625   -8.8542    0.0000 C   0  0
    1.2667   -7.9875    0.0000 C   0  0  1  0  0  0
   -0.9833   -7.5542    0.0000 C   0  0  2  0  0  0
    5.9875   -3.1625    0.0000 C   0  0
   13.5792   -1.9417    0.0000 C   0  0
    6.5125   -7.5542    0.0000 C   0  0
   -1.7333   -8.8542    0.0000 C   0  0
   -1.7333   -7.9875    0.0000 N   0  0
    9.8042   -2.1250    0.0000 C   0  0
    6.5125   -9.2875    0.0000 C   0  0
   11.1292   -4.8125    0.0000 C   0  0  1  0  0  0
    9.7500   -2.9875    0.0000 C   0  0  2  0  0  0
   13.6375   -1.0792    0.0000 N   0  0
    5.2667   -2.6792    0.0000 N   0  0
   12.5667   -5.7792    0.0000 O   0  0
    4.2625   -8.8542    0.0000 O   0  0
    2.0167   -6.6917    0.0000 O   0  0
   -0.2333   -8.8542    0.0000 O   0  0
    9.6375   -4.7125    0.0000 O   0  0
   -0.9833   -6.6917    0.0000 C   0  0
    1.2667   -8.8542    0.0000 C   0  0
   10.2667   -8.7917    0.0000 O   0  0
    6.5125   -6.6917    0.0000 O   0  0
   10.5792   -1.7417    0.0000 O   0  0
   -0.9833   -9.2875    0.0000 O   0  0
    6.5125  -10.1500    0.0000 O   0  0
   12.8000   -2.3292    0.0000 N   0  0
    6.7625   -2.7792    0.0000 N   0  0
    7.2625   -7.9875    0.0000 N   0  0
   -2.4458   -9.2667    0.0000 C   0  0
   14.2917   -2.4292    0.0000 N   0  0
    5.9292   -4.0250    0.0000 N   0  0
    9.0917   -1.6417    0.0000 N   0  0
    3.5167   -6.6917    0.0000 C   0  0
    7.2625   -8.8542    0.0000 N   0  0
   -0.2333   -6.2542    0.0000 C   0  0
   11.2125   -8.3167    0.0000 C   0  0
    1.2667   -5.3917    0.0000 C   0  0
    2.0167   -9.2875    0.0000 C   0  0
   -2.4458  -10.0917    0.0000 C   0  0
    0.5167   -6.6917    0.0000 C   0  0
   -0.2333   -5.3917    0.0000 C   0  0
    1.2667   -6.2542    0.0000 C   0  0
    0.5167   -4.9625    0.0000 C   0  0
   12.3917   -7.5792    0.0000 C   0  0
    2.0167   -4.9625    0.0000 O   0  0
    9.5000   -7.5125    0.0000 C   0  0
   12.0750   -8.3792    0.0000 C   0  0
   11.9042   -4.4292    0.0000 C   0  0
    8.9750   -3.3667    0.0000 C   0  0
    7.4792   -3.2667    0.0000 C   0  0
   12.7417   -3.1917    0.0000 C   0  0
    8.0000   -7.5417    0.0000 C   0  0
    4.2625   -6.2542    0.0000 C   0  0
    2.7667   -6.2542    0.0000 C   0  0
    2.7667   -8.8542    0.0000 C   0  0
    2.0167  -10.1500    0.0000 C   0  0
   -3.1625  -10.5000    0.0000 C   0  0
   -1.7333  -10.5000    0.0000 C   0  0
    8.7542   -7.9625    0.0000 C   0  0
    8.2542   -2.8875    0.0000 C   0  0
   11.9667   -3.5667    0.0000 C   0  0
    3.5167   -9.2875    0.0000 C   0  0
   -3.1708  -11.3250    0.0000 C   0  0
   -1.7333  -11.3167    0.0000 C   0  0
    2.7667  -10.5792    0.0000 C   0  0
    3.5167  -10.1500    0.0000 C   0  0
   -2.4500  -11.7375    0.0000 C   0  0
  7  2  1  1
  3  9  1  0
 11  4  1  1
  5  4  1  0
  6 10  1  0
  7  1  1  0
  8 26  1  0
 14  9  1  6
 17 10  1  6
 11  3  1  0
 12  2  1  0
 13  8  1  0
 14 21  1  0
 15  1  1  0
 14 16  1  0
 17  5  1  0
 18  6  1  0
 19 43  2  0
 20 42  2  0
 21 44  1  0
 22 23  1  0
 18 23  1  6
 24 27  1  0
 25 16  1  0
 26 12  1  6
 27 13  1  1
 28 20  1  0
 29 19  1  0
 30  2  2  0
 31  3  2  0
 32  5  2  0
 33  6  2  0
 34  8  2  0
 18 35  1  0
 17 36  1  0
 37 15  2  0
 38 21  2  0
 39 24  2  0
 40 22  2  0
 41 25  2  0
 42 67  1  0
 43 66  1  0
 44 68  1  0
 45 22  1  0
 46 20  1  0
 47 19  1  0
 48 24  1  0
 11 49  1  0
 50 25  1  0
 51 35  1  0
 52  1  1  0
 53 59  1  0
 54 36  1  0
 55 45  1  0
 56 51  2  0
 57 51  1  0
 58 56  1  0
 59 57  2  0
  7 60  1  0
 61 53  1  0
 62 15  1  0
 63 52  1  0
 26 64  1  0
 27 65  1  0
 66 76  1  0
 67 77  1  0
 68 75  1  0
 69 49  1  0
 70 49  1  0
 71 54  1  0
 72 54  2  0
 73 55  2  0
 74 55  1  0
 75 62  1  0
 76 65  1  0
 77 64  1  0
 78 71  2  0
 79 73  1  0
 80 74  2  0
 81 72  1  0
 82 81  2  0
 83 80  1  0
 63 60  1  0
 78 82  1  0
 53 58  2  0
 79 83  2  0
M  END