
  Mrv0541 05211314572D          

 38 42  0  0  0  0            999 V2000
   -0.2986   -9.5016    0.0000 C   0  0  0  0  0  0  0  0  0  0  0  0
    0.1139  -10.2161    0.0000 C   0  0  0  0  0  0  0  0  0  0  0  0
    0.9389  -10.2161    0.0000 C   0  0  0  0  0  0  0  0  0  0  0  0
    1.3514  -10.9306    0.0000 N   0  0  0  0  0  0  0  0  0  0  0  0
    1.3514   -9.5016    0.0000 O   0  0  0  0  0  0  0  0  0  0  0  0
    2.1764  -10.9306    0.0000 C   0  0  0  0  0  0  0  0  0  0  0  0
    2.5889  -11.6450    0.0000 C   0  0  0  0  0  0  0  0  0  0  0  0
    2.1764  -12.3595    0.0000 N   0  0  0  0  0  0  0  0  0  0  0  0
    1.3514  -12.3595    0.0000 C   0  0  0  0  0  0  0  0  0  0  0  0
    0.9389  -11.6450    0.0000 C   0  0  0  0  0  0  0  0  0  0  0  0
    2.5889  -13.0740    0.0000 C   0  0  0  0  0  0  0  0  0  0  0  0
    3.4139  -13.0740    0.0000 C   0  0  0  0  0  0  0  0  0  0  0  0
    3.8264  -13.7885    0.0000 C   0  0  0  0  0  0  0  0  0  0  0  0
    3.4139  -14.5029    0.0000 C   0  0  0  0  0  0  0  0  0  0  0  0
    2.5889  -14.5029    0.0000 C   0  0  0  0  0  0  0  0  0  0  0  0
    2.1764  -13.7885    0.0000 C   0  0  0  0  0  0  0  0  0  0  0  0
    3.8264  -15.2174    0.0000 N   0  3  0  0  0  0  0  0  0  0  0  0
    3.4139  -15.9319    0.0000 O   0  0  0  0  0  0  0  0  0  0  0  0
    4.6514  -15.2174    0.0000 O   0  5  0  0  0  0  0  0  0  0  0  0
   -1.1236   -9.5016    0.0000 N   0  0  0  0  0  0  0  0  0  0  0  0
   -1.5361  -10.2161    0.0000 C   0  0  0  0  0  0  0  0  0  0  0  0
   -1.5361   -8.7872    0.0000 C   0  0  0  0  0  0  0  0  0  0  0  0
   -2.3611   -8.7872    0.0000 C   0  0  0  0  0  0  0  0  0  0  0  0
   -2.7736   -8.0727    0.0000 C   0  0  0  0  0  0  0  0  0  0  0  0
   -3.7656   -7.1795    0.0000 C   0  0  0  0  0  0  0  0  0  0  0  0
   -3.5941   -7.9864    0.0000 C   0  0  0  0  0  0  0  0  0  0  0  0
   -4.2072   -8.5385    0.0000 C   0  0  0  0  0  0  0  0  0  0  0  0
   -4.9918   -8.2835    0.0000 C   0  0  0  0  0  0  0  0  0  0  0  0
   -5.1633   -7.4766    0.0000 C   0  0  0  0  0  0  0  0  0  0  0  0
   -4.5502   -6.9245    0.0000 C   0  0  0  0  0  0  0  0  0  0  0  0
   -2.4380   -7.3190    0.0000 C   0  0  0  0  0  0  0  0  0  0  0  0
   -3.0511   -6.7670    0.0000 C   0  0  0  0  0  0  0  0  0  0  0  0
   -2.8796   -5.9600    0.0000 C   0  0  0  0  0  0  0  0  0  0  0  0
   -2.0950   -5.7051    0.0000 C   0  0  0  0  0  0  0  0  0  0  0  0
   -1.4819   -6.2571    0.0000 C   0  0  0  0  0  0  0  0  0  0  0  0
   -1.6534   -7.0641    0.0000 C   0  0  0  0  0  0  0  0  0  0  0  0
   -1.1236  -10.9306    0.0000 C   0  0  0  0  0  0  0  0  0  0  0  0
   -1.5361  -11.6450    0.0000 C   0  0  0  0  0  0  0  0  0  0  0  0
 17 19  1  0  0  0  0
 14 17  1  0  0  0  0
  8  9  1  0  0  0  0
  1 20  1  0  0  0  0
  9 10  1  0  0  0  0
 20 21  1  0  0  0  0
  4  6  1  0  0  0  0
 20 22  1  0  0  0  0
  8 11  1  0  0  0  0
 22 23  1  0  0  0  0
  2  3  1  0  0  0  0
 23 24  1  0  0  0  0
 24 26  1  0  0  0  0
 25 32  1  0  0  0  0
 31 24  1  0  0  0  0
 25 26  2  0  0  0  0
 11 12  2  0  0  0  0
  1  2  1  0  0  0  0
 12 13  1  0  0  0  0
  3  4  1  0  0  0  0
 13 14  2  0  0  0  0
 25 30  1  0  0  0  0
 26 27  1  0  0  0  0
 27 28  2  0  0  0  0
 28 29  1  0  0  0  0
 29 30  2  0  0  0  0
 31 32  2  0  0  0  0
 14 15  1  0  0  0  0
  3  5  2  0  0  0  0
 15 16  2  0  0  0  0
 16 11  1  0  0  0  0
  4 10  1  0  0  0  0
  6  7  1  0  0  0  0
 31 36  1  0  0  0  0
 32 33  1  0  0  0  0
 33 34  2  0  0  0  0
 34 35  1  0  0  0  0
 35 36  2  0  0  0  0
  7  8  1  0  0  0  0
 21 37  1  0  0  0  0
 17 18  2  0  0  0  0
 37 38  2  0  0  0  0
M  CHG  2  17   1  19  -1
M  END