
          11280715332D 1   1.00000     0.00000     0

 28 29  0     0  0            999 V2000
    1.2542   -4.0250    0.0000 S   0  0  3  0  0  0           0  0  0
    4.5417   -4.0042    0.0000 C   0  0  0  0  0  0           0  0  0
    7.3917   -6.1625    0.0000 C   0  0  3  0  0  0           0  0  0
    8.2167   -6.2167    0.0000 C   0  0  0  0  0  0           0  0  0
    7.0292   -5.4167    0.0000 N   0  0  0  0  0  0           0  0  0
    2.0667   -4.0167    0.0000 C   0  0  0  0  0  0           0  0  0
    6.2042   -5.4250    0.0000 C   0  0  0  0  0  0           0  0  0
    4.9625   -4.7167    0.0000 N   0  0  0  0  0  0           0  0  0
    1.2500   -4.8417    0.0000 O   0  0  0  0  0  0           0  0  0
    1.2542   -3.2000    0.0000 O   0  0  0  0  0  0           0  0  0
    3.7167   -4.0042    0.0000 C   0  0  0  0  0  0           0  0  0
    0.4250   -4.0167    0.0000 N   0  0  0  0  0  0           0  0  0
    6.9292   -6.8417    0.0000 C   0  0  0  0  0  0           0  0  0
    4.9542   -3.2917    0.0000 O   0  0  0  0  0  0           0  0  0
    8.6750   -5.5292    0.0000 O   0  0  0  0  0  0           0  0  0
    5.7917   -6.1417    0.0000 O   0  0  0  0  0  0           0  0  0
    2.4792   -3.3042    0.0000 C   0  0  0  0  0  0           0  0  0
    2.4917   -4.7292    0.0000 C   0  0  0  0  0  0           0  0  0
    3.3125   -4.7292    0.0000 C   0  0  0  0  0  0           0  0  0
    3.3000   -3.3000    0.0000 C   0  0  0  0  0  0           0  0  0
    5.7875   -4.7125    0.0000 C   0  0  0  0  0  0           0  0  0
    8.5792   -6.9542    0.0000 O   0  0  0  0  0  0           0  0  0
    7.3000   -7.5875    0.0000 C   0  0  0  0  0  0           0  0  0
    8.1167   -7.6375    0.0000 C   0  0  0  0  0  0           0  0  0
    6.8375   -8.2625    0.0000 C   0  0  0  0  0  0           0  0  0
    7.1917   -9.0042    0.0000 C   0  0  0  0  0  0           0  0  0
    8.4792   -8.3750    0.0000 C   0  0  0  0  0  0           0  0  0
    8.0250   -9.0625    0.0000 C   0  0  0  0  0  0           0  0  0
  2 11  1  0     0  0
  3  5  1  0     0  0
  4  3  1  0     0  0
  5  7  1  0     0  0
  6  1  1  0     0  0
  7 21  1  0     0  0
  8  2  1  0     0  0
  9  1  2  0     0  0
 10  1  2  0     0  0
 11 19  2  0     0  0
 12  1  1  0     0  0
 13  3  1  0     0  0
 14  2  2  0     0  0
 15  4  2  0     0  0
 16  7  2  0     0  0
 17  6  1  0     0  0
 18  6  2  0     0  0
 19 18  1  0     0  0
 20 17  2  0     0  0
 21  8  1  0     0  0
 22  4  1  0     0  0
 23 13  1  0     0  0
 24 23  2  0     0  0
 25 23  1  0     0  0
 26 25  2  0     0  0
 27 24  1  0     0  0
 28 26  1  0     0  0
 11 20  1  0     0  0
 28 27  2  0     0  0
M  END