
  SciTegic11201309402D

 92 97  0  0  1  0            999 V2000
   12.6000   -6.3792    0.0000 N   0  0
   13.3875   -5.0542    0.0000 C   0  0
    5.8625   -6.8792    0.0000 C   0  0
    4.3667   -6.8792    0.0000 N   0  0
    3.6167   -6.4542    0.0000 C   0  0
    1.3667   -6.8792    0.0000 C   0  0
   13.3292   -5.9167    0.0000 C   0  0  1  0  0  0
   12.0125   -3.2292    0.0000 C   0  0
    6.6125   -6.4542    0.0000 N   0  0
   -0.8958   -9.0750    0.0000 C   0  0
    2.1167   -6.4542    0.0000 N   0  0
    5.1167   -6.4542    0.0000 C   0  0  1  0  0  0
   12.6667   -4.5667    0.0000 N   0  0
   12.0667   -2.3625    0.0000 N   0  0
    7.3625   -6.8792    0.0000 C   0  0  1  0  0  0
   11.8542   -6.8250    0.0000 C   0  0
    7.3625   -7.7500    0.0000 C   0  0
    2.8667   -6.8792    0.0000 C   0  0  1  0  0  0
    0.6167   -6.4542    0.0000 C   0  0  2  0  0  0
    7.5875   -2.0542    0.0000 C   0  0
   15.1792   -0.8417    0.0000 C   0  0
   -0.1333   -7.7500    0.0000 C   0  0
    8.1125   -6.4542    0.0000 C   0  0
   -0.1333   -6.8792    0.0000 N   0  0
   11.4042   -1.0167    0.0000 C   0  0
    8.1125   -8.1792    0.0000 C   0  0
   12.7292   -3.7042    0.0000 C   0  0  1  0  0  0
   11.3500   -1.8792    0.0000 C   0  0  2  0  0  0
   15.2375    0.0208    0.0000 N   0  0
    6.8667   -1.5792    0.0000 N   0  0
   -1.6208  -10.1292    0.0000 C   0  0  2  0  0  0
   -1.4583  -10.5917    0.0000 C   0  0  2  0  0  0
   -0.1500  -10.2042    0.0000 C   0  0  1  0  0  0
   14.1667   -4.6750    0.0000 O   0  0
    5.8625   -7.7500    0.0000 O   0  0
   -0.8958   -8.1917    0.0000 C   0  0
    3.6167   -5.5875    0.0000 O   0  0
    1.3667   -7.7500    0.0000 O   0  0
   11.2375   -3.6042    0.0000 O   0  0
   -0.1458   -9.3792    0.0000 C   0  0
   -1.4583   -9.7375    0.0000 C   0  0
   -1.6208   -9.3292    0.0000 C   0  0
    0.6167   -5.5875    0.0000 C   0  0
    2.8667   -7.7500    0.0000 C   0  0
   11.8750   -7.6917    0.0000 O   0  0
    8.1125   -5.5875    0.0000 O   0  0
   12.1875   -0.6375    0.0000 O   0  0
    0.6167   -8.1792    0.0000 O   0  0
    8.1125   -9.0417    0.0000 O   0  0
   -0.6958  -10.8917    0.0000 C   0  0
   -2.2625  -10.8167    0.0000 C   0  0
   -0.9000  -10.3917    0.0000 C   0  0
    8.3625   -1.6792    0.0000 N   0  0
   14.4000   -1.2250    0.0000 N   0  0
    8.8625   -6.8792    0.0000 N   0  0
    7.5292   -2.9167    0.0000 N   0  0
   15.8917   -1.3250    0.0000 N   0  0
   10.6917   -0.5375    0.0000 N   0  0
    5.1167   -5.5875    0.0000 C   0  0
    8.8625   -7.7500    0.0000 N   0  0
    1.3667   -5.1542    0.0000 C   0  0
   12.8125   -7.2167    0.0000 C   0  0
    2.8667   -4.2917    0.0000 C   0  0
    3.6167   -8.1792    0.0000 C   0  0
    2.1167   -5.5875    0.0000 C   0  0
    1.3667   -4.2917    0.0000 C   0  0
    2.8667   -5.1542    0.0000 C   0  0
    2.1167   -3.8542    0.0000 C   0  0
   13.9917   -6.4750    0.0000 C   0  0
   11.1000   -6.4042    0.0000 C   0  0
    3.6167   -3.8542    0.0000 O   0  0
   13.6750   -7.2750    0.0000 C   0  0
   13.5042   -3.3292    0.0000 C   0  0
   10.5750   -2.2625    0.0000 C   0  0
    9.0792   -2.1625    0.0000 C   0  0
   14.3417   -2.0875    0.0000 C   0  0
    9.6000   -6.4375    0.0000 C   0  0
    5.8625   -5.1542    0.0000 C   0  0
    4.3667   -5.1542    0.0000 C   0  0
    3.6167   -2.9917    0.0000 C   0  0
    3.6167   -9.0417    0.0000 C   0  0
    4.3667   -7.7500    0.0000 C   0  0
   10.3542   -6.8542    0.0000 C   0  0
    9.8542   -1.7792    0.0000 C   0  0
   13.5667   -2.4667    0.0000 C   0  0
    4.3667   -2.5542    0.0000 C   0  0
    5.1167   -8.1792    0.0000 C   0  0
    4.3667   -9.4792    0.0000 C   0  0
    5.1167   -9.0417    0.0000 C   0  0
    0.6292  -10.4875    0.0000 H   0  0
   -1.4958  -11.4167    0.0000 H   0  0
   -2.3833   -9.8250    0.0000 H   0  0
  7  2  1  1
  3  9  1  0
 12  4  1  1
  5  4  1  0
  6 11  1  0
  7  1  1  0
  8 27  1  0
 15  9  1  6
 10 36  1  0
 18 11  1  6
 12  3  1  0
 13  2  1  0
 14  8  1  0
 15 23  1  0
 16  1  1  0
 15 17  1  0
 18  5  1  0
 19  6  1  0
 20 53  2  0
 21 54  2  0
 22 24  1  0
 23 55  1  0
 19 24  1  6
 25 28  1  0
 26 17  1  0
 27 13  1  6
 28 14  1  1
 29 21  1  0
 30 20  1  0
 31 42  1  0
 32 41  1  0
 33 40  1  0
 34  2  2  0
 35  3  2  0
 36 22  1  0
 37  5  2  0
 38  6  2  0
 39  8  2  0
 40 10  1  0
 41 10  1  0
 42 10  1  0
 19 43  1  0
 18 44  1  0
 45 16  2  0
 46 23  2  0
 47 25  2  0
 48 22  2  0
 49 26  2  0
 50 32  1  0
 51 31  1  0
 52 31  1  0
 53 75  1  0
 54 76  1  0
 55 77  1  0
 56 20  1  0
 57 21  1  0
 58 25  1  0
 12 59  1  0
 60 26  1  0
 61 43  1  0
 62  1  1  0
 63 68  1  0
 64 44  1  0
 65 61  2  0
 66 61  1  0
 67 65  1  0
 68 66  2  0
  7 69  1  0
 70 16  1  0
 71 63  1  0
 72 62  1  0
 27 73  1  0
 28 74  1  0
 75 84  1  0
 76 85  1  0
 77 83  1  0
 78 59  1  0
 79 59  1  0
 80 71  1  0
 81 64  2  0
 82 64  1  0
 83 70  1  0
 84 74  1  0
 85 73  1  0
 86 80  1  0
 87 82  2  0
 88 81  1  0
 89 87  1  0
 33 90  1  6
 32 91  1  1
 31 92  1  6
 72 69  1  0
 89 88  2  0
 63 67  2  0
 52 33  1  0
 51 32  1  0
 33 50  1  0
M  END