
          11280714522D 1   1.00000     0.00000     0

 31 32  0     0  0            999 V2000
    9.9917   -5.1875    0.0000 C   0  0  0  0  0  0           0  0  0
    1.5792   -3.3417    0.0000 N   0  0  3  0  0  0           0  0  0
    8.4625   -2.6375    0.0000 C   0  0  0  0  0  0           0  0  0
   10.5792   -5.7750    0.0000 O   0  0  0  0  0  0           0  0  0
   10.2042   -4.3917    0.0000 O   0  0  0  0  0  0           0  0  0
    9.2625   -2.4250    0.0000 O   0  0  0  0  0  0           0  0  0
    2.2292   -2.8375    0.0000 C   0  0  0  0  0  0           0  0  0
   11.3792   -5.5625    0.0000 C   0  0  3  0  0  0           0  0  0
    9.1917   -5.4000    0.0000 N   0  0  0  0  0  0           0  0  0
    2.9917   -3.1500    0.0000 C   0  0  0  0  0  0           0  0  0
    7.8792   -2.0542    0.0000 N   0  0  0  0  0  0           0  0  0
    3.6417   -2.6417    0.0000 C   0  0  0  0  0  0           0  0  0
    4.4042   -2.9542    0.0000 C   0  0  0  0  0  0           0  0  0
    6.4667   -2.2542    0.0000 C   0  0  0  0  0  0           0  0  0
    5.0542   -2.4500    0.0000 O   0  0  0  0  0  0           0  0  0
    0.8167   -3.0250    0.0000 C   0  0  0  0  0  0           0  0  0
    1.6917   -4.1542    0.0000 C   0  0  0  0  0  0           0  0  0
    3.8667   -4.2792    0.0000 C   0  0  0  0  0  0           0  0  0
    8.2500   -3.4292    0.0000 C   0  0  0  0  0  0           0  0  0
    7.2292   -2.5625    0.0000 C   0  0  0  0  0  0           0  0  0
    3.1042   -3.9667    0.0000 C   0  0  0  0  0  0           0  0  0
    5.8167   -2.7625    0.0000 C   0  0  0  0  0  0           0  0  0
   10.6625   -5.1500    0.0000 C   0  0  0  0  0  0           0  0  0
   11.3792   -6.3875    0.0000 C   0  0  0  0  0  0           0  0  0
   12.0917   -5.1500    0.0000 C   0  0  0  0  0  0           0  0  0
    8.6167   -4.8167    0.0000 C   0  0  0  0  0  0           0  0  0
    4.5167   -3.7750    0.0000 C   0  0  0  0  0  0           0  0  0
    8.8292   -4.0167    0.0000 C   0  0  0  0  0  0           0  0  0
    1.0417   -4.6625    0.0000 C   0  0  0  0  0  0           0  0  0
    0.1667   -3.5292    0.0000 C   0  0  0  0  0  0           0  0  0
    0.2792   -4.3542    0.0000 C   0  0  0  0  0  0           0  0  0
  2  7  1  0     0  0
  3 19  1  0     0  0
  4  1  1  0     0  0
  5  1  2  0     0  0
  6  3  2  0     0  0
  7 10  1  0     0  0
  8  4  1  0     0  0
  9  1  1  0     0  0
 10 12  2  0     0  0
 11  3  1  0     0  0
 12 13  1  0     0  0
 13 15  1  0     0  0
 14 20  1  0     0  0
 15 22  1  0     0  0
 16  2  1  0     0  0
 17  2  1  0     0  0
 18 27  1  0     0  0
 19 28  1  0     0  0
 20 11  1  0     0  0
 21 18  2  0     0  0
 22 14  1  0     0  0
 23  8  1  0     0  0
 24  8  1  0     0  0
 25  8  1  0     0  0
 26  9  1  0     0  0
 27 13  2  0     0  0
 28 26  1  0     0  0
 29 17  1  0     0  0
 30 16  1  0     0  0
 31 29  1  0     0  0
 21 10  1  0     0  0
 30 31  1  0     0  0
M  END