
  SciTegic08041117222D

 20 22  0  0  0  0            999 V2000
   21.6893  -10.5885    0.0000 N   0  0
   21.6882  -11.4157    0.0000 C   0  0
   22.4025  -11.8285    0.0000 N   0  0
   23.1184  -11.4148    0.0000 C   0  0
   23.1156  -10.5850    0.0000 C   0  0
   22.4008  -10.1757    0.0000 C   0  0
   22.3985   -9.3507    0.0000 N   0  0
   21.0238  -11.9041    0.0000 N   0  0
   23.8339  -11.8256    0.0000 N   0  0
   23.9259  -12.6418    0.0000 C   0  0
   24.7333  -12.8114    0.0000 C   0  0
   25.1441  -12.0959    0.0000 C   0  0  2  0  0  0
   24.5906  -11.4842    0.0000 C   0  0
   25.9644  -12.0077    0.0000 N   0  0
   26.2981  -11.2532    0.0000 C   0  0
   20.2682  -11.5728    0.0000 C   0  0
   20.0884  -10.7699    0.0000 C   0  0
   19.2674  -10.6884    0.0000 C   0  0
   18.9361  -11.4440    0.0000 C   0  0
   19.5524  -11.9924    0.0000 C   0  0
  4  5  1  0
  2  3  1  0
  5  6  2  0
  6  1  1  0
 10 11  1  0
 11 12  1  0
 12 13  1  0
 13  9  1  0
  1  2  2  0
 12 14  1  6
  6  7  1  0
 14 15  1  0
  3  4  2  0
  8 16  1  0
 16 17  1  0
  2  8  1  0
  4  9  1  0
  9 10  1  0
 17 18  1  0
 18 19  1  0
 19 20  1  0
 20 16  1  0
M  END