
  SciTegic09261414462D

 32 35  0  0  0  0            999 V2000
   16.7040  -14.2540    0.0000 C   0  0
   16.7164  -12.5957    0.0000 N   0  0
   17.4290  -13.8540    0.0000 C   0  0
   16.0040  -13.8332    0.0000 C   0  0
   17.4290  -13.0166    0.0000 C   0  0
   16.0040  -13.0082    0.0000 C   0  0
   16.7040  -15.0790    0.0000 N   0  0
   18.1373  -14.2665    0.0000 C   0  0
   15.2873  -14.2457    0.0000 C   0  0
   18.1498  -12.6165    0.0000 C   0  0
   15.2873  -12.5957    0.0000 C   0  0
   18.8539  -13.8540    0.0000 C   0  0
   14.5748  -13.8332    0.0000 C   0  0
   18.8665  -13.0290    0.0000 C   0  0
   14.5748  -13.0082    0.0000 C   0  0
   12.4276  -16.7372    0.0000 C   0  0
   12.4265  -17.5647    0.0000 C   0  0
   13.1412  -17.9775    0.0000 N   0  0
   13.8577  -17.5641    0.0000 C   0  0
   13.8548  -16.7336    0.0000 C   0  0
   13.1394  -16.3245    0.0000 C   0  0
   14.5677  -16.3185    0.0000 O   0  0
   14.5728  -17.9755    0.0000 C   0  0
   14.5741  -18.8005    0.0000 N   0  0
   15.2866  -17.5619    0.0000 N   0  0
   16.0017  -17.9733    0.0000 O   0  0
   13.1370  -15.4995    0.0000 C   0  0
   13.8502  -15.0849    0.0000 N   0  0
   14.5659  -15.4953    0.0000 C   0  0
   15.2791  -15.0807    0.0000 C   0  0
   15.9948  -15.4909    0.0000 C   0  0
   13.8477  -14.2599    0.0000 C   0  0
  2  6  1  0
  3  1  2  0
  4  1  1  0
  5  3  1  0
  6  4  1  0
  7  1  1  0
  8  3  1  0
  9  4  2  0
 10  5  1  0
 11  6  2  0
 12  8  1  0
 13  9  1  0
 14 12  1  0
 15 13  2  0
  2  5  2  0
 11 15  1  0
 10 14  1  0
 16 17  2  0
 17 18  1  0
 18 19  2  0
 19 20  1  0
 20 21  2  0
 21 16  1  0
 20 22  1  0
 19 23  1  0
 23 24  1  0
 23 25  2  0
 25 26  1  0
 21 27  1  0
 27 28  1  0
 28 29  1  0
 29 30  1  0
 30 31  1  0
 31  7  1  0
 28 32  1  0
M  END