
          11280715502D 1   1.00000     0.00000     0

 44 48  0     1  0            999 V2000
   15.8626  -20.6596    0.0000 N   0  0  3  0  0  0           0  0  0
   15.8693  -21.4820    0.0000 C   0  0  0  0  0  0           0  0  0
   16.5843  -21.8862    0.0000 C   0  0  0  0  0  0           0  0  0
   17.2965  -21.4691    0.0000 O   0  0  0  0  0  0           0  0  0
   17.2890  -20.6431    0.0000 C   0  0  0  0  0  0           0  0  0
   16.5694  -20.2344    0.0000 C   0  0  0  0  0  0           0  0  0
   13.7667  -17.7333    0.0000 C   0  0  0  0  0  0           0  0  0
   14.4768  -18.1532    0.0000 N   0  0  0  0  0  0           0  0  0
   14.4683  -18.9781    0.0000 O   0  0  0  0  0  0           0  0  0
   15.1785  -19.3980    0.0000 C   0  0  0  0  0  0           0  0  0
   15.1700  -20.2229    0.0000 C   0  0  0  0  0  0           0  0  0
    8.0569  -16.9250    0.0000 C   0  0  0  0  0  0           0  0  0
    8.0557  -17.7523    0.0000 C   0  0  0  0  0  0           0  0  0
    8.7706  -18.1652    0.0000 C   0  0  0  0  0  0           0  0  0
    9.4870  -17.7519    0.0000 C   0  0  0  0  0  0           0  0  0
    9.4841  -16.9213    0.0000 C   0  0  0  0  0  0           0  0  0
    8.7688  -16.5122    0.0000 C   0  0  0  0  0  0           0  0  0
   10.1971  -16.5061    0.0000 C   0  0  0  0  0  0           0  0  0
   10.9131  -16.9159    0.0000 N   0  0  3  0  0  0           0  0  0
   10.1939  -15.6811    0.0000 O   0  0  0  0  0  0           0  0  0
   10.9136  -17.7427    0.0000 C   0  0  1  0  0  0           0  0  0
   11.6255  -18.1524    0.0000 C   0  0  0  0  0  0           0  0  0
   12.3408  -17.7407    0.0000 N   0  0  3  0  0  0           0  0  0
   12.3397  -16.9148    0.0000 C   0  0  0  0  0  0           0  0  0
   11.6232  -16.5005    0.0000 C   0  0  0  0  0  0           0  0  0
   10.1995  -18.1559    0.0000 C   0  0  0  0  0  0           0  0  0
   10.1917  -18.9792    0.0000 C   0  0  0  0  0  0           0  0  0
    9.5237  -19.4604    0.0000 C   0  0  0  0  0  0           0  0  0
    9.7707  -20.2458    0.0000 N   0  0  0  0  0  0           0  0  0
   10.8557  -19.4731    0.0000 C   0  0  0  0  0  0           0  0  0
   10.5937  -20.2522    0.0000 C   0  0  0  0  0  0           0  0  0
   11.1369  -20.8665    0.0000 C   0  0  0  0  0  0           0  0  0
   11.9422  -20.7031    0.0000 C   0  0  0  0  0  0           0  0  0
   12.2014  -19.9198    0.0000 C   0  0  0  0  0  0           0  0  0
   11.6565  -19.3087    0.0000 C   0  0  0  0  0  0           0  0  0
    8.7625  -18.9875    0.0000 C   0  0  3  0  0  0           0  0  0
    9.5875  -18.9875    0.0000 F   0  0  0  0  0  0           0  0  0
    8.7583  -19.8125    0.0000 F   0  0  0  0  0  0           0  0  0
    7.9375  -18.9833    0.0000 F   0  0  0  0  0  0           0  0  0
    7.3423  -16.5126    0.0000 C   0  0  3  0  0  0           0  0  0
    6.9250  -17.2250    0.0000 F   0  0  0  0  0  0           0  0  0
    7.7500  -15.7958    0.0000 F   0  0  0  0  0  0           0  0  0
    6.6250  -16.1000    0.0000 F   0  0  0  0  0  0           0  0  0
   13.0553  -18.1533    0.0000 C   0  0  0  0  0  0           0  0  0
 11  1  1  0     0  0
  4  5  1  0     0  0
  5  6  1  0     0  0
 19 25  1  0     0  0
 21 22  1  0     0  0
 22 23  1  0     0  0
 23 24  1  0     0  0
 24 25  1  0     0  0
 12 13  2  0     0  0
 21 26  1  1     0  0
  1  2  1  0     0  0
 26 27  1  0     0  0
 27 28  2  0     0  0
 13 14  1  0     0  0
 28 29  1  0     0  0
 29 31  1  0     0  0
 30 27  1  0     0  0
 14 15  2  0     0  0
  7  8  2  0     0  0
 30 31  2  0     0  0
 15 16  1  0     0  0
 31 32  1  0     0  0
  1  6  1  0     0  0
 32 33  2  0     0  0
 16 17  2  0     0  0
 33 34  1  0     0  0
 17 12  1  0     0  0
 34 35  2  0     0  0
 35 30  1  0     0  0
  8  9  1  0     0  0
 14 36  1  0     0  0
 16 18  1  0     0  0
 36 37  1  0     0  0
  2  3  1  0     0  0
 36 38  1  0     0  0
 18 19  1  0     0  0
 36 39  1  0     0  0
  9 10  1  0     0  0
 12 40  1  0     0  0
 18 20  2  0     0  0
 40 41  1  0     0  0
 19 21  1  0     0  0
 40 42  1  0     0  0
  3  4  1  0     0  0
 40 43  1  0     0  0
 10 11  1  0     0  0
 23 44  1  0     0  0
 44  7  1  0     0  0
M  END