
  SciTegic12121611592D

 50 56  0  0  0  0            999 V2000
   -2.1400    0.5600    0.0000 C   0  0  1  0  0  0
   -2.1400   -0.9600    0.0000 C   0  0  1  0  0  0
   -0.7900   -1.7400    0.0000 C   0  0  2  0  0  0
    0.5400   -0.9600    0.0000 C   0  0
   -0.7900    1.3600    0.0000 C   0  0  1  0  0  0
    0.5400    0.5600    0.0000 C   0  0  1  0  0  0
    1.8900    1.3600    0.0000 C   0  0  1  0  0  0
    1.8900    2.9100    0.0000 C   0  0
   -0.7900    2.9100    0.0000 C   0  0
    0.5400    3.7000    0.0000 C   0  0
    0.5400    5.2600    0.0000 C   0  0
   -0.7900    6.0400    0.0000 C   0  0
   -2.1400    5.2600    0.0000 C   0  0
   -2.1400    3.7000    0.0000 C   0  0
   -3.1793    5.8598    0.0000 O   0  0
   -1.4104    0.3668    0.0000 O   0  0
   -2.0475    1.3837    0.0000 C   0  0
   -0.7837   -3.2402    0.0000 C   0  0
    0.2582   -3.8355    0.0000 O   0  0
   -2.0798   -3.9970    0.0000 N   0  0
   -0.8600   -0.7000    0.0000 C   0  0
   -0.8600    0.2700    0.0000 C   0  0
   -3.2900    2.1500    0.0000 O   0  0
   -3.0914    0.2520    0.0000 H   0  0
    0.5000    2.1200    0.0000 C   0  0
    2.6600    2.1000    0.0000 C   0  0
    3.2500    0.5600    0.0000 N   0  0
    4.0253   -0.3559    0.0000 C   0  0
   -2.0735   -5.4978    0.0000 C   0  0
   -3.3695   -6.2545    0.0000 C   0  0
   -3.3632   -7.7553    0.0000 C   0  0
   -4.6593   -8.5121    0.0000 C   0  0
    1.0260    1.8635    0.0000 H   0  0
   -4.6529  -10.0129    0.0000 C   0  0
   -5.9490  -10.7696    0.0000 C   0  0
   -5.9426  -12.2704    0.0000 N   0  0
   -7.2387  -13.0272    0.0000 C   0  0
   -7.2323  -14.5280    0.0000 C   0  0
   -8.2807  -12.4319    0.0000 O   0  0
   -8.5284  -15.2847    0.0000 C   0  0
   -8.5221  -16.7855    0.0000 C   0  0
   -9.8181  -17.5423    0.0000 O   0  0
   -9.8118  -19.0431    0.0000 C   0  0
  -11.1061  -19.8013    0.0000 N   0  0
  -11.0967  -21.3013    0.0000 N   0  0
   -9.7929  -22.0431    0.0000 C   0  0
   -8.4986  -21.2850    0.0000 N   0  0
   -8.5080  -19.7850    0.0000 N   0  0
   -9.7804  -23.5439    0.0000 O   0  0
   -8.7366  -24.1359    0.0000 C   0  0
  1  2  1  0
  1  5  1  0
  2  3  1  0
  3  4  1  0
  4  6  1  0
  5  6  1  0
  5  9  1  0
  6  7  1  0
  7  8  1  0
  8 10  1  0
  9 10  2  0
 10 11  1  0
 11 12  2  0
 12 13  1  0
 13 14  2  0
 14  9  1  0
 13 15  1  0
  2 16  1  6
 16 17  1  0
  3 18  1  6
 18 19  2  0
 18 20  1  0
  2 21  1  0
  6 22  1  6
 21 22  1  0
 14 23  1  0
 23  1  1  0
  1 24  1  1
  5 25  1  1
 25 26  1  0
 26 27  1  0
  7 27  1  0
 27 28  1  0
 20 29  1  0
 29 30  1  0
 30 31  1  0
 31 32  1  0
  7 33  1  6
 32 34  1  0
 34 35  1  0
 35 36  1  0
 36 37  1  0
 37 38  1  0
 37 39  2  0
 38 40  1  0
 40 41  1  0
 41 42  1  0
 42 43  1  0
 43 44  1  0
 44 45  2  0
 45 46  1  0
 46 47  2  0
 47 48  1  0
 48 43  2  0
 46 49  1  0
 49 50  1  0
M  END