
  SciTegic04191615122D

 24 24  0  0  0  0            999 V2000
    1.2990   -0.7500    0.0000 C   0  0
    1.2990    0.7500    0.0000 C   0  0
    0.0000    1.5000    0.0000 C   0  0
   -1.2990    0.7500    0.0000 N   0  3
   -1.2990   -0.7500    0.0000 C   0  0
    0.0000   -1.5000    0.0000 C   0  0
   -2.6003    1.4977    0.0000 C   0  0
   -3.8990    0.7455    0.0000 C   0  0
   -5.2003    1.4932    0.0000 N   0  0
   -3.8969   -0.4545    0.0000 O   0  0
   -6.4990    0.7409    0.0000 C   0  0
   -7.8525    1.3572    0.0000 N   0  0
   -8.8524    0.2390    0.0000 C   0  0
   -8.0978   -1.0574    0.0000 C   0  0
   -6.6317   -0.7404    0.0000 S   0  0
    2.5973   -1.5031    0.0000 C   0  0
    2.5951   -3.0039    0.0000 N   0  0
    3.6331   -3.6060    0.0000 O   0  0
    6.3933   -1.0009    0.0000 Cl  0  5
  -10.3432    0.3874    0.0000 C   0  0
  -10.8371    1.4810    0.0000 O   0  0
  -11.2194   -0.8312    0.0000 O   0  0
  -12.7129   -0.6826    0.0000 C   0  0
  -13.4134   -1.6569    0.0000 C   0  0
  1  2  1  0
  2  3  2  0
  3  4  1  0
  4  5  2  0
  5  6  1  0
  6  1  2  0
  4  7  1  0
  7  8  1  0
  8  9  1  0
  8 10  2  0
  9 11  1  0
 11 12  2  0
 12 13  1  0
 13 14  2  0
 14 15  1  0
 15 11  1  0
  1 16  1  0
 16 17  2  0
 17 18  1  0
 13 20  1  0
 20 21  2  0
 20 22  1  0
 22 23  1  0
 23 24  1  0
M  CHG  2   4   1  19  -1
M  END