
  SciTegic10041313192D

 21 23  0  0  0  0            999 V2000
   -0.5208   -1.2292    0.0000 C   0  0
   -2.1583   -1.2042    0.0000 C   0  0
    0.3042   -1.2125    0.0000 C   0  0
   -0.9333   -1.9167    0.0000 O   0  0
   -0.9250   -0.4917    0.0000 O   0  0
   -1.5750   -0.9625    0.0000 O   0  0
   -0.1458   -3.3292    0.0000 C   0  0
   -2.9833   -1.2000    0.0000 C   0  0
   -1.7500   -1.9167    0.0000 C   0  0
   -1.5750   -1.7875    0.0000 C   0  0
   -1.7500   -0.4917    0.0000 C   0  0
    0.3000   -2.6417    0.0000 N   0  0
    0.7125   -1.9292    0.0000 C   0  0
   -0.5951   -4.0221    0.0000 S   0  0
    0.7167   -0.5042    0.0000 C   0  0
   -3.3958   -1.9167    0.0000 C   0  0
   -2.7708   -0.4042    0.0000 C   0  0
   -3.3958   -0.4875    0.0000 C   0  0
    1.5375   -1.9292    0.0000 C   0  0
    1.5417   -0.5042    0.0000 C   0  0
    1.9542   -1.2167    0.0000 C   0  0
  2 10  1  0
  3  1  1  0
  4  1  1  0
  5  1  1  0
  6  1  1  0
  7 12  2  0
  8  2  1  0
  9  4  1  0
 10  6  1  0
 11  5  1  0
 12 13  1  0
 13  3  2  0
 14  7  2  0
 15  3  1  0
 16  8  1  0
 17  8  1  0
 18  8  1  0
 19 13  1  0
 20 15  2  0
 21 20  1  0
  2 11  1  0
  2  9  1  0
 19 21  2  0
M  END