
  SciTegic01161211252D

 57 61  0  0  0  0            999 V2000
   -0.4417   -2.7083    0.0000 N   0  0
   -0.5292   -3.9833    0.0000 C   0  0
   -0.0292   -1.4375    0.0000 C   0  0
    0.2208   -2.2208    0.0000 C   0  0
   -0.8583   -1.4375    0.0000 N   0  0
    6.8208   -1.2500    0.0000 N   0  0
    5.3958   -1.2500    0.0000 C   0  0
   -0.7833   -4.7708    0.0000 C   0  0  1  0  0  0
    6.1042   -1.6625    0.0000 C   0  0
   -1.1958   -3.5000    0.0000 O   0  0
   -1.1083   -2.2208    0.0000 C   0  0
    6.8208   -0.4250    0.0000 C   0  0
    6.1083   -0.0125    0.0000 N   0  0
    4.6833   -1.6583    0.0000 N   0  0
   -3.5167   -3.1500    0.0000 P   0  0
   -1.8667   -3.9833    0.0000 C   0  0  1  0  0  0
   -1.6083   -4.7708    0.0000 C   0  0  1  0  0  0
    5.3958   -0.4250    0.0000 C   0  0
    1.0083   -2.4708    0.0000 C   0  0
    3.2583   -2.4833    0.0000 N   0  0
    6.0958   -4.1333    0.0000 C   0  0
    0.4542   -0.7625    0.0000 C   0  0
    2.5333   -2.8875    0.0000 C   0  0
    6.8167   -3.7250    0.0000 N   0  0
    1.8333   -2.4750    0.0000 C   0  0
    3.9708   -1.2500    0.0000 C   0  0
    4.6833   -0.0083    0.0000 C   0  0
    7.5208   -4.9625    0.0000 C   0  0
    7.5292   -4.1375    0.0000 C   0  0  2  0  0  0
   -1.8667   -3.1583    0.0000 C   0  0
    3.9708   -0.4250    0.0000 C   0  0
    3.2583   -1.6583    0.0000 C   0  0
    3.9667   -2.8958    0.0000 C   0  0
   -2.6917   -3.1583    0.0000 O   0  0
    5.3833   -3.7208    0.0000 C   0  0
   -4.3417   -3.1500    0.0000 O   0  0
   -3.5208   -3.9750    0.0000 O   0  0
    9.6708   -3.7375    0.0000 C   0  0
    6.0958   -2.4875    0.0000 O   0  0
   -3.5208   -2.3250    0.0000 O   0  0
    6.0958   -4.9583    0.0000 O   0  0
    0.1208   -0.0125    0.0000 O   0  0
    2.5417   -3.7208    0.0000 O   0  0
    6.8083   -5.3750    0.0000 O   0  0
    7.5333   -0.0125    0.0000 N   0  0
    9.6792   -2.9125    0.0000 O   0  0
   -0.2958   -5.4375    0.0000 O   0  0
    4.6792   -2.4875    0.0000 C   0  0
    3.9583   -3.7125    0.0000 C   0  0
    4.6708   -4.1250    0.0000 C   0  0
    5.3833   -2.8958    0.0000 C   0  0
    8.2458   -3.7333    0.0000 C   0  0
    1.2708   -0.8500    0.0000 N   0  0
   -2.1042   -5.4375    0.0000 O   0  0
    8.9583   -4.1500    0.0000 C   0  0
    8.2333   -5.3833    0.0000 O   0  0
   10.3833   -4.1500    0.0000 O   0  0
  2  1  1  0
  3  4  2  0
  4  1  1  0
  5 11  2  0
  6  9  1  0
  7 14  1  0
  8  2  1  0
  9  7  1  0
 10  2  1  0
 11  1  1  0
 12 13  2  0
 13 18  1  0
 14 26  2  0
 15 34  1  0
 16 10  1  0
 17  8  1  0
 18 27  1  0
 19  4  1  0
 20 23  1  0
 21 35  1  0
 22  3  1  0
 23 25  1  0
 24 21  1  0
 25 19  2  0
 26 32  1  0
 27 31  2  0
 28 29  1  0
 29 24  1  0
 16 30  1  1
 31 26  1  0
 32 20  1  0
 33 20  1  0
 34 30  1  0
 35 50  1  0
 36 15  1  0
 37 15  1  0
 38 55  1  0
 39  9  2  0
 40 15  2  0
 41 21  2  0
 42 22  2  0
 43 23  2  0
 44 28  2  0
 45 12  1  0
 46 38  2  0
  8 47  1  6
 48 33  2  0
 49 33  1  0
 50 49  2  0
 51 48  1  0
 29 52  1  1
 53 22  1  0
 17 54  1  6
 55 52  1  0
 56 28  1  0
 57 38  1  0
  3  5  1  0
 16 17  1  0
 51 35  2  0
  7 18  1  0
  6 12  1  0
M  END