
  SciTegic12231509382D

 19 20  0  0  0  0            999 V2000
    6.3752  -18.8985    0.0000 C   0  0
    7.0910  -19.3037    0.0000 C   0  0  2  0  0  0
    7.0973  -20.1299    0.0000 C   0  0
    6.3821  -20.5494    0.0000 C   0  0
    5.6641  -20.1405    0.0000 C   0  0
    4.9525  -20.5579    0.0000 C   0  0
    4.2366  -20.1526    0.0000 C   0  0
    4.2303  -19.3264    0.0000 C   0  0
    4.9420  -18.9091    0.0000 C   0  0
    5.6599  -19.3179    0.0000 C   0  0
    7.8027  -18.8864    0.0000 N   0  0
    7.7985  -18.0638    0.0000 C   0  0
    8.5101  -17.6464    0.0000 C   0  0
    8.5038  -16.8203    0.0000 C   0  0
    8.5206  -19.2952    0.0000 C   0  0
    9.2323  -18.8779    0.0000 C   0  0
    4.9378  -18.0865    0.0000 O   0  0
    4.9588  -21.3840    0.0000 F   0  0
    9.9496  -19.2855    0.0000 C   0  0
  1  2  1  0
  2  3  1  0
  3  4  1  0
  4  5  1  0
  5  6  1  0
  6  7  2  0
  7  8  1  0
  8  9  2  0
  9 10  1  0
  1 10  1  0
  5 10  2  0
 12 13  1  0
 13 14  1  0
 11 12  1  0
 15 16  1  0
 11 15  1  0
  2 11  1  1
  9 17  1  0
  6 18  1  0
 16 19  1  0
M  END