
  SciTegic05071317012D

 24 25  0  0  0  0            999 V2000
    4.1865  -20.9878    0.0000 C   0  0  2  0  0  0
    4.8429  -21.4874    0.0000 O   0  0
    5.5211  -21.0176    0.0000 C   0  0  1  0  0  0
    5.2837  -20.2274    0.0000 C   0  0
    4.4590  -20.2091    0.0000 O   0  0
    6.2998  -21.2901    0.0000 C   0  0
    6.4532  -22.1007    0.0000 N   0  3
    7.2319  -22.3732    0.0000 C   0  0
    5.8279  -22.6389    0.0000 C   0  0
    6.4461  -22.9217    0.0000 C   0  0
    3.4720  -21.3982    0.0000 C   0  0
    2.7582  -20.9844    0.0000 C   0  0
    2.7623  -20.1585    0.0000 C   0  0
    2.0494  -19.7448    0.0000 C   0  0
    1.3332  -20.1562    0.0000 C   0  0
    1.3343  -20.9854    0.0000 C   0  0
    2.0479  -21.3954    0.0000 C   0  0
    3.4713  -22.2217    0.0000 C   0  0
    2.7544  -22.6322    0.0000 C   0  0
    2.7524  -23.4564    0.0000 C   0  0
    3.4666  -23.8713    0.0000 C   0  0
    4.1844  -23.4557    0.0000 C   0  0
    4.1828  -22.6328    0.0000 C   0  0
    7.6836  -20.7966    0.0000 I   0  5
  1  2  1  0
  2  3  1  0
  3  4  1  0
  4  5  1  0
  5  1  1  0
  3  6  1  1
  6  7  1  0
  7  8  1  0
  7  9  1  0
  7 10  1  0
  1 11  1  1
 11 12  1  0
 12 13  2  0
 13 14  1  0
 14 15  2  0
 15 16  1  0
 16 17  2  0
 17 12  1  0
 18 19  2  0
 19 20  1  0
 20 21  2  0
 21 22  1  0
 22 23  2  0
 23 18  1  0
 11 18  1  0
M  CHG  2   7   1  24  -1
M  END