
  SciTegic12231509382D

 40 44  0  0  0  0            999 V2000
   10.2082  -18.5868    0.0000 C   0  0
   10.8166  -19.1484    0.0000 C   0  0
   11.0855  -18.3655    0.0000 C   0  0
   10.5732  -19.9343    0.0000 N   0  0
   11.2436  -20.4098    0.0000 C   0  0
   11.9041  -19.9181    0.0000 N   0  0
   11.6392  -19.1394    0.0000 C   0  0
   11.2537  -21.2338    0.0000 O   0  0
   12.1153  -18.4667    0.0000 O   0  0
   11.9008  -18.2095    0.0000 C   0  0
   12.1672  -17.4311    0.0000 C   0  0
   11.6227  -16.8069    0.0000 C   0  0
   10.8099  -16.9640    0.0000 C   0  0
   10.5446  -17.7459    0.0000 C   0  0
   10.3934  -17.7789    0.0000 C   0  0
    9.7860  -17.2175    0.0000 C   0  0
    8.9944  -17.4634    0.0000 C   0  0
    8.8140  -18.2757    0.0000 C   0  0
    9.4228  -18.8335    0.0000 C   0  0
    9.8618  -20.3502    0.0000 C   0  0
    9.1459  -19.9421    0.0000 C   0  0
    8.4345  -20.3579    0.0000 C   0  0
    9.1414  -19.1181    0.0000 O   0  0
    7.7187  -19.9499    0.0000 N   0  0
    7.7146  -19.1230    0.0000 C   0  0
    7.0028  -18.7149    0.0000 C   0  0
    6.2889  -19.1273    0.0000 N   0  0
    6.2914  -19.9523    0.0000 C   0  0
    7.0078  -20.3648    0.0000 C   0  0
    5.5780  -18.7173    0.0000 C   0  0
    5.5780  -17.8922    0.0000 C   0  0
    4.8645  -17.4814    0.0000 C   0  0
    4.1505  -17.8947    0.0000 C   0  0
    4.1546  -18.7230    0.0000 C   0  0
    4.8687  -19.1301    0.0000 C   0  0
   12.7280  -19.9301    0.0000 C   0  0
   13.1296  -20.6496    0.0000 C   0  0
   13.9536  -20.6616    0.0000 O   0  0
   12.7073  -21.3572    0.0000 O   0  0
   13.1087  -22.0768    0.0000 C   0  0
 19  1  1  0
  3  2  1  0
  4 20  1  0
  3 10  2  0
 20 21  1  0
  4  5  1  0
 21 22  1  0
 10 11  1  0
 21 23  1  0
  5  6  1  0
 22 24  1  0
 24 25  1  0
 11 12  2  0
  6  7  1  0
 12 13  1  0
  7  2  1  0
 13 14  2  0
 24 29  1  0
 25 26  1  0
 26 27  1  0
 27 28  1  0
 28 29  1  0
 14  3  1  0
  2  4  1  0
 30 31  2  0
  1 15  2  0
 31 32  1  0
 32 33  2  0
 15 16  1  0
 33 34  1  0
  5  8  2  0
 34 35  2  0
 35 30  1  0
 27 30  1  0
 16 17  2  0
  6 36  1  0
  2  1  1  0
 36 37  1  0
 17 18  1  0
 37 38  2  0
  7  9  2  0
 37 39  1  0
 18 19  2  0
 39 40  1  0
M  END