
          11280715122D 1   1.00000     0.00000     0

 28 31  0     0  0            999 V2000
    7.3542   -8.2667    0.0000 C   0  0  0  0  0  0           0  0  0
    6.8250   -9.4917    0.0000 N   0  0  0  0  0  0           0  0  0
    7.5292   -9.0750    0.0000 N   0  0  0  0  0  0           0  0  0
    6.2042   -8.9625    0.0000 N   0  0  0  0  0  0           0  0  0
    6.5375   -8.1917    0.0000 N   0  0  0  0  0  0           0  0  0
    4.3417   -3.9375    0.0000 C   0  0  0  0  0  0           0  0  0
    7.9042   -7.6500    0.0000 C   0  0  0  0  0  0           0  0  0
    7.9042   -6.8250    0.0000 C   0  0  0  0  0  0           0  0  0
    5.0542   -4.3500    0.0000 N   0  0  3  0  0  0           0  0  0
    3.6292   -4.3500    0.0000 N   0  0  0  0  0  0           0  0  0
    4.3417   -3.1042    0.0000 N   0  0  0  0  0  0           0  0  0
    7.1917   -6.4125    0.0000 C   0  0  0  0  0  0           0  0  0
    5.0542   -5.1750    0.0000 C   0  0  0  0  0  0           0  0  0
    7.1917   -5.5792    0.0000 C   0  0  0  0  0  0           0  0  0
    6.4792   -6.8250    0.0000 C   0  0  0  0  0  0           0  0  0
    5.7667   -5.5875    0.0000 C   0  0  0  0  0  0           0  0  0
    6.4792   -5.1750    0.0000 C   0  0  0  0  0  0           0  0  0
    5.7667   -6.4125    0.0000 C   0  0  0  0  0  0           0  0  0
    2.9167   -3.1125    0.0000 C   0  0  0  0  0  0           0  0  0
    8.6167   -8.0625    0.0000 C   0  0  0  0  0  0           0  0  0
    8.6167   -6.4125    0.0000 C   0  0  0  0  0  0           0  0  0
    3.6292   -2.6917    0.0000 C   0  0  0  0  0  0           0  0  0
    2.9167   -3.9375    0.0000 C   0  0  0  0  0  0           0  0  0
    5.7667   -3.9375    0.0000 C   0  0  0  0  0  0           0  0  0
    6.4750   -4.3500    0.0000 C   0  0  0  0  0  0           0  0  0
    9.3292   -6.8167    0.0000 C   0  0  0  0  0  0           0  0  0
    9.3292   -7.6500    0.0000 C   0  0  0  0  0  0           0  0  0
    7.1792   -3.9417    0.0000 C   0  0  0  0  0  0           0  0  0
  2  3  2  0     0  0
  3  1  1  0     0  0
  4  5  1  0     0  0
  5  1  2  0     0  0
  6  9  1  0     0  0
  7  1  1  0     0  0
  8  7  2  0     0  0
  9 13  1  0     0  0
 10  6  2  0     0  0
 11  6  1  0     0  0
 12  8  1  0     0  0
 13 16  1  0     0  0
 14 12  2  0     0  0
 15 12  1  0     0  0
 16 18  1  0     0  0
 17 14  1  0     0  0
 18 15  2  0     0  0
 19 22  1  0     0  0
 20  7  1  0     0  0
 21  8  1  0     0  0
 22 11  2  0     0  0
 23 10  1  0     0  0
 24  9  1  0     0  0
 25 24  1  0     0  0
 26 27  1  0     0  0
 27 20  2  0     0  0
 28 25  1  0     0  0
  2  4  1  0     0  0
 21 26  2  0     0  0
 16 17  2  0     0  0
 23 19  2  0     0  0
M  END