
          11280715142D 1   1.00000     0.00000     0

 23 24  0     0  0            999 V2000
   -0.2208    0.3708    0.0000 C   0  0  0  0  0  0           0  0  0
   -1.6500    0.3583    0.0000 C   0  0  0  0  0  0           0  0  0
   -0.9375    0.7750    0.0000 C   0  0  0  0  0  0           0  0  0
   -3.0833    0.3583    0.0000 C   0  0  0  0  0  0           0  0  0
   -2.3708    0.7708    0.0000 C   0  0  0  0  0  0           0  0  0
    0.4917    0.7833    0.0000 C   0  0  0  0  0  0           0  0  0
    4.7792   -0.8500    0.0000 C   0  0  0  0  0  0           0  0  0
   -3.0833   -0.4667    0.0000 C   0  0  0  0  0  0           0  0  0
   -1.6500   -0.4667    0.0000 C   0  0  0  0  0  0           0  0  0
    5.4917   -0.4292    0.0000 O   0  0  0  0  0  0           0  0  0
   -0.9458    1.6000    0.0000 O   0  0  0  0  0  0           0  0  0
   -2.3708   -0.8792    0.0000 C   0  0  0  0  0  0           0  0  0
    1.2042    0.3708    0.0000 C   0  0  0  0  0  0           0  0  0
    3.3542   -0.8542    0.0000 O   0  0  0  0  0  0           0  0  0
    4.0667   -0.4417    0.0000 C   0  0  0  0  0  0           0  0  0
   -3.7958    0.7708    0.0000 Cl  0  0  0  0  0  0           0  0  0
    2.6375   -0.4417    0.0000 C   0  0  0  0  0  0           0  0  0
   -3.7958   -0.8792    0.0000 Cl  0  0  0  0  0  0           0  0  0
    4.7792   -1.6750    0.0000 O   0  0  0  0  0  0           0  0  0
    1.2042   -0.4542    0.0000 C   0  0  0  0  0  0           0  0  0
    1.9125    0.7875    0.0000 C   0  0  0  0  0  0           0  0  0
    2.6292    0.3833    0.0000 C   0  0  0  0  0  0           0  0  0
    1.9167   -0.8625    0.0000 C   0  0  0  0  0  0           0  0  0
  2  3  1  0     0  0
  3  1  1  0     0  0
  4  5  1  0     0  0
  5  2  2  0     0  0
  6  1  2  0     0  0
  7 15  1  0     0  0
  8 12  1  0     0  0
  9  2  1  0     0  0
 10  7  2  0     0  0
 11  3  2  0     0  0
 12  9  2  0     0  0
 13  6  1  0     0  0
 14 17  1  0     0  0
 15 14  1  0     0  0
 16  4  1  0     0  0
 17 22  1  0     0  0
 18  8  1  0     0  0
 19  7  1  0     0  0
 20 13  2  0     0  0
 21 13  1  0     0  0
 22 21  2  0     0  0
 23 20  1  0     0  0
 17 23  2  0     0  0
  8  4  2  0     0  0
M  END