
  SciTegic03291108572D

 26 29  0  0  0  0            999 V2000
   -1.0483   -2.2298    0.0000 O   0  0
   -1.7628   -0.9923    0.0000 N   0  0
   -1.0483    0.2452    0.0000 N   0  0
   -3.9062    2.7202    0.0000 N   0  0
   -0.3338   -0.9923    0.0000 C   0  0
   -1.0483   -1.4048    0.0000 C   0  0
   -1.7628   -0.1673    0.0000 C   0  0
   -0.3338   -0.1673    0.0000 C   0  0
   -2.4773   -1.4048    0.0000 C   0  0
    0.3806   -1.4048    0.0000 C   0  0
    0.3806    0.2452    0.0000 C   0  0
   -2.4773    0.2452    0.0000 C   0  0
   -2.4773   -2.2298    0.0000 C   0  0
    1.0951   -0.9923    0.0000 C   0  0
    1.0951   -0.1673    0.0000 C   0  0
   -2.4773    1.0702    0.0000 C   0  0
   -3.1917    1.4827    0.0000 C   0  0
   -1.7628   -2.6423    0.0000 C   0  0
   -3.1917   -2.6423    0.0000 C   0  0
   -1.7628   -3.4673    0.0000 C   0  0
   -3.1917   -3.4673    0.0000 C   0  0
   -3.1917    2.3077    0.0000 C   0  0
   -3.9062    1.0702    0.0000 C   0  0
   -2.4773   -3.8798    0.0000 C   0  0
   -4.6207    1.4827    0.0000 C   0  0
   -4.6207    2.3077    0.0000 C   0  0
  1  6  2  0
  2  6  1  0
  2  7  1  0
  2  9  1  0
  3  7  2  0
  3  8  1  0
  4 22  2  0
  4 26  1  0
  5  6  1  0
  5  8  1  0
  5 10  2  0
  7 12  1  0
  8 11  2  0
  9 13  1  0
 10 14  1  0
 11 15  1  0
 12 16  2  0
 13 18  2  0
 13 19  1  0
 14 15  2  0
 16 17  1  0
 17 22  1  0
 17 23  2  0
 18 20  1  0
 19 21  2  0
 20 24  2  0
 21 24  1  0
 23 25  1  0
 25 26  2  0
M  END