
          02060813482D 1   1.00000     0.00000     0

 25 27  0     0  0            999 V2000
   -3.5845  -12.1323    0.0000 C   0  0  0  0  0  0           0  0  0
   -3.5856  -12.9596    0.0000 C   0  0  0  0  0  0           0  0  0
   -2.8709  -13.3724    0.0000 C   0  0  0  0  0  0           0  0  0
   -2.1545  -12.9591    0.0000 C   0  0  0  0  0  0           0  0  0
   -2.1573  -12.1287    0.0000 C   0  0  0  0  0  0           0  0  0
   -2.8727  -11.7195    0.0000 C   0  0  0  0  0  0           0  0  0
   -1.4445  -11.7135    0.0000 O   0  0  0  0  0  0           0  0  0
   -1.4394  -13.3705    0.0000 C   0  0  0  0  0  0           0  0  0
   -1.4430  -14.1957    0.0000 C   0  0  0  0  0  0           0  0  0
   -0.7288  -14.6070    0.0000 C   0  0  0  0  0  0           0  0  0
   -0.0141  -14.1933    0.0000 C   0  0  0  0  0  0           0  0  0
   -0.0180  -13.3642    0.0000 C   0  0  0  0  0  0           0  0  0
   -0.7328  -12.9566    0.0000 N   0  0  0  0  0  0           0  0  0
    0.6942  -12.9480    0.0000 O   0  0  0  0  0  0           0  0  0
    0.7015  -14.6038    0.0000 C   0  0  0  0  0  0           0  0  0
    1.4124  -15.0155    0.0000 N   0  0  0  0  0  0           0  0  0
   -0.7279  -15.4319    0.0000 C   0  0  0  0  0  0           0  0  0
   -1.4413  -15.8403    0.0000 C   0  0  0  0  0  0           0  0  0
   -1.4408  -16.6644    0.0000 C   0  0  0  0  0  0           0  0  0
   -0.7253  -17.0770    0.0000 C   0  0  0  0  0  0           0  0  0
   -0.0090  -16.6592    0.0000 C   0  0  0  0  0  0           0  0  0
   -0.0131  -15.8365    0.0000 C   0  0  0  0  0  0           0  0  0
   -4.3003  -13.3715    0.0000 Br  0  0  0  0  0  0           0  0  0
    0.6985  -15.4191    0.0000 C   0  0  0  0  0  0           0  0  0
   -0.7233  -17.9019    0.0000 C   0  0  0  0  0  0           0  0  0
  6  1  1  0     0  0
 12 13  1  0     0  0
 13  8  1  0     0  0
  1  2  2  0     0  0
 12 14  2  0     0  0
  5  7  1  0     0  0
 11 15  1  0     0  0
  3  4  2  0     0  0
 15 16  3  0     0  0
  4  8  1  0     0  0
 10 17  1  0     0  0
 17 18  2  0     0  0
  8  9  2  0     0  0
 18 19  1  0     0  0
  4  5  1  0     0  0
 19 20  2  0     0  0
  9 10  1  0     0  0
 20 21  1  0     0  0
  2  3  1  0     0  0
 21 22  2  0     0  0
 22 17  1  0     0  0
 10 11  2  0     0  0
  2 23  1  0     0  0
  5  6  2  0     0  0
 22 24  1  0     0  0
 11 12  1  0     0  0
 20 25  1  0     0  0
M  END