
  SciTegic12151613592D

 22 24  0  0  0  0            999 V2000
   -3.7006    0.8244    0.0000 N   0  0
   -3.7006   -0.6045    0.0000 C   0  0
   -2.4915   -1.3190    0.0000 C   0  0
   -2.4915    1.5389    0.0000 C   0  0
   -1.2274    0.8244    0.0000 C   0  0
   -1.2274   -0.6045    0.0000 C   0  0
    0.0000   -1.3190    0.0000 N   0  0
    1.2274    0.8244    0.0000 C   0  0
    1.2274   -0.6045    0.0000 C   0  0
    2.4732   -1.3190    0.0000 C   0  0
    3.7372   -0.6045    0.0000 C   0  0
    3.7372    0.8244    0.0000 C   0  0
    2.4732    1.5389    0.0000 C   0  0
   -2.5030    2.7388    0.0000 O   0  0
    0.0031   -2.8205    0.0000 C   0  0
    1.3039   -3.5691    0.0000 C   0  0
    1.3070   -5.0699    0.0000 C   0  0
    2.6078   -5.8185    0.0000 C   0  0
    2.6109   -7.3193    0.0000 N   0  0
    3.9117   -8.0679    0.0000 C   0  0
    4.9499   -7.4661    0.0000 C   0  0
    3.9142   -9.2679    0.0000 O   0  0
  1  2  1  0
  1  4  1  0
  2  3  1  0
  3  6  1  0
  5  4  1  0
  5  6  2  0
  6  7  1  0
  7  9  1  0
  8  5  1  0
  8  9  2  0
  9 10  1  0
 10 11  2  0
 11 12  1  0
 12 13  2  0
 13  8  1  0
  4 14  2  0
  7 15  1  0
 15 16  1  0
 16 17  1  0
 17 18  1  0
 18 19  1  0
 19 20  1  0
 20 21  1  0
 20 22  2  0
M  END