
          11280715332D 1   1.00000     0.00000     0

 44 45  0     1  0            999 V2000
    2.1167   -3.8792    0.0000 C   0  0  1  0  0  0           0  0  0
    4.2625   -3.4667    0.0000 C   0  0  1  0  0  0           0  0  0
    1.4042   -3.4667    0.0000 C   0  0  0  0  0  0           0  0  0
    4.9750   -3.8792    0.0000 C   0  0  0  0  0  0           0  0  0
    2.8292   -3.4667    0.0000 C   0  0  1  0  0  0           0  0  0
    3.5417   -3.8792    0.0000 C   0  0  1  0  0  0           0  0  0
    0.6917   -3.8792    0.0000 N   0  0  0  0  0  0           0  0  0
    5.6917   -3.4667    0.0000 N   0  0  0  0  0  0           0  0  0
   -0.0250   -3.4667    0.0000 C   0  0  3  0  0  0           0  0  0
    6.4042   -3.8792    0.0000 C   0  0  3  0  0  0           0  0  0
    2.1167   -4.7042    0.0000 O   0  0  0  0  0  0           0  0  0
    4.2625   -2.6417    0.0000 O   0  0  0  0  0  0           0  0  0
   -0.0250   -2.6417    0.0000 C   0  0  0  0  0  0           0  0  0
    6.4042   -4.7042    0.0000 C   0  0  0  0  0  0           0  0  0
    1.4042   -2.6417    0.0000 O   0  0  0  0  0  0           0  0  0
    4.9750   -4.7042    0.0000 O   0  0  0  0  0  0           0  0  0
    0.6917   -2.2292    0.0000 O   0  0  0  0  0  0           0  0  0
    5.6917   -5.1167    0.0000 O   0  0  0  0  0  0           0  0  0
    2.8292   -2.6417    0.0000 O   0  0  0  0  0  0           0  0  0
    3.5417   -4.7042    0.0000 O   0  0  0  0  0  0           0  0  0
    1.4042   -5.1250    0.0000 C   0  0  0  0  0  0           0  0  0
    5.0417   -2.2125    0.0000 C   0  0  0  0  0  0           0  0  0
   -0.7375   -3.8792    0.0000 C   0  0  3  0  0  0           0  0  0
    7.1167   -3.4667    0.0000 C   0  0  3  0  0  0           0  0  0
    7.1167   -5.1167    0.0000 O   0  0  0  0  0  0           0  0  0
   -0.7375   -2.2292    0.0000 O   0  0  0  0  0  0           0  0  0
    5.0167   -1.3875    0.0000 C   0  0  0  0  0  0           0  0  0
    1.4042   -5.9500    0.0000 C   0  0  0  0  0  0           0  0  0
   -0.7375   -4.7042    0.0000 C   0  0  0  0  0  0           0  0  0
    7.8292   -3.8792    0.0000 C   0  0  0  0  0  0           0  0  0
    7.1167   -2.6417    0.0000 C   0  0  0  0  0  0           0  0  0
   -1.4583   -3.4667    0.0000 C   0  0  0  0  0  0           0  0  0
   -0.7375   -1.4042    0.0000 C   0  0  0  0  0  0           0  0  0
    7.1167   -5.9417    0.0000 C   0  0  0  0  0  0           0  0  0
    5.7167   -0.9417    0.0000 C   0  0  0  0  0  0           0  0  0
    0.6875   -6.3625    0.0000 C   0  0  0  0  0  0           0  0  0
    2.1167   -6.3542    0.0000 C   0  0  0  0  0  0           0  0  0
    4.2792   -0.9917    0.0000 C   0  0  0  0  0  0           0  0  0
    0.6875   -7.1875    0.0000 C   0  0  0  0  0  0           0  0  0
    2.1167   -7.1792    0.0000 C   0  0  0  0  0  0           0  0  0
    5.6875   -0.1167    0.0000 C   0  0  0  0  0  0           0  0  0
    4.2542   -0.1667    0.0000 C   0  0  0  0  0  0           0  0  0
    1.4042   -7.6000    0.0000 C   0  0  0  0  0  0           0  0  0
    4.9542    0.2625    0.0000 C   0  0  0  0  0  0           0  0  0
  2  6  1  0     0  0
  3  1  1  0     0  0
  4  2  1  0     0  0
  5  1  1  0     0  0
  6  5  1  0     0  0
  7  3  1  0     0  0
  8  4  1  0     0  0
  9  7  1  0     0  0
 10  8  1  0     0  0
  1 11  1  1     0  0
  2 12  1  1     0  0
 13  9  1  0     0  0
 14 10  1  0     0  0
 15  3  2  0     0  0
 16  4  2  0     0  0
 17 13  2  0     0  0
 18 14  2  0     0  0
  5 19  1  6     0  0
  6 20  1  6     0  0
 21 11  1  0     0  0
 22 12  1  0     0  0
 23  9  1  0     0  0
 24 10  1  0     0  0
 25 14  1  0     0  0
 26 13  1  0     0  0
 27 22  1  0     0  0
 28 21  1  0     0  0
 29 23  1  0     0  0
 30 24  1  0     0  0
 31 24  1  0     0  0
 32 23  1  0     0  0
 33 26  1  0     0  0
 34 25  1  0     0  0
 35 27  2  0     0  0
 36 28  2  0     0  0
 37 28  1  0     0  0
 38 27  1  0     0  0
 39 36  1  0     0  0
 40 37  2  0     0  0
 41 35  1  0     0  0
 42 38  2  0     0  0
 43 40  1  0     0  0
 44 42  1  0     0  0
 43 39  2  0     0  0
 41 44  2  0     0  0
M  END