
          11280715542D 1   1.00000     0.00000     0

 28 29  0     1  0            999 V2000
    0.9962   -0.2965    0.0000 C   0  0  0  0  0  0           0  0  0
    0.9951   -1.1236    0.0000 C   0  0  0  0  0  0           0  0  0
    1.7095   -1.5365    0.0000 C   0  0  0  0  0  0           0  0  0
    1.7078    0.1163    0.0000 C   0  0  0  0  0  0           0  0  0
    2.4226   -0.2930    0.0000 C   0  0  0  0  0  0           0  0  0
    2.4211   -1.1211    0.0000 C   0  0  0  0  0  0           0  0  0
    3.1337   -1.5340    0.0000 C   0  0  1  0  0  0           0  0  0
    3.8521   -1.1235    0.0000 N   0  3  3  0  0  0           0  0  0
    3.8535   -0.2954    0.0000 C   0  0  0  0  0  0           0  0  0
    3.1364    0.1221    0.0000 C   0  0  0  0  0  0           0  0  0
    0.2817    0.1158    0.0000 O   0  0  0  0  0  0           0  0  0
    0.2814    0.9408    0.0000 C   0  0  0  0  0  0           0  0  0
    0.2803   -1.5355    0.0000 O   0  0  0  0  0  0           0  0  0
    0.2796   -2.3605    0.0000 C   0  0  0  0  0  0           0  0  0
    3.1313   -2.3591    0.0000 C   0  0  0  0  0  0           0  0  0
    3.8444   -2.7736    0.0000 C   0  0  0  0  0  0           0  0  0
    3.8367   -3.5973    0.0000 C   0  0  0  0  0  0           0  0  0
    4.5491   -4.0119    0.0000 C   0  0  0  0  0  0           0  0  0
    5.2657   -3.6015    0.0000 C   0  0  0  0  0  0           0  0  0
    5.2656   -2.7722    0.0000 C   0  0  0  0  0  0           0  0  0
    4.5527   -2.3615    0.0000 C   0  0  0  0  0  0           0  0  0
    5.9799   -2.3594    0.0000 O   0  0  0  0  0  0           0  0  0
    5.9796   -4.0152    0.0000 O   0  0  0  0  0  0           0  0  0
    5.9782   -4.8402    0.0000 C   0  0  0  0  0  0           0  0  0
    5.9795   -1.5344    0.0000 C   0  0  0  0  0  0           0  0  0
    3.8458   -1.9458    0.0000 C   0  0  0  0  0  0           0  0  0
    4.5698   -0.7219    0.0000 C   0  0  0  0  0  0           0  0  0
    6.1708    0.4083    0.0000 I   0  5  0  0  0  0           0  0  0
 11 12  1  0     0  0
  3  6  2  0     0  0
  2 13  1  0     0  0
  1  2  2  0     0  0
 13 14  1  0     0  0
  5  4  2  0     0  0
  7 15  1  1     0  0
  4  1  1  0     0  0
 15 16  1  0     0  0
  5 10  1  0     0  0
 16 17  2  0     0  0
  6  7  1  0     0  0
 17 18  1  0     0  0
  7  8  1  0     0  0
 18 19  2  0     0  0
  8  9  1  0     0  0
 19 20  1  0     0  0
  9 10  1  0     0  0
 20 21  2  0     0  0
 21 16  1  0     0  0
  5  6  1  0     0  0
 20 22  1  0     0  0
 19 23  1  0     0  0
 23 24  1  0     0  0
  1 11  1  0     0  0
 22 25  1  0     0  0
  8 26  1  0     0  0
  8 27  1  0     0  0
  2  3  1  0     0  0
M  CHG  2   8   1  28  -1
M  END