
  SciTegic10041313212D

 66 66  0  0  1  0            999 V2000
    5.4113   -9.1765    0.0000 N   0  0
    6.1272  -10.4158    0.0000 C   0  0
    6.1261   -9.5884    0.0000 C   0  0
    6.8409   -9.1755    0.0000 C   0  0
    7.5573   -9.5889    0.0000 C   0  0
    7.5545  -10.4194    0.0000 C   0  0
    6.8391  -10.8285    0.0000 C   0  0
   -3.1500   -8.3042    0.0000 C   0  0  2  0  0  0
   -3.1500   -9.1292    0.0000 C   0  0  2  0  0  0
   -2.4380   -9.5375    0.0000 C   0  0  1  0  0  0
   -1.7260   -9.1292    0.0000 C   0  0  2  0  0  0
   -1.7260   -8.3042    0.0000 C   0  0  2  0  0  0
   -2.4380   -7.8875    0.0000 O   0  0
   -1.0103   -7.8938    0.0000 O   0  0
   -0.2970   -8.3084    0.0000 C   0  0  1  0  0  0
   -0.3047   -9.1343    0.0000 C   0  0  1  0  0  0
    0.4045   -9.5487    0.0000 C   0  0  2  0  0  0
    1.1226   -9.1419    0.0000 C   0  0  1  0  0  0
    1.1270   -8.3159    0.0000 O   0  0
    0.4133   -7.8968    0.0000 C   0  0  1  0  0  0
    1.8342   -9.5592    0.0000 O   0  0
    2.5515   -9.1515    0.0000 C   0  0
    3.2632   -9.5687    0.0000 C   0  0  2  0  0  0
    3.2549  -10.3924    0.0000 C   0  0  2  0  0  0
    3.9625  -10.8096    0.0000 C   0  0  1  0  0  0
    4.6821  -10.4054    0.0000 C   0  0  1  0  0  0
    3.9776   -9.1577    0.0000 O   0  0
    2.5366  -10.7980    0.0000 O   0  0
    5.3917  -10.8263    0.0000 O   0  0
    4.6919   -9.5805    0.0000 C   0  0
    3.9539  -11.6345    0.0000 O   0  0
   -3.8657   -7.8938    0.0000 C   0  0
   -3.8699   -7.0633    0.0000 O   0  0
   -0.3042   -7.4833    0.0000 H   0  0
   -3.8639   -9.5427    0.0000 O   0  0
   -4.5789   -9.1312    0.0000 C   0  0
   -2.4380  -10.3625    0.0000 O   0  0
   -1.0121   -9.5427    0.0000 N   0  0
   -0.3125   -9.9583    0.0000 O   0  0
    0.3989  -10.3737    0.0000 O   0  0
    6.8366  -11.6535    0.0000 N   0  0
    7.5498  -12.0682    0.0000 C   0  0
    7.5474  -12.8932    0.0000 C   0  0
    8.2655  -11.6578    0.0000 O   0  0
    8.2606  -13.3078    0.0000 C   0  0
    8.9763  -12.8974    0.0000 C   0  0
    9.6895  -13.3121    0.0000 C   0  0
   10.4052  -12.9017    0.0000 C   0  0
   11.1575  -13.2373    0.0000 S   0  0
   11.7114  -12.6259    0.0000 S   0  0
   11.3010  -11.9101    0.0000 C   0  0
   10.4936  -12.0793    0.0000 C   0  0
   -1.0133  -10.3677    0.0000 S   0  0
   -1.0208  -11.1917    0.0000 O   0  5
   -0.1883  -10.3721    0.0000 O   0  0
   -1.8383  -10.3643    0.0000 O   0  0
    1.1106  -10.7910    0.0000 S   0  0
    1.8208  -11.2000    0.0000 O   0  5
    1.5298  -10.0805    0.0000 O   0  0
    0.6961  -11.5043    0.0000 O   0  0
    0.4157   -7.0719    0.0000 C   0  0
   -0.2976   -6.6573    0.0000 O   0  0
    1.1314   -6.6614    0.0000 O   0  5
   -1.6958  -12.5208    0.0000 Na  0  3
    2.5167   -7.0875    0.0000 Na  0  3
    2.4250  -12.9250    0.0000 Na  0  3
  5  6  1  0
 25 31  1  1
 12 14  1  6
  8 32  1  1
 32 33  1  0
 14 15  1  0
 15 34  1  1
 15 16  1  0
  9 35  1  6
  6  7  2  0
 35 36  1  0
  7  2  1  0
 10 37  1  1
  3  1  1  0
 11 38  1  6
  8  9  1  0
 16 39  1  1
  2  3  2  0
 17 40  1  6
 15 20  1  0
  7 41  1  0
 16 17  1  0
 41 42  1  0
 17 18  1  0
 42 43  1  0
 18 19  1  0
 42 44  2  0
 19 20  1  0
 43 45  1  0
 45 46  1  0
 18 21  1  1
 46 47  1  0
  3  4  1  0
 48 47  1  0
 48 49  1  0
 21 22  1  0
 23 22  1  1
 23 24  1  0
 49 50  1  0
 50 51  1  0
 51 52  1  0
 52 48  1  0
  4  5  2  0
 38 53  1  0
 53 54  1  0
  8 13  1  0
 53 55  2  0
  9 10  1  0
 53 56  2  0
 23 27  1  0
 40 57  1  0
 24 25  1  0
 57 58  1  0
 25 26  1  0
 57 59  2  0
 10 11  1  0
 57 60  2  0
 24 28  1  6
 20 61  1  6
 11 12  1  0
 61 62  2  0
 26 29  1  6
 61 63  1  0
 12 13  1  0
 26 30  1  0
 30  1  1  0
M  CHG  6  54  -1  58  -1  63  -1  64   1  65   1  66   1
M  END