
  SciTegic09081514192D

 22 23  0  0  0  0            999 V2000
    0.2917    0.7475    0.0000 C   0  0
   -1.0028    1.5132    0.0000 S   0  0
    0.2917   -0.7475    0.0000 C   0  0
    1.7138    1.2033    0.0000 S   0  0
    2.5889    0.0182    0.0000 C   0  0
    4.0872    0.0351    0.0000 S   0  0
    1.7138   -1.2033    0.0000 C   0  0
   -2.3155    0.7475    0.0000 N   0  0
   -1.0028   -1.5132    0.0000 C   0  0  2  0  0  0
   -2.3155   -0.7475    0.0000 C   0  0
    0.0517    2.0860    0.0000 O   0  0
   -2.0537    2.0926    0.0000 O   0  0
    4.6760    1.0808    0.0000 O   0  0
    4.6987   -0.9974    0.0000 O   0  0
    5.2871    0.0482    0.0000 N   0  0
   -0.9909   -3.0137    0.0000 N   0  0
   -3.6217    1.4865    0.0000 C   0  0
    0.3143   -3.7546    0.0000 C   0  0
    0.3238   -4.9546    0.0000 C   0  0
   -4.9153    0.7255    0.0000 C   0  0
   -6.2216    1.4644    0.0000 C   0  0
   -7.2559    0.8558    0.0000 O   0  0
  2  1  1  0
  3  1  2  0
  4  1  1  0
  5  4  1  0
  6  5  1  0
  7  3  1  0
  8  2  1  0
  9  3  1  0
 10  9  1  0
 11  2  2  0
 12  2  2  0
 13  6  2  0
 14  6  2  0
 15  6  1  0
  9 16  1  1
  8 17  1  0
 18 16  1  0
 19 18  1  0
  5  7  2  0
  8 10  1  0
 17 20  1  0
 20 21  1  0
 21 22  1  0
M  END