
  SciTegic09171211542D

 65 65  0  0  0  0            999 V2000
   -3.6292  -15.2458    0.0000 O   0  0
   -2.8042  -15.2500    0.0000 S   0  0
   -3.2131  -14.5334    0.0000 O   0  0
   -4.6500  -12.8792    0.0000 O   0  0
   -4.2333  -13.5958    0.0000 S   0  0
   -3.8210  -12.8767    0.0000 O   0  0
   -3.1083  -10.8167    0.0000 O   0  0
   -3.5167  -11.5333    0.0000 S   0  0
   -2.6918  -11.5286    0.0000 O   0  0
   -0.2500  -12.2500    0.0000 O   0  0
   -0.6583  -11.5375    0.0000 S   0  0
   -1.0712  -12.2474    0.0000 O   0  0
    0.0583  -12.7708    0.0000 C   0  0
    0.0583  -13.5958    0.0000 C   0  0  1  0  0  0
    0.7704  -14.0042    0.0000 C   0  0
    0.7704  -12.3542    0.0000 C   0  0
    1.4824  -12.7708    0.0000 C   0  0  1  0  0  0
    1.4789  -13.5958    0.0000 C   0  0  1  0  0  0
    2.1876  -14.0091    0.0000 C   0  0
    2.9044  -13.6019    0.0000 C   0  0
    2.1946  -12.3591    0.0000 C   0  0  2  0  0  0
    2.9041  -12.7794    0.0000 C   0  0  2  0  0  0
    2.9210  -11.1332    0.0000 C   0  0
    2.2000  -11.5368    0.0000 C   0  0
    3.6304  -11.5535    0.0000 C   0  0  1  0  0  0
    3.6214  -12.3751    0.0000 C   0  0  1  0  0  0
    4.4000  -12.6375    0.0000 C   0  0
    4.8902  -11.9780    0.0000 C   0  0
    4.4145  -11.3082    0.0000 C   0  0  2  0  0  0
   -0.6555  -14.0094    0.0000 O   0  0
    1.4750  -11.9458    0.0000 C   0  0
    2.1875  -13.1833    0.0000 H   0  0
    2.8958  -11.9542    0.0000 H   0  0
    3.6167  -13.2000    0.0000 H   0  0
    3.6250  -10.7250    0.0000 C   0  0
    4.6779  -10.5264    0.0000 C   0  0  1  0  0  0
    5.4867  -10.3636    0.0000 C   0  0
    4.1326   -9.9074    0.0000 C   0  0
    6.0320  -10.9827    0.0000 C   0  0
    6.8408  -10.8199    0.0000 C   0  0
    7.3862  -11.4390    0.0000 C   0  0
    8.1950  -11.2762    0.0000 C   0  0
    7.1227  -12.2208    0.0000 C   0  0
    5.2375  -11.3042    0.0000 H   0  0
   -1.3706  -13.5979    0.0000 C   0  0  1  0  0  0
   -1.3741  -12.7742    0.0000 O   0  0
   -2.0851  -12.3628    0.0000 C   0  0  1  0  0  0
   -2.8014  -12.7729    0.0000 C   0  0  2  0  0  0
   -2.8022  -13.5988    0.0000 C   0  0  1  0  0  0
   -2.0867  -14.0148    0.0000 C   0  0  2  0  0  0
   -2.0864  -14.8398    0.0000 O   0  0
   -3.5175  -14.0099    0.0000 O   0  0
   -3.5149  -12.3587    0.0000 O   0  0
   -2.0832  -11.5378    0.0000 C   0  0
   -1.3677  -11.1270    0.0000 O   0  0
    0.0612  -11.1303    0.0000 O   0  5
   -4.2265  -11.1195    0.0000 O   0  5
   -4.9464  -14.0071    0.0000 O   0  5
   -2.8005  -16.0775    0.0000 O   0  5
    1.4708  -14.4167    0.0000 H   0  0
   -1.3750  -14.4208    0.0000 H   0  0
    5.4375  -14.3750    0.0000 Na  0  3
    6.7500  -14.4062    0.0000 Na  0  3
    5.4687  -15.2187    0.0000 Na  0  3
    6.7188  -15.1875    0.0000 Na  0  3
 17 31  1  1
 11 10  2  0
 21 32  1  6
 12 11  2  0
 22 33  1  1
  2  1  2  0
 26 34  1  6
  3  2  2  0
 25 35  1  1
 17 21  1  0
 29 36  1  0
 18 19  1  0
 36 37  1  0
 19 20  1  0
 36 38  1  6
 20 22  1  0
 37 39  1  0
 21 22  1  0
 39 40  1  0
  8  7  2  0
 40 41  1  0
 13 14  1  0
 41 42  1  0
  9  8  2  0
 41 43  1  0
  5  4  2  0
 29 44  1  6
 21 24  1  0
 30 45  1  0
 45 46  1  0
 22 26  1  0
 25 23  1  0
 23 24  1  0
 25 26  1  0
  6  5  2  0
 45 50  1  0
 46 47  1  0
 47 48  1  0
 48 49  1  0
 49 50  1  0
 50 51  1  1
 13 16  1  0
 49 52  1  1
 14 15  1  0
 48 53  1  6
 15 18  1  0
 47 54  1  1
 26 27  1  0
 54 55  1  0
 55 11  1  0
 27 28  1  0
 11 56  1  0
 53  8  1  0
 28 29  1  0
  8 57  1  0
 52  5  1  0
 29 25  1  0
  5 58  1  0
 51  2  1  0
 17 16  1  0
  2 59  1  0
 14 30  1  1
 18 60  1  6
 17 18  1  0
 45 61  1  1
M  CHG  8  56  -1  57  -1  58  -1  59  -1  62   1  63   1  64   1  65   1
M  END