
  SciTegic12011114592D

 38 42  0  0  0  0            999 V2000
    6.1959   -5.2084    0.0000 N   0  0
    6.9112   -4.7987    0.0000 C   0  0
    6.9141   -3.9727    0.0000 N   0  0
    6.1957   -3.5583    0.0000 C   0  0
    6.1952   -2.7332    0.0000 N   0  0
    6.9099   -2.3201    0.0000 C   0  0
    7.6243   -5.2136    0.0000 S   0  0
    8.3402   -4.8036    0.0000 C   0  0
    9.0491   -5.2216    0.0000 C   0  0
    9.7646   -4.8122    0.0000 C   0  0
    9.7678   -3.9863    0.0000 C   0  0
    9.0497   -3.5715    0.0000 C   0  0
    8.3372   -3.9832    0.0000 C   0  0
   10.4833   -3.5753    0.0000 N   0  0
    7.6956   -2.5683    0.0000 C   0  0
    8.1748   -1.8966    0.0000 C   0  0
    7.6840   -1.2333    0.0000 N   0  0
    6.9016   -1.4951    0.0000 N   0  0
    8.9998   -1.8894    0.0000 C   0  0
    4.7090   -3.7191    0.0000 C   0  0
    4.2279   -4.3804    0.0000 C   0  0
    4.7082   -5.0421    0.0000 C   0  0
    5.4860   -4.7900    0.0000 N   0  0
    5.4866   -3.9722    0.0000 C   0  0
   11.1969   -3.9892    0.0000 C   0  0
   11.9123   -3.5782    0.0000 C   0  0
   12.6259   -3.9927    0.0000 N   0  0
   11.1952   -4.8143    0.0000 O   0  0
   12.6172   -4.8132    0.0000 C   0  0
   13.3992   -5.0766    0.0000 C   0  0  1  0  0  0
   13.8913   -4.4144    0.0000 C   0  0  2  0  0  0
   13.4136   -3.7418    0.0000 C   0  0
   14.7164   -4.4233    0.0000 O   0  0
   13.6456   -5.8641    0.0000 O   0  0
   14.4507   -6.0443    0.0000 C   0  0
   14.6971   -6.8318    0.0000 C   0  0
   15.0094   -5.4372    0.0000 C   0  0
   15.2721   -6.0422    0.0000 C   0  0
 16 17  1  0
 18  6  2  0
  3  4  2  0
 16 19  1  0
 23 24  1  0
  8  9  2  0
  4 24  1  0
 21 22  2  0
  9 10  1  0
  1  2  2  0
 10 11  2  0
 20 21  1  0
 22 23  1  0
 24 20  2  0
  4  5  1  0
 14 25  1  0
 11 12  1  0
 25 26  1  0
 23  1  1  0
 26 27  1  0
 12 13  2  0
 25 28  2  0
 27 29  1  0
 13  8  1  0
  5  6  1  0
 11 14  1  0
 17 18  1  0
 29 30  1  0
 30 31  1  0
 31 32  1  0
 32 27  1  0
  2  3  1  0
 31 33  1  6
 15 16  2  0
 30 34  1  1
  2  7  1  0
 34 35  1  0
 35 36  1  0
  7  8  1  0
 35 37  1  0
  6 15  1  0
 35 38  1  0
M  END