
  SciTegic10311316262D

 33 37  0  0  0  0            999 V2000
   34.2166  -17.1253    0.0000 C   0  0
   34.2148  -17.9515    0.0000 C   0  0
   34.9300  -18.3644    0.0000 C   0  0
   34.9315  -16.7104    0.0000 C   0  0
   35.6412  -17.1240    0.0000 C   0  0
   35.6424  -17.9494    0.0000 C   0  0
   36.3583  -18.3594    0.0000 C   0  0
   37.0738  -17.9437    0.0000 C   0  0
   37.0708  -17.1135    0.0000 N   0  0
   36.3540  -16.7070    0.0000 C   0  0
   37.7817  -16.6967    0.0000 C   0  0
   38.5001  -17.1046    0.0000 C   0  0
   36.3467  -15.8808    0.0000 C   0  0
   35.7024  -15.3713    0.0000 N   0  0
   35.7326  -14.5500    0.0000 C   0  0
   34.9096  -15.6023    0.0000 C   0  0
   34.4474  -14.9166    0.0000 C   0  0
   34.9580  -14.2704    0.0000 C   0  0
   34.6505  -13.5117    0.0000 C   0  0
   33.8371  -13.3932    0.0000 C   0  0
   33.3284  -14.0468    0.0000 C   0  0
   33.6358  -14.8058    0.0000 C   0  0
   38.5006  -17.9308    0.0000 C   0  0
   39.2178  -18.3364    0.0000 C   0  0
   39.9301  -17.9216    0.0000 C   0  0
   39.9227  -17.0926    0.0000 C   0  0
   39.2047  -16.6863    0.0000 C   0  0
   36.4183  -14.0890    0.0000 O   0  0
   34.6259  -16.3801    0.0000 O   0  0
   37.7783  -15.8699    0.0000 O   0  0
   39.1956  -15.8596    0.0000 C   0  0
   39.9078  -15.4441    0.0000 O   0  0
   38.4786  -15.4587    0.0000 O   0  0
  1  2  2  0
  2  3  1  0
  3  6  2  0
  5  4  2  0
  4  1  1  0
  5  6  1  0
  6  7  1  0
  7  8  1  0
  8  9  1  0
  9 10  1  0
 10  5  1  0
  9 11  1  0
 12 11  1  0
 10 13  1  0
 13 14  1  0
 14 15  1  0
 15 18  1  0
 17 16  1  0
 16 14  1  0
 17 18  2  0
 18 19  1  0
 19 20  2  0
 20 21  1  0
 21 22  2  0
 22 17  1  0
 12 23  1  0
 23 24  1  0
 24 25  1  0
 25 26  1  0
 26 27  1  0
 27 12  1  0
 15 28  2  0
 16 29  2  0
 11 30  2  0
 27 31  1  0
 31 32  1  0
 31 33  2  0
M  END