
          11280715352D 1   1.00000     0.00000     0

 40 43  0     1  0            999 V2000
    4.6417   -4.1917    0.0000 C   0  0  0  0  0  0           0  0  0
    3.6167   -5.9417    0.0000 N   0  0  3  0  0  0           0  0  0
    4.6292   -5.3667    0.0000 C   0  0  0  0  0  0           0  0  0
    4.1292   -5.0667    0.0000 C   0  0  0  0  0  0           0  0  0
    4.6292   -5.9542    0.0000 C   0  0  0  0  0  0           0  0  0
    4.1292   -4.4792    0.0000 C   0  0  0  0  0  0           0  0  0
    3.6292   -5.3542    0.0000 C   0  0  0  0  0  0           0  0  0
    5.1417   -4.4917    0.0000 C   0  0  2  0  0  0           0  0  0
    5.6542   -4.2042    0.0000 N   0  0  3  0  0  0           0  0  0
    5.1417   -5.0792    0.0000 C   0  0  0  0  0  0           0  0  0
    4.6417   -3.6042    0.0000 C   0  0  0  0  0  0           0  0  0
    6.1917   -2.7417    0.0000 C   0  0  0  0  0  0           0  0  0
    5.1542   -3.3167    0.0000 C   0  0  2  0  0  0           0  0  0
    5.6667   -3.6167    0.0000 C   0  0  0  0  0  0           0  0  0
    8.5792   -5.4667    0.0000 C   0  0  0  0  0  0           0  0  0
    7.3667   -5.4542    0.0000 C   0  0  0  0  0  0           0  0  0
    8.2792   -4.9417    0.0000 C   0  0  0  0  0  0           0  0  0
    7.6792   -4.9417    0.0000 C   0  0  0  0  0  0           0  0  0
    5.6792   -2.4292    0.0000 O   0  0  0  0  0  0           0  0  0
    3.2542   -6.3292    0.0000 C   0  0  3  0  0  0           0  0  0
    6.1792   -3.3292    0.0000 O   0  0  0  0  0  0           0  0  0
    7.6792   -5.9792    0.0000 O   0  0  0  0  0  0           0  0  0
    9.1792   -5.4667    0.0000 O   0  0  0  0  0  0           0  0  0
    6.7042   -2.4542    0.0000 C   0  0  3  0  0  0           0  0  0
    5.1667   -2.7167    0.0000 C   0  0  0  0  0  0           0  0  0
    3.1167   -5.0667    0.0000 C   0  0  0  0  0  0           0  0  0
    3.6167   -4.1917    0.0000 C   0  0  0  0  0  0           0  0  0
    6.1667   -4.5042    0.0000 C   0  0  0  0  0  0           0  0  0
    8.2792   -5.9792    0.0000 O   0  0  0  0  0  0           0  0  0
    6.7667   -5.4542    0.0000 O   0  0  0  0  0  0           0  0  0
    3.1167   -4.4792    0.0000 C   0  0  0  0  0  0           0  0  0
    7.1792   -2.8292    0.0000 C   0  0  0  0  0  0           0  0  0
    6.6417   -1.9167    0.0000 C   0  0  0  0  0  0           0  0  0
    2.7417   -6.2167    0.0000 C   0  0  0  0  0  0           0  0  0
    3.4167   -6.8417    0.0000 C   0  0  0  0  0  0           0  0  0
    7.0917   -1.5167    0.0000 C   0  0  0  0  0  0           0  0  0
    7.6917   -2.7542    0.0000 C   0  0  0  0  0  0           0  0  0
    7.9792   -2.2292    0.0000 C   0  0  0  0  0  0           0  0  0
    7.7167   -1.6667    0.0000 C   0  0  0  0  0  0           0  0  0
    5.6542   -4.7792    0.0000 H   0  0  0  0  0  0           0  0  0
  2  7  1  0     0  0
  3 10  1  0     0  0
  4  6  2  0     0  0
  5  3  2  0     0  0
  6  1  1  0     0  0
  7  4  1  0     0  0
  8  1  1  0     0  0
  9  8  1  0     0  0
 10  8  1  0     0  0
 11  1  2  0     0  0
 12 19  1  0     0  0
 13 11  1  0     0  0
 14 13  1  0     0  0
 16 18  1  0     0  0
 17 15  1  0     0  0
 18 17  2  0     0  0
 19 25  1  0     0  0
 20  2  1  0     0  0
 21 12  2  0     0  0
 22 16  2  0     0  0
 23 15  2  0     0  0
 24 12  1  0     0  0
 13 25  1  1     0  0
 26  7  2  0     0  0
 27  6  1  0     0  0
 28  9  1  0     0  0
 29 15  1  0     0  0
 30 16  1  0     0  0
 31 27  2  0     0  0
 32 24  1  0     0  0
 33 24  1  0     0  0
 34 20  1  0     0  0
 35 20  1  0     0  0
 36 33  1  0     0  0
 37 32  1  0     0  0
 38 37  1  0     0  0
 39 36  1  0     0  0
  8 40  1  1     0  0
  3  4  1  0     0  0
 14  9  1  0     0  0
 31 26  1  0     0  0
  5  2  1  0     0  0
 39 38  1  0     0  0
M  END