
  SciTegic04091511462D

 79 83  0  0  1  0            999 V2000
    0.3289   -3.8211    0.0000 N   0  0
    0.9490   -3.2633    0.0000 C   0  0
   -0.3247    2.7055    0.0000 N   0  0
    0.7784   -2.4600    0.0000 C   0  0  1  0  0  0
    1.3029    2.5349    0.0000 C   0  0
    1.5484   -2.1645    0.0000 N   0  0
    2.8513   -0.1540    0.0000 N   0  0
    1.9979    2.0853    0.0000 N   0  0
   -1.0947    2.4058    0.0000 C   0  0
    2.1894   -1.6483    0.0000 C   0  0
    1.1363   -5.0490    0.0000 C   0  0
   -2.5681    3.2425    0.0000 C   0  0
    2.8138    0.6701    0.0000 C   0  0
    0.5037    2.7555    0.0000 C   0  0  2  0  0  0
    2.6390   -0.9532    0.0000 C   0  0  2  0  0  0
   -2.0479    3.8918    0.0000 N   0  0
   -2.1852    1.1946    0.0000 N   0  0
    0.4163   -4.6452    0.0000 C   0  0  2  0  0  0
   -1.7357    1.8938    0.0000 C   0  0  2  0  0  0
   -2.3975    0.3996    0.0000 C   0  0
    1.1363   -5.8814    0.0000 N   0  0
    3.3965   -1.2904    0.0000 C   0  0
   -3.3423    3.5421    0.0000 C   0  0
    2.5141    1.4443    0.0000 C   0  0  2  0  0  0
    1.8523   -7.1177    0.0000 C   0  0
    5.4194   -5.8731    0.0000 C   0  0
   -2.3476    2.4433    0.0000 C   0  0
   -2.3559   -0.4246    0.0000 C   0  0
   -0.8449   -2.2893    0.0000 S   0  0
   -2.4974    4.5745    0.0000 C   0  0
   -1.5442   -1.8398    0.0000 S   0  0
   -3.3049    4.3622    0.0000 C   0  0
    3.4756   -2.1103    0.0000 C   0  0
    2.5641   -7.5339    0.0000 N   0  0
   -2.0604   -1.1988    0.0000 C   0  0
    1.8523   -6.2935    0.0000 C   0  0  2  0  0  0
    3.1093   -8.8451    0.0000 C   0  0
    4.6494    1.8689    0.0000 C   0  0
    5.4194   -5.0490    0.0000 N   0  0
    1.7274   -3.5214    0.0000 O   0  0
    1.6400    3.2924    0.0000 O   0  0
   -0.0458   -2.5016    0.0000 C   0  0
    1.8523   -4.6452    0.0000 O   0  0
   -1.5067    3.1218    0.0000 O   0  0
    2.8013   -2.1977    0.0000 O   0  0
    3.6130    0.8449    0.0000 O   0  0
   -3.2175    0.4870    0.0000 O   0  0
    1.1363   -7.5339    0.0000 O   0  0
    2.8138   -2.5973    0.0000 O   0  0
    4.6494    2.6930    0.0000 O   0  0
    3.8627   -8.5329    0.0000 O   0  0
    3.2259    1.8564    0.0000 C   0  0
    4.6993   -6.2852    0.0000 N   0  0
    2.4517   -8.3456    0.0000 C   0  0
    6.1312   -6.2852    0.0000 N   0  0
    0.5911    3.5796    0.0000 C   0  0  2  0  0  0
   -0.4745   -3.6504    0.0000 C   0  0
    4.2331   -2.4475    0.0000 N   0  0
    3.9376    1.4485    0.0000 C   0  0
    3.0011   -9.6692    0.0000 N   0  0
    5.3695    1.4568    0.0000 N   0  0
   -0.3330   -4.9741    0.0000 C   0  0
   -0.8824   -4.3622    0.0000 C   0  0
   -2.2851    5.3737    0.0000 C   0  0
   -3.8918    4.9449    0.0000 C   0  0
   -1.9688   -1.9730    0.0000 C   0  0
   -2.6805   -0.7284    0.0000 C   0  0
    2.5641   -5.8731    0.0000 C   0  0
    3.9876   -5.8731    0.0000 C   0  0
    1.3403    3.9043    0.0000 C   0  0
   -0.0749    4.0500    0.0000 C   0  0
    3.2758   -6.2852    0.0000 C   0  0
    1.4277    4.7243    0.0000 C   0  0
   -2.8720    5.9605    0.0000 C   0  0
   -3.6795    5.7441    0.0000 C   0  0
   -2.6805   -2.3767    0.0000 C   0  0
   -3.3923   -1.1405    0.0000 C   0  0
   -3.3923   -1.9730    0.0000 C   0  0
   -0.1865    3.4777    0.0000 H   0  0
  2  1  1  0
  3  9  1  0
  4  2  1  6
  5  8  1  0
  6  4  1  0
  7 15  1  0
  8 24  1  0
  9 19  1  0
 10  6  1  0
 18 11  1  6
 12 27  1  0
 13  7  1  0
 14  5  1  0
 15 10  1  0
 16 12  1  0
 17 20  1  0
 18  1  1  0
 19 17  1  0
 20 28  1  0
 21 11  1  0
 15 22  1  1
 23 12  2  0
 24 13  1  0
 25 36  1  0
 26 53  2  0
 19 27  1  6
 28 35  1  0
 29 42  1  0
 30 16  1  0
 31 29  1  0
 32 23  1  0
 33 22  1  0
 34 25  1  0
 35 31  1  0
 36 21  1  1
 37 54  1  0
 38 59  1  0
 39 26  1  0
 40  2  2  0
 41  5  2  0
  4 42  1  0
 43 11  2  0
 44  9  2  0
 45 10  2  0
 46 13  2  0
 47 20  2  0
 48 25  2  0
 49 33  2  0
 50 38  2  0
 51 37  2  0
 24 52  1  1
 53 69  1  0
 54 34  1  0
 55 26  1  0
 14 56  1  0
 57  1  1  0
 58 33  1  0
 59 52  1  0
 60 37  1  0
 61 38  1  0
 18 62  1  0
 63 57  1  0
 64 30  1  0
 65 32  1  0
 66 35  1  0
 67 35  1  0
 36 68  1  0
 69 72  1  0
 70 56  1  0
 56 71  1  1
 72 68  1  0
 73 70  1  0
 74 64  2  0
 75 65  2  0
 76 66  1  0
 77 67  1  0
 78 77  1  0
 62 63  1  0
 78 76  1  0
 14  3  1  0
 30 32  2  0
 75 74  1  0
 14 79  1  6
M  END