
  SciTegic11201309402D

 87 89  0  0  1  0            999 V2000
    1.2167   -3.9875    0.0000 N   0  0
    8.3375   -4.3792    0.0000 N   0  0
    2.1667   -2.0167    0.0000 N   0  0
    5.0042   -0.3667    0.0000 N   0  0
    1.7917   -3.4042    0.0000 C   0  0
    7.1417    0.0458    0.0000 N   0  0
    6.5250   -5.6042    0.0000 N   0  0
    2.8792    0.0458    0.0000 N   0  0
    7.5375   -4.6042    0.0000 C   0  0
    5.7167    0.0458    0.0000 C   0  0
    3.5917   -0.3667    0.0000 C   0  0
    2.1667   -1.1917    0.0000 C   0  0
    7.8500   -0.3667    0.0000 C   0  0
    5.5500   -6.3750    0.0000 C   0  0
    1.5792   -2.6042    0.0000 C   0  0  2  0  0  0
    8.9167   -3.8042    0.0000 C   0  0  2  0  0  0
    1.4167   -4.7792    0.0000 C   0  0  2  0  0  0
    1.4167   -5.6042    0.0000 C   0  0
    3.5167   -6.3167    0.0000 N   0  0
    9.2750   -0.3667    0.0000 N   0  0
    4.3042    0.0458    0.0000 C   0  0  2  0  0  0
    7.3250   -5.4000    0.0000 C   0  0  2  0  0  0
    6.4292   -0.3667    0.0000 C   0  0  2  0  0  0
    1.6292   -6.3917    0.0000 N   0  0
    0.7917   -2.3917    0.0000 C   0  0
    2.1667   -0.3667    0.0000 C   0  0  2  0  0  0
    9.6750   -4.1250    0.0000 C   0  0
    8.5625    0.0458    0.0000 C   0  0  1  0  0  0
    4.3250   -6.1125    0.0000 C   0  0  1  0  0  0
    3.0292   -6.9750    0.0000 C   0  0
    9.2750   -1.1917    0.0000 C   0  0
    0.3667   -1.6667    0.0000 C   0  0
    9.6375   -2.5792    0.0000 S   0  0
    9.2750    2.1083    0.0000 C   0  0
    0.7542    1.2833    0.0000 C   0  0
    2.5167   -3.4000    0.0000 O   0  0
    3.5917   -1.1917    0.0000 O   0  0
    6.9542   -4.0042    0.0000 O   0  0
    6.1292    0.7583    0.0000 O   0  0
    5.5500   -7.2000    0.0000 O   0  0
    7.8500   -1.1917    0.0000 O   0  0
    1.3792   -1.4167    0.0000 O   0  0
    7.9042   -5.9792    0.0000 C   0  0
    4.3042    0.8583    0.0000 C   0  0
    0.5917   -5.6000    0.0000 O   0  0
    6.4292   -1.1917    0.0000 C   0  0
    9.7667   -4.9417    0.0000 O   0  0
    2.2042   -6.9750    0.0000 C   0  0
    3.2417   -7.7792    0.0000 O   0  0
    8.4750   -1.4042    0.0000 O   0  0
    0.7792   -0.9542    0.0000 O   0  0
    8.5625    2.5083    0.0000 O   0  0
    0.0417    0.8708    0.0000 O   0  0
    1.4542    0.0458    0.0000 C   0  0
    8.5625    0.8583    0.0000 C   0  0
   10.3250   -3.6292    0.0000 N   0  0
    8.9250   -2.9792    0.0000 C   0  0
    2.2417   -4.7792    0.0000 C   0  0
   -0.4458   -1.6667    0.0000 N   0  0
    1.4667    0.8708    0.0000 C   0  0
    9.2750    1.2708    0.0000 C   0  0
    4.8875    1.4458    0.0000 C   0  0
    7.6875   -6.7792    0.0000 C   0  0
    4.4250   -5.2875    0.0000 C   0  0
    9.8417   -1.7792    0.0000 C   0  0
    6.0375    2.6333    0.0000 C   0  0
    7.2542   -8.3625    0.0000 C   0  0
    9.9750    2.5083    0.0000 O   0  0
    0.7542    2.1083    0.0000 O   0  0
    5.2792   -4.1417    0.0000 S   0  0
    8.2667   -7.3500    0.0000 C   0  0
    5.6792    1.2458    0.0000 C   0  0
    6.9000   -6.9875    0.0000 C   0  0
    4.6625    2.2583    0.0000 C   0  0
    6.2625    1.8458    0.0000 C   0  0
    6.6875   -7.7792    0.0000 C   0  0
    5.2292    2.8333    0.0000 C   0  0
    8.0625   -8.1542    0.0000 C   0  0
    7.0500   -9.1625    0.0000 O   0  0
    6.6167    3.2333    0.0000 O   0  0
    5.8417   -1.7792    0.0000 C   0  0
    5.1750   -4.9667    0.0000 C   0  0
    6.0375   -3.8375    0.0000 C   0  0
    2.6542   -5.4917    0.0000 C   0  0
    2.8167   -4.1917    0.0000 C   0  0
    6.0375   -2.5792    0.0000 C   0  0
    5.0417   -1.9792    0.0000 C   0  0
  2  9  1  0
  3 15  1  0
  4 21  1  0
  5  1  1  0
  6 23  1  0
  7 14  1  0
  8 26  1  0
  9 22  1  0
 10  4  1  0
 11  8  1  0
 12  3  1  0
 13  6  1  0
 14 29  1  0
 15  5  1  0
 16  2  1  0
 17  1  1  0
 18 17  1  0
 19 30  1  0
 20 28  1  0
 21 11  1  0
 22  7  1  0
 23 10  1  0
 24 18  1  0
 15 25  1  6
 26 12  1  0
 16 27  1  1
 28 13  1  0
 29 19  1  0
 30 48  1  0
 31 20  1  0
 32 25  1  0
 33 57  1  0
 34 61  1  0
 35 60  1  0
 36  5  2  0
 37 11  2  0
 38  9  2  0
 39 10  2  0
 40 14  2  0
 41 13  2  0
 42 12  2  0
 22 43  1  6
 21 44  1  6
 45 18  2  0
 23 46  1  1
 47 27  2  0
 48 24  1  0
 49 30  2  0
 50 31  2  0
 51 32  2  0
 52 34  2  0
 53 35  2  0
 26 54  1  6
 28 55  1  6
 56 27  1  0
 16 57  1  0
 17 58  1  1
 59 32  1  0
 60 54  1  0
 61 55  1  0
 62 44  1  0
 63 43  1  0
 29 64  1  1
 65 33  1  0
 66 77  1  0
 67 76  2  0
 68 34  1  0
 69 35  1  0
 70 82  1  0
 71 63  1  0
 72 62  2  0
 73 63  2  0
 74 62  1  0
 75 72  1  0
 76 73  1  0
 77 74  2  0
 78 71  2  0
 79 67  1  0
 80 66  1  0
 81 46  1  0
 82 64  1  0
 83 70  1  0
 84 58  1  0
 85 58  1  0
 86 81  1  0
 87 81  1  0
 66 75  2  0
 67 78  1  0
 65 31  1  0
M  END