
  Mrv0541 04051115152D          

 36 40  0  0  0  0            999 V2000
    1.5681   -3.3449    0.0000 C   0  0  0  0  0  0  0  0  0  0  0  0
    0.0765   -1.7513    0.0000 C   0  0  0  0  0  0  0  0  0  0  0  0
    0.5615   -1.0838    0.0000 C   0  0  0  0  0  0  0  0  0  0  0  0
   -0.0728   -3.1724    0.0000 C   0  0  0  0  0  0  0  0  0  0  0  0
    0.2627   -3.9261    0.0000 C   0  0  0  0  0  0  0  0  0  0  0  0
    0.3753    1.0909    0.0000 C   0  0  0  0  0  0  0  0  0  0  0  0
   -0.4452    1.1772    0.0000 C   0  0  0  0  0  0  0  0  0  0  0  0
    0.2259   -0.3302    0.0000 C   0  0  0  0  0  0  0  0  0  0  0  0
   -0.5946   -0.2439    0.0000 C   0  0  0  0  0  0  0  0  0  0  0  0
   -1.0795   -0.9114    0.0000 C   0  0  0  0  0  0  0  0  0  0  0  0
   -0.7439   -1.6650    0.0000 C   0  0  0  0  0  0  0  0  0  0  0  0
    3.8479   -2.5050    0.0000 C   0  0  0  0  0  0  0  0  0  0  0  0
    3.5821   -0.8842    0.0000 C   0  0  0  0  0  0  0  0  0  0  0  0
    2.7974   -1.1391    0.0000 C   0  0  0  0  0  0  0  0  0  0  0  0
    2.5425   -1.9238    0.0000 C   0  0  0  0  0  0  0  0  0  0  0  0
    3.0274   -2.5912    0.0000 C   0  0  0  0  0  0  0  0  0  0  0  0
    4.5382    0.1777    0.0000 C   0  0  0  0  0  0  0  0  0  0  0  0
    1.4155    1.4083    0.0000 C   0  0  0  0  0  0  0  0  0  0  0  0
    2.1300    0.1708    0.0000 C   0  0  0  0  0  0  0  0  0  0  0  0
    4.1952   -1.4362    0.0000 C   0  0  0  0  0  0  0  0  0  0  0  0
    1.0832   -4.0123    0.0000 C   0  0  0  0  0  0  0  0  0  0  0  0
    2.8445    0.5833    0.0000 C   0  0  0  0  0  0  0  0  0  0  0  0
    1.2326   -2.5912    0.0000 C   0  0  0  0  0  0  0  0  0  0  0  0
    0.4121   -2.5050    0.0000 C   0  0  0  0  0  0  0  0  0  0  0  0
   -0.7808    1.9309    0.0000 O   0  0  0  0  0  0  0  0  0  0  0  0
   -0.9301    0.5097    0.0000 O   0  0  0  0  0  0  0  0  0  0  0  0
    0.7108    0.3373    0.0000 O   0  0  0  0  0  0  0  0  0  0  0  0
    3.7536   -0.0772    0.0000 C   0  0  0  0  0  0  0  0  0  0  0  0
    1.7175   -1.9238    0.0000 N   0  0  0  0  0  0  0  0  0  0  0  0
    1.4626   -1.1391    0.0000 N   0  0  0  0  0  0  0  0  0  0  0  0
    2.1300   -0.6542    0.0000 C   0  0  0  0  0  0  0  0  0  0  0  0
    1.4155    0.5833    0.0000 C   0  0  0  0  0  0  0  0  0  0  0  0
    2.1300    1.8208    0.0000 C   0  0  0  0  0  0  0  0  0  0  0  0
    2.8445    1.4083    0.0000 C   0  0  0  0  0  0  0  0  0  0  0  0
    5.1513   -0.3743    0.0000 C   0  0  0  0  0  0  0  0  0  0  0  0
    4.9798   -1.1813    0.0000 C   0  0  0  0  0  0  0  0  0  0  0  0
  1 23  1  0  0  0  0
 21  1  2  0  0  0  0
  2  3  1  0  0  0  0
 11  2  2  0  0  0  0
  2 24  1  0  0  0  0
  8  3  2  0  0  0  0
  4  5  2  0  0  0  0
 24  4  1  0  0  0  0
 21  5  1  0  0  0  0
  7  6  1  0  0  0  0
  6 27  1  0  0  0  0
  7 25  1  0  0  0  0
  7 26  2  0  0  0  0
  8 27  1  0  0  0  0
  8  9  1  0  0  0  0
  9 10  2  0  0  0  0
 10 11  1  0  0  0  0
 12 16  1  0  0  0  0
 13 14  1  0  0  0  0
 13 28  2  0  0  0  0
 13 20  1  0  0  0  0
 31 14  1  0  0  0  0
 14 15  2  0  0  0  0
 15 29  1  0  0  0  0
 15 16  1  0  0  0  0
 28 17  1  0  0  0  0
 17 35  2  0  0  0  0
 18 33  1  0  0  0  0
 32 18  2  0  0  0  0
 31 19  1  0  0  0  0
 19 22  2  0  0  0  0
 32 19  1  0  0  0  0
 36 20  2  0  0  0  0
 34 22  1  0  0  0  0
 23 24  2  0  0  0  0
 23 29  1  0  0  0  0
 29 30  1  0  0  0  0
 31 30  2  0  0  0  0
 33 34  2  0  0  0  0
 35 36  1  0  0  0  0
M  END