
  SciTegic06051313552D

 64 70  0  0  0  0            999 V2000
   -7.8495   -2.1378    0.0000 C   0  0
   -8.3437   -1.4826    0.0000 C   0  0
   -9.1628   -1.5873    0.0000 C   0  0
   -9.4842   -2.3484    0.0000 N   0  0
   -8.9845   -3.0057    0.0000 C   0  0
   -8.1552   -2.9019    0.0000 C   0  0
  -10.2996   -2.4523    0.0000 C   0  0
  -10.6222   -3.2135    0.0000 C   0  0
  -11.4372   -3.3136    0.0000 C   0  0
  -11.7597   -4.0740    0.0000 C   0  0
  -11.2588   -4.7322    0.0000 C   0  0
  -10.4389   -4.6251    0.0000 C   0  0
  -10.1209   -3.8646    0.0000 C   0  0
  -11.9333   -2.6586    0.0000 C   0  0
  -11.6143   -1.8977    0.0000 C   0  0
  -12.1095   -1.2396    0.0000 C   0  0
  -12.9320   -1.3411    0.0000 C   0  0
  -13.2536   -2.1065    0.0000 C   0  0
  -12.7520   -2.7614    0.0000 C   0  0
  -13.4256   -0.6833    0.0000 Cl  0  0
   -3.9941   -4.5862    0.0000 O   0  0
   -3.2770   -4.1776    0.0000 S   0  0
   -3.9905   -3.7608    0.0000 O   0  0
   -3.3553   -0.4915    0.0000 O   0  0
   -3.3326   -1.3207    0.0000 S   0  0
   -2.6237   -0.8897    0.0000 O   0  0
   -4.1592   -1.3393    0.0000 N   0  0
   -2.9019   -2.0287    0.0000 C   0  0
   -3.3021   -2.7511    0.0000 C   0  0
   -2.8781   -3.4570    0.0000 C   0  0
   -2.0534   -3.4406    0.0000 C   0  0
   -1.6590   -2.7123    0.0000 C   0  0
   -2.0806   -2.0094    0.0000 C   0  0
   -1.6228   -4.1463    0.0000 N   0  0
   -0.7970   -4.1283    0.0000 C   0  0  2  0  0  0
   -0.3747   -4.8341    0.0000 C   0  0
    0.4579   -4.8161    0.0000 C   0  0
    0.8861   -5.5218    0.0000 N   0  0
   -0.4020   -3.4046    0.0000 C   0  0
    0.4267   -3.3866    0.0000 S   0  0
    0.8238   -2.6629    0.0000 C   0  0
    1.6499   -2.6474    0.0000 C   0  0
    2.0469   -1.9245    0.0000 C   0  0
    1.6186   -1.2177    0.0000 C   0  0
    0.7892   -1.2385    0.0000 C   0  0
    0.3959   -1.9619    0.0000 C   0  0
    1.7072   -5.4980    0.0000 C   0  0
   -4.5548   -2.0633    0.0000 C   0  0
   -2.8483   -4.8865    0.0000 C   0  0
   -3.2504   -5.6095    0.0000 F   0  0
   -2.0226   -4.8701    0.0000 F   0  0
   -2.4390   -5.5993    0.0000 F   0  0
   -5.3454   -3.5055    0.0000 N   0  0
   -4.5207   -3.4890    0.0000 C   0  0
   -4.1212   -2.7644    0.0000 N   0  0
   -5.7773   -2.8017    0.0000 C   0  0
   -5.3816   -2.0779    0.0000 C   0  0
   -5.8059   -1.3765    0.0000 C   0  0
   -6.6323   -1.3927    0.0000 C   0  0
   -7.0279   -2.1165    0.0000 N   0  0
   -6.5972   -2.8242    0.0000 C   0  0
    0.4917   -6.2471    0.0000 C   0  0
   -6.9937   -3.5488    0.0000 O   0  0
   -9.9318   -5.2806    0.0000 F   0  0
  1  2  1  0
  1  6  1  0
  2  3  1  0
  3  4  1  0
  4  5  1  0
  5  6  1  0
  4  7  1  0
  7  8  1  0
  8  9  2  0
  9 10  1  0
 10 11  2  0
 11 12  1  0
 12 13  2  0
 13  8  1  0
 14 15  2  0
 15 16  1  0
 16 17  2  0
 17 18  1  0
 18 19  2  0
 19 14  1  0
  9 14  1  0
 17 20  1  0
 22 21  2  0
 23 22  2  0
 25 24  2  0
 26 25  2  0
 27 25  1  0
 25 28  1  0
 28 29  2  0
 29 30  1  0
 30 31  2  0
 31 32  1  0
 32 33  2  0
 33 28  1  0
 31 34  1  0
 34 35  1  0
 35 36  1  0
 36 37  1  0
 37 38  1  0
 35 39  1  1
 39 40  1  0
 40 41  1  0
 41 42  2  0
 42 43  1  0
 43 44  2  0
 44 45  1  0
 45 46  2  0
 46 41  1  0
 38 47  1  0
 27 48  1  0
 30 22  1  0
 22 49  1  0
 49 50  1  0
 49 51  1  0
 49 52  1  0
 48 57  2  0
 48 55  1  0
 56 53  2  0
 53 54  1  0
 54 55  2  0
 56 57  1  0
 56 61  1  0
 57 58  1  0
 58 59  1  0
 59 60  1  0
 60 61  1  0
 60  1  1  0
 38 62  1  0
 61 63  2  0
 12 64  1  0
M  END