
          11280715202D 1   1.00000     0.00000     0

 26 26  0     0  0            999 V2000
   -0.6500   -2.6875    0.0000 N   0  0  0  0  0  0           0  0  0
    5.9500   -2.7542    0.0000 C   0  0  0  0  0  0           0  0  0
   -1.0625   -3.9542    0.0000 N   0  0  0  0  0  0           0  0  0
   -1.3208   -3.1667    0.0000 C   0  0  0  0  0  0           0  0  0
    0.0167   -3.1667    0.0000 C   0  0  0  0  0  0           0  0  0
    9.7875   -3.5792    0.0000 C   0  0  0  0  0  0           0  0  0
    9.7917   -1.9292    0.0000 C   0  0  0  0  0  0           0  0  0
    9.0792   -3.1667    0.0000 C   0  0  0  0  0  0           0  0  0
    9.0792   -2.3417    0.0000 C   0  0  0  0  0  0           0  0  0
    5.1667   -3.0042    0.0000 C   0  0  0  0  0  0           0  0  0
   -0.2375   -3.9542    0.0000 C   0  0  0  0  0  0           0  0  0
    6.1167   -1.9417    0.0000 O   0  0  0  0  0  0           0  0  0
    9.8000   -1.1042    0.0000 O   0  0  0  0  0  0           0  0  0
    9.7792   -4.4042    0.0000 O   0  0  0  0  0  0           0  0  0
    4.9917   -3.8167    0.0000 C   0  0  0  0  0  0           0  0  0
    4.5417   -2.4542    0.0000 C   0  0  0  0  0  0           0  0  0
    6.5625   -3.3042    0.0000 N   0  0  0  0  0  0           0  0  0
    3.5917   -3.5167    0.0000 C   0  0  0  0  0  0           0  0  0
   10.5042   -2.3417    0.0000 O   0  0  0  0  0  0           0  0  0
   10.5042   -3.1667    0.0000 O   0  0  0  0  0  0           0  0  0
    3.7667   -2.7125    0.0000 C   0  0  0  0  0  0           0  0  0
    4.2042   -4.0667    0.0000 C   0  0  0  0  0  0           0  0  0
    2.8125   -3.7667    0.0000 O   0  0  0  0  0  0           0  0  0
    0.8042   -2.9167    0.0000 C   0  0  0  0  0  0           0  0  0
    2.1917   -3.2167    0.0000 C   0  0  0  0  0  0           0  0  0
    1.4125   -3.4667    0.0000 C   0  0  0  0  0  0           0  0  0
  2 10  1  0     0  0
  3  4  1  0     0  0
  4  1  2  0     0  0
  5  1  1  0     0  0
  7  9  1  0     0  0
  8  6  1  0     0  0
  9  8  2  0     0  0
 10 15  2  0     0  0
 11  5  2  0     0  0
 12  2  2  0     0  0
 13  7  2  0     0  0
 14  6  2  0     0  0
 15 22  1  0     0  0
 16 21  2  0     0  0
 17  2  1  0     0  0
 18 23  1  0     0  0
 19  7  1  0     0  0
 20  6  1  0     0  0
 21 18  1  0     0  0
 22 18  2  0     0  0
 23 25  1  0     0  0
 24  5  1  0     0  0
 25 26  1  0     0  0
 26 24  1  0     0  0
 11  3  1  0     0  0
 10 16  1  0     0  0
M  END