
  SciTegic01161211252D

 35 38  0  0  0  0            999 V2000
   -0.9677  -14.2088    0.0000 O   0  0
   -1.6895  -14.6083    0.0000 S   0  0
   -0.9806  -15.0344    0.0000 O   0  0
   -0.9858  -12.5397    0.0000 C   0  0
   -0.3255  -12.0419    0.0000 C   0  0
   -0.5905  -11.2606    0.0000 C   0  0
   -1.4182  -11.2739    0.0000 N   0  0
   -1.6558  -12.0630    0.0000 N   0  0
   -1.8455  -10.5656    0.0000 C   0  0
   -1.4426   -9.8425    0.0000 C   0  0
   -1.8698   -9.1356    0.0000 C   0  0
   -2.6958   -9.1548    0.0000 C   0  0
   -3.0926   -9.8784    0.0000 C   0  0
   -2.6673  -10.5823    0.0000 C   0  0
   -0.1536  -10.5637    0.0000 C   0  0
    0.6723  -10.5939    0.0000 C   0  0
    1.1116   -9.8945    0.0000 C   0  0
    0.7262   -9.1683    0.0000 C   0  0
   -0.1028   -9.1379    0.0000 C   0  0
   -0.5384   -9.8381    0.0000 C   0  0
   -0.9786  -13.3599    0.0000 C   0  0
   -1.6833  -13.7844    0.0000 N   0  0
   -2.4057  -15.0200    0.0000 N   0  0
   -3.1205   -8.4480    0.0000 Cl  0  0
   -3.1101  -14.6014    0.0000 C   0  0
   -3.8241  -15.0097    0.0000 C   0  0
   -3.8315  -15.8346    0.0000 C   0  0
   -3.1184  -16.2497    0.0000 C   0  0
   -2.3982  -15.8440    0.0000 C   0  0
   -4.5496  -16.2398    0.0000 C   0  0
   -5.2618  -15.8240    0.0000 F   0  0
   -4.5558  -17.0650    0.0000 F   0  0
   -5.2785  -16.6311    0.0000 F   0  0
   -0.2620  -13.7607    0.0000 N   0  0
    0.4434  -13.3405    0.0000 C   0  0
 17 18  2  0
  9 10  2  0
 18 19  1  0
  4  5  1  0
 19 20  2  0
 20 15  1  0
  6 15  1  0
 10 11  1  0
  4 21  1  0
 21 22  2  0
 22  2  1  0
 11 12  2  0
  2 23  1  0
  5  6  1  0
 12 24  1  0
 23 25  1  0
 12 13  1  0
  6  7  1  0
 13 14  2  0
 14  9  1  0
  7  9  1  0
 23 29  1  0
 25 26  1  0
 26 27  1  0
 27 28  1  0
 28 29  1  0
  7  8  1  0
 27 30  1  0
  8  4  2  0
 30 31  1  0
 15 16  2  0
 30 32  1  0
  2  1  2  0
 30 33  1  0
 16 17  1  0
 21 34  1  0
  3  2  2  0
 34 35  1  0
M  END