
  SciTegic12231509382D

 18 20  0  0  0  0            999 V2000
   -0.2392   -2.3223    0.0000 C   0  0
    1.0679   -1.5848    0.0000 N   0  0
    2.3652   -2.3502    0.0000 C   0  0  1  0  0  0
    3.7124   -4.7004    0.0000 N   0  0
   -1.5319   -1.5599    0.0000 C   0  0
    2.3502   -3.9220    0.0000 C   0  0
    3.7124   -1.5269    0.0000 C   0  0
   -0.2507   -3.5223    0.0000 O   0  0
   -2.8394   -2.2951    0.0000 C   0  0
   -1.5150   -0.0599    0.0000 C   0  0
    5.0746   -2.3203    0.0000 C   0  0
    3.1735   -2.6646    0.0000 C   0  0
    5.0746   -3.9070    0.0000 C   0  0
    4.2214   -3.2933    0.0000 C   0  0
   -4.1129   -0.0305    0.0000 C   0  0
   -2.8055    0.7047    0.0000 C   0  0
   -4.1299   -1.5304    0.0000 C   0  0
   -5.1453    0.5812    0.0000 Cl  0  0
  1  2  1  0
  3  2  1  6
  1  5  1  0
  3  6  1  0
  4  6  1  0
  3  7  1  0
  1  8  2  0
  5  9  2  0
  5 10  1  0
  7 11  1  0
  7 12  1  0
  4 13  1  0
 11 13  1  0
  4 14  1  0
 12 14  1  0
 10 16  2  0
 15 16  1  0
  9 17  1  0
 15 17  2  0
 15 18  1  0
M  END