
  SciTegic02271514372D

 65 68  0  0  0  0            999 V2000
   11.5970   -8.8102    0.0000 C   0  0  1  0  0  0
   11.5747   -7.9921    0.0000 C   0  0
   12.2713   -7.5626    0.0000 C   0  0
   20.8408  -10.0445    0.0000 O   0  0
   18.7057   -8.8112    0.0000 C   0  0
   20.8408   -9.2237    0.0000 C   0  0
   12.3084  -10.0445    0.0000 O   0  0
   17.9939   -9.2237    0.0000 C   0  0  2  0  0  0
   15.1553   -9.2237    0.0000 N   0  0
   10.1781   -8.8124    0.0000 C   0  0
   14.4436   -8.8112    0.0000 C   0  0
   13.7277  -10.0445    0.0000 C   0  0
   17.2822   -8.8112    0.0000 N   0  0
   20.1291   -8.8112    0.0000 C   0  0  1  0  0  0
   14.4422  -11.2738    0.0000 C   0  0
   18.7043  -11.2738    0.0000 C   0  0
   16.5746  -10.0445    0.0000 O   0  0
    9.4684   -9.2261    0.0000 O   0  0
   21.5484   -8.8112    0.0000 O   0  0
   17.9939  -10.0445    0.0000 C   0  0
   15.8629   -7.9903    0.0000 C   0  0
   15.1525  -10.0445    0.0000 C   0  0
   19.4146  -10.0445    0.0000 C   0  0
   13.7277   -9.2237    0.0000 C   0  0  1  0  0  0
   14.4436   -7.9903    0.0000 O   0  0
    8.7574   -8.8148    0.0000 C   0  0
   14.4422  -10.4529    0.0000 C   0  0
   10.1767   -7.9915    0.0000 O   0  0
   12.3084   -9.2237    0.0000 C   0  0
   19.4174   -9.2237    0.0000 N   0  0
    8.0436   -9.2285    0.0000 C   0  0
   15.8629   -8.8112    0.0000 C   0  0  1  0  0  0
   18.7057   -7.9903    0.0000 O   0  0
   16.5746   -9.2237    0.0000 C   0  0
    8.0394   -8.4027    0.0000 C   0  0
   13.0160   -8.8112    0.0000 N   0  0
    8.7560   -7.9939    0.0000 C   0  0
   10.8891   -9.2237    0.0000 N   0  0
   18.7043  -10.4529    0.0000 C   0  0
   12.9894   -7.9543    0.0000 C   0  0
   13.6856   -7.5254    0.0000 C   0  0
   13.6623   -6.7065    0.0000 C   0  0
   12.9370   -6.3183    0.0000 C   0  0
   12.2439   -6.7494    0.0000 C   0  0
   16.5706   -7.5817    0.0000 C   0  0
   17.2780   -7.9930    0.0000 C   0  0
   17.9852   -7.5851    0.0000 C   0  0
   17.9857   -6.7670    0.0000 C   0  0
   17.2730   -6.3586    0.0000 C   0  0
   16.5687   -6.7689    0.0000 C   0  0
   20.1291   -7.9940    0.0000 C   0  0
   20.8368   -7.5854    0.0000 C   0  0
   21.5396   -7.9972    0.0000 C   0  0
   22.2469   -7.5893    0.0000 C   0  0
   22.2473   -6.7713    0.0000 C   0  0
   21.5346   -6.3628    0.0000 C   0  0
   20.8303   -6.7731    0.0000 C   0  0
   14.3573   -6.2767    0.0000 C   0  0
   15.0771   -6.6637    0.0000 O   0  0
   14.3326   -5.4599    0.0000 C   0  0
   15.0262   -5.0327    0.0000 C   0  0
   15.0018   -4.2166    0.0000 C   0  0
   14.2815   -3.8288    0.0000 C   0  0
   13.5843   -4.2631    0.0000 C   0  0
   13.6121   -5.0777    0.0000 C   0  0
  1  2  1  0
  2  3  1  0
  6 19  1  0
 39 16  1  0
 27 15  1  0
 34 13  1  0
 29  7  2  0
 24 11  1  0
 26 37  1  0
 29 36  1  0
 26 31  1  0
 27 22  1  0
  8  5  1  0
 13  8  1  0
 26 35  1  0
 39 23  1  0
  8 20  1  1
 10 18  1  0
  9 32  1  0
 30 14  1  0
 18 26  1  0
 12 27  1  0
 14  6  1  1
 24 12  1  1
  5 30  1  0
 11  9  1  0
  5 33  2  0
 32 21  1  0
 11 25  2  0
 10 28  2  0
 20 39  1  0
 32 34  1  1
 38  1  1  0
  1 29  1  1
 36 24  1  0
 34 17  2  0
 38 10  1  0
  6  4  2  0
  3 40  2  0
 40 41  1  0
 41 42  2  0
 42 43  1  0
 43 44  2  0
 44  3  1  0
 21 45  1  0
 45 46  2  0
 46 47  1  0
 47 48  1  0
 48 49  1  0
 49 50  1  0
 50 45  1  0
 14 51  1  0
 51 52  1  0
 52 53  1  0
 53 54  1  0
 54 55  1  0
 55 56  1  0
 56 57  1  0
 57 52  1  0
 42 58  1  0
 58 59  2  0
 58 60  1  0
 60 61  2  0
 61 62  1  0
 62 63  2  0
 63 64  1  0
 64 65  2  0
 65 60  1  0
M  END