
          11280715492D 1   1.00000     0.00000     0

 63 68  0     1  0            999 V2000
   -1.9356   -3.0524    0.0000 C   0  0  2  0  0  0           0  0  0
   -2.6541   -2.6658    0.0000 C   0  0  2  0  0  0           0  0  0
   -3.3543   -3.0983    0.0000 C   0  0  1  0  0  0           0  0  0
   -3.3296   -3.9208    0.0000 C   0  0  1  0  0  0           0  0  0
   -2.6093   -4.3211    0.0000 C   0  0  2  0  0  0           0  0  0
   -1.9070   -3.8795    0.0000 O   0  0  0  0  0  0           0  0  0
   -1.2321   -2.6127    0.0000 C   0  0  0  0  0  0           0  0  0
   -2.6837   -1.8345    0.0000 O   0  0  0  0  0  0           0  0  0
   -4.0967   -2.7056    0.0000 O   0  0  0  0  0  0           0  0  0
   -4.0449   -4.3539    0.0000 O   0  0  0  0  0  0           0  0  0
   -2.5841   -5.1482    0.0000 O   0  0  0  0  0  0           0  0  0
   -1.8610   -5.5457    0.0000 C   0  0  2  0  0  0           0  0  0
   -1.8345   -6.3673    0.0000 C   0  0  1  0  0  0           0  0  0
   -1.1080   -6.7546    0.0000 C   0  0  2  0  0  0           0  0  0
   -0.4082   -6.3195    0.0000 O   0  0  0  0  0  0           0  0  0
   -0.4313   -5.4912    0.0000 C   0  0  1  0  0  0           0  0  0
   -1.1580   -5.1030    0.0000 C   0  0  1  0  0  0           0  0  0
   -1.0812   -7.5860    0.0000 O   0  0  0  0  0  0           0  0  0
   -2.5364   -6.8019    0.0000 O   0  0  0  0  0  0           0  0  0
    0.2724   -5.0590    0.0000 C   0  0  0  0  0  0           0  0  0
   -1.1845   -4.2763    0.0000 O   0  0  0  0  0  0           0  0  0
    1.0699   -7.9249    0.0000 C   0  0  2  0  0  0           0  0  0
    0.3462   -7.5343    0.0000 C   0  0  2  0  0  0           0  0  0
   -0.3535   -7.9714    0.0000 C   0  0  1  0  0  0           0  0  0
   -0.3275   -8.8031    0.0000 C   0  0  1  0  0  0           0  0  0
    0.3955   -9.1892    0.0000 C   0  0  2  0  0  0           0  0  0
    1.0989   -8.7566    0.0000 O   0  0  0  0  0  0           0  0  0
    1.7727   -7.4807    0.0000 C   0  0  0  0  0  0           0  0  0
    0.3170   -6.7076    0.0000 O   0  0  0  0  0  0           0  0  0
   -1.0326   -9.2440    0.0000 O   0  0  0  0  0  0           0  0  0
    0.4259  -10.0201    0.0000 O   0  0  0  0  0  0           0  0  0
    1.1477  -10.4086    0.0000 C   0  0  2  0  0  0           0  0  0
    1.1742  -11.2300    0.0000 C   0  0  1  0  0  0           0  0  0
    1.9013  -11.6220    0.0000 C   0  0  2  0  0  0           0  0  0
    2.6016  -11.1915    0.0000 O   0  0  0  0  0  0           0  0  0
    2.5740  -10.3637    0.0000 C   0  0  1  0  0  0           0  0  0
    1.8518   -9.9750    0.0000 C   0  0  1  0  0  0           0  0  0
    1.9276  -12.4488    0.0000 O   0  0  0  0  0  0           0  0  0
    0.4723  -11.6648    0.0000 O   0  0  0  0  0  0           0  0  0
    3.2817   -9.9264    0.0000 C   0  0  0  0  0  0           0  0  0
    1.8247   -9.1436    0.0000 O   0  0  0  0  0  0           0  0  0
    2.6525  -12.8397    0.0000 C   0  0  2  0  0  0           0  0  0
    2.6807  -13.6617    0.0000 C   0  0  2  0  0  0           0  0  0
    3.4059  -14.0523    0.0000 O   0  0  0  0  0  0           0  0  0
    4.1075  -13.6200    0.0000 C   0  0  1  0  0  0           0  0  0
    4.0788  -12.7927    0.0000 C   0  0  2  0  0  0           0  0  0
    3.3542  -12.4059    0.0000 C   0  0  2  0  0  0           0  0  0
    3.3289  -11.5745    0.0000 O   0  0  0  0  0  0           0  0  0
    4.7838  -12.3588    0.0000 O   0  0  0  0  0  0           0  0  0
    1.9757  -14.0992    0.0000 O   0  0  0  0  0  0           0  0  0
    4.8321  -14.0233    0.0000 C   0  0  0  0  0  0           0  0  0
    4.8512  -14.8554    0.0000 O   0  0  0  0  0  0           0  0  0
    1.2499  -13.7084    0.0000 C   0  0  0  0  0  0           0  0  0
    0.5489  -14.1408    0.0000 C   0  0  0  0  0  0           0  0  0
   -0.1786  -13.7555    0.0000 C   0  0  0  0  0  0           0  0  0
   -0.8793  -14.1871    0.0000 C   0  0  0  0  0  0           0  0  0
   -0.8531  -15.0145    0.0000 C   0  0  0  0  0  0           0  0  0
   -0.1251  -15.4043    0.0000 C   0  0  0  0  0  0           0  0  0
    0.5761  -14.9651    0.0000 C   0  0  0  0  0  0           0  0  0
    1.7452   -6.6510    0.0000 O   0  0  0  0  0  0           0  0  0
    3.2560   -9.1029    0.0000 O   0  0  0  0  0  0           0  0  0
    0.2467   -4.2333    0.0000 O   0  0  0  0  0  0           0  0  0
   -1.2539   -1.7893    0.0000 O   0  0  0  0  0  0           0  0  0
  1  2  1  0     0  0
 25 30  1  1     0  0
  2  8  1  6     0  0
 26 31  1  6     0  0
 12 17  1  0     0  0
 32 31  1  1     0  0
 32 33  1  0     0  0
 13 14  1  0     0  0
 14 15  1  0     0  0
 15 16  1  0     0  0
 16 17  1  0     0  0
  1  6  1  0     0  0
 32 37  1  0     0  0
 33 34  1  0     0  0
 34 35  1  0     0  0
 35 36  1  0     0  0
 36 37  1  0     0  0
 14 18  1  6     0  0
 34 38  1  6     0  0
  3  9  1  1     0  0
 33 39  1  1     0  0
 13 19  1  1     0  0
 36 40  1  1     0  0
  2  3  1  0     0  0
 37 41  1  6     0  0
 28 60  1  0     0  0
 16 20  1  1     0  0
 42 38  1  1     0  0
 42 43  1  0     0  0
  4 10  1  1     0  0
 17 21  1  6     0  0
 22 23  1  0     0  0
  3  4  1  0     0  0
  5 11  1  6     0  0
 42 47  1  0     0  0
 43 44  1  0     0  0
 44 45  1  0     0  0
 45 46  1  0     0  0
 46 47  1  0     0  0
 40 61  1  0     0  0
  4  5  1  0     0  0
 47 48  1  1     0  0
 12 11  1  1     0  0
 46 49  1  6     0  0
 12 13  1  0     0  0
 43 50  1  6     0  0
  5  6  1  0     0  0
 45 51  1  1     0  0
 22 27  1  0     0  0
 20 62  1  0     0  0
 51 52  1  0     0  0
 23 24  1  0     0  0
 50 53  1  0     0  0
 24 25  1  0     0  0
 53 54  1  0     0  0
 25 26  1  0     0  0
 54 55  2  0     0  0
 26 27  1  0     0  0
 55 56  1  0     0  0
  7 63  1  0     0  0
 56 57  2  0     0  0
 22 28  1  1     0  0
 57 58  1  0     0  0
  1  7  1  1     0  0
 58 59  2  0     0  0
 59 54  1  0     0  0
 23 29  1  6     0  0
 24 18  1  1     0  0
M  END