
  SciTegic01161211232D

 22 23  0  0  0  0            999 V2000
   21.2273  -21.9542    0.0000 C   0  0
   22.0509  -21.9554    0.0000 C   0  0
   22.4620  -21.2437    0.0000 C   0  0
   22.0505  -20.5306    0.0000 C   0  0
   21.2237  -20.5334    0.0000 C   0  0
   20.8164  -21.2455    0.0000 C   0  0
   20.8082  -19.8201    0.0000 Cl  0  0
   22.4631  -22.6706    0.0000 N   0  0
   23.2885  -22.6712    0.0000 C   0  0
   23.7007  -23.3864    0.0000 N   0  0
   23.7018  -21.9567    0.0000 N   0  0
   24.5273  -21.9574    0.0000 C   0  0
   24.9406  -21.2427    0.0000 N   0  0
   24.9394  -22.6725    0.0000 N   0  0
   20.8147  -22.6691    0.0000 C   0  0
   19.9893  -22.6693    0.0000 C   0  0
   21.2277  -23.3840    0.0000 O   0  0
   19.5788  -21.9537    0.0000 C   0  0
   18.7541  -21.9535    0.0000 C   0  0
   18.3407  -22.6690    0.0000 C   0  0
   18.7580  -23.3862    0.0000 C   0  0
   19.5814  -23.3828    0.0000 C   0  0
  9 11  1  0
  5  6  2  0
 11 12  1  0
  6  1  1  0
 12 13  2  0
  1  2  2  0
 12 14  1  0
  5  7  1  0
  1 15  1  0
  3  4  2  0
 15 16  1  0
  2  8  1  0
 15 17  2  0
 16 18  2  0
  8  9  1  0
 18 19  1  0
  4  5  1  0
 19 20  2  0
  9 10  2  0
 20 21  1  0
  2  3  1  0
 21 22  2  0
 22 16  1  0
M  END