
  SciTegic04301217312D

 35 37  0  0  0  0            999 V2000
   -2.6764   -9.0500    0.0000 C   0  0
   -2.6776   -9.8773    0.0000 C   0  0
   -1.9628  -10.2902    0.0000 C   0  0
   -1.9646   -8.6372    0.0000 C   0  0
   -1.2492   -9.0463    0.0000 C   0  0
   -1.2504   -9.8794    0.0000 C   0  0
   -0.5335  -10.2947    0.0000 N   0  0
   -0.5311   -8.6285    0.0000 N   0  0
    0.1904   -9.0484    0.0000 C   0  0
    0.1873   -9.8835    0.0000 C   0  0
    0.9050  -10.3014    0.0000 N   0  0
    1.6304   -9.8888    0.0000 C   0  0
    1.6335   -9.0537    0.0000 N   0  0
    0.9112   -8.6312    0.0000 C   0  0
    0.9130   -7.8062    0.0000 O   0  0
    2.3428  -10.3049    0.0000 O   0  0
   -3.3910   -8.6376    0.0000 C   0  0
   -3.3924  -10.2893    0.0000 C   0  0
   -0.5363  -11.1197    0.0000 C   0  0
   -1.2521  -11.5298    0.0000 C   0  0  1  0  0  0
   -1.2549  -12.3548    0.0000 C   0  0  1  0  0  0
   -1.9707  -12.7649    0.0000 C   0  0  1  0  0  0
   -1.9735  -13.5899    0.0000 C   0  0
   -1.2604  -14.0048    0.0000 O   0  0
   -1.9652  -11.1149    0.0000 O   0  0
   -2.6838  -12.3500    0.0000 O   0  0
   -0.5418  -12.7697    0.0000 O   0  0
    2.3499   -8.6445    0.0000 C   0  0
    3.0624   -9.0603    0.0000 C   0  0
    3.7788   -8.6512    0.0000 N   0  0
    3.0586   -9.8853    0.0000 O   0  0
    4.4913   -9.0670    0.0000 C   0  0
    5.2077   -8.6579    0.0000 C   0  0
    5.9203   -9.0737    0.0000 C   0  0
    6.6366   -8.6645    0.0000 N   0  0
  6  7  1  0
  1 17  1  0
  7 10  1  0
  2 18  1  0
  9  8  2  0
  7 19  1  0
  9 10  1  0
 19 20  1  0
  5  4  2  0
 20 21  1  0
  4  1  1  0
 21 22  1  0
  5  6  1  0
 22 23  1  0
 23 24  1  0
  2  3  1  0
 20 25  1  1
  3  6  2  0
 22 26  1  1
  9 14  1  0
 21 27  1  6
 10 11  2  0
 13 28  1  0
 11 12  1  0
 28 29  1  0
 12 13  1  0
 29 30  1  0
 13 14  1  0
 29 31  2  0
  1  2  2  0
 30 32  1  0
 14 15  2  0
 32 33  1  0
  5  8  1  0
 33 34  1  0
 12 16  2  0
 34 35  1  0
M  END