
  SciTegic09261414532D

 46 53  0  0  0  0            999 V2000
    1.0221  -19.1255    0.0000 C   0  0
    1.0210  -19.9451    0.0000 C   0  0
    1.7290  -20.3540    0.0000 C   0  0
    1.7272  -18.7167    0.0000 C   0  0
    2.4359  -19.1219    0.0000 C   0  0
    2.4361  -19.9451    0.0000 C   0  0
    3.2191  -20.1993    0.0000 N   0  0
    3.7028  -19.5331    0.0000 C   0  0
    3.2187  -18.8674    0.0000 N   0  0
    3.4718  -20.9764    0.0000 C   0  0
    4.5168  -19.5314    0.0000 C   0  0
    4.9250  -20.2406    0.0000 C   0  0
    5.7414  -20.2407    0.0000 C   0  0
    6.1506  -19.5323    0.0000 C   0  0
    5.7374  -18.8224    0.0000 C   0  0
    4.9223  -18.8258    0.0000 C   0  0
    6.9678  -19.5309    0.0000 O   0  0
    7.3776  -20.2380    0.0000 C   0  0
    8.1948  -20.2366    0.0000 C   0  0
    8.6045  -20.9436    0.0000 N   0  0
    8.2733  -21.6857    0.0000 C   0  0
    8.8811  -22.2321    0.0000 N   0  0
    9.4168  -21.0233    0.0000 C   0  0
    9.5844  -21.8196    0.0000 C   0  0
   10.3563  -22.0711    0.0000 C   0  0
   10.9613  -21.5273    0.0000 C   0  0
   10.7892  -20.7288    0.0000 C   0  0
   10.0175  -20.4811    0.0000 C   0  0
    7.5670  -22.0928    0.0000 C   0  0
    6.8604  -21.6801    0.0000 C   0  0
    6.1518  -22.0857    0.0000 C   0  0
    6.1486  -22.9038    0.0000 C   0  0
    6.8599  -23.3146    0.0000 C   0  0
    7.5656  -22.9067    0.0000 C   0  0
    2.9252  -21.5839    0.0000 C   0  0
    2.1276  -21.4128    0.0000 C   0  0
    1.5812  -22.0194    0.0000 C   0  0
    1.8338  -22.7975    0.0000 C   0  0
    2.6379  -22.9655    0.0000 C   0  0
    3.1808  -22.3575    0.0000 C   0  0
    8.6022  -19.5282    0.0000 C   0  0
    9.4178  -19.5299    0.0000 C   0  0
    9.8251  -18.8256    0.0000 C   0  0
    9.4188  -18.1162    0.0000 N   0  0
    8.6007  -18.1156    0.0000 C   0  0
    8.1888  -18.8244    0.0000 C   0  0
  1  2  2  0
  2  3  1  0
  3  6  2  0
  5  4  2  0
  4  1  1  0
  5  6  1  0
  6  7  1  0
  7  8  1  0
  8  9  2  0
  9  5  1  0
  7 10  1  0
 11 12  2  0
 12 13  1  0
 13 14  2  0
 14 15  1  0
 15 16  2  0
 16 11  1  0
  8 11  1  0
 14 17  1  0
 17 18  1  0
 18 19  1  0
 19 20  1  0
 20 21  1  0
 21 22  2  0
 22 24  1  0
 23 20  1  0
 23 24  2  0
 24 25  1  0
 25 26  2  0
 26 27  1  0
 27 28  2  0
 28 23  1  0
 29 30  2  0
 30 31  1  0
 31 32  2  0
 32 33  1  0
 33 34  2  0
 34 29  1  0
 21 29  1  0
 10 35  1  0
 35 36  2  0
 36 37  1  0
 37 38  2  0
 38 39  1  0
 39 40  2  0
 40 35  1  0
 19 41  1  0
 41 42  1  0
 41 46  1  0
 42 43  1  0
 43 44  1  0
 44 45  1  0
 45 46  1  0
M  END