
  SciTegic12011114592D

 39 44  0  0  0  0            999 V2000
   18.5288  -16.0538    0.0000 N   0  0
   19.2439  -15.6441    0.0000 C   0  0
   19.2468  -14.8182    0.0000 N   0  0
   18.5285  -14.4038    0.0000 C   0  0
   18.5280  -13.5788    0.0000 N   0  0
   19.2426  -13.1658    0.0000 C   0  0
   19.9570  -16.0590    0.0000 S   0  0
   20.6729  -15.6490    0.0000 C   0  0
   21.3817  -16.0670    0.0000 C   0  0
   22.0971  -15.6577    0.0000 C   0  0
   22.1004  -14.8318    0.0000 C   0  0
   21.3823  -14.4170    0.0000 C   0  0
   20.6698  -14.8288    0.0000 C   0  0
   22.8157  -14.4208    0.0000 N   0  0
   20.0284  -13.4139    0.0000 C   0  0
   20.5074  -12.7422    0.0000 C   0  0
   20.0167  -12.0791    0.0000 N   0  0
   19.2343  -12.3408    0.0000 N   0  0
   21.3324  -12.7350    0.0000 C   0  0
   17.0420  -14.5647    0.0000 C   0  0
   16.5609  -15.2258    0.0000 C   0  0
   17.0411  -15.8876    0.0000 C   0  0
   17.8189  -15.6354    0.0000 N   0  0
   17.8195  -14.8178    0.0000 C   0  0
   23.5293  -14.8348    0.0000 C   0  0
   24.2446  -14.4238    0.0000 C   0  0
   24.9582  -14.8382    0.0000 N   0  0
   23.5276  -15.6598    0.0000 O   0  0
   24.9496  -15.6586    0.0000 C   0  0
   25.7314  -15.9221    0.0000 C   0  0  1  0  0  0
   26.2235  -15.2599    0.0000 C   0  0  2  0  0  0
   25.7458  -14.5873    0.0000 C   0  0
   27.0485  -15.2688    0.0000 O   0  0
   25.9778  -16.7094    0.0000 O   0  0
   26.7829  -16.8897    0.0000 C   0  0
   27.1108  -17.6422    0.0000 C   0  0
   27.9322  -17.5649    0.0000 C   0  0
   28.1124  -16.7598    0.0000 C   0  0
   27.4024  -16.3397    0.0000 C   0  0
 18  6  2  0
  3  4  2  0
 16 19  1  0
 23 24  1  0
  8  9  2  0
  4 24  1  0
 21 22  2  0
  9 10  1  0
  1  2  2  0
 10 11  2  0
 20 21  1  0
 22 23  1  0
 24 20  2  0
  4  5  1  0
 14 25  1  0
 11 12  1  0
 25 26  1  0
 23  1  1  0
 26 27  1  0
 12 13  2  0
 25 28  2  0
 27 29  1  0
 13  8  1  0
  5  6  1  0
 11 14  1  0
 17 18  1  0
 29 30  1  0
 30 31  1  0
 31 32  1  0
 32 27  1  0
  2  3  1  0
 31 33  1  6
 15 16  2  0
 30 34  1  1
  2  7  1  0
 34 35  1  0
 35 36  1  0
  7  8  1  0
  6 15  1  0
 16 17  1  0
 36 37  1  0
 37 38  1  0
 38 39  1  0
 39 35  1  0
M  END