
          11280715242D 1   1.00000     0.00000     0

 45 50  0     0  0            999 V2000
    2.8542   -8.4792    0.0000 N   0  0  0  0  0  0           0  0  0
    3.4917   -7.9625    0.0000 C   0  0  0  0  0  0           0  0  0
    3.2042   -7.1917    0.0000 N   0  0  3  0  0  0           0  0  0
    2.3792   -7.2292    0.0000 N   0  0  0  0  0  0           0  0  0
    2.1625   -8.0292    0.0000 C   0  0  0  0  0  0           0  0  0
    7.3625   -5.7875    0.0000 C   0  0  0  0  0  0           0  0  0
    7.7667  -10.4292    0.0000 C   0  0  0  0  0  0           0  0  0
    7.7667   -9.6042    0.0000 C   0  0  0  0  0  0           0  0  0
    6.9500   -6.5000    0.0000 C   0  0  0  0  0  0           0  0  0
    7.0500  -10.8417    0.0000 C   0  0  0  0  0  0           0  0  0
    6.9500   -5.0667    0.0000 C   0  0  0  0  0  0           0  0  0
    4.2042   -8.3750    0.0000 S   0  0  0  0  0  0           0  0  0
    3.6542   -6.5000    0.0000 C   0  0  0  0  0  0           0  0  0
    6.1250   -6.5000    0.0000 C   0  0  0  0  0  0           0  0  0
    7.0542   -9.1917    0.0000 C   0  0  0  0  0  0           0  0  0
    6.3375  -10.4292    0.0000 O   0  0  0  0  0  0           0  0  0
    6.1250   -5.0667    0.0000 O   0  0  0  0  0  0           0  0  0
    1.3917   -8.3167    0.0000 C   0  0  0  0  0  0           0  0  0
    7.0500   -8.3667    0.0000 C   0  0  0  0  0  0           0  0  0
    5.7167   -5.7792    0.0000 C   0  0  0  0  0  0           0  0  0
    6.3375   -9.6042    0.0000 C   0  0  0  0  0  0           0  0  0
    5.7167   -7.2125    0.0000 C   0  0  0  0  0  0           0  0  0
    4.4792   -6.5000    0.0000 C   0  0  0  0  0  0           0  0  0
    4.9167   -7.9542    0.0000 C   0  0  0  0  0  0           0  0  0
    7.3625   -4.3542    0.0000 O   0  0  0  0  0  0           0  0  0
    7.0500  -11.6667    0.0000 O   0  0  0  0  0  0           0  0  0
    5.6292   -8.3667    0.0000 C   0  0  0  0  0  0           0  0  0
    4.8917   -5.7792    0.0000 C   0  0  0  0  0  0           0  0  0
    4.9000   -7.2167    0.0000 C   0  0  0  0  0  0           0  0  0
    6.3417   -7.9542    0.0000 C   0  0  0  0  0  0           0  0  0
    5.6292   -9.1917    0.0000 C   0  0  0  0  0  0           0  0  0
    1.2542   -9.1292    0.0000 C   0  0  0  0  0  0           0  0  0
    8.1792   -5.7875    0.0000 C   0  0  0  0  0  0           0  0  0
    8.4792  -10.8417    0.0000 C   0  0  0  0  0  0           0  0  0
    7.3625   -7.2125    0.0000 C   0  0  0  0  0  0           0  0  0
    8.4792   -9.1917    0.0000 C   0  0  0  0  0  0           0  0  0
    0.4875   -9.4250    0.0000 C   0  0  0  0  0  0           0  0  0
    1.9000   -9.6500    0.0000 C   0  0  0  0  0  0           0  0  0
    9.1917   -9.6042    0.0000 C   0  0  0  0  0  0           0  0  0
    8.5917   -6.4917    0.0000 C   0  0  0  0  0  0           0  0  0
    8.1875   -7.2042    0.0000 C   0  0  0  0  0  0           0  0  0
    9.1917  -10.4292    0.0000 C   0  0  0  0  0  0           0  0  0
    1.7667  -10.4625    0.0000 C   0  0  0  0  0  0           0  0  0
    0.3542  -10.2375    0.0000 C   0  0  0  0  0  0           0  0  0
    0.9917  -10.7625    0.0000 C   0  0  0  0  0  0           0  0  0
  2  1  2  0     0  0
  3  2  1  0     0  0
  4  5  2  0     0  0
  5  1  1  0     0  0
  6  9  1  0     0  0
  7  8  2  0     0  0
  8 15  1  0     0  0
  9 14  1  0     0  0
 10  7  1  0     0  0
 11  6  1  0     0  0
 12  2  1  0     0  0
 13  3  1  0     0  0
 14 22  1  0     0  0
 15 21  2  0     0  0
 16 10  2  0     0  0
 17 11  2  0     0  0
 18  5  1  0     0  0
 19 30  2  0     0  0
 20 28  1  0     0  0
 21 31  1  0     0  0
 22 29  2  0     0  0
 23 13  1  0     0  0
 24 12  1  0     0  0
 25 11  1  0     0  0
 26 10  1  0     0  0
 27 24  1  0     0  0
 28 23  2  0     0  0
 29 23  1  0     0  0
 30 27  1  0     0  0
 31 27  2  0     0  0
 32 18  1  0     0  0
 33  6  2  0     0  0
 34  7  1  0     0  0
 35  9  2  0     0  0
 36  8  1  0     0  0
 37 32  2  0     0  0
 38 32  1  0     0  0
 39 36  2  0     0  0
 40 41  2  0     0  0
 41 35  1  0     0  0
 42 39  1  0     0  0
 43 38  2  0     0  0
 44 37  1  0     0  0
 45 43  1  0     0  0
  4  3  1  0     0  0
 45 44  2  0     0  0
 19 15  1  0     0  0
 20 14  2  0     0  0
 42 34  2  0     0  0
 40 33  1  0     0  0
M  END