
  SciTegic04191613082D

182192  0  0  1  0            999 V2000
   -7.0704    3.2039    0.0000 N   0  0
   -7.4820    1.7614    0.0000 C   0  0  2  0  0  0
   -7.5947    0.2656    0.0000 C   0  0
   -8.7943    0.2343    0.0000 O   0  0
   -7.4040   -1.2222    0.0000 N   0  0
   -6.9178   -2.6412    0.0000 C   0  0  1  0  0  0
   -7.9946   -3.7035    0.0000 C   0  0
   -9.4418   -3.3061    0.0000 C   0  0
  -10.5243   -4.3612    0.0000 C   0  0
  -11.9675   -3.9633    0.0000 C   0  0
  -12.3447   -2.5144    0.0000 C   0  0
  -13.7880   -2.1165    0.0000 C   0  0
  -14.8540   -3.1676    0.0000 C   0  0
  -14.4767   -4.6166    0.0000 C   0  0
  -13.0335   -5.0145    0.0000 C   0  0
  -11.2788   -1.4632    0.0000 C   0  0
   -9.8179   -1.8565    0.0000 C   0  0
   -6.1558   -3.9333    0.0000 C   0  0
   -5.1494   -5.0455    0.0000 N   0  0
   -3.9397   -5.9324    0.0000 C   0  0  1  0  0  0
   -4.7085   -7.2350    0.0000 C   0  0
   -4.4630   -8.7156    0.0000 C   0  0
   -5.6219   -9.6693    0.0000 C   0  0
   -5.3764  -11.1499    0.0000 N   0  0
   -6.5353  -12.1035    0.0000 C   0  0
   -6.3390  -13.2873    0.0000 N   0  0
   -7.6588  -11.6819    0.0000 N   0  0
   -2.5762   -6.5576    0.0000 C   0  0
   -1.1147   -6.8955    0.0000 N   0  0
    0.3848   -6.9324    0.0000 C   0  0  1  0  0  0
   -0.0248   -8.3884    0.0000 C   0  0
   -1.4789   -8.7597    0.0000 C   0  0
   -1.8854  -10.2045    0.0000 C   0  0
   -3.3395  -10.5758    0.0000 N   0  0
   -3.7460  -12.0205    0.0000 C   0  0
   -4.9087  -12.3174    0.0000 N   0  0
   -2.9078  -12.8793    0.0000 N   0  0
    1.8611   -6.6666    0.0000 C   0  0
    2.1369   -7.6278    0.0000 O   0  0
    3.2536   -6.1091    0.0000 N   0  0
    4.5055   -5.2827    0.0000 C   0  0  1  0  0  0
    5.0011   -6.7117    0.0000 C   0  0
    6.2888   -7.4827    0.0000 C   0  0
    6.2659   -8.9833    0.0000 C   0  0
    7.5536   -9.7542    0.0000 N   0  0
    7.5308  -11.2549    0.0000 C   0  0
    8.5604  -11.8713    0.0000 N   0  0
    6.4824  -11.8387    0.0000 N   0  0
    5.5653   -4.2212    0.0000 C   0  0
    6.3898   -2.9681    0.0000 N   0  0
    6.9451   -1.5747    0.0000 C   0  0  1  0  0  0
    8.3988   -1.9925    0.0000 C   0  0
    8.7619   -3.4487    0.0000 C   0  0
   10.2044   -3.8633    0.0000 C   0  0
   10.5675   -5.3195    0.0000 N   0  0
   12.0099   -5.7341    0.0000 C   0  0
   12.8734   -4.9008    0.0000 N   0  0
   12.3003   -6.8984    0.0000 N   0  0
    7.2086   -0.0980    0.0000 C   0  0
    7.1694    1.4015    0.0000 N   0  0
    6.8292    2.8624    0.0000 C   0  0  2  0  0  0
    8.3416    2.8367    0.0000 C   0  0
    8.9235    1.7872    0.0000 O   0  0
    9.1148    4.1230    0.0000 N   0  0
   10.6154    4.0975    0.0000 C   0  0  2  0  0  0
   11.3459    2.7865    0.0000 C   0  0
   12.5457    2.7674    0.0000 O   0  0
   10.7298    1.7567    0.0000 O   0  0
   11.3886    5.3838    0.0000 C   0  0
   12.8892    5.3584    0.0000 C   0  0
   13.6624    6.6447    0.0000 C   0  0
   15.1630    6.6192    0.0000 C   0  0
   15.7812    7.6477    0.0000 N   0  0
    6.2019    4.2249    0.0000 C   0  0
    5.3132    5.4333    0.0000 N   0  0
    4.1994    6.4380    0.0000 C   0  0
    4.7906    7.2445    0.0000 O   0  0
    2.9061    7.1979    0.0000 C   0  0
    3.5142    7.1498    0.0000 C   0  0
    2.9324    7.3249    0.0000 C   0  0
    1.4932    7.7475    0.0000 C   0  0
    0.0000    7.8901    0.0000 C   0  0
    1.4864    7.6820    0.0000 C   0  0
   -1.4932    7.7475    0.0000 C   0  0
   -2.9325    7.3249    0.0000 N   0  0
   -4.2657    6.6375    0.0000 C   0  0
   -5.4448    5.7103    0.0000 C   0  0  2  0  0  0
   -6.4271    4.5767    0.0000 N   0  0
   -7.1771    3.2776    0.0000 C   0  0
   -7.6677    1.8601    0.0000 C   0  0  1  0  0  0
   -8.6395    2.0959    0.0000 C   0  0
   -7.8812    0.3754    0.0000 N   0  0
   -7.8098   -1.1229    0.0000 C   0  0
   -8.9976   -1.2937    0.0000 O   0  0
   -7.4561   -2.5806    0.0000 C   0  0  2  0  0  0
   -8.4011   -2.9077    0.0000 C   0  0
   -6.8330   -3.9451    0.0000 N   0  0
   -5.9629   -5.1669    0.0000 C   0  0
   -4.8773   -6.2020    0.0000 C   0  0  1  0  0  0
   -3.6154   -7.0130    0.0000 N   0  0
   -2.2229   -7.5705    0.0000 C   0  0
   -2.5609   -8.7219    0.0000 O   0  0
   -0.7500   -7.8544    0.0000 C   0  0  1  0  0  0
    0.7500   -7.8544    0.0000 N   0  0
    2.2229   -7.5705    0.0000 C   0  0
    3.6155   -7.0130    0.0000 C   0  0  2  0  0  0
    4.8773   -6.2020    0.0000 N   0  0
    6.2160   -6.8978    0.0000 C   0  0
    6.2874   -8.3961    0.0000 C   0  0
    5.0255   -9.2071    0.0000 C   0  0
    3.6923   -8.5197    0.0000 C   0  0
    5.9629   -5.1669    0.0000 C   0  0
    6.8330   -3.9450    0.0000 C   0  0  2  0  0  0
    7.4561   -2.5806    0.0000 N   0  0
    7.8098   -1.1229    0.0000 C   0  0
    8.9976   -1.2936    0.0000 O   0  0
    7.8812    0.3754    0.0000 C   0  0  2  0  0  0
    9.2776    0.9572    0.0000 C   0  0
   10.4707    0.0467    0.0000 C   0  0
   11.8562    0.6215    0.0000 C   0  0
   13.0468   -0.2909    0.0000 C   0  0
   12.8519   -1.7782    0.0000 C   0  0
   13.8044   -2.5081    0.0000 F   0  0
   11.4665   -2.3531    0.0000 C   0  0
   10.2759   -1.4407    0.0000 C   0  0
    7.6677    1.8602    0.0000 N   0  0
    7.1771    3.2777    0.0000 C   0  0
    6.4271    4.5767    0.0000 C   0  0  2  0  0  0
    5.4448    5.7103    0.0000 N   0  0
    4.2657    6.6376    0.0000 C   0  0
    4.8063    7.4788    0.0000 O   0  0
    7.6610    5.4518    0.0000 C   0  0
    7.5222    6.9462    0.0000 C   0  0
    8.7444    7.8157    0.0000 C   0  0
    8.6026    9.3090    0.0000 C   0  0
    7.2385    9.9328    0.0000 C   0  0
    7.1250   11.1275    0.0000 F   0  0
    6.0162    9.0634    0.0000 C   0  0
    6.1580    7.5701    0.0000 C   0  0
    8.0867    3.6931    0.0000 O   0  0
    8.1416   -4.7039    0.0000 C   0  0  1  0  0  0
    8.1401   -5.9039    0.0000 O   0  0
    9.1818   -4.1056    0.0000 C   0  0
    6.8698   -5.9527    0.0000 O   0  0
    2.5610   -8.7219    0.0000 O   0  0
   -0.8967   -9.3600    0.0000 C   0  0
    0.3236  -10.2336    0.0000 C   0  0
    0.1809  -11.7244    0.0000 C   0  0
    1.4189  -12.5939    0.0000 C   0  0
    2.7803  -11.9711    0.0000 C   0  0
    4.0002  -12.8389    0.0000 C   0  0
    5.3616  -12.2161    0.0000 C   0  0
    5.5030  -10.7255    0.0000 C   0  0
    4.2831   -9.8577    0.0000 C   0  0
    2.9218  -10.4805    0.0000 C   0  0
    1.7019   -9.6127    0.0000 C   0  0
   -5.8147   -7.3893    0.0000 C   0  0
   -7.3000   -7.1738    0.0000 C   0  0
   -8.2300   -8.3517    0.0000 C   0  0
   -9.7153   -8.1362    0.0000 N   0  0
  -10.6453   -9.3141    0.0000 C   0  0
  -11.8329   -9.1418    0.0000 N   0  0
  -10.2011  -10.4289    0.0000 N   0  0
   -6.8698   -5.9528    0.0000 O   0  0
   -8.2687    3.7761    0.0000 O   0  0
   -6.3770    4.5339    0.0000 C   0  0
   -7.3838    5.1869    0.0000 O   0  0
   -1.7204    8.9258    0.0000 O   0  0
    8.4052   -0.1882    0.0000 O   0  0
    6.4959   -4.9788    0.0000 O   0  0
   -2.9634   -7.6934    0.0000 O   0  0
   -7.1225   -4.6443    0.0000 O   0  0
   -8.9726    1.5046    0.0000 C   0  0
   -9.9334    2.6575    0.0000 C   0  0
  -11.4121    2.4051    0.0000 C   0  0
  -12.3701    3.5593    0.0000 C   0  0
  -11.8495    4.9661    0.0000 C   0  0
  -10.3709    5.2186    0.0000 C   0  0
   -9.4129    4.0644    0.0000 C   0  0
    7.7858   -3.6415    0.0000 H   0  0
    3.0762   -7.8551    0.0000 H   0  0
   -6.0829    4.9404    0.0000 H   0  0
  1  2  1  0
  2  3  1  0
  3  4  2  0
  3  5  1  0
  5  6  1  0
  6  7  1  6
  7  8  1  0
  8  9  2  0
  9 10  1  0
 11 10  1  0
 12 11  2  0
 13 12  1  0
 14 13  2  0
 15 14  1  0
 10 15  2  0
 11 16  1  0
 16 17  2  0
 17  8  1  0
  6 18  1  0
 18 19  1  0
 19 20  1  0
 20 21  1  6
 21 22  1  0
 22 23  1  0
 23 24  1  0
 24 25  1  0
 25 26  2  0
 25 27  1  0
 20 28  1  0
 28 29  1  0
 29 30  1  0
 30 31  1  6
 31 32  1  0
 32 33  1  0
 33 34  1  0
 34 35  1  0
 35 36  2  0
 35 37  1  0
 30 38  1  0
 38 39  2  0
 38 40  1  0
 41 40  1  0
 41 42  1  6
 42 43  1  0
 43 44  1  0
 44 45  1  0
 45 46  1  0
 46 47  2  0
 46 48  1  0
 49 41  1  0
 50 49  1  0
 51 50  1  0
 51 52  1  6
 52 53  1  0
 53 54  1  0
 54 55  1  0
 55 56  1  0
 56 57  1  0
 56 58  2  0
 59 51  1  0
 60 59  1  0
 61 60  1  0
 61 62  1  1
 62 63  2  0
 62 64  1  0
 65 64  1  1
 65 66  1  0
 66 67  2  0
 66 68  1  0
 65 69  1  0
 69 70  1  0
 70 71  1  0
 71 72  1  0
 72 73  1  0
 61 74  1  0
 75 74  1  0
 76 75  1  0
 76 77  2  0
 78 76  1  0
 79 78  1  0
 80 79  2  0
 81 80  1  0
 82 81  2  0
 83 82  1  0
 78 83  2  0
 82 84  1  0
 84 85  1  0
 86 85  1  0
 87 86  1  0
 88 87  1  0
 89 88  1  0
 90 89  1  0
 90 91  1  6
 92 90  1  0
 93 92  1  0
 93 94  2  0
 95 93  1  0
 95 96  1  1
 97 95  1  0
 98 97  1  0
 99 98  1  0
100 99  1  0
101100  1  0
101102  2  0
103101  1  0
103104  1  0
104105  1  0
106105  1  0
106107  1  0
108107  1  0
109108  1  0
110109  1  0
111110  1  0
106111  1  0
107112  1  0
112113  1  0
113114  1  0
114115  1  0
115116  2  0
115117  1  0
117118  1  1
118119  1  0
120119  1  0
121120  2  0
122121  1  0
122123  1  0
124122  2  0
125124  1  0
119125  2  0
117126  1  0
126127  1  0
128127  1  0
129128  1  0
129130  1  0
130 80  1  0
130131  2  0
128132  1  6
132133  1  0
134133  1  0
135134  2  0
136135  1  0
136137  1  0
138136  2  0
139138  1  0
133139  2  0
127140  2  0
113141  1  0
141142  1  6
141143  1  0
112144  2  0
105145  2  0
103146  1  1
146147  1  0
148147  1  0
149148  2  0
150149  1  0
151150  2  0
152151  1  0
153152  2  0
154153  1  0
155154  2  0
150155  1  0
156155  1  0
147156  2  0
 99157  1  1
157158  1  0
158159  1  0
159160  1  0
160161  1  0
161162  2  0
161163  1  0
 98164  2  0
 89165  2  0
 87166  1  0
166167  2  0
166  1  1  0
 84168  2  0
 59169  2  0
 49170  2  0
 28171  2  0
 18172  2  0
  2173  1  6
173174  1  0
174175  2  0
175176  1  0
176177  2  0
177178  1  0
178179  2  0
179174  1  0
113180  1  1
106181  1  1
 87182  1  6
M  END