
          11280715462D 1   1.00000     0.00000     0

 24 26  0     0  0            999 V2000
    1.7542   -2.4042    0.0000 N   0  0  3  0  0  0           0  0  0
    6.0625   -1.5042    0.0000 C   0  0  0  0  0  0           0  0  0
    3.1875   -1.5625    0.0000 N   0  0  3  0  0  0           0  0  0
    1.0417   -2.8167    0.0000 C   0  0  0  0  0  0           0  0  0
    2.4667   -2.8000    0.0000 C   0  0  0  0  0  0           0  0  0
    1.7542   -1.5625    0.0000 C   0  0  0  0  0  0           0  0  0
    6.0792   -2.3375    0.0000 O   0  0  0  0  0  0           0  0  0
    8.1875   -0.2417    0.0000 N   0  0  0  0  0  0           0  0  0
    6.7667   -1.0875    0.0000 C   0  0  0  0  0  0           0  0  0
    5.3375   -1.1042    0.0000 N   0  0  0  0  0  0           0  0  0
    0.3250   -2.4042    0.0000 C   0  0  0  0  0  0           0  0  0
    1.0500   -3.6417    0.0000 C   0  0  0  0  0  0           0  0  0
    2.4667   -1.1417    0.0000 C   0  0  0  0  0  0           0  0  0
    3.1875   -2.4042    0.0000 C   0  0  0  0  0  0           0  0  0
    0.3375   -4.0667    0.0000 C   0  0  0  0  0  0           0  0  0
   -0.3958   -2.8250    0.0000 C   0  0  0  0  0  0           0  0  0
   -0.3875   -3.6542    0.0000 C   0  0  0  0  0  0           0  0  0
    4.6250   -1.5292    0.0000 C   0  0  0  0  0  0           0  0  0
    3.9167   -1.1375    0.0000 C   0  0  0  0  0  0           0  0  0
    8.2000   -1.0667    0.0000 C   0  0  0  0  0  0           0  0  0
    7.4625    0.1583    0.0000 C   0  0  0  0  0  0           0  0  0
    7.4917   -1.4917    0.0000 C   0  0  0  0  0  0           0  0  0
    6.7542   -0.2667    0.0000 C   0  0  0  0  0  0           0  0  0
   -1.1000   -4.0667    0.0000 C   0  0  0  0  0  0           0  0  0
  2 10  1  0     0  0
  3 13  1  0     0  0
  4  1  1  0     0  0
  5  1  1  0     0  0
  6  1  1  0     0  0
  7  2  2  0     0  0
  8 21  1  0     0  0
  9  2  1  0     0  0
 10 18  1  0     0  0
 11  4  2  0     0  0
 12  4  1  0     0  0
 13  6  1  0     0  0
 14  5  1  0     0  0
 15 12  2  0     0  0
 16 11  1  0     0  0
 17 15  1  0     0  0
 18 19  1  0     0  0
 19  3  1  0     0  0
 20 22  1  0     0  0
 21 23  2  0     0  0
 22  9  2  0     0  0
 23  9  1  0     0  0
 24 17  1  0     0  0
 14  3  1  0     0  0
 17 16  2  0     0  0
  8 20  2  0     0  0
M  END