
  SciTegic06051313522D

 20 22  0  0  0  0            999 V2000
   14.0901  -24.5308    0.0000 C   0  0
   14.7997  -24.1214    0.0000 C   0  0
   14.7969  -23.2987    0.0000 C   0  0
   14.0883  -22.8934    0.0000 C   0  0
   15.5031  -22.8874    0.0000 N   0  0
   16.2123  -23.2934    0.0000 C   0  0
   13.3820  -24.1218    0.0000 C   0  0
   13.3833  -23.3008    0.0000 C   0  0
   12.6028  -23.0458    0.0000 N   0  0
   12.1191  -23.7094    0.0000 O   0  0
   12.6008  -24.3743    0.0000 N   0  0
   14.0883  -22.0724    0.0000 N   0  3
   13.3797  -21.6654    0.0000 O   0  0
   14.7951  -21.6623    0.0000 O   0  5
   16.2121  -24.1082    0.0000 C   0  0
   16.9205  -24.5141    0.0000 C   0  0
   17.6276  -24.1028    0.0000 C   0  0
   17.6219  -23.2814    0.0000 C   0  0
   16.9129  -22.8792    0.0000 C   0  0
   18.3266  -22.8676    0.0000 F   0  0
  7  1  1  0
  1  2  2  0
  2  3  1  0
  3  4  2  0
  4  8  1  0
  3  5  1  0
  5  6  1  0
  7  8  1  0
  8  9  2  0
  9 10  1  0
 10 11  1  0
 11  7  2  0
 12 13  2  0
 12 14  1  0
  4 12  1  0
  6 15  2  0
 15 16  1  0
 16 17  2  0
 17 18  1  0
 18 19  2  0
 19  6  1  0
 18 20  1  0
M  CHG  2  12   1  14  -1
M  END