
  SciTegic01181116592D

 25 27  0  0  0  0            999 V2000
    4.4027  -17.7166    0.0000 C   0  0
    4.4016  -18.5440    0.0000 C   0  0
    5.1164  -18.9569    0.0000 C   0  0
    5.8328  -18.5435    0.0000 C   0  0
    5.8300  -17.7130    0.0000 C   0  0
    5.1146  -17.3039    0.0000 C   0  0
    3.6868  -18.9559    0.0000 Cl  0  0
    6.5429  -17.2978    0.0000 C   0  0
    7.2589  -17.7076    0.0000 C   0  0
    6.5398  -16.4728    0.0000 O   0  0
    5.1162  -19.7819    0.0000 S   0  0
    5.8306  -20.1945    0.0000 N   0  0
    4.3125  -19.5625    0.0000 O   0  0
    4.5250  -20.3625    0.0000 O   0  0
    7.9719  -17.2923    0.0000 N   0  0
    8.7167  -16.1892    0.0000 N   0  0
    7.9414  -16.4708    0.0000 C   0  0
    9.2244  -16.8396    0.0000 C   0  0
    8.7617  -17.5217    0.0000 C   0  0
    9.1211  -18.2613    0.0000 C   0  0
    9.9430  -18.3201    0.0000 C   0  0
   10.4042  -17.6331    0.0000 C   0  0
   10.0422  -16.8963    0.0000 C   0  0
    7.2224  -16.0664    0.0000 S   0  0
    7.2131  -15.2414    0.0000 C   0  0
  6  1  1  0
 11 13  2  0
  1  2  2  0
 11 14  2  0
  2  7  1  0
  9 15  1  0
 15 19  1  0
  3  4  2  0
  5  8  1  0
 18 16  1  0
 16 17  2  0
 17 15  1  0
  8  9  1  0
 18 19  2  0
  4  5  1  0
 19 20  1  0
  8 10  2  0
 20 21  2  0
  2  3  1  0
 21 22  1  0
  3 11  1  0
 22 23  2  0
 23 18  1  0
  5  6  2  0
 17 24  1  0
 11 12  1  0
 24 25  1  0
M  END