
  SciTegic06051315212D

 14 14  0  0  0  0            999 V2000
   31.1963  -24.0865    0.0000 C   0  0
   31.1952  -24.9060    0.0000 C   0  0
   31.9032  -25.3150    0.0000 C   0  0
   32.6129  -24.9055    0.0000 C   0  0
   32.6100  -24.0829    0.0000 C   0  0
   31.9014  -23.6776    0.0000 C   0  0
   31.8990  -22.8604    0.0000 S   0  0
   32.6055  -22.4497    0.0000 N   0  0
   31.1028  -23.0671    0.0000 O   0  0
   31.4825  -22.1467    0.0000 O   0  0
   31.9030  -26.1322    0.0000 S   0  0
   31.1952  -26.5406    0.0000 C   0  0
   31.1950  -27.3578    0.0000 C   0  0
   30.4872  -27.7662    0.0000 C   0  0
  1  2  2  0
  2  3  1  0
  3  4  2  0
  4  5  1  0
  5  6  2  0
  6  1  1  0
  6  7  1  0
  7  8  1  0
  7  9  2  0
  7 10  2  0
  3 11  1  0
 11 12  1  0
 12 13  1  0
 13 14  1  0
M  END