
  SciTegic09261414462D

 30 33  0  0  0  0            999 V2000
   27.9124   -4.7955    0.0000 N   0  0
   28.7296   -4.7959    0.0000 N   0  0
   28.9840   -4.0192    0.0000 C   0  0
   28.3210   -3.5370    0.0000 C   0  0
   27.6623   -4.0192    0.0000 C   0  0
   26.8850   -3.7670    0.0000 O   0  0
   29.7615   -3.7677    0.0000 O   0  0
   27.4936   -5.4940    0.0000 C   0  0
   26.6754   -5.4805    0.0000 C   0  0
   26.2564   -6.1812    0.0000 C   0  0
   26.6545   -6.8959    0.0000 C   0  0
   27.4759   -6.9055    0.0000 C   0  0
   27.8912   -6.2041    0.0000 C   0  0
   28.3198   -2.7198    0.0000 C   0  0
   27.6114   -2.3123    0.0000 C   0  0
   27.5277   -1.4952    0.0000 C   0  0
   26.7281   -1.3265    0.0000 C   0  0
   26.3205   -2.0349    0.0000 C   0  0
   26.8683   -2.6413    0.0000 O   0  0
   25.5082   -2.1167    0.0000 C   0  0
   25.0272   -1.4547    0.0000 C   0  0
   24.2154   -1.5410    0.0000 C   0  0
   23.8834   -2.2887    0.0000 C   0  0
   24.3694   -2.9509    0.0000 C   0  0
   25.1796   -2.8613    0.0000 C   0  0
   24.0409   -3.6991    0.0000 Cl  0  0
   23.0689   -2.3746    0.0000 C   0  0
   22.5900   -1.7149    0.0000 O   0  0
   22.7382   -3.1234    0.0000 O   0  0
   25.4393   -6.1687    0.0000 Cl  0  0
  1  2  1  0
  2  3  1  0
  3  4  1  0
  4  5  1  0
  5  1  1  0
  5  6  2  0
  3  7  2  0
  8  9  2  0
  9 10  1  0
 10 11  2  0
 11 12  1  0
 12 13  2  0
 13  8  1  0
  1  8  1  0
  4 14  2  0
 14 15  1  0
 15 16  2  0
 16 17  1  0
 17 18  2  0
 18 19  1  0
 19 15  1  0
 20 21  2  0
 21 22  1  0
 22 23  2  0
 23 24  1  0
 24 25  2  0
 25 20  1  0
 18 20  1  0
 24 26  1  0
 27 28  1  0
 27 29  2  0
 23 27  1  0
 10 30  1  0
M  END