
  CDK    9/16/09,9:54

 40 43  0  0  0  0  0  0  0  0999 V2000
    9.5194    1.2936    0.0000 C   0  0  0  0  0  0  0  0  0  0  0  0
    9.5194    0.4685    0.0000 C   0  0  0  0  0  0  0  0  0  0  0  0
   10.2320    0.0580    0.0000 C   0  0  0  0  0  0  0  0  0  0  0  0
   10.9405    0.4685    0.0000 C   0  0  0  0  0  0  0  0  0  0  0  0
   10.9405    1.2936    0.0000 O   0  0  0  0  0  0  0  0  0  0  0  0
   10.2320    1.7082    0.0000 C   0  0  0  0  0  0  0  0  0  0  0  0
   10.2320    2.5332    0.0000 C   0  0  0  0  0  0  0  0  0  0  0  0
   10.9429    2.9479    0.0000 O   0  0  0  0  0  0  0  0  0  0  0  0
    8.8031    1.7019    0.0000 O   0  0  0  0  0  0  0  0  0  0  0  0
    8.8048    0.0528    0.0000 N   0  0  0  0  0  0  0  0  0  0  0  0
    8.0892    0.4665    0.0000 C   0  0  0  0  0  0  0  0  0  0  0  0
    7.3747    0.0508    0.0000 C   0  0  0  0  0  0  0  0  0  0  0  0
    8.0880    1.2915    0.0000 O   0  0  0  0  0  0  0  0  0  0  0  0
    6.6616    0.4648    0.0000 C   0  0  0  0  0  0  0  0  0  0  0  0
    5.9475    0.0499    0.0000 C   0  0  0  0  0  0  0  0  0  0  0  0
   10.2320   -0.7670    0.0000 O   0  0  0  0  0  0  0  0  0  0  0  0
   11.6550    0.0528    0.0000 O   0  0  0  0  0  0  0  0  0  0  0  0
   12.3706    0.4665    0.0000 C   0  0  0  0  0  0  0  0  0  0  0  0
   13.0814    0.0470    0.0000 C   0  0  0  0  0  0  0  0  0  0  0  0
   13.7949    0.4570    0.0000 O   0  0  0  0  0  0  0  0  0  0  0  0
   13.8004    1.2824    0.0000 C   0  0  0  0  0  0  0  0  0  0  0  0
   13.0861    1.6961    0.0000 C   0  0  0  0  0  0  0  0  0  0  0  0
   12.3663    1.2885    0.0000 C   0  0  0  0  0  0  0  0  0  0  0  0
   12.3636   -0.3565    0.0000 H   0  0  0  0  0  0  0  0  0  0  0  0
   11.6513    1.6992    0.0000 O   0  0  0  0  0  0  0  0  0  0  0  0
   13.0900    2.5212    0.0000 N   0  0  0  0  0  0  0  0  0  0  0  0
   13.8071    2.9323    0.0000 C   0  0  0  0  0  0  0  0  0  0  0  0
   14.5181    2.5167    0.0000 O   0  0  0  0  0  0  0  0  0  0  0  0
   14.5152    1.6917    0.0000 O   0  0  0  0  0  0  0  0  0  0  0  0
   13.8106    3.7573    0.0000 C   0  0  0  0  0  0  0  0  0  0  0  0
    5.9512   -0.7762    0.0000 C   0  0  0  0  0  0  0  0  0  0  0  0
   15.2298    1.2803    0.0000 C   0  0  0  0  0  0  0  0  0  0  0  0
   13.0766   -0.7781    0.0000 C   0  0  0  0  0  0  0  0  0  0  0  0
   12.3592   -1.1844    0.0000 O   0  0  0  0  0  0  0  0  0  0  0  0
    7.3801   -0.7722    0.0000 C   0  0  0  0  0  0  0  0  0  0  0  0
    6.6700   -1.1842    0.0000 C   0  0  0  0  0  0  0  0  0  0  0  0
    6.6747   -2.0038    0.0000 C   0  0  0  0  0  0  0  0  0  0  0  0
    7.3889   -2.4125    0.0000 C   0  0  0  0  0  0  0  0  0  0  0  0
    8.0996   -1.9914    0.0000 C   0  0  0  0  0  0  0  0  0  0  0  0
    8.0914   -1.1731    0.0000 C   0  0  0  0  0  0  0  0  0  0  0  0
  1  9  1  1  0  0  0 
  2  3  1  0  0  0  0 
  2 10  1  1  0  0  0 
  3  4  1  0  0  0  0 
 10 11  1  0  0  0  0 
 18 23  1  0  0  0  0 
 19 20  1  0  0  0  0 
 20 21  1  0  0  0  0 
 21 22  1  0  0  0  0 
 22 23  1  0  0  0  0 
  4  5  1  0  0  0  0 
 18 24  1  6  0  0  0 
 11 12  1  0  0  0  0 
 23 25  1  6  0  0  0 
  5  6  1  0  0  0  0 
 22 26  1  1  0  0  0 
 11 13  2  0  0  0  0 
 26 27  1  0  0  0  0 
 27 28  2  0  0  0  0 
 21 29  1  6  0  0  0 
 12 14  2  0  0  0  0 
  6  7  1  1  0  0  0 
 27 30  1  0  0  0  0 
 14 15  1  0  0  0  0 
 36 31  1  0  0  0  0 
 15 31  2  0  0  0  0 
 29 32  1  0  0  0  0 
 35 12  1  0  0  0  0 
 19 33  1  6  0  0  0 
  1  2  1  0  0  0  0 
 33 34  1  0  0  0  0 
  3 16  1  6  0  0  0 
  7  8  1  0  0  0  0 
 35 36  1  0  0  0  0 
  4 17  1  1  0  0  0 
 36 37  2  0  0  0  0 
  1  6  1  0  0  0  0 
 37 38  1  0  0  0  0 
 17 18  1  0  0  0  0 
 38 39  2  0  0  0  0 
 18 19  1  0  0  0  0 
 39 40  1  0  0  0  0 
 40 35  2  0  0  0  0 
M  END