
          11290714382D 1   1.00000     0.00000     0

 61 65  0     1  0            999 V2000
    3.9681  -22.3043    0.0000 C   0  0  0  0  0  0           0  0  0
    4.6923  -22.6993    0.0000 C   0  0  0  0  0  0           0  0  0
    5.3918  -22.2698    0.0000 N   0  0  3  0  0  0           0  0  0
    5.3742  -21.4492    0.0000 C   0  0  0  0  0  0           0  0  0
    4.6500  -21.0541    0.0000 C   0  0  0  0  0  0           0  0  0
    3.9432  -21.4797    0.0000 C   0  0  3  0  0  0           0  0  0
    3.9169  -20.6579    0.0000 C   0  0  0  0  0  0           0  0  0
    3.2356  -21.9038    0.0000 N   0  0  0  0  0  0           0  0  0
    4.6177  -20.2227    0.0000 O   0  0  0  0  0  0           0  0  0
    3.1895  -20.2685    0.0000 N   0  0  0  0  0  0           0  0  0
    6.1160  -22.6648    0.0000 C   0  0  0  0  0  0           0  0  0
    3.1631  -19.4439    0.0000 C   0  0  2  0  0  0           0  0  0
    2.4357  -19.0546    0.0000 C   0  0  0  0  0  0           0  0  0
    3.8639  -19.0087    0.0000 C   0  0  0  0  0  0           0  0  0
    3.8375  -18.1842    0.0000 C   0  0  0  0  0  0           0  0  0
    4.5384  -17.7490    0.0000 N   0  0  0  0  0  0           0  0  0
    3.1102  -17.7948    0.0000 O   0  0  0  0  0  0           0  0  0
    2.4093  -18.2300    0.0000 O   0  0  0  0  0  0           0  0  0
    1.7349  -19.4898    0.0000 N   0  0  0  0  0  0           0  0  0
    1.0075  -19.1004    0.0000 C   0  0  0  0  0  0           0  0  0
    0.3067  -19.5356    0.0000 C   0  0  0  0  0  0           0  0  0
   -0.4207  -19.1462    0.0000 C   0  0  0  0  0  0           0  0  0
   -1.1215  -19.5814    0.0000 C   0  0  0  0  0  0           0  0  0
   -1.8461  -19.1895    0.0000 C   0  0  0  0  0  0           0  0  0
   -1.7881  -20.8385    0.0000 C   0  0  0  0  0  0           0  0  0
   -1.0907  -20.4017    0.0000 C   0  0  0  0  0  0           0  0  0
   -2.5205  -20.4494    0.0000 C   0  0  0  0  0  0           0  0  0
   -2.5440  -19.6254    0.0000 C   0  0  0  0  0  0           0  0  0
   -3.2682  -19.2355    0.0000 C   0  0  0  0  0  0           0  0  0
   -3.9695  -19.6685    0.0000 C   0  0  0  0  0  0           0  0  0
   -3.9418  -20.4956    0.0000 C   0  0  0  0  0  0           0  0  0
   -3.2171  -20.8818    0.0000 C   0  0  0  0  0  0           0  0  0
    2.5145  -21.5031    0.0000 C   0  0  0  0  0  0           0  0  0
    1.8069  -21.9273    0.0000 C   0  0  2  0  0  0           0  0  0
    2.5009  -20.6782    0.0000 O   0  0  0  0  0  0           0  0  0
    1.0857  -21.5266    0.0000 C   0  0  0  0  0  0           0  0  0
    0.3781  -21.9508    0.0000 C   0  0  0  0  0  0           0  0  0
   -0.3424  -21.5484    0.0000 C   0  0  0  0  0  0           0  0  0
   -1.0496  -21.9719    0.0000 C   0  0  0  0  0  0           0  0  0
   -1.0364  -22.7976    0.0000 C   0  0  0  0  0  0           0  0  0
   -0.3103  -23.1981    0.0000 C   0  0  0  0  0  0           0  0  0
    0.3939  -22.7723    0.0000 C   0  0  0  0  0  0           0  0  0
    1.8204  -22.7522    0.0000 C   0  0  0  0  0  0           0  0  0
    2.5416  -23.1529    0.0000 C   0  0  0  0  0  0           0  0  0
    2.5584  -23.9785    0.0000 O   0  0  0  0  0  0           0  0  0
    3.2525  -22.7294    0.0000 O   0  0  0  0  0  0           0  0  0
   -1.7435  -23.2227    0.0000 C   0  0  0  0  0  0           0  0  0
   -2.4652  -22.8230    0.0000 P   0  0  3  0  0  0           0  0  0
   -3.1833  -22.4083    0.0000 O   0  0  0  0  0  0           0  0  0
   -2.8713  -23.5411    0.0000 O   0  0  0  0  0  0           0  0  0
   -2.0552  -22.1071    0.0000 O   0  0  0  0  0  0           0  0  0
    6.1360  -23.4896    0.0000 O   0  0  0  0  0  0           0  0  0
    6.8203  -22.2351    0.0000 O   0  0  0  0  0  0           0  0  0
    7.5445  -22.6302    0.0000 C   0  0  0  0  0  0           0  0  0
    8.2488  -22.2005    0.0000 C   0  0  0  0  0  0           0  0  0
    8.9731  -22.5955    0.0000 C   0  0  0  0  0  0           0  0  0
    8.9880  -23.4176    0.0000 C   0  0  0  0  0  0           0  0  0
    9.7114  -23.8126    0.0000 C   0  0  0  0  0  0           0  0  0
   10.4167  -23.3828    0.0000 C   0  0  0  0  0  0           0  0  0
   10.3939  -22.5539    0.0000 C   0  0  0  0  0  0           0  0  0
    9.6700  -22.1626    0.0000 C   0  0  0  0  0  0           0  0  0
 29 30  1  0     0  0
 14 15  1  0     0  0
 30 31  2  0     0  0
  1  2  1  0     0  0
 31 32  1  0     0  0
 32 27  2  0     0  0
 15 16  1  0     0  0
  8 33  1  0     0  0
  6  8  1  0     0  0
 33 34  1  0     0  0
 15 17  2  0     0  0
 33 35  2  0     0  0
  1  6  1  0     0  0
 34 36  1  0     0  0
 13 18  2  0     0  0
 36 37  1  0     0  0
  7  9  2  0     0  0
 37 38  2  0     0  0
 13 19  1  0     0  0
 38 39  1  0     0  0
  2  3  1  0     0  0
 39 40  2  0     0  0
 19 20  1  0     0  0
 40 41  1  0     0  0
  7 10  1  0     0  0
 41 42  2  0     0  0
 42 37  1  0     0  0
 20 21  1  0     0  0
 34 43  1  1     0  0
  3  4  1  0     0  0
 43 44  1  0     0  0
 21 22  1  0     0  0
  3 11  1  0     0  0
 44 45  1  0     0  0
 44 46  2  0     0  0
 22 23  1  0     0  0
 40 47  1  0     0  0
  4  5  1  0     0  0
 47 48  1  0     0  0
 23 24  2  0     0  0
 48 49  2  0     0  0
 24 28  1  0     0  0
 48 50  1  0     0  0
 10 12  1  0     0  0
 48 51  1  0     0  0
 27 25  1  0     0  0
 11 52  2  0     0  0
  5  6  1  0     0  0
 11 53  1  0     0  0
 25 26  2  0     0  0
 53 54  1  0     0  0
 26 23  1  0     0  0
 54 55  1  0     0  0
 12 13  1  0     0  0
 55 56  1  0     0  0
 56 57  2  0     0  0
 27 28  1  0     0  0
 57 58  1  0     0  0
 12 14  1  6     0  0
 58 59  2  0     0  0
 28 29  2  0     0  0
 59 60  1  0     0  0
  6  7  1  0     0  0
 60 61  2  0     0  0
 61 56  1  0     0  0
M  END