
          11280715352D 1   1.00000     0.00000     0

 15 13  0     0  0            999 V2000
    3.2875   -4.8792    0.0000 C   0  0  0  0  0  0           0  0  0
    2.8750   -5.6000    0.0000 C   0  0  0  0  0  0           0  0  0
    2.8750   -4.1625    0.0000 O   0  0  0  0  0  0           0  0  0
    3.2875   -6.3167    0.0000 O   0  0  0  0  0  0           0  0  0
    3.3042   -2.5875    0.0000 N   0  0  0  0  0  0           0  0  0
    2.0417   -5.6000    0.0000 O   0  0  0  0  0  0           0  0  0
    4.1167   -4.8792    0.0000 O   0  0  0  0  0  0           0  0  0
    2.5917   -2.1667    0.0000 C   0  0  0  0  0  0           0  0  0
    1.8792   -2.5792    0.0000 C   0  0  3  0  0  0           0  0  0
    1.8792   -3.4042    0.0000 O   0  0  0  0  0  0           0  0  0
    0.4542   -2.5792    0.0000 O   0  0  0  0  0  0           0  0  0
    4.0250   -2.1750    0.0000 C   0  0  3  0  0  0           0  0  0
    1.1667   -2.1667    0.0000 C   0  0  0  0  0  0           0  0  0
    4.7375   -2.5875    0.0000 C   0  0  0  0  0  0           0  0  0
    4.0250   -1.3500    0.0000 C   0  0  0  0  0  0           0  0  0
  2  1  1  0     0  0
  3  1  2  0     0  0
  4  2  2  0     0  0
  6  2  1  0     0  0
  7  1  1  0     0  0
  8  5  1  0     0  0
  9  8  1  0     0  0
 10  9  1  0     0  0
 11 13  1  0     0  0
 12  5  1  0     0  0
 13  9  1  0     0  0
 14 12  1  0     0  0
 15 12  1  0     0  0
M  END