
  CDK    9/16/09,9:48

 31 35  0  0  0  0  0  0  0  0999 V2000
   -2.9408   -1.5994    0.0000 C   0  0  0  0  0  0  0  0  0  0  0  0
   -3.6460   -2.0408    0.0000 C   0  0  0  0  0  0  0  0  0  0  0  0
   -3.6152   -2.8664    0.0000 C   0  0  0  0  0  0  0  0  0  0  0  0
   -2.8774   -3.2557    0.0000 C   0  0  0  0  0  0  0  0  0  0  0  0
   -2.2132   -1.9765    0.0000 C   0  0  0  0  0  0  0  0  0  0  0  0
   -2.1731   -2.8007    0.0000 C   0  0  0  0  0  0  0  0  0  0  0  0
   -1.5354   -3.2552    0.0000 C   0  0  0  0  0  0  0  0  0  0  0  0
   -1.5961   -1.4610    0.0000 N   0  0  0  0  0  0  0  0  0  0  0  0
   -0.8159   -1.6307    0.0000 C   0  0  0  0  0  0  0  0  0  0  0  0
   -0.4461   -2.3735    0.0000 C   0  0  0  0  0  0  0  0  0  0  0  0
   -0.7746   -3.0692    0.0000 N   0  0  0  0  0  0  0  0  0  0  0  0
   -0.3048   -0.9745    0.0000 O   0  0  0  0  0  0  0  0  0  0  0  0
   -1.7947   -0.6572    0.0000 C   0  0  0  0  0  0  0  0  0  0  0  0
    0.3813   -2.3658    0.0000 N   0  0  0  0  0  0  0  0  0  0  0  0
    0.8015   -3.0810    0.0000 C   0  0  0  0  0  0  0  0  0  0  0  0
    1.6289   -3.0733    0.0000 C   0  0  0  0  0  0  0  0  0  0  0  0
    0.3944   -3.7992    0.0000 O   0  0  0  0  0  0  0  0  0  0  0  0
    2.1205   -3.7358    0.0000 C   0  0  0  0  0  0  0  0  0  0  0  0
    2.1081   -2.3949    0.0000 N   0  0  0  0  0  0  0  0  0  0  0  0
    2.8982   -2.6465    0.0000 C   0  0  0  0  0  0  0  0  0  0  0  0
    2.9024   -3.4730    0.0000 C   0  0  0  0  0  0  0  0  0  0  0  0
    3.6170   -3.8810    0.0000 C   0  0  0  0  0  0  0  0  0  0  0  0
    4.3325   -3.4634    0.0000 C   0  0  0  0  0  0  0  0  0  0  0  0
    4.3244   -2.6339    0.0000 C   0  0  0  0  0  0  0  0  0  0  0  0
    3.6047   -2.2296    0.0000 C   0  0  0  0  0  0  0  0  0  0  0  0
   -1.6830   -4.0239    0.0000 C   0  0  0  0  0  0  0  0  0  0  0  0
   -2.4209   -4.2776    0.0000 C   0  0  0  0  0  0  0  0  0  0  0  0
   -2.5642   -5.0456    0.0000 C   0  0  0  0  0  0  0  0  0  0  0  0
   -1.9717   -5.5547    0.0000 C   0  0  0  0  0  0  0  0  0  0  0  0
   -1.2336   -5.2952    0.0000 C   0  0  0  0  0  0  0  0  0  0  0  0
   -1.0892   -4.5279    0.0000 C   0  0  0  0  0  0  0  0  0  0  0  0
 14 15  1  0  0  0  0 
  5  1  1  0  0  0  0 
 15 16  1  0  0  0  0 
 15 17  2  0  0  0  0 
 16 18  2  0  0  0  0 
  5  6  2  0  0  0  0 
  6  7  1  0  0  0  0 
 18 21  1  0  0  0  0 
 20 19  1  0  0  0  0 
 19 16  1  0  0  0  0 
  5  8  1  0  0  0  0 
  9 10  1  0  0  0  0 
 20 21  2  0  0  0  0 
 10 11  1  0  0  0  0 
 21 22  1  0  0  0  0 
 11  7  2  0  0  0  0 
 22 23  2  0  0  0  0 
  8  9  1  0  0  0  0 
 23 24  1  0  0  0  0 
  2  3  1  0  0  0  0 
 24 25  2  0  0  0  0 
 25 20  1  0  0  0  0 
  9 12  2  0  0  0  0 
  7 26  1  0  0  0  0 
  1  2  2  0  0  0  0 
 26 27  2  0  0  0  0 
  8 13  1  0  0  0  0 
 27 28  1  0  0  0  0 
  3  4  2  0  0  0  0 
 28 29  2  0  0  0  0 
 10 14  1  1  0  0  0 
 29 30  1  0  0  0  0 
  4  6  1  0  0  0  0 
 30 31  2  0  0  0  0 
 31 26  1  0  0  0  0 
M  END