
  SciTegic01161211252D

 32 35  0  0  0  0            999 V2000
   12.3902   -8.0958    0.0000 C   0  0
   12.3891   -8.9232    0.0000 C   0  0
   13.1039   -9.3360    0.0000 C   0  0
   13.8203   -8.9227    0.0000 C   0  0
   13.8175   -8.0922    0.0000 C   0  0
   13.1021   -7.6830    0.0000 C   0  0
   11.6743   -9.3351    0.0000 N   0  0
   10.9601   -8.9220    0.0000 C   0  0
   10.2453   -9.3340    0.0000 N   0  0
   10.9608   -8.0970    0.0000 O   0  0
    9.5312   -8.9204    0.0000 C   0  0
    9.2574   -8.1411    0.0000 C   0  0
    8.4316   -8.1568    0.0000 C   0  0
    8.1927   -8.9476    0.0000 O   0  0
    8.8716   -9.4180    0.0000 N   0  0
    7.9333   -7.4991    0.0000 C   0  0
    8.3088   -6.7645    0.0000 C   0  0
    7.1093   -7.5411    0.0000 C   0  0
    7.4073   -6.8536    0.0000 C   0  0
   14.5304   -7.6770    0.0000 N   0  0
   15.2464   -8.0868    0.0000 C   0  0
   15.9593   -7.6716    0.0000 C   0  0
   15.2417   -8.9083    0.0000 O   0  0
   16.6738   -8.0848    0.0000 C   0  0
   16.6625   -6.4348    0.0000 C   0  0
   15.9530   -6.8517    0.0000 C   0  0
   17.3835   -6.8444    0.0000 C   0  0
   17.3849   -7.6690    0.0000 C   0  0
   18.0986   -8.0783    0.0000 C   0  0
   18.8113   -7.6641    0.0000 C   0  0
   18.8059   -6.8364    0.0000 C   0  0
   18.0917   -6.4309    0.0000 C   0  0
  3  4  2  0
 13 16  1  0
  7  8  1  0
 16 17  1  0
 16 18  1  0
  8  9  1  0
 16 19  1  0
  4  5  1  0
  5 20  1  0
  8 10  2  0
 20 21  1  0
  2  3  1  0
 21 22  1  0
  9 11  1  0
 21 23  2  0
 12 13  2  0
 22 24  2  0
 24 28  1  0
  5  6  2  0
 27 25  1  0
  6  1  1  0
 25 26  2  0
 26 22  1  0
  1  2  2  0
  2  7  1  0
 27 28  1  0
 11 12  1  0
 28 29  2  0
 13 14  1  0
 29 30  1  0
 14 15  1  0
 30 31  2  0
 15 11  2  0
 31 32  1  0
 32 27  2  0
M  END