
          11280714522D 1   1.00000     0.00000     0

 58 63  0     0  0            999 V2000
    2.3917   -5.9042    0.0000 N   0  0  3  0  0  0           0  0  0
    3.2125   -7.5917    0.0000 N   0  0  0  0  0  0           0  0  0
    3.5667   -6.8375    0.0000 C   0  0  3  0  0  0           0  0  0
    3.2042   -6.0792    0.0000 C   0  0  0  0  0  0           0  0  0
    2.4000   -7.7792    0.0000 C   0  0  0  0  0  0           0  0  0
    1.7417   -7.2542    0.0000 C   0  0  0  0  0  0           0  0  0
    1.7417   -6.4292    0.0000 C   0  0  0  0  0  0           0  0  0
    4.3917   -6.8292    0.0000 N   0  0  0  0  0  0           0  0  0
    4.8042   -7.5417    0.0000 C   0  0  0  0  0  0           0  0  0
    2.2042   -5.1000    0.0000 C   0  0  0  0  0  0           0  0  0
    5.6292   -7.5417    0.0000 N   0  0  0  0  0  0           0  0  0
   13.9375   -1.8542    0.0000 N   0  0  3  0  0  0           0  0  0
    2.8125   -4.5375    0.0000 C   0  0  0  0  0  0           0  0  0
    3.7167   -5.4375    0.0000 O   0  0  0  0  0  0           0  0  0
    6.8000   -2.7625    0.0000 C   0  0  0  0  0  0           0  0  0
    2.2167   -8.5792    0.0000 C   0  0  0  0  0  0           0  0  0
    4.4000   -8.2625    0.0000 O   0  0  0  0  0  0           0  0  0
    6.0500   -8.2542    0.0000 C   0  0  0  0  0  0           0  0  0
    3.6000   -4.7792    0.0000 O   0  0  0  0  0  0           0  0  0
    6.7750   -3.5875    0.0000 O   0  0  0  0  0  0           0  0  0
   13.1750   -1.5542    0.0000 C   0  0  0  0  0  0           0  0  0
   12.5250   -2.0625    0.0000 C   0  0  0  0  0  0           0  0  0
    2.6250   -3.7292    0.0000 N   0  0  0  0  0  0           0  0  0
    7.5250   -2.3667    0.0000 N   0  0  0  0  0  0           0  0  0
    5.6375   -8.9667    0.0000 C   0  0  0  0  0  0           0  0  0
   11.7625   -1.7625    0.0000 C   0  0  0  0  0  0           0  0  0
    1.0292   -7.6667    0.0000 C   0  0  0  0  0  0           0  0  0
   11.1167   -2.2667    0.0000 C   0  0  0  0  0  0           0  0  0
    1.0292   -6.0167    0.0000 C   0  0  0  0  0  0           0  0  0
    6.0500   -9.6792    0.0000 C   0  0  0  0  0  0           0  0  0
    8.9375   -2.1667    0.0000 C   0  0  0  0  0  0           0  0  0
   10.3542   -1.9667    0.0000 O   0  0  0  0  0  0           0  0  0
   14.0542   -2.6625    0.0000 C   0  0  0  0  0  0           0  0  0
   14.5792   -1.3417    0.0000 C   0  0  0  0  0  0           0  0  0
   11.9917   -3.3792    0.0000 C   0  0  0  0  0  0           0  0  0
    7.2875   -8.9625    0.0000 C   0  0  0  0  0  0           0  0  0
    6.0125   -2.5167    0.0000 C   0  0  0  0  0  0           0  0  0
    8.2875   -2.6750    0.0000 C   0  0  0  0  0  0           0  0  0
    6.8667   -8.2542    0.0000 C   0  0  0  0  0  0           0  0  0
   12.6417   -2.8750    0.0000 C   0  0  0  0  0  0           0  0  0
    2.8167   -9.1375    0.0000 C   0  0  0  0  0  0           0  0  0
    1.4292   -8.8250    0.0000 C   0  0  0  0  0  0           0  0  0
    9.7042   -2.4667    0.0000 C   0  0  0  0  0  0           0  0  0
    3.2292   -3.1667    0.0000 C   0  0  0  0  0  0           0  0  0
   11.2292   -3.0750    0.0000 C   0  0  0  0  0  0           0  0  0
    6.8750   -9.6792    0.0000 C   0  0  0  0  0  0           0  0  0
    5.6375  -10.4000    0.0000 C   0  0  0  0  0  0           0  0  0
    5.4042   -3.0875    0.0000 C   0  0  0  0  0  0           0  0  0
    4.0167   -3.4042    0.0000 C   0  0  0  0  0  0           0  0  0
    0.3167   -7.2542    0.0000 C   0  0  0  0  0  0           0  0  0
    4.6167   -2.8417    0.0000 C   0  0  0  0  0  0           0  0  0
    0.3167   -6.4292    0.0000 C   0  0  0  0  0  0           0  0  0
   14.8167   -2.9625    0.0000 C   0  0  0  0  0  0           0  0  0
   15.3500   -1.6500    0.0000 C   0  0  0  0  0  0           0  0  0
    2.6417   -9.9375    0.0000 C   0  0  0  0  0  0           0  0  0
    1.2417   -9.6250    0.0000 C   0  0  0  0  0  0           0  0  0
   15.4667   -2.4542    0.0000 C   0  0  0  0  0  0           0  0  0
    1.8500  -10.1875    0.0000 C   0  0  0  0  0  0           0  0  0
  2  3  1  0     0  0
  3  4  1  0     0  0
  4  1  1  0     0  0
  5  6  1  0     0  0
  6  7  1  0     0  0
  7  1  1  0     0  0
  3  8  1  0     0  0
  9  8  1  0     0  0
 10  1  1  0     0  0
 11  9  1  0     0  0
 12 21  1  0     0  0
 13 10  1  0     0  0
 14  4  2  0     0  0
 15 37  1  0     0  0
 16  5  1  0     0  0
 17  9  2  0     0  0
 18 11  1  0     0  0
 19 13  2  0     0  0
 20 15  2  0     0  0
 21 22  1  0     0  0
 22 26  2  0     0  0
 23 13  1  0     0  0
 24 15  1  0     0  0
 25 18  2  0     0  0
 26 28  1  0     0  0
 27  6  2  0     0  0
 28 32  1  0     0  0
 29  7  2  0     0  0
 30 25  1  0     0  0
 31 38  1  0     0  0
 32 43  1  0     0  0
 33 12  1  0     0  0
 34 12  1  0     0  0
 35 45  1  0     0  0
 36 39  2  0     0  0
 37 48  1  0     0  0
 38 24  1  0     0  0
 39 18  1  0     0  0
 40 35  2  0     0  0
 41 16  1  0     0  0
 42 16  2  0     0  0
 43 31  1  0     0  0
 44 23  1  0     0  0
 45 28  2  0     0  0
 46 36  1  0     0  0
 47 30  1  0     0  0
 48 51  1  0     0  0
 49 44  1  0     0  0
 50 52  2  0     0  0
 51 49  1  0     0  0
 52 29  1  0     0  0
 53 33  1  0     0  0
 54 34  1  0     0  0
 55 41  2  0     0  0
 56 42  1  0     0  0
 57 54  1  0     0  0
 58 56  2  0     0  0
  2  5  2  0     0  0
 50 27  1  0     0  0
 58 55  1  0     0  0
 46 30  2  0     0  0
 22 40  1  0     0  0
 57 53  1  0     0  0
M  END