
  SciTegic10301317112D

 33 33  0  0  0  0            999 V2000
   -0.2958   -1.2417    0.0000 S   0  0
    9.5292   -6.0042    0.0000 C   0  0
    9.8417   -5.2417    0.0000 C   0  0  1  0  0  0
    3.0000   -1.2250    0.0000 C   0  0
   10.6667   -5.1292    0.0000 C   0  0
    9.3417   -4.5875    0.0000 N   0  0
    0.5292   -1.2375    0.0000 C   0  0
   10.0375   -6.6542    0.0000 C   0  0
    8.5167   -4.5917    0.0000 C   0  0
    3.4167   -1.9375    0.0000 N   0  0
   -0.2958   -2.0625    0.0000 O   0  0
   -0.2958   -0.4167    0.0000 O   0  0
    4.6542   -2.6417    0.0000 C   0  0
    6.7917   -3.2167    0.0000 C   0  0
    2.1750   -1.2292    0.0000 C   0  0
   -1.1208   -1.2292    0.0000 N   0  0
    7.2750   -3.8792    0.0000 N   0  0
    5.4792   -2.6375    0.0000 N   0  0
    3.4042   -0.5042    0.0000 O   0  0
   10.9792   -4.3667    0.0000 O   0  0
   10.8542   -6.5417    0.0000 O   0  0
    8.1125   -5.3042    0.0000 O   0  0
    4.2500   -3.3542    0.0000 O   0  0
    7.1250   -2.4625    0.0000 O   0  0
    0.9292   -0.5250    0.0000 C   0  0
    0.9417   -1.9500    0.0000 C   0  0
    1.7667   -1.9417    0.0000 C   0  0
    1.7542   -0.5167    0.0000 C   0  0
    4.2417   -1.9292    0.0000 C   0  0
    8.1000   -3.8792    0.0000 C   0  0
    5.9667   -3.3042    0.0000 C   0  0
   11.1667   -5.7792    0.0000 O   0  0
    9.7250   -7.4167    0.0000 O   0  0
  3  2  1  6
  3  6  1  0
  4 15  1  0
  5  3  1  0
  6  9  1  0
  7  1  1  0
  8  2  1  0
  9 30  1  0
 10  4  1  0
 11  1  2  0
 12  1  2  0
 13 29  1  0
 14 31  1  0
 15 27  2  0
 16  1  1  0
 17 14  1  0
 18 13  1  0
 19  4  2  0
 20  5  2  0
 21  8  2  0
 22  9  2  0
 23 13  2  0
 24 14  2  0
 25  7  1  0
 26  7  2  0
 27 26  1  0
 28 25  2  0
 29 10  1  0
 30 17  1  0
 31 18  1  0
 32  5  1  0
 33  8  1  0
 15 28  1  0
M  END