
  SciTegic08241115302D

 11 11  0  0  0  0            999 V2000
   -0.7167  -14.5783    0.0000 N   0  0
    0.1083  -14.5783    0.0000 N   0  0
    0.3651  -13.7942    0.0000 C   0  0
   -0.3042  -13.3075    0.0000 N   0  0
   -0.9691  -13.7942    0.0000 C   0  0
   -0.3055  -12.4825    0.0000 C   0  0
   -1.7539  -13.5396    0.0000 C   0  0
   -1.9258  -12.7328    0.0000 F   0  0
   -2.3667  -14.0919    0.0000 F   0  0
   -2.5540  -13.3200    0.0000 F   0  0
    1.1500  -13.5403    0.0000 S   0  0
  1  2  1  0
  4  6  1  0
  5  7  1  0
  2  3  2  0
  7  8  1  0
  3  4  1  0
  7  9  1  0
  4  5  1  0
  7 10  1  0
  5  1  2  0
  3 11  1  0
M  END