
  -ISIS-  03291115432D

 38 36  0  0  1  0  0  0  0  0999 V2000
    0.6500   -3.6375    0.0000 C   0  0  1  0  0  0  0  0  0  0  0  0
    3.5042   -3.6500    0.0000 C   0  0  2  0  0  0  0  0  0  0  0  0
    5.6500   -3.2500    0.0000 S   0  0  3  0  0  0  0  0  0  0  0  0
    2.7875   -4.8792    0.0000 S   0  0  3  0  0  0  0  0  0  0  0  0
   -0.0708   -4.8750    0.0000 S   0  0  3  0  0  0  0  0  0  0  0  0
    4.2167   -3.2375    0.0000 C   0  0  1  0  0  0  0  0  0  0  0  0
    1.3625   -3.2250    0.0000 C   0  0  2  0  0  0  0  0  0  0  0  0
   -0.0625   -3.2250    0.0000 C   0  0  2  0  0  0  0  0  0  0  0  0
    1.3667   -2.4000    0.0000 O   0  0  0  0  0  0  0  0  0  0  0  0
    2.7917   -3.2292    0.0000 C   0  0  2  0  0  0  0  0  0  0  0  0
   -0.0625   -2.4042    0.0000 C   0  0  2  0  0  0  0  0  0  0  0  0
    0.6500   -1.9917    0.0000 C   0  0  1  0  0  0  0  0  0  0  0  0
    0.6500   -4.4625    0.0000 O   0  0  0  0  0  0  0  0  0  0  0  0
    3.5042   -4.4750    0.0000 O   0  0  0  0  0  0  0  0  0  0  0  0
    4.9292   -3.6542    0.0000 O   0  0  0  0  0  0  0  0  0  0  0  0
    2.0792   -3.6417    0.0000 O   0  0  0  0  0  0  0  0  0  0  0  0
    4.2250   -2.4125    0.0000 C   0  0  1  0  0  0  0  0  0  0  0  0
    3.5125   -2.0000    0.0000 O   0  0  0  0  0  0  0  0  0  0  0  0
    2.0792   -5.3042    0.0000 O   0  5  0  0  0  0  0  0  0  0  0  0
    6.3750   -2.8542    0.0000 O   0  5  0  0  0  0  0  0  0  0  0  0
   -0.7708   -5.3000    0.0000 O   0  5  0  0  0  0  0  0  0  0  0  0
    2.3667   -4.1625    0.0000 O   0  0  0  0  0  0  0  0  0  0  0  0
    6.0542   -3.9625    0.0000 O   0  0  0  0  0  0  0  0  0  0  0  0
    5.2292   -2.5292    0.0000 O   0  0  0  0  0  0  0  0  0  0  0  0
    0.3417   -5.5875    0.0000 O   0  0  0  0  0  0  0  0  0  0  0  0
   -0.4833   -4.1625    0.0000 O   0  0  0  0  0  0  0  0  0  0  0  0
    3.1917   -5.5917    0.0000 O   0  0  0  0  0  0  0  0  0  0  0  0
    2.7917   -2.4125    0.0000 C   0  0  0  0  0  0  0  0  0  0  0  0
   -0.7750   -3.6417    0.0000 O   0  0  0  0  0  0  0  0  0  0  0  0
   -0.7833   -2.0000    0.0000 O   0  0  0  0  0  0  0  0  0  0  0  0
    4.9417   -2.0042    0.0000 O   0  0  0  0  0  0  0  0  0  0  0  0
    0.6417   -1.1667    0.0000 C   0  0  0  0  0  0  0  0  0  0  0  0
    7.6500   -2.2625    0.0000 Na  0  3  0  0  0  0  0  0  0  0  0  0
    5.6792   -5.5792    0.0000 Na  0  3  0  0  0  0  0  0  0  0  0  0
    1.3917   -6.6500    0.0000 Na  0  3  0  0  0  0  0  0  0  0  0  0
    1.3625   -0.7542    0.0000 O   0  0  0  0  0  0  0  0  0  0  0  0
    4.9500   -1.1792    0.0000 C   0  0  0  0  0  0  0  0  0  0  0  0
    2.0708   -2.8125    0.0000 H   0  0  0  0  0  0  0  0  0  0  0  0
  2 10  1  0  0  0  0
  3 15  1  0  0  0  0
  4 14  1  0  0  0  0
  5 13  1  0  0  0  0
  6  2  1  0  0  0  0
  7  1  1  0  0  0  0
  8  1  1  0  0  0  0
  9  7  1  0  0  0  0
 10 16  1  6  0  0  0
 11  8  1  0  0  0  0
 12 11  1  0  0  0  0
  1 13  1  6  0  0  0
  2 14  1  1  0  0  0
  6 15  1  6  0  0  0
 16  7  1  0  0  0  0
 17 18  1  0  0  0  0
 18 28  1  0  0  0  0
 19  4  1  0  0  0  0
 20  3  1  0  0  0  0
 21  5  1  0  0  0  0
 22  4  2  0  0  0  0
 23  3  2  0  0  0  0
 24  3  2  0  0  0  0
 25  5  2  0  0  0  0
 26  5  2  0  0  0  0
 27  4  2  0  0  0  0
 28 10  1  0  0  0  0
  8 29  1  1  0  0  0
 11 30  1  1  0  0  0
 17 31  1  1  0  0  0
 12 32  1  1  0  0  0
 36 32  1  0  0  0  0
 37 31  1  0  0  0  0
  7 38  1  1  0  0  0
 12  9  1  0  0  0  0
 17  6  1  0  0  0  0
M  CHG  6  19  -1  20  -1  21  -1  33   1  34   1  35   1
M  END