
          11280715132D 1   1.00000     0.00000     0

 35 38  0     0  0            999 V2000
    5.6750   -1.6125    0.0000 C   0  0  0  0  0  0           0  0  0
    6.2542   -0.3042    0.0000 C   0  0  0  0  0  0           0  0  0
    6.4250   -1.9417    0.0000 C   0  0  0  0  0  0           0  0  0
    5.5292   -2.9375    0.0000 N   0  0  0  0  0  0           0  0  0
    5.5875   -0.7917    0.0000 C   0  0  0  0  0  0           0  0  0
    6.3375   -2.7667    0.0000 N   0  0  3  0  0  0           0  0  0
    5.1167   -2.2292    0.0000 C   0  0  0  0  0  0           0  0  0
    6.1792    0.5208    0.0000 C   0  0  0  0  0  0           0  0  0
    7.0917   -1.4542    0.0000 N   0  0  0  0  0  0           0  0  0
    3.8292   -4.7167    0.0000 N   0  0  3  0  0  0           0  0  0
    7.0042   -0.6375    0.0000 C   0  0  0  0  0  0           0  0  0
    3.9167   -5.5375    0.0000 C   0  0  0  0  0  0           0  0  0
    3.2500   -6.0250    0.0000 C   0  0  0  0  0  0           0  0  0
    3.6625   -3.0667    0.0000 N   0  0  3  0  0  0           0  0  0
    3.3375   -6.8417    0.0000 C   0  0  0  0  0  0           0  0  0
    6.8542    0.9958    0.0000 N   0  0  3  0  0  0           0  0  0
    4.6750   -5.8750    0.0000 C   0  0  0  0  0  0           0  0  0
    5.4292    0.8708    0.0000 O   0  0  0  0  0  0           0  0  0
    3.0792   -4.3792    0.0000 C   0  0  0  0  0  0           0  0  0
    4.5042   -4.2292    0.0000 C   0  0  0  0  0  0           0  0  0
    4.8250   -0.4542    0.0000 N   0  0  0  0  0  0           0  0  0
    4.0917   -7.1792    0.0000 C   0  0  0  0  0  0           0  0  0
    4.4167   -3.4042    0.0000 C   0  0  0  0  0  0           0  0  0
    2.9917   -3.5542    0.0000 C   0  0  0  0  0  0           0  0  0
    4.7625   -6.6917    0.0000 C   0  0  0  0  0  0           0  0  0
    6.9417   -3.3250    0.0000 C   0  0  0  0  0  0           0  0  0
    2.4875   -5.6917    0.0000 O   0  0  0  0  0  0           0  0  0
    4.2917   -2.1542    0.0000 C   0  0  0  0  0  0           0  0  0
    4.1750   -8.0042    0.0000 F   0  0  0  0  0  0           0  0  0
    3.5750   -2.2500    0.0000 C   0  0  0  0  0  0           0  0  0
    4.2417   -1.7625    0.0000 C   0  0  0  0  0  0           0  0  0
    4.1542   -0.9417    0.0000 C   0  0  0  0  0  0           0  0  0
    7.6042    0.6458    0.0000 C   0  0  0  0  0  0           0  0  0
    6.7792    1.8208    0.0000 C   0  0  0  0  0  0           0  0  0
    2.3917   -4.8667    0.0000 C   0  0  0  0  0  0           0  0  0
  2  5  1  0     0  0
  3  1  1  0     0  0
  4  7  2  0     0  0
  5  1  2  0     0  0
  6  3  1  0     0  0
  7  1  1  0     0  0
  8  2  1  0     0  0
  9  3  2  0     0  0
 10 19  1  0     0  0
 11  2  2  0     0  0
 12 10  1  0     0  0
 13 12  1  0     0  0
 14 30  1  0     0  0
 15 13  2  0     0  0
 16  8  1  0     0  0
 17 12  2  0     0  0
 18  8  2  0     0  0
 19 24  1  0     0  0
 20 23  1  0     0  0
 21  5  1  0     0  0
 22 25  2  0     0  0
 23 14  1  0     0  0
 24 14  1  0     0  0
 25 17  1  0     0  0
 26  6  1  0     0  0
 27 13  1  0     0  0
 28  7  1  0     0  0
 29 22  1  0     0  0
 30 31  1  0     0  0
 31 32  1  0     0  0
 32 21  1  0     0  0
 33 16  1  0     0  0
 34 16  1  0     0  0
 35 27  1  0     0  0
  6  4  1  0     0  0
 11  9  1  0     0  0
 20 10  1  0     0  0
 22 15  1  0     0  0
M  END