
  SciTegic11201309402D

 80 83  0  0  1  0            999 V2000
    7.8917   -2.6167    0.0000 C   0  0
    8.6042   -2.2167    0.0000 N   0  0
    7.1792   -2.2167    0.0000 C   0  0  2  0  0  0
    6.4667   -2.6167    0.0000 N   0  0
   10.1375   -2.6167    0.0000 C   0  0
    1.5000   -2.2417    0.0000 C   0  0
   -0.7583   -0.8667    0.0000 C   0  0
    0.0792   -2.2417    0.0000 N   0  0
    5.7625   -2.2292    0.0000 C   0  0
   -0.6333   -2.6417    0.0000 C   0  0
    9.4250   -2.2167    0.0000 C   0  0  1  0  0  0
    3.6292   -2.6292    0.0000 C   0  0
    0.3542   -0.4042    0.0000 N   0  0
    4.3417   -2.2292    0.0000 N   0  0
    2.2125   -2.6292    0.0000 N   0  0
    0.7917   -2.6417    0.0000 C   0  0  1  0  0  0
   10.8542   -2.2167    0.0000 N   0  0
    5.0542   -2.6292    0.0000 C   0  0  1  0  0  0
   -0.0333   -1.0375    0.0000 C   0  0
   -2.7583   -2.2417    0.0000 C   0  0
    5.0542   -3.4292    0.0000 C   0  0
   -1.3375   -2.2417    0.0000 C   0  0  2  0  0  0
   12.2792   -2.1917    0.0000 C   0  0
   13.0500   -5.7917    0.0000 C   0  0
   -2.0500   -2.6417    0.0000 N   0  0
   -0.8333   -0.1375    0.0000 C   0  0
   -1.3375   -1.4375    0.0000 C   0  0
    7.1792   -1.4125    0.0000 C   0  0
   -3.4708   -2.6417    0.0000 C   0  0
    2.9167   -2.2292    0.0000 C   0  0  1  0  0  0
    5.7750   -3.8167    0.0000 C   0  0
   13.0000   -2.5792    0.0000 N   0  0
   -0.1458    0.1458    0.0000 C   0  0
   11.5667   -2.6042    0.0000 C   0  0  2  0  0  0
    7.8917   -3.4167    0.0000 O   0  0
   -4.1833   -2.2417    0.0000 C   0  0
   14.4167   -2.5667    0.0000 C   0  0
   12.3417   -6.2042    0.0000 N   0  0
    3.6292   -0.2167    0.0000 C   0  0
   10.1375   -3.4167    0.0000 O   0  0
    1.5000   -1.4375    0.0000 O   0  0
   -0.6333   -3.4417    0.0000 O   0  0
    5.7625   -1.4250    0.0000 O   0  0
    3.6292   -3.4292    0.0000 O   0  0
   -2.7583   -1.4375    0.0000 O   0  0
   12.2667   -1.3917    0.0000 O   0  0
    6.4792   -3.4167    0.0000 O   0  0
   14.4292   -3.3667    0.0000 O   0  0
    4.3417    0.1833    0.0000 O   0  0
    2.9167   -1.4250    0.0000 C   0  0
   13.0375   -4.9917    0.0000 N   0  0
   13.7000   -2.1667    0.0000 C   0  0
   13.7750   -6.1792    0.0000 N   0  0
    7.8917   -1.0125    0.0000 S   0  0
    8.3542   -1.4500    0.0000 C   0  0
   -4.1958   -3.0417    0.0000 S   0  0
    0.7917   -3.4417    0.0000 C   0  0  2  0  0  0
    5.7750   -4.6250    0.0000 N   0  0
    3.6292   -1.0250    0.0000 C   0  0
   15.1292   -2.1542    0.0000 N   0  0
    2.9167    0.1833    0.0000 O   0  0
    9.6875   -1.4500    0.0000 C   0  0
    9.0125   -0.9750    0.0000 C   0  0
   -1.4250    0.3000    0.0000 C   0  0
    6.9667   -0.6375    0.0000 C   0  0
    6.3875   -1.6167    0.0000 C   0  0
   -4.8958   -2.6542    0.0000 C   0  0
   -4.1833   -1.4500    0.0000 C   0  0
   11.5792   -3.4042    0.0000 C   0  0
   -0.0458    0.8708    0.0000 C   0  0
   12.3167   -4.6000    0.0000 C   0  0
    0.0792   -3.8417    0.0000 C   0  0
    1.5125   -3.8292    0.0000 C   0  0
   12.3042   -3.8000    0.0000 C   0  0
    0.0792   -4.6500    0.0000 C   0  0
   -1.3375    1.0208    0.0000 C   0  0
   -5.6125   -2.2417    0.0000 C   0  0
   -4.8958   -1.0500    0.0000 C   0  0
   -0.6583    1.3083    0.0000 C   0  0
   -5.6125   -1.4375    0.0000 C   0  0
  2  1  1  0
  3  1  1  0
  3  4  1  6
 11  5  1  6
  6 15  1  0
  7 27  1  0
 16  8  1  6
  9  4  1  0
 10  8  1  0
 11  2  1  0
 12 14  1  0
 13 19  1  0
 18 14  1  6
 30 15  1  1
 16  6  1  0
 17  5  1  0
 18  9  1  0
 19  7  2  0
 20 25  1  0
 18 21  1  0
 22 10  1  0
 23 34  1  0
 24 51  2  0
 22 25  1  6
 26  7  1  0
 22 27  1  0
  3 28  1  0
 29 20  1  0
 30 12  1  0
 31 21  1  0
 32 23  1  0
 33 26  2  0
 34 17  1  6
 35  1  2  0
 36 29  1  0
 37 52  1  0
 38 24  1  0
 39 59  1  0
 40  5  2  0
 41  6  2  0
 42 10  2  0
 43  9  2  0
 44 12  2  0
 45 20  2  0
 46 23  2  0
 47 31  2  0
 48 37  2  0
 49 39  2  0
 30 50  1  0
 51 71  1  0
 52 32  1  0
 53 24  1  0
 54 28  1  0
 55  2  1  0
 56 36  1  0
 16 57  1  0
 58 31  1  0
 59 50  1  0
 60 37  1  0
 61 39  1  0
 11 62  1  0
 63 55  1  0
 64 26  1  0
 65 28  1  0
 66 28  1  0
 67 36  1  0
 68 36  1  0
 34 69  1  0
 70 33  1  0
 71 74  1  0
 72 57  1  0
 57 73  1  1
 74 69  1  0
 75 72  1  0
 76 64  2  0
 77 67  1  0
 78 68  1  0
 79 76  1  0
 80 78  1  0
 62 63  1  0
 33 13  1  0
 70 79  2  0
 77 80  1  0
M  END