
  SciTegic12231509382D

 30 32  0  0  0  0            999 V2000
    9.3853   -8.8240    0.0000 O   0  0
    8.5681   -8.8240    0.0000 S   0  0
    8.9767   -9.5317    0.0000 O   0  0
    7.8651   -6.7810    0.0000 C   0  0
    7.8639   -7.6005    0.0000 C   0  0
    8.5720   -8.0095    0.0000 C   0  0
    9.2816   -7.6001    0.0000 C   0  0
    9.2788   -6.7774    0.0000 C   0  0
    8.5702   -6.3721    0.0000 C   0  0
    7.8640   -9.2351    0.0000 C   0  0
    7.1598   -8.8233    0.0000 C   0  0
    6.4525   -9.2310    0.0000 C   0  0
    6.4518  -10.0491    0.0000 C   0  0
    7.1644  -10.4577    0.0000 C   0  0
    7.8688  -10.0476    0.0000 C   0  0
    5.7451  -10.4578    0.0000 C   0  0
    5.0366  -10.0482    0.0000 C   0  0
    4.3299  -10.4569    0.0000 C   0  0
    4.3303  -11.2750    0.0000 C   0  0
    5.0434  -11.6826    0.0000 C   0  0
    5.7473  -11.2716    0.0000 C   0  0
    3.6236  -11.6853    0.0000 N   0  0
    2.9149  -11.2784    0.0000 C   0  0
    2.2082  -11.6887    0.0000 C   0  0
    1.4995  -11.2818    0.0000 F   0  0
    9.9900   -8.0075    0.0000 C   0  0
   10.6971   -7.5978    0.0000 C   0  0
   11.4083   -8.0034    0.0000 O   0  0
   10.6987   -6.7787    0.0000 O   0  0
    2.9129  -10.4612    0.0000 O   0  0
  2  1  2  0
  3  2  2  0
  4  5  2  0
  5  6  1  0
  6  7  2  0
  7  8  1  0
  8  9  2  0
  9  4  1  0
  6  2  1  0
  2 10  1  0
 10 11  2  0
 11 12  1  0
 12 13  2  0
 13 14  1  0
 14 15  2  0
 15 10  1  0
 16 17  2  0
 17 18  1  0
 18 19  2  0
 19 20  1  0
 20 21  2  0
 21 16  1  0
 13 16  1  0
 19 22  1  0
 22 23  1  0
 23 24  1  0
 24 25  1  0
  7 26  1  0
 26 27  1  0
 27 28  1  0
 27 29  2  0
 23 30  2  0
M  END