
  SciTegic05221516342D

 17 18  0  0  0  0            999 V2000
    4.3693  -11.1930    0.0000 N   0  0
    4.3682  -12.0125    0.0000 C   0  0
    5.0762  -12.4215    0.0000 C   0  0
    5.7859  -12.0121    0.0000 C   0  0
    5.7830  -11.1894    0.0000 C   0  0
    5.0744  -10.7841    0.0000 C   0  0
    6.4902  -12.4176    0.0000 N   0  0
    6.5769  -13.2302    0.0000 C   0  0
    7.3766  -13.3988    0.0000 C   0  0
    7.7841  -12.6904    0.0000 C   0  0  2  0  0  0
    7.2362  -12.0841    0.0000 C   0  0
    8.5966  -12.6037    0.0000 N   0  0
    9.0781  -13.2640    0.0000 C   0  0
    3.6601  -12.4206    0.0000 N   0  0
    2.9528  -12.0114    0.0000 C   0  0
    2.2447  -12.4195    0.0000 C   0  0
    2.9534  -11.1942    0.0000 C   0  0
  1  2  2  0
  2  3  1  0
  3  4  2  0
  4  5  1  0
  5  6  2  0
  6  1  1  0
  7  8  1  0
  8  9  1  0
  9 10  1  0
 10 11  1  0
 11  7  1  0
  4  7  1  0
 10 12  1  6
 12 13  1  0
  2 14  1  0
 14 15  1  0
 15 16  1  0
 15 17  1  0
M  END