
          11280715512D 1   1.00000     0.00000     0

 31 34  0     0  0            999 V2000
    7.3236  -13.0750    0.0000 C   0  0  0  0  0  0           0  0  0
    7.3224  -13.9023    0.0000 C   0  0  0  0  0  0           0  0  0
    8.0372  -14.3152    0.0000 C   0  0  0  0  0  0           0  0  0
    8.0354  -12.6622    0.0000 C   0  0  0  0  0  0           0  0  0
    8.7508  -13.0713    0.0000 C   0  0  0  0  0  0           0  0  0
    8.7516  -13.8982    0.0000 C   0  0  0  0  0  0           0  0  0
    9.4669  -14.3091    0.0000 N   0  0  0  0  0  0           0  0  0
   10.1819  -13.8944    0.0000 C   0  0  0  0  0  0           0  0  0
   10.1771  -13.0644    0.0000 C   0  0  0  0  0  0           0  0  0
    9.4612  -12.6572    0.0000 N   0  0  0  0  0  0           0  0  0
   10.8980  -14.3041    0.0000 O   0  0  0  0  0  0           0  0  0
   10.8891  -12.6476    0.0000 C   0  0  0  0  0  0           0  0  0
   11.6060  -13.0557    0.0000 N   0  0  0  0  0  0           0  0  0
   10.8841  -11.8226    0.0000 O   0  0  0  0  0  0           0  0  0
   12.3180  -12.6389    0.0000 C   0  0  0  0  0  0           0  0  0
   13.0327  -13.0504    0.0000 C   0  0  0  0  0  0           0  0  0
   13.7442  -12.6343    0.0000 C   0  0  0  0  0  0           0  0  0
   13.7396  -11.8084    0.0000 C   0  0  0  0  0  0           0  0  0
   13.0176  -11.4005    0.0000 C   0  0  0  0  0  0           0  0  0
   12.3091  -11.8190    0.0000 C   0  0  0  0  0  0           0  0  0
   14.4510  -11.3906    0.0000 O   0  0  0  0  0  0           0  0  0
   10.9012  -15.1291    0.0000 C   0  0  0  0  0  0           0  0  0
   13.0097  -10.5755    0.0000 C   0  0  0  0  0  0           0  0  0
   13.7201  -10.1561    0.0000 N   0  0  3  0  0  0           0  0  0
   14.4386  -10.5684    0.0000 C   0  0  0  0  0  0           0  0  0
   15.1470  -10.1526    0.0000 C   0  0  0  0  0  0           0  0  0
   15.1433   -9.3273    0.0000 N   0  0  3  0  0  0           0  0  0
   14.4250   -8.9195    0.0000 C   0  0  0  0  0  0           0  0  0
   13.7104   -9.3370    0.0000 C   0  0  0  0  0  0           0  0  0
   15.8553   -8.9106    0.0000 C   0  0  0  0  0  0           0  0  0
   16.5722   -9.3189    0.0000 C   0  0  0  0  0  0           0  0  0
 13 15  1  0     0  0
  1  2  2  0     0  0
 15 16  2  0     0  0
  7  8  2  0     0  0
 16 17  1  0     0  0
  5  4  2  0     0  0
 17 18  2  0     0  0
  8  9  1  0     0  0
 18 19  1  0     0  0
  4  1  1  0     0  0
 19 20  2  0     0  0
 20 15  1  0     0  0
  9 10  2  0     0  0
 18 21  1  0     0  0
 10  5  1  0     0  0
 11 22  1  0     0  0
 19 23  1  0     0  0
  8 11  1  0     0  0
 23 24  1  0     0  0
 24 25  1  0     0  0
  2  3  1  0     0  0
  9 12  1  0     0  0
  5  6  1  0     0  0
 12 13  1  0     0  0
  3  6  2  0     0  0
 24 29  1  0     0  0
 25 26  1  0     0  0
 26 27  1  0     0  0
 27 28  1  0     0  0
 28 29  1  0     0  0
 12 14  2  0     0  0
 27 30  1  0     0  0
  6  7  1  0     0  0
 30 31  1  0     0  0
M  END