
  SciTegic10191216022D

 32 35  0  0  0  0            999 V2000
   14.0454  -17.7225    0.0000 C   0  0
   14.0441  -18.5500    0.0000 C   0  0
   14.7570  -18.9629    0.0000 C   0  0
   14.7551  -17.3097    0.0000 C   0  0
   15.4732  -17.7185    0.0000 C   0  0
   15.4722  -18.5521    0.0000 C   0  0
   16.1897  -18.9673    0.0000 C   0  0
   16.9127  -18.5536    0.0000 N   0  0
   16.9135  -17.7201    0.0000 C   0  0
   16.1916  -17.3002    0.0000 C   0  0
   16.1913  -16.4752    0.0000 C   0  0
   16.9046  -16.0658    0.0000 C   0  0
   16.9047  -15.2417    0.0000 C   0  0
   16.1897  -14.8285    0.0000 C   0  0
   15.4730  -15.2456    0.0000 C   0  0
   15.4764  -16.0685    0.0000 C   0  0
   17.6261  -18.9679    0.0000 C   0  0
   13.3291  -18.9615    0.0000 O   0  0
   12.6153  -18.5480    0.0000 C   0  0
   12.6165  -17.7231    0.0000 C   0  0
   11.9026  -17.3095    0.0000 C   0  0
   11.9038  -16.4846    0.0000 N   0  0
   12.6220  -16.0756    0.0000 C   0  0
   12.6252  -15.2543    0.0000 C   0  0
   11.9132  -14.8369    0.0000 C   0  0
   11.1962  -15.2472    0.0000 C   0  0
   11.1914  -16.0746    0.0000 C   0  0
   11.9175  -14.0119    0.0000 F   0  0
   16.1884  -14.0036    0.0000 S   0  0
   16.1826  -13.1762    0.0000 C   0  0
   17.0132  -14.0001    0.0000 O   0  0
   15.3634  -14.0095    0.0000 O   0  0
  5  4  2  0
 15 16  2  0
 16 11  1  0
  4  1  1  0
  8 17  1  0
  5 10  1  0
  2 18  1  0
  6  7  1  0
 18 19  1  0
  7  8  1  0
 19 20  1  0
  8  9  1  0
 20 21  1  0
  9 10  1  0
 21 22  1  0
 22 23  1  0
  5  6  1  0
 10 11  1  0
 11 12  2  0
  2  3  1  0
 22 27  1  0
 23 24  1  0
 24 25  1  0
 25 26  1  0
 26 27  1  0
 12 13  1  0
 25 28  1  0
  3  6  2  0
 14 29  1  0
 13 14  2  0
 29 30  1  0
  1  2  2  0
 29 31  2  0
 14 15  1  0
 29 32  2  0
M  END