
          11280715352D 1   1.00000     0.00000     0

 26 29  0     1  0            999 V2000
    3.1042   -9.9667    0.0000 C   0  0  0  0  0  0           0  0  0
    1.7667   -9.9750    0.0000 N   0  0  0  0  0  0           0  0  0
    2.4375   -9.4917    0.0000 N   0  0  0  0  0  0           0  0  0
    2.0292  -10.7625    0.0000 N   0  0  0  0  0  0           0  0  0
    2.8542  -10.7542    0.0000 N   0  0  0  0  0  0           0  0  0
    0.9667   -6.2625    0.0000 N   0  0  3  0  0  0           0  0  0
    3.8167   -9.5625    0.0000 C   0  0  0  0  0  0           0  0  0
    3.8250   -8.7375    0.0000 C   0  0  0  0  0  0           0  0  0
    0.9667   -4.6125    0.0000 O   0  0  0  0  0  0           0  0  0
    3.1042   -8.3250    0.0000 C   0  0  0  0  0  0           0  0  0
    0.2500   -5.8500    0.0000 C   0  0  0  0  0  0           0  0  0
    1.6792   -5.8500    0.0000 C   0  0  0  0  0  0           0  0  0
    0.9667   -7.0875    0.0000 C   0  0  0  0  0  0           0  0  0
    1.6792   -5.0250    0.0000 C   0  0  2  0  0  0           0  0  0
    0.2542   -5.0250    0.0000 C   0  0  1  0  0  0           0  0  0
    2.3917   -8.7375    0.0000 C   0  0  0  0  0  0           0  0  0
    3.1042   -7.4917    0.0000 C   0  0  0  0  0  0           0  0  0
    1.6792   -7.5000    0.0000 C   0  0  0  0  0  0           0  0  0
    1.6792   -8.3250    0.0000 C   0  0  0  0  0  0           0  0  0
    2.3917   -7.0792    0.0000 C   0  0  0  0  0  0           0  0  0
    4.5375   -9.9667    0.0000 C   0  0  0  0  0  0           0  0  0
    4.5292   -8.3167    0.0000 C   0  0  0  0  0  0           0  0  0
    2.3917   -4.6125    0.0000 C   0  0  0  0  0  0           0  0  0
   -0.4583   -4.6125    0.0000 C   0  0  0  0  0  0           0  0  0
    5.2417   -8.7292    0.0000 C   0  0  0  0  0  0           0  0  0
    5.2500   -9.5542    0.0000 C   0  0  0  0  0  0           0  0  0
  2  3  2  0     0  0
  3  1  1  0     0  0
  4  5  1  0     0  0
  5  1  2  0     0  0
  6 13  1  0     0  0
  7  1  1  0     0  0
  8  7  2  0     0  0
  9 14  1  0     0  0
 10  8  1  0     0  0
 11  6  1  0     0  0
 12  6  1  0     0  0
 13 18  1  0     0  0
 14 12  1  0     0  0
 15 11  1  0     0  0
 16 10  2  0     0  0
 17 10  1  0     0  0
 18 20  1  0     0  0
 19 16  1  0     0  0
 20 17  2  0     0  0
 21  7  1  0     0  0
 22  8  1  0     0  0
 14 23  1  1     0  0
 15 24  1  1     0  0
 25 26  1  0     0  0
 26 21  2  0     0  0
  2  4  1  0     0  0
 25 22  2  0     0  0
 18 19  2  0     0  0
 15  9  1  0     0  0
M  END