
  SciTegic10011413212D

 34 38  0  0  0  0            999 V2000
   23.4002   -8.2568    0.0000 C   0  0
   22.6851   -7.8453    0.0000 C   0  0
   22.6863   -8.6703    0.0000 C   0  0
   25.3881   -9.0779    0.0000 C   0  0
   26.1045   -8.6646    0.0000 C   0  0
   26.1017   -7.8341    0.0000 C   0  0
   25.3863   -7.4249    0.0000 C   0  0
   24.6733   -8.6651    0.0000 C   0  0
   24.6699   -7.8408    0.0000 C   0  0
   23.8849   -7.5892    0.0000 O   0  0
   23.8903   -8.9229    0.0000 C   0  0
   25.3879   -9.9029    0.0000 O   0  0
   26.1023  -10.3156    0.0000 C   0  0
   26.8146   -7.4189    0.0000 C   0  0
   27.5306   -7.8287    0.0000 N   0  0
   26.8115   -6.5939    0.0000 O   0  0
   28.2435   -7.4135    0.0000 C   0  0
   28.9977   -7.7450    0.0000 N   0  0
   29.5475   -7.1298    0.0000 N   0  0
   29.1322   -6.4169    0.0000 C   0  0
   28.3260   -6.5915    0.0000 C   0  0
   26.0979  -11.1388    0.0000 C   0  0
   26.8114  -11.5514    0.0000 C   0  0
   27.5270  -11.1390    0.0000 C   0  0
   27.5245  -10.3098    0.0000 C   0  0
   26.8104   -9.9009    0.0000 C   0  0
   26.8108  -12.3764    0.0000 F   0  0
   28.2419  -11.5508    0.0000 C   0  0
   28.2428  -12.3758    0.0000 O   0  0
   28.9559  -11.1375    0.0000 N   0  0
   29.7486  -11.3500    0.0000 C   0  0
   29.9612  -10.5529    0.0000 C   0  0
   29.1641  -10.3402    0.0000 C   0  0
   30.3683   -7.2130    0.0000 C   0  0
  2  1  1  0
  1  3  1  0
  8  4  1  0
  4  5  2  0
  5  6  1  0
  6  7  2  0
  7  9  1  0
  8  9  2  0
  9 10  1  0
 10  1  1  0
  1 11  1  0
 11  8  1  0
  4 12  1  0
 12 13  1  0
  6 14  1  0
 14 15  1  0
 14 16  2  0
 15 17  1  0
 17 18  2  0
 18 19  1  0
 19 20  1  0
 20 21  2  0
 21 17  1  0
 13 22  2  0
 22 23  1  0
 23 24  2  0
 24 25  1  0
 25 26  2  0
 26 13  1  0
 23 27  1  0
 24 28  1  0
 28 29  2  0
 28 30  1  0
 30 31  1  0
 31 32  1  0
 32 33  1  0
 33 30  1  0
 19 34  1  0
M  END