
  SciTegic01311317052D

 50 55  0  0  1  0            999 V2000
    4.3619   -7.4069    0.0000 C   0  0
    3.6432   -7.8182    0.0000 C   0  0
    7.0081   -4.9476    0.0000 N   0  0
    6.2354   -4.6485    0.0000 C   0  0
    5.7369   -3.3150    0.0000 C   0  0
    7.8140   -6.3434    0.0000 C   0  0
    4.9144   -8.0051    0.0000 C   0  0
    4.7025   -5.1138    0.0000 N   0  0
    7.6894   -7.1577    0.0000 N   0  0
    5.4129   -4.7108    0.0000 C   0  0  1  0  0  0
    7.5689   -5.5500    0.0000 C   0  0  2  0  0  0
    4.2414   -5.7992    0.0000 C   0  0
    2.9329   -7.4027    0.0000 N   0  0
    6.2977   -2.1062    0.0000 N   0  0
    5.6871   -8.3042    0.0000 N   0  0
    5.5749   -2.5050    0.0000 C   0  0
    5.1761   -3.9174    0.0000 C   0  0
    6.5553   -3.4147    0.0000 C   0  0
    4.1168   -6.6176    0.0000 C   0  0
    6.8959   -2.6670    0.0000 C   0  0
    3.6432   -8.6407    0.0000 O   0  0
    7.2200   -7.8389    0.0000 C   0  0  2  0  0  0
    6.3601   -3.8302    0.0000 O   0  0
    8.6365   -6.2728    0.0000 O   0  0
    8.2793   -5.1387    0.0000 C   0  0
    4.4533   -8.6905    0.0000 O   0  0
    3.4688   -5.5001    0.0000 O   0  0
    6.5096   -8.2502    0.0000 C   0  0
    1.5121   -6.5719    0.0000 O   0  0
    7.7891   -8.4413    0.0000 C   0  0
    8.9979   -5.5500    0.0000 C   0  0
    7.5440   -9.2264    0.0000 C   0  0
    2.2225   -7.8182    0.0000 C   0  0
    2.9329   -6.5844    0.0000 C   0  0
    7.0288   -4.0877    0.0000 C   0  0
    1.5080   -7.4027    0.0000 C   0  0
    2.2308   -6.1731    0.0000 C   0  0
    7.7185   -2.5922    0.0000 C   0  0
    8.9979   -6.3725    0.0000 C   0  0
    9.7125   -5.1387    0.0000 C   0  0
    6.7339   -9.4134    0.0000 C   0  0
    8.1048   -9.8329    0.0000 C   0  0
    7.8514   -4.0171    0.0000 C   0  0
    8.1920   -3.2652    0.0000 C   0  0
   10.4228   -5.5500    0.0000 C   0  0
    9.7125   -6.7921    0.0000 C   0  0
    7.8556  -10.6222    0.0000 C   0  0
    6.4971  -10.1985    0.0000 C   0  0
    7.0580  -10.8050    0.0000 C   0  0
   10.4228   -6.3725    0.0000 C   0  0
  2  1  1  0
  3  4  1  0
  4 10  1  0
  5 17  1  0
  6  9  1  0
  7  1  1  0
  8 12  1  0
  9 22  1  0
 10  8  1  0
 11  3  1  0
 12 19  1  0
 13  2  1  0
 14 16  1  0
 15  7  1  0
 16  5  2  0
 10 17  1  1
 18  5  1  0
 19  1  1  0
 20 18  2  0
 21  2  2  0
 22 28  1  0
 23  4  2  0
 24  6  2  0
 11 25  1  1
 26  7  2  0
 27 12  2  0
 28 15  1  0
 29 37  1  0
 22 30  1  1
 31 25  1  0
 32 30  1  0
 33 13  1  0
 34 13  1  0
 35 18  1  0
 36 33  1  0
 37 34  1  0
 38 20  1  0
 39 31  2  0
 40 31  1  0
 41 32  1  0
 42 32  2  0
 43 35  2  0
 44 43  1  0
 45 40  2  0
 46 39  1  0
 47 42  1  0
 48 41  2  0
 49 47  2  0
 50 45  1  0
 36 29  1  0
 11  6  1  0
 14 20  1  0
 49 48  1  0
 44 38  2  0
 46 50  2  0
M  END