
  SciTegic12171313022D

 39 43  0  0  0  0            999 V2000
    3.2667   -5.5916    0.0000 C   0  0
   15.0028  -10.0594    0.0000 S   0  0
   14.7813  -10.8515    0.0000 O   0  0
   15.7578  -10.3923    0.0000 O   0  0
   10.6111   -7.3941    0.0000 C   0  0
   10.8222   -8.1723    0.0000 C   0  0
   11.6282   -8.3932    0.0000 C   0  0
   12.2032   -7.8118    0.0000 C   0  0
   11.9871   -7.0194    0.0000 C   0  0
   11.1944   -6.8064    0.0000 C   0  0
    9.0068   -4.7495    0.0000 N   0  0
    9.0055   -5.5752    0.0000 C   0  0
    9.7232   -5.9874    0.0000 N   0  0
   10.4341   -5.5747    0.0000 C   0  0
   10.4313   -4.7458    0.0000 C   0  0
    9.7214   -4.3374    0.0000 C   0  0
    8.2880   -5.9947    0.0000 N   0  0
    7.5678   -5.5830    0.0000 C   0  0  2  0  0  0
    7.5620   -4.7580    0.0000 C   0  0
    6.8524   -4.3469    0.0000 C   0  0
    6.1284   -4.7631    0.0000 C   0  0  2  0  0  0
    6.1367   -5.5925    0.0000 C   0  0
    6.8564   -5.9974    0.0000 C   0  0
   11.1480   -5.9854    0.0000 N   0  0
   12.4310   -6.3248    0.0000 C   0  0
   11.9081   -5.6889    0.0000 C   0  0
   12.9996   -8.0292    0.0000 O   0  0
    5.4053   -4.3542    0.0000 C   0  0
    5.3979   -3.5266    0.0000 O   0  0
    4.6939   -4.7647    0.0000 N   0  0
   13.2045   -8.8210    0.0000 C   0  0
   14.0008   -9.0424    0.0000 C   0  0
   14.2106   -9.8379    0.0000 C   0  0
   15.3780   -9.3385    0.0000 C   0  0
    3.9805   -4.3503    0.0000 C   0  0
    3.2671   -4.7657    0.0000 C   0  0
    3.9819   -6.0046    0.0000 C   0  0
    4.6932   -5.5919    0.0000 C   0  0
    2.5534   -6.0030    0.0000 O   0  0
  3  2  2  0
  2  4  2  0
  5  6  2  0
  6  7  1  0
  7  8  2  0
  8  9  1  0
  9 10  2  0
 10  5  1  0
 11 12  2  0
 12 13  1  0
 13 14  2  0
 14 15  1  0
 15 16  2  0
 16 11  1  0
 12 17  1  0
 18 17  1  1
 18 19  1  0
 18 23  1  0
 19 20  1  0
 20 21  1  0
 21 22  1  0
 22 23  1  0
 14 24  1  0
 24 10  1  0
  9 25  1  0
 25 26  2  0
 26 24  1  0
  8 27  1  0
 21 28  1  6
 28 29  2  0
 28 30  1  0
 27 31  1  0
 31 32  1  0
 32 33  1  0
 33  2  1  0
  2 34  1  0
 30 35  1  0
 30 38  1  0
 35 36  1  0
 36  1  1  0
  1 37  1  0
 37 38  1  0
  1 39  1  0
M  END