
          11280715332D 1   1.00000     0.00000     0

 28 29  0     1  0            999 V2000
    4.7167   -1.0792    0.0000 C   0  0  0  0  0  0           0  0  0
    5.4292   -1.5000    0.0000 N   0  0  0  0  0  0           0  0  0
    6.8625   -1.5042    0.0000 C   0  0  0  0  0  0           0  0  0
    4.0042   -1.4917    0.0000 N   0  0  3  0  0  0           0  0  0
    6.1500   -1.0875    0.0000 C   0  0  2  0  0  0           0  0  0
    9.8250   -0.6500    0.0000 N   0  0  0  0  0  0           0  0  0
    7.5792   -1.1000    0.0000 N   0  0  0  0  0  0           0  0  0
    9.0042   -1.1042    0.0000 C   0  0  0  0  0  0           0  0  0
    4.7167   -0.2542    0.0000 O   0  0  0  0  0  0           0  0  0
    6.8542   -2.3292    0.0000 O   0  0  0  0  0  0           0  0  0
    6.1500   -0.2667    0.0000 C   0  0  0  0  0  0           0  0  0
    2.5792   -2.3167    0.0000 O   0  0  0  0  0  0           0  0  0
    8.2917   -1.5167    0.0000 C   0  0  2  0  0  0           0  0  0
    7.5667   -2.7500    0.0000 C   0  0  0  0  0  0           0  0  0
    4.0042   -2.3167    0.0000 C   0  0  0  0  0  0           0  0  0
    3.2917   -1.0792    0.0000 C   0  0  0  0  0  0           0  0  0
    8.2792   -2.3417    0.0000 C   0  0  0  0  0  0           0  0  0
    7.5625   -3.5750    0.0000 C   0  0  0  0  0  0           0  0  0
    6.5542    0.4500    0.0000 C   0  0  3  0  0  0           0  0  0
    2.5792   -1.4917    0.0000 C   0  0  0  0  0  0           0  0  0
    3.2917   -2.7292    0.0000 C   0  0  0  0  0  0           0  0  0
    8.2750   -3.9875    0.0000 C   0  0  0  0  0  0           0  0  0
    6.8417   -3.9792    0.0000 C   0  0  0  0  0  0           0  0  0
    7.3792    0.4625    0.0000 C   0  0  0  0  0  0           0  0  0
    6.1375    1.1625    0.0000 C   0  0  0  0  0  0           0  0  0
    6.8417   -4.8042    0.0000 C   0  0  0  0  0  0           0  0  0
    8.2750   -4.8042    0.0000 C   0  0  0  0  0  0           0  0  0
    7.5542   -5.2167    0.0000 C   0  0  0  0  0  0           0  0  0
  2  1  1  0     0  0
  3  5  1  0     0  0
  4  1  1  0     0  0
  5  2  1  0     0  0
  6  8  3  0     0  0
  7  3  1  0     0  0
  8 13  1  0     0  0
  9  1  2  0     0  0
 10  3  2  0     0  0
  5 11  1  1     0  0
 12 20  1  0     0  0
 13  7  1  0     0  0
 14 17  1  0     0  0
 15  4  1  0     0  0
 16  4  1  0     0  0
 13 17  1  6     0  0
 18 14  1  0     0  0
 19 11  1  0     0  0
 20 16  1  0     0  0
 21 15  1  0     0  0
 22 18  1  0     0  0
 23 18  2  0     0  0
 24 19  1  0     0  0
 25 19  1  0     0  0
 26 23  1  0     0  0
 27 22  2  0     0  0
 28 26  2  0     0  0
 12 21  1  0     0  0
 27 28  1  0     0  0
M  END