
          11280715222D 1   1.00000     0.00000     0

 16 17  0     0  0            999 V2000
   -0.2750   -2.5375    0.0000 N   0  0  0  0  0  0           0  0  0
    0.4417   -2.9417    0.0000 C   0  0  0  0  0  0           0  0  0
    2.5792   -1.7042    0.0000 C   0  0  0  0  0  0           0  0  0
    2.5792   -0.8875    0.0000 C   0  0  0  0  0  0           0  0  0
    1.8667   -2.1167    0.0000 C   0  0  0  0  0  0           0  0  0
    1.8625   -0.4792    0.0000 C   0  0  0  0  0  0           0  0  0
    3.2917   -0.4750    0.0000 C   0  0  0  0  0  0           0  0  0
    2.5750    0.7625    0.0000 C   0  0  0  0  0  0           0  0  0
    1.8667   -2.9500    0.0000 C   0  0  0  0  0  0           0  0  0
    3.2917    0.3500    0.0000 C   0  0  0  0  0  0           0  0  0
    1.8542    0.3458    0.0000 C   0  0  0  0  0  0           0  0  0
    2.5667    1.5875    0.0000 O   0  0  0  0  0  0           0  0  0
    1.1542   -3.3542    0.0000 C   0  0  0  0  0  0           0  0  0
    3.3000   -2.1167    0.0000 C   0  0  0  0  0  0           0  0  0
    3.3000   -2.9500    0.0000 C   0  0  0  0  0  0           0  0  0
    2.5792   -3.3625    0.0000 C   0  0  0  0  0  0           0  0  0
  2  1  3  0     0  0
  3  5  1  0     0  0
  4  3  1  0     0  0
  5  9  2  0     0  0
  6  4  1  0     0  0
  7  4  2  0     0  0
  8 10  2  0     0  0
  9 13  1  0     0  0
 10  7  1  0     0  0
 11  6  2  0     0  0
 12  8  1  0     0  0
 13  2  1  0     0  0
 14 15  1  0     0  0
 15 16  2  0     0  0
 16  9  1  0     0  0
  3 14  2  0     0  0
 11  8  1  0     0  0
M  END