
          11280714452D 1   1.00000     0.00000     0

 35 38  0     0  0            999 V2000
   -0.0875   -5.8500    0.0000 C   0  0  0  0  0  0           0  0  0
    0.3125   -5.1250    0.0000 N   0  0  0  0  0  0           0  0  0
   -1.0000   -4.8792    0.0000 N   0  0  0  0  0  0           0  0  0
   -0.2625   -4.5250    0.0000 C   0  0  0  0  0  0           0  0  0
   -0.9000   -5.7000    0.0000 C   0  0  0  0  0  0           0  0  0
    0.2667   -6.5917    0.0000 C   0  0  0  0  0  0           0  0  0
    1.0750   -6.7292    0.0000 S   0  0  0  0  0  0           0  0  0
    9.1000   -2.8542    0.0000 C   0  0  0  0  0  0           0  0  0
   -0.1250   -7.3250    0.0000 C   0  0  0  0  0  0           0  0  0
    8.9292   -3.6667    0.0000 C   0  0  0  0  0  0           0  0  0
    1.1792   -7.5542    0.0000 C   0  0  0  0  0  0           0  0  0
    8.4750   -2.3125    0.0000 C   0  0  0  0  0  0           0  0  0
    0.4375   -7.9042    0.0000 C   0  0  0  0  0  0           0  0  0
   -0.1083   -3.7167    0.0000 C   0  0  0  0  0  0           0  0  0
    8.1500   -3.9292    0.0000 C   0  0  0  0  0  0           0  0  0
    2.6917   -2.1625    0.0000 O   0  0  0  0  0  0           0  0  0
    1.9750   -2.5750    0.0000 C   0  0  0  0  0  0           0  0  0
    0.5500   -3.4000    0.0000 C   0  0  0  0  0  0           0  0  0
    7.6917   -2.5792    0.0000 C   0  0  0  0  0  0           0  0  0
    4.1250   -2.1625    0.0000 C   0  0  3  0  0  0           0  0  0
    3.4042   -2.5750    0.0000 C   0  0  0  0  0  0           0  0  0
    7.5375   -3.3792    0.0000 C   0  0  0  0  0  0           0  0  0
    9.8750   -2.5917    0.0000 O   0  0  0  0  0  0           0  0  0
    5.5500   -2.1625    0.0000 N   0  0  0  0  0  0           0  0  0
    1.2625   -2.1625    0.0000 C   0  0  0  0  0  0           0  0  0
    1.9750   -3.4042    0.0000 C   0  0  0  0  0  0           0  0  0
    9.5500   -4.2125    0.0000 O   0  0  0  0  0  0           0  0  0
    0.5500   -2.5667    0.0000 C   0  0  0  0  0  0           0  0  0
    1.2625   -3.8125    0.0000 C   0  0  0  0  0  0           0  0  0
    4.1250   -1.3375    0.0000 O   0  0  0  0  0  0           0  0  0
    4.8375   -2.5750    0.0000 C   0  0  0  0  0  0           0  0  0
    6.2625   -2.5750    0.0000 C   0  0  0  0  0  0           0  0  0
    6.9792   -2.1667    0.0000 C   0  0  0  0  0  0           0  0  0
   10.5000   -3.1375    0.0000 C   0  0  0  0  0  0           0  0  0
    9.3875   -5.0250    0.0000 C   0  0  0  0  0  0           0  0  0
  2  1  1  0     0  0
  3  5  1  0     0  0
  4  2  2  0     0  0
  5  1  2  0     0  0
  6  1  1  0     0  0
  7  6  1  0     0  0
  8 12  1  0     0  0
  9  6  2  0     0  0
 10 15  1  0     0  0
 11  7  1  0     0  0
 12 19  2  0     0  0
 13  9  1  0     0  0
 14  4  1  0     0  0
 15 22  2  0     0  0
 16 17  1  0     0  0
 17 26  1  0     0  0
 18 14  1  0     0  0
 19 33  1  0     0  0
 20 21  1  0     0  0
 21 16  1  0     0  0
 22 19  1  0     0  0
 23  8  1  0     0  0
 24 31  1  0     0  0
 25 28  1  0     0  0
 26 29  2  0     0  0
 27 10  1  0     0  0
 28 18  2  0     0  0
 29 18  1  0     0  0
 30 20  1  0     0  0
 31 20  1  0     0  0
 32 24  1  0     0  0
 33 32  1  0     0  0
 34 23  1  0     0  0
 35 27  1  0     0  0
  3  4  1  0     0  0
 11 13  2  0     0  0
 17 25  2  0     0  0
 10  8  2  0     0  0
M  END