
  SciTegic02011310452D

 43 47  0  0  0  0            999 V2000
   14.7094   -2.0141    0.0000 C   0  0
   15.1222   -2.7240    0.0000 C   0  0
   15.5306   -2.0116    0.0000 C   0  0
   18.6578   -3.1408    0.0000 C   0  0
   18.6566   -3.9603    0.0000 C   0  0
   19.3647   -4.3693    0.0000 C   0  0
   19.3629   -2.7319    0.0000 C   0  0
   20.0715   -3.1372    0.0000 C   0  0
   20.0763   -3.9603    0.0000 C   0  0
   20.8607   -4.2102    0.0000 N   0  0
   21.3407   -3.5413    0.0000 C   0  0
   20.8529   -2.8783    0.0000 N   0  0
   22.1579   -3.5365    0.0000 N   0  0
   22.5623   -2.8264    0.0000 C   0  0
   22.1495   -2.1211    0.0000 O   0  0
   17.9486   -4.3684    0.0000 C   0  0
   21.1178   -4.9859    0.0000 C   0  0  2  0  0  0
   20.5702   -5.5935    0.0000 C   0  0
   20.8243   -6.3664    0.0000 C   0  0
   21.6241   -6.5359    0.0000 C   0  0  1  0  0  0
   22.1694   -5.9260    0.0000 C   0  0
   21.9150   -5.1467    0.0000 C   0  0
   21.8782   -7.3126    0.0000 C   0  0
   21.3326   -7.9210    0.0000 O   0  0
   22.6779   -7.4808    0.0000 N   0  0
   23.2234   -6.8724    0.0000 C   0  0
   24.0231   -7.0407    0.0000 C   0  0
   22.9693   -6.0957    0.0000 C   0  0
   17.2412   -3.9592    0.0000 N   0  0
   17.2458   -3.1424    0.0000 C   0  0
   16.5425   -2.7333    0.0000 C   0  0
   15.8320   -3.1379    0.0000 C   0  0
   15.8294   -3.9560    0.0000 C   0  0
   16.5373   -4.3696    0.0000 C   0  0
   14.4166   -3.1314    0.0000 O   0  0
   23.3780   -2.8193    0.0000 C   0  0
   23.7902   -3.5262    0.0000 C   0  0
   24.6066   -3.5217    0.0000 C   0  0
   25.0118   -2.8111    0.0000 C   0  0
   24.5946   -2.1035    0.0000 C   0  0
   23.7796   -2.1115    0.0000 C   0  0
   25.0190   -4.2272    0.0000 F   0  0
   24.9965   -1.3920    0.0000 F   0  0
  2  1  1  0
  3  2  1  0
  4  5  2  0
  5  6  1  0
  6  9  2  0
  8  7  2  0
  7  4  1  0
  8  9  1  0
  9 10  1  0
 10 11  1  0
 11 12  1  0
 12  8  1  0
 11 13  2  0
 13 14  1  0
 14 15  2  0
  5 16  1  0
 17 10  1  1
 17 18  1  0
 17 22  1  0
 18 19  1  0
 19 20  1  0
 20 21  1  0
 21 22  1  0
 20 23  1  1
 23 24  2  0
 23 25  1  0
 25 26  1  0
 26 27  1  0
 26 28  1  0
 16 29  1  0
 29 30  1  0
 29 34  1  0
 30 31  1  0
 31 32  1  0
 32 33  1  0
 33 34  1  0
 32  2  1  0
  2 35  1  0
 36 37  2  0
 37 38  1  0
 38 39  2  0
 39 40  1  0
 40 41  2  0
 41 36  1  0
 14 36  1  0
 38 42  1  0
 40 43  1  0
M  END