
  SciTegic04191616232D

180189  0  0  0  0            999 V2000
   32.2268  -45.6697    0.0000 C   0  0
   28.7286  -66.1608    0.0000 C   0  0
   34.6637  -44.7635    0.0000 N   0  0
   27.5172  -55.4194    0.0000 N   0  0
   26.8489  -24.9944    0.0000 C   0  0
   17.3226  -61.6005    0.0000 C   0  0
   27.0791  -57.9822    0.0000 C   0  0  1  0  0  0
   34.2950  -58.7872    0.0000 N   0  0
   33.0023  -40.2621    0.0000 N   0  0
   17.8431  -63.0073    0.0000 C   0  0
   35.3373  -30.8253    0.0000 C   0  0
   36.2583  -28.2896    0.0000 C   0  0
   31.0781  -61.2964    0.0000 C   0  0
   34.8643  -28.7834    0.0000 C   0  0
    3.1036  -67.3989    0.0000 C   0  0
   30.6660  -41.4503    0.0000 C   0  0
   28.8315  -47.7310    0.0000 N   0  0
   24.5051  -26.6196    0.0000 O   0  0
   29.7077  -42.6054    0.0000 C   0  0  1  0  0  0
    8.5343  -64.0555    0.0000 C   0  0
   31.3604  -23.1283    0.0000 C   0  0
   26.2029  -63.1078    0.0000 N   0  0
   30.2095  -66.4046    0.0000 N   0  0
   34.1527  -59.6198    0.0000 N   0  0
   30.5346  -49.3409    0.0000 O   0  0
   13.5606  -70.1486    0.0000 C   0  0
    9.5730  -66.8701    0.0000 C   0  0
   12.6030  -71.3032    0.0000 C   0  0  1  0  0  0
   25.5992  -57.7323    0.0000 C   0  0
   32.5371  -22.8932    0.0000 C   0  0
   36.1436  -45.0133    0.0000 C   0  0
   29.9544  -54.5203    0.0000 C   0  0
   24.8338  -44.4178    0.0000 N   0  0
   29.2203  -57.0294    0.0000 O   0  0
   32.4184  -31.1991    0.0000 C   0  0
   29.3517  -49.1387    0.0000 C   0  0
   17.0620  -64.6293    0.0000 O   0  0
   25.5393  -27.2283    0.0000 S   0  0
   31.1618  -65.2446    0.0000 N   0  3
    6.0956  -64.9579    0.0000 N   0  0
    8.0946  -66.6161    0.0000 N   0  0
   19.9602  -60.4692    0.0000 N   0  0
   25.4582  -60.3428    0.0000 O   0  0
   25.7694  -65.6674    0.0000 C   0  0
   25.9565  -51.2000    0.0000 C   0  0
   38.6986  -27.2807    0.0000 C   0  0
   38.0761  -29.8722    0.0000 C   0  0
   22.2053  -59.7947    0.0000 N   0  0
   31.9519  -56.1846    0.0000 C   0  0
   13.4071  -62.2460    0.0000 N   0  0
   24.4766  -50.9502    0.0000 C   0  0
   38.2006  -34.3767    0.0000 S   0  0
   27.5994  -59.3900    0.0000 N   0  0
   23.5196  -52.1063    0.0000 N   0  0
   29.4561  -25.0001    0.0000 C   0  0
   16.8849  -64.1614    0.0000 C   0  0
   31.8489  -41.6525    0.0000 O   0  0
   29.2696  -45.1682    0.0000 C   0  0
   22.0397  -51.8564    0.0000 C   0  0
   36.8186  -32.1538    0.0000 C   0  0
   33.9494  -57.8489    0.0000 C   0  0
    7.5753  -65.2089    0.0000 C   0  0
   12.5337  -67.3740    0.0000 C   0  0
   35.6703  -29.6724    0.0000 C   0  0
   28.0868  -44.9660    0.0000 O   0  0
   11.1243  -71.0511    0.0000 C   0  0
   22.9357  -43.0432    0.0000 N   0  0
   31.2697  -46.8258    0.0000 C   0  0
   30.4731  -55.9286    0.0000 C   0  0
   28.1567  -27.2581    0.0000 C   0  0
   24.3063  -61.7311    0.0000 O   0  0
   38.2983  -26.1495    0.0000 C   0  0
   16.4512  -66.7220    0.0000 C   0  0
   20.7254  -59.5448    0.0000 C   0  0
   24.7233  -62.8563    0.0000 C   0  0
   28.4756  -54.2643    0.0000 C   0  0  2  0  0  0
   30.8792  -24.5475    0.0000 N   0  0
   10.6033  -69.6445    0.0000 C   0  0
   39.4323  -32.0989    0.0000 C   0  0
   21.2745  -52.7808    0.0000 N   0  0
   13.0396  -68.7420    0.0000 C   0  0
   12.8884  -60.8377    0.0000 N   0  3
   14.8859  -62.5019    0.0000 C   0  0
   37.1804  -35.0085    0.0000 O   0  0
   23.3540  -44.1680    0.0000 C   0  0
   10.5320  -65.7167    0.0000 C   0  0
   24.2895  -65.4176    0.0000 C   0  0
   36.7993  -30.6499    0.0000 C   0  0
   30.5839  -37.4797    0.0000 C   0  0
   37.7257  -28.4206    0.0000 N   0  3
   32.8565  -28.6363    0.0000 C   0  0
   26.7229  -64.5094    0.0000 C   0  0
   24.4950  -27.8194    0.0000 O   0  0
   31.8982  -29.7913    0.0000 C   0  0
   30.0648  -27.8403    0.0000 C   0  0
   36.5619  -46.1380    0.0000 N   0  0
   17.4095  -65.5669    0.0000 C   0  0
    5.1377  -66.1133    0.0000 C   0  0
   38.2375  -35.5761    0.0000 O   0  0
   33.2317  -25.7219    0.0000 C   0  0
   30.1458  -40.0425    0.0000 N   0  0
   28.0375  -56.8272    0.0000 C   0  0
   18.8892  -65.8184    0.0000 N   0  0
   38.1554  -32.8766    0.0000 C   0  0
   25.7909  -43.2617    0.0000 C   0  0
   28.2025  -64.7561    0.0000 C   0  0
   31.9232  -64.3171    0.0000 N   0  5
   12.1167  -66.2488    0.0000 O   0  0
   15.8441  -61.3478    0.0000 C   0  0
   27.7752  -67.3188    0.0000 C   0  0
   10.0954  -68.2771    0.0000 C   0  0
   29.5982  -61.0465    0.0000 C   0  0
   21.3271  -64.9149    0.0000 C   0  0
   10.0127  -64.3094    0.0000 C   0  0
   32.4706  -57.5929    0.0000 N   0  0
   11.5754  -68.5291    0.0000 C   0  0  2  0  0  0
   31.1041  -38.8875    0.0000 C   0  0  1  0  0  0
   25.5289  -28.4282    0.0000 O   0  0
   33.9953  -27.0139    0.0000 C   0  0
   36.9088  -44.0889    0.0000 N   0  0
   26.2956  -67.0721    0.0000 C   0  0
   26.9135  -50.0439    0.0000 C   0  0
   23.7650  -64.0113    0.0000 C   0  0  1  0  0  0
   26.8457  -26.4895    0.0000 C   0  0
   34.7176  -56.9269    0.0000 N   0  0
   19.3230  -63.2572    0.0000 C   0  0
   27.2708  -43.5116    0.0000 C   0  0
   31.5422  -36.3247    0.0000 C   0  0
   23.1623  -58.6386    0.0000 C   0  0
   32.5840  -39.1374    0.0000 C   0  0
   22.2854  -63.7599    0.0000 N   0  0
   21.6214  -50.7317    0.0000 N   0  0
   33.7067  -45.9195    0.0000 C   0  0
   31.7309  -25.7363    0.0000 C   0  0
   30.8739  -26.9541    0.0000 C   0  0
   24.6422  -58.8884    0.0000 C   0  0
   29.7898  -46.5759    0.0000 C   0  0  1  0  0  0
   28.6412  -62.2026    0.0000 C   0  0
   31.4601  -32.3541    0.0000 N   0  0
   28.2278  -42.3555    0.0000 C   0  0
   28.3934  -50.2938    0.0000 C   0  0  1  0  0  0
   12.4736  -59.7116    0.0000 N   0  5
   26.7725  -52.6544    0.0000 O   0  0
   39.2577  -34.9447    0.0000 O   0  0
   39.4034  -30.5795    0.0000 C   0  0
   33.9333  -61.5149    0.0000 N   0  0
   30.2279  -44.0131    0.0000 N   0  0
   29.4528  -26.4952    0.0000 C   0  0
   32.3363  -27.2285    0.0000 C   0  0
   27.9553  -52.8566    0.0000 C   0  0
   35.4961  -26.9996    0.0000 C   0  0
   33.5150  -60.3901    0.0000 C   0  0
   20.3071  -58.4201    0.0000 N   0  0
   32.0351  -60.1403    0.0000 N   0  0
   28.9137  -51.7015    0.0000 N   0  0
   14.9716  -66.4705    0.0000 C   0  0
   28.1633  -24.2316    0.0000 C   0  0
   33.6013  -31.4013    0.0000 O   0  0
   27.1613  -61.9528    0.0000 C   0  0  2  0  0  0
   15.4064  -63.9087    0.0000 C   0  0
   26.6410  -60.5450    0.0000 C   0  0
   14.0133  -67.6255    0.0000 N   0  0
   31.9803  -33.7619    0.0000 C   0  0
    3.6545  -66.0037    0.0000 N   0  0
   22.5887  -45.0924    0.0000 N   0  0
   21.7441  -66.0401    0.0000 O   0  0
   19.8475  -64.6634    0.0000 C   0  0  1  0  0  0
   33.3492  -38.2130    0.0000 O   0  0
    4.2603  -68.3539    0.0000 C   0  0
   31.0220  -34.9169    0.0000 C   0  0
    5.5260  -67.5490    0.0000 S   0  0
   13.1272  -72.7095    0.0000 O   0  0
   14.6071  -72.9595    0.0000 C   0  0
   15.1331  -74.3643    0.0000 C   0  0
   16.6126  -74.6112    0.0000 C   0  0
   17.5662  -73.4534    0.0000 C   0  0
   17.0403  -72.0486    0.0000 C   0  0
   15.5608  -71.8017    0.0000 C   0  0
   14.3702  -75.2906    0.0000 F   0  0
   17.0334  -75.7351    0.0000 Cl  0  0
 90 12  2  0
 61125  1  0
109  6  2  0
164 98  2  0
 47 88  2  0
116 81  1  0
 64 11  1  0
167126  1  6
 55157  1  0
 18 38  2  0
 23 39  2  0
151 12  1  0
141122  1  6
 98171  1  0
  4 76  1  0
133  3  1  0
116 63  1  1
  2110  1  0
 50 82  2  0
113166  2  0
 92106  1  0
 35158  2  0
 28 26  1  0
 83 50  1  0
 97103  1  0
 62 20  2  0
 10 56  2  0
135134  1  0
 91149  1  0
 20114  1  0
152146  1  0
 47 90  1  0
171169  1  0
 13154  1  0
 45 51  1  0
159161  1  0
140127  1  0
 36 25  2  0
 22159  1  0
152 24  2  0
170163  1  0
 63162  1  0
160 83  2  0
 40 98  1  0
 31120  2  0
117130  1  0
 38118  1  0
 38 93  2  0
 63108  2  0
 78 66  1  0
 90 46  1  0
 12 64  1  0
 62 40  1  0
 32 69  1  0
121 44  1  0
 88 60  1  0
 19140  1  6
114 86  2  0
  6 10  1  0
 31 96  1  0
 75 71  2  0
135 95  1  0
102  4  1  0
 83109  1  0
 44 92  2  0
 35 94  1  0
131123  1  0
 74153  1  0
 27 41  2  0
155141  1  0
 52 84  2  0
128170  1  0
157  5  2  0
154152  1  0
 19 16  1  0
123 75  1  0
 64 88  1  0
 73 97  1  0
 60104  2  0
105 33  1  0
115 61  1  0
 41 62  1  0
141 36  1  0
156 73  1  0
101117  1  0
 54 59  1  0
163139  1  0
 52144  1  0
 49115  1  0
127105  1  0
111 27  1  0
145 47  1  0
 58147  1  0
110121  2  0
  5124  1  0
 94 91  1  0
 64 14  1  0
126 10  1  0
 99 52  2  0
150143  2  0
169 15  2  0
 76 32  1  1
 76150  1  0
100119  1  0
 61  8  2  0
138112  1  0
 79145  2  0
130168  2  0
 70148  1  0
124 70  2  0
147 19  1  0
 16101  1  0
 97 37  2  0
 21 30  1  0
162156  1  0
148 55  2  0
 29136  1  0
  2 23  1  0
102 34  2  0
123 87  1  1
 39107  2  0
 48 74  1  0
 82142  2  0
 75 22  1  0
161 53  1  0
 86 27  1  0
122 45  1  0
137 58  1  0
149135  1  0
 85 67  1  0
  1133  1  0
104 79  1  0
 77 55  1  0
124 38  1  0
159138  1  1
 51 54  1  0
148135  1  0
139 35  1  0
167113  1  0
 15164  1  0
 33 85  1  0
106  2  2  0
 56160  1  0
116111  1  0
113131  1  0
 46 72  1  0
 74 42  2  0
134 77  1  0
 69 49  1  0
 66 28  1  0
 17137  1  0
116 78  1  0
117 89  1  6
 59132  1  0
129 48  1  0
 68  1  1  0
134100  2  0
 59 80  2  0
150155  1  0
 53  7  1  0
 16 57  2  0
  3 31  1  0
119151  2  0
 36 17  1  0
 87 44  1  0
112 13  1  0
 58 65  2  0
  7 29  1  6
103167  1  0
 26 81  1  0
  7102  1  0
 89128  1  0
104 52  1  0
161 43  2  0
 85165  2  0
 77 21  1  0
137 68  1  1
136129  1  0
130  9  1  0
 28172  1  6
172173  1  0
173174  2  0
174175  1  0
175176  2  0
176177  1  0
177178  2  0
178173  1  0
174179  1  0
175180  1  0
M  CHG  5  39   1  82   1  90   1 107  -1 142  -1
M  END