
  SciTegic01061414252D

 23 24  0  0  0  0            999 V2000
   11.5989   -3.5183    0.0000 S   0  0
   11.1858   -4.2324    0.0000 O   0  0
   12.0108   -4.2331    0.0000 O   0  0
   12.3149   -2.2791    0.0000 C   0  0
   12.3136   -3.1064    0.0000 C   0  0
   13.0285   -3.5193    0.0000 C   0  0
   13.7448   -3.1059    0.0000 C   0  0
   13.7420   -2.2755    0.0000 C   0  0
   13.0267   -1.8663    0.0000 C   0  0
   14.4549   -1.8602    0.0000 C   0  0
   15.1709   -2.2700    0.0000 C   0  0
   14.4518   -1.0353    0.0000 O   0  0
   15.8838   -1.8549    0.0000 S   0  0
   16.5998   -2.2647    0.0000 C   0  0
   16.5998   -3.0885    0.0000 N   0  0
   17.3149   -3.4982    0.0000 C   0  0
   18.0289   -3.0830    0.0000 C   0  0
   18.0230   -2.2538    0.0000 C   0  0
   17.3073   -1.8477    0.0000 N   0  0
   10.8848   -3.1053    0.0000 N   0  0
   13.0283   -4.3442    0.0000 Cl  0  0
   18.7344   -1.8360    0.0000 C   0  0
   17.3176   -4.3232    0.0000 C   0  0
  2  1  2  0
  1  3  2  0
  4  5  2  0
  5  6  1  0
  6  7  2  0
  7  8  1  0
  8  9  2  0
  9  4  1  0
  8 10  1  0
 10 11  1  0
 10 12  2  0
 11 13  1  0
 13 14  1  0
 14 15  2  0
 15 16  1  0
 16 17  2  0
 17 18  1  0
 18 19  2  0
 19 14  1  0
  5  1  1  0
  1 20  1  0
  6 21  1  0
 18 22  1  0
 16 23  1  0
M  END