
  SciTegic12131615192D

 44 45  0  0  0  0            999 V2000
   -3.8990    0.7455    0.0000 C   0  0
   -5.2003    1.4932    0.0000 C   0  0
   -6.4990    0.7409    0.0000 C   0  0
   -7.8003    1.4887    0.0000 C   0  0
   -9.0990    0.7364    0.0000 C   0  0
  -10.4003    1.4841    0.0000 C   0  0
  -11.6990    0.7318    0.0000 C   0  0
  -13.0003    1.4796    0.0000 C   0  0
   -2.6003    1.4977    0.0000 O   0  0
  -14.2989    0.7273    0.0000 O   0  0
    2.5973   -1.5031    0.0000 C   0  0
    1.2990   -0.7500    0.0000 C   0  0
    1.2990    0.7500    0.0000 C   0  0
    0.0000    1.5000    0.0000 C   0  0
   -1.2990    0.7500    0.0000 C   0  0
   -1.2990   -0.7500    0.0000 C   0  0
    0.0000   -1.5000    0.0000 C   0  0
    3.6375   -0.9049    0.0000 N   0  0
    2.5951   -3.0039    0.0000 N   0  0
    3.8933   -3.7570    0.0000 C   0  0
    3.8912   -5.2578    0.0000 C   0  0
    5.1894   -6.0109    0.0000 C   0  0
    5.1873   -7.5117    0.0000 C   0  0
    6.4855   -8.2648    0.0000 C   0  0
    6.4833   -9.7656    0.0000 C   0  0
    7.7815  -10.5187    0.0000 C   0  0
    7.7798  -11.7187    0.0000 N   0  0
  -19.4967    3.7281    0.0000 C   0  0
  -18.1984    2.9750    0.0000 C   0  0
  -18.1984    1.4750    0.0000 C   0  0
  -16.8993    0.7251    0.0000 C   0  0
  -15.6002    1.4750    0.0000 C   0  0
  -15.6003    2.9751    0.0000 C   0  0
  -16.8994    3.7251    0.0000 C   0  0
  -20.5369    3.1299    0.0000 N   0  0
  -19.4946    5.2289    0.0000 N   0  0
  -20.7928    5.9820    0.0000 C   0  0
  -20.7907    7.4828    0.0000 C   0  0
  -22.0889    8.2358    0.0000 C   0  0
  -22.0868    9.7367    0.0000 C   0  0
  -23.3850   10.4897    0.0000 C   0  0
  -23.3829   11.9905    0.0000 C   0  0
  -24.6812   12.7436    0.0000 C   0  0
  -24.6795   13.9436    0.0000 N   0  0
  1  2  1  0
  2  3  1  0
  3  4  1  0
  4  5  1  0
  5  6  1  0
  6  7  1  0
  7  8  1  0
  1  9  1  0
  8 10  1  0
 11 12  1  0
 12 13  1  0
 13 14  2  0
 14 15  1  0
 15 16  2  0
 16 17  1  0
 12 17  2  0
 11 18  2  0
 11 19  1  0
 20 21  1  0
 21 22  1  0
 22 23  1  0
 23 24  1  0
 24 25  1  0
 25 26  1  0
 26 27  1  0
 19 20  1  0
  9 15  1  0
 28 29  1  0
 29 30  1  0
 30 31  2  0
 31 32  1  0
 32 33  2  0
 33 34  1  0
 29 34  2  0
 28 35  2  0
 28 36  1  0
 37 38  1  0
 38 39  1  0
 39 40  1  0
 40 41  1  0
 41 42  1  0
 42 43  1  0
 43 44  1  0
 36 37  1  0
 10 32  1  0
M  END