
  SciTegic10311316212D

 27 30  0  0  0  0            999 V2000
   33.4798   -5.1576    0.0000 C   0  0
   34.1895   -4.7481    0.0000 C   0  0
   34.1866   -3.9296    0.0000 C   0  0
   33.4780   -3.5243    0.0000 N   0  0
   32.7718   -4.7486    0.0000 N   0  0
   32.7725   -3.9317    0.0000 C   0  0
   31.9948   -3.6811    0.0000 C   0  0
   31.5189   -4.3350    0.0000 C   0  0
   31.9960   -5.0013    0.0000 N   0  0
   31.7432   -2.9008    0.0000 C   0  0
   31.4910   -2.1182    0.0000 N   0  0
   33.4796   -5.9748    0.0000 N   0  0
   34.9011   -3.5142    0.0000 N   0  0
   35.6167   -3.9228    0.0000 C   0  0
   35.6215   -4.7396    0.0000 C   0  0
   36.3251   -5.1489    0.0000 C   0  0
   37.0436   -4.7376    0.0000 C   0  0
   37.0365   -3.9145    0.0000 C   0  0
   36.3198   -3.5121    0.0000 C   0  0
   37.7459   -3.4941    0.0000 N   0  0
   32.7718   -6.3832    0.0000 C   0  0
   31.9564   -6.3858    0.0000 C   0  0
   32.3648   -7.0936    0.0000 C   0  0
   37.7365   -2.6770    0.0000 C   0  0
   38.4395   -2.2603    0.0000 C   0  0
   37.0242   -2.2765    0.0000 O   0  0
   37.7524   -5.1444    0.0000 C   0  0
  5  1  1  0
  1  2  2  0
  2  3  1  0
  3  4  2  0
  4  6  1  0
  5  6  1  0
  6  7  2  0
  7  8  1  0
  8  9  2  0
  9  5  1  0
  7 10  1  0
 10 11  3  0
  1 12  1  0
  3 13  1  0
 13 14  1  0
 14 15  2  0
 15 16  1  0
 16 17  2  0
 17 18  1  0
 18 19  2  0
 19 14  1  0
 18 20  1  0
 12 21  1  0
 22 21  1  0
 23 22  1  0
 21 23  1  0
 20 24  1  0
 24 25  1  0
 24 26  2  0
 17 27  1  0
M  END