
  CDK    9/16/09,10:4

 22 24  0  0  0  0  0  0  0  0999 V2000
   10.6946  -25.4388    0.0000 C   0  0  0  0  0  0  0  0  0  0  0  0
   11.4090  -25.0264    0.0000 N   0  0  0  0  0  0  0  0  0  0  0  0
    9.9803  -25.0264    0.0000 N   0  0  0  0  0  0  0  0  0  0  0  0
   10.6946  -26.2637    0.0000 S   0  0  0  0  0  0  0  0  0  0  0  0
    9.2659  -25.4388    0.0000 C   0  0  0  0  0  0  0  0  0  0  0  0
    8.5520  -25.0232    0.0000 C   0  0  0  0  0  0  0  0  0  0  0  0
    7.8381  -25.4349    0.0000 C   0  0  0  0  0  0  0  0  0  0  0  0
    7.8377  -26.2607    0.0000 C   0  0  0  0  0  0  0  0  0  0  0  0
    8.5571  -26.6731    0.0000 C   0  0  0  0  0  0  0  0  0  0  0  0
    9.2681  -26.2589    0.0000 C   0  0  0  0  0  0  0  0  0  0  0  0
   12.1234  -25.4388    0.0000 C   0  0  0  0  0  0  0  0  0  0  0  0
   12.1208  -26.2647    0.0000 C   0  0  0  0  0  0  0  0  0  0  0  0
   12.8345  -26.6772    0.0000 C   0  0  0  0  0  0  0  0  0  0  0  0
   12.8330  -25.0269    0.0000 C   0  0  0  0  0  0  0  0  0  0  0  0
   13.5472  -25.4354    0.0000 C   0  0  0  0  0  0  0  0  0  0  0  0
   13.5508  -26.2631    0.0000 C   0  0  0  0  0  0  0  0  0  0  0  0
   14.3391  -26.5155    0.0000 C   0  0  0  0  0  0  0  0  0  0  0  0
   14.8227  -25.8437    0.0000 O   0  0  0  0  0  0  0  0  0  0  0  0
   14.3332  -25.1763    0.0000 C   0  0  0  0  0  0  0  0  0  0  0  0
   14.5847  -24.3907    0.0000 O   0  0  0  0  0  0  0  0  0  0  0  0
    7.1238  -26.6742    0.0000 C   0  0  0  0  0  0  0  0  0  0  0  0
    8.5600  -27.4980    0.0000 Cl  0  0  0  0  0  0  0  0  0  0  0  0
  2 11  1  0  0  0  0 
  5  6  2  0  0  0  0 
 11 12  2  0  0  0  0 
  1  2  1  0  0  0  0 
 12 13  1  0  0  0  0 
 13 16  2  0  0  0  0 
  6  7  1  0  0  0  0 
 15 14  2  0  0  0  0 
 14 11  1  0  0  0  0 
 15 16  1  0  0  0  0 
  1  4  2  0  0  0  0 
  7  8  2  0  0  0  0 
  8  9  1  0  0  0  0 
  3  5  1  0  0  0  0 
 16 17  1  0  0  0  0 
 17 18  1  0  0  0  0 
 18 19  1  0  0  0  0 
 19 15  1  0  0  0  0 
  9 10  2  0  0  0  0 
 19 20  2  0  0  0  0 
 10  5  1  0  0  0  0 
  8 21  1  0  0  0  0 
  1  3  1  0  0  0  0 
  9 22  1  0  0  0  0 
M  END