
  SciTegic02181312462D

 26 28  0  0  0  0            999 V2000
   13.0360  -10.0647    0.0000 C   0  0
   12.6241  -10.7864    0.0000 C   0  0
   11.7950  -10.7895    0.0000 C   0  0
   12.6217   -9.3496    0.0000 C   0  0
   11.7939   -9.3491    0.0000 C   0  0
   11.3790  -10.0733    0.0000 C   0  0
   10.5620   -9.9024    0.0000 N   0  0
   10.4721   -9.0725    0.0000 C   0  0
   11.2335   -8.7307    0.0000 N   0  0
    9.7531   -8.6604    0.0000 S   0  3
    9.0368   -9.0770    0.0000 C   0  0
    9.7505   -7.8318    0.0000 O   0  5
    9.0460   -9.9066    0.0000 C   0  0
    9.7700  -10.3114    0.0000 N   0  0
    9.7779  -11.1392    0.0000 C   0  0
    9.0636  -11.5609    0.0000 C   0  0
    8.3399  -11.1488    0.0000 C   0  0
    8.3355  -10.3224    0.0000 C   0  0
    7.6155   -9.9120    0.0000 C   0  0
    7.6245  -11.5672    0.0000 O   0  0
    7.6293  -12.3957    0.0000 C   0  0
    6.9140  -12.8140    0.0000 C   0  0
    6.9187  -13.6427    0.0000 F   0  0
    6.1941  -12.4039    0.0000 F   0  0
    6.1125  -13.0347    0.0000 F   0  0
   11.4032   -7.9196    0.0000 C   0  0
  1  2  2  0
  2  3  1  0
  3  6  2  0
  5  4  2  0
  4  1  1  0
  5  6  1  0
  6  7  1  0
  7  8  2  0
  8  9  1  0
  9  5  1  0
  8 10  1  0
 10 11  1  0
 10 12  1  0
 11 13  1  0
 13 14  2  0
 14 15  1  0
 15 16  2  0
 16 17  1  0
 17 18  2  0
 18 13  1  0
 18 19  1  0
 17 20  1  0
 20 21  1  0
 21 22  1  0
 22 23  1  0
 22 24  1  0
 22 25  1  0
  9 26  1  0
M  CHG  2  10   1  12  -1
M  ISO  1  26  11
M  END