
  SciTegic04091415222D

 24 26  0  0  0  0            999 V2000
   26.8224  -15.0726    0.0000 C   0  0
   27.5277  -14.6682    0.0000 C   0  0
   27.5277  -13.8510    0.0000 C   0  0
   26.8224  -13.4383    0.0000 C   0  0
   26.8224  -15.8898    0.0000 O   0  0
   26.8224  -12.6211    0.0000 O   0  0
   26.1171  -14.6682    0.0000 C   0  0
   26.1196  -13.8528    0.0000 C   0  0
   25.4159  -13.4447    0.0000 C   0  0
   24.7091  -13.8508    0.0000 C   0  0
   24.7105  -14.6693    0.0000 C   0  0
   25.4149  -15.0737    0.0000 N   0  0
   28.2348  -15.0778    0.0000 N   0  0
   28.9431  -14.6702    0.0000 C   0  0
   29.6502  -15.0798    0.0000 C   0  0
   30.3585  -14.6723    0.0000 C   0  0
   31.0659  -15.0836    0.0000 C   0  0
   31.7737  -14.6767    0.0000 C   0  0
   31.7753  -13.8587    0.0000 C   0  0
   31.0632  -13.4492    0.0000 C   0  0
   30.3583  -13.8584    0.0000 C   0  0
   31.0615  -12.6320    0.0000 Cl  0  0
   32.4831  -13.4502    0.0000 O   0  0
   33.1907  -13.8588    0.0000 C   0  0
  8  4  1  0
  7  1  1  0
  1  2  1  0
  2  3  2  0
  3  4  1  0
  1  5  2  0
  4  6  2  0
  7  8  2  0
  8  9  1  0
  9 10  2  0
 10 11  1  0
 11 12  2  0
 12  7  1  0
  2 13  1  0
 13 14  1  0
 14 15  1  0
 15 16  1  0
 16 17  2  0
 17 18  1  0
 18 19  2  0
 19 20  1  0
 20 21  2  0
 21 16  1  0
 20 22  1  0
 19 23  1  0
 23 24  1  0
M  END