
  SciTegic12231509382D

 30 33  0  0  0  0            999 V2000
    3.8667   -3.0750    0.0000 N   0  0
    3.8125   -2.4750    0.0000 C   0  0
    4.4292   -3.2875    0.0000 C   0  0
    2.7500   -2.3250    0.0000 O   0  0
    3.4292   -3.4792    0.0000 C   0  0
    3.3167   -2.1417    0.0000 C   0  0
    2.8417   -3.4000    0.0000 C   0  0
    2.5292   -2.8792    0.0000 C   0  0
    4.9500   -2.9792    0.0000 N   0  0
    4.3417   -2.2042    0.0000 C   0  0
    5.9917   -2.9792    0.0000 C   0  0
    5.4667   -3.2792    0.0000 N   0  0
    4.4250   -3.8917    0.0000 O   0  0
    3.3500   -1.5500    0.0000 C   0  0
    8.5917   -3.8792    0.0000 N   0  0
    5.9917   -2.3792    0.0000 O   0  0
    4.3792   -1.6042    0.0000 C   0  0
    6.5167   -3.2792    0.0000 C   0  0
    3.8792   -1.2792    0.0000 C   0  0
    4.9167   -1.3417    0.0000 Cl  0  0
    7.0375   -2.9792    0.0000 C   0  0
    7.5542   -3.2792    0.0000 C   0  0
    2.5417   -3.9292    0.0000 C   0  0
    1.9292   -2.8875    0.0000 C   0  0
    8.5917   -3.2792    0.0000 C   0  0
    8.0750   -4.1792    0.0000 C   0  0
    8.0667   -2.9792    0.0000 C   0  0
    7.5542   -3.8792    0.0000 C   0  0
    1.9292   -3.9375    0.0000 C   0  0
    1.6292   -3.4167    0.0000 C   0  0
  2  1  1  0
  3  1  1  0
  4  6  1  0
  5  1  1  0
  6  2  2  0
  7  5  1  0
  8  7  2  0
  9  3  1  0
 10  2  1  0
 11 12  1  0
 12  9  1  0
 13  3  2  0
 14  6  1  0
 15 25  1  0
 16 11  2  0
 17 10  2  0
 18 11  1  0
 19 17  1  0
 20 17  1  0
 21 18  1  0
 22 21  1  0
 23  7  1  0
 24  8  1  0
 25 27  2  0
 26 28  1  0
 27 22  1  0
 28 22  2  0
 29 23  2  0
 30 29  1  0
  8  4  1  0
 19 14  2  0
 24 30  2  0
 26 15  2  0
M  END