
          11280716012D 1   1.00000     0.00000     0

 73 74  0     1  0            999 V2000
   -2.4250   -0.4667    0.0000 C   0  0  1  0  0  0           0  0  0
   -1.9208   -0.1750    0.0000 C   0  0  0  0  0  0           0  0  0
   -2.9458   -0.1750    0.0000 N   0  0  0  0  0  0           0  0  0
   -3.4458   -0.4667    0.0000 C   0  0  0  0  0  0           0  0  0
    0.0125    3.0000    0.0000 P   0  0  3  0  0  0           0  0  0
   -4.4708   -0.4667    0.0000 N   0  0  0  0  0  0           0  0  0
   -4.9833   -0.1750    0.0000 C   0  0  0  0  0  0           0  0  0
    1.1542   -0.1750    0.0000 C   0  0  0  0  0  0           0  0  0
   -0.3833   -0.4667    0.0000 C   0  0  0  0  0  0           0  0  0
   -1.4000   -0.4667    0.0000 N   0  0  0  0  0  0           0  0  0
    0.1292   -0.1750    0.0000 N   0  0  0  0  0  0           0  0  0
   -3.9583   -0.1750    0.0000 C   0  0  1  0  0  0           0  0  0
    1.6625   -0.4667    0.0000 N   0  0  0  0  0  0           0  0  0
    0.6375   -0.4667    0.0000 C   0  0  1  0  0  0           0  0  0
    0.6375   -1.0917    0.0000 C   0  0  0  0  0  0           0  0  0
    2.6875   -0.4667    0.0000 C   0  0  0  0  0  0           0  0  0
   -0.8958   -0.1750    0.0000 C   0  0  1  0  0  0           0  0  0
   -2.4250   -1.0542    0.0000 C   0  0  3  0  0  0           0  0  0
    2.1792   -0.1750    0.0000 C   0  0  2  0  0  0           0  0  0
    5.7542   -0.4667    0.0000 C   0  0  0  0  0  0           0  0  0
    4.7375   -0.4667    0.0000 N   0  0  0  0  0  0           0  0  0
    0.9375   -1.6292    0.0000 C   0  0  0  0  0  0           0  0  0
    4.2250   -0.1750    0.0000 C   0  0  0  0  0  0           0  0  0
    3.2000   -0.1750    0.0000 N   0  0  0  0  0  0           0  0  0
    5.2417   -0.1750    0.0000 C   0  0  1  0  0  0           0  0  0
   -5.4958   -0.4667    0.0000 C   0  0  2  0  0  0           0  0  0
    0.3000    2.4958    0.0000 O   0  0  0  0  0  0           0  0  0
    5.7542    1.3000    0.0000 C   0  0  0  0  0  0           0  0  0
   -0.5000    2.7083    0.0000 O   0  0  0  0  0  0           0  0  0
   -1.9208    0.4208    0.0000 O   0  0  0  0  0  0           0  0  0
   -3.4458   -1.0542    0.0000 O   0  0  0  0  0  0           0  0  0
   -4.9833    0.4208    0.0000 O   0  0  0  0  0  0           0  0  0
   -0.3833   -1.0542    0.0000 O   0  0  0  0  0  0           0  0  0
    1.1542    0.4208    0.0000 O   0  0  0  0  0  0           0  0  0
   -0.8958    0.4208    0.0000 C   0  0  0  0  0  0           0  0  0
    2.6875   -1.0667    0.0000 O   0  0  0  0  0  0           0  0  0
    5.7542   -1.0542    0.0000 O   0  0  0  0  0  0           0  0  0
    2.1792    0.4208    0.0000 C   0  0  0  0  0  0           0  0  0
    1.5542   -1.6417    0.0000 O   0  0  0  0  0  0           0  0  0
   -1.9083   -1.3542    0.0000 C   0  0  0  0  0  0           0  0  0
    4.2250    0.4208    0.0000 O   0  0  0  0  0  0           0  0  0
    6.2667    1.6000    0.0000 O   0  0  0  0  0  0           0  0  0
   -5.4958   -1.0667    0.0000 C   0  0  0  0  0  0           0  0  0
    5.2417    0.4208    0.0000 C   0  0  0  0  0  0           0  0  0
    0.5167    3.2958    0.0000 O   0  0  0  0  0  0           0  0  0
   -0.2875    3.5208    0.0000 O   0  0  0  0  0  0           0  0  0
    3.7125   -0.4667    0.0000 C   0  0  0  0  0  0           0  0  0
   -3.9583    0.4208    0.0000 C   0  0  3  0  0  0           0  0  0
    0.6125   -2.1625    0.0000 N   0  0  0  0  0  0           0  0  0
    5.7542    0.7083    0.0000 C   0  0  0  0  0  0           0  0  0
    0.0042    1.9833    0.0000 C   0  0  0  0  0  0           0  0  0
   -0.5833    0.9583    0.0000 C   0  0  0  0  0  0           0  0  0
   -6.0000   -0.1750    0.0000 N   0  0  0  0  0  0           0  0  0
    6.2667   -0.1750    0.0000 O   0  0  0  0  0  0           0  0  0
   -2.9458   -1.3542    0.0000 O   0  0  0  0  0  0           0  0  0
    5.2417    1.6000    0.0000 O   0  0  0  0  0  0           0  0  0
    0.0042    0.9583    0.0000 C   0  0  0  0  0  0           0  0  0
   -0.8833    1.4708    0.0000 C   0  0  0  0  0  0           0  0  0
   -0.5833    1.9833    0.0000 C   0  0  0  0  0  0           0  0  0
    0.3000    1.4625    0.0000 C   0  0  0  0  0  0           0  0  0
    2.4792    0.9375    0.0000 C   0  0  3  0  0  0           0  0  0
   -5.0708   -1.4917    0.0000 C   0  0  3  0  0  0           0  0  0
   -1.3958   -1.0542    0.0000 C   0  0  0  0  0  0           0  0  0
   -1.9083   -1.9542    0.0000 C   0  0  0  0  0  0           0  0  0
   -4.4708    0.7083    0.0000 C   0  0  0  0  0  0           0  0  0
   -3.4458    0.7083    0.0000 C   0  0  0  0  0  0           0  0  0
   -4.5000   -1.3417    0.0000 C   0  0  0  0  0  0           0  0  0
   -5.2333   -2.0667    0.0000 C   0  0  0  0  0  0           0  0  0
    2.1667    1.4583    0.0000 C   0  0  0  0  0  0           0  0  0
    3.0750    0.9458    0.0000 C   0  0  0  0  0  0           0  0  0
   -1.3958   -2.2542    0.0000 C   0  0  0  0  0  0           0  0  0
   -0.8833   -1.3542    0.0000 C   0  0  0  0  0  0           0  0  0
   -0.8750   -1.9542    0.0000 C   0  0  0  0  0  0           0  0  0
  2  1  1  0     0  0
  3  1  1  0     0  0
  4  3  1  0     0  0
  5 27  1  0     0  0
  6 12  1  0     0  0
  7  6  1  0     0  0
  8 14  1  0     0  0
  9 17  1  0     0  0
 10  2  1  0     0  0
 11  9  1  0     0  0
 12  4  1  0     0  0
 13  8  1  0     0  0
 14 11  1  0     0  0
 14 15  1  6     0  0
 16 19  1  0     0  0
 17 10  1  0     0  0
  1 18  1  6     0  0
 19 13  1  0     0  0
 20 25  1  0     0  0
 21 23  1  0     0  0
 22 15  1  0     0  0
 23 47  1  0     0  0
 24 16  1  0     0  0
 25 21  1  0     0  0
 26  7  1  0     0  0
 27 51  1  0     0  0
 28 50  1  0     0  0
 29  5  2  0     0  0
 30  2  2  0     0  0
 31  4  2  0     0  0
 32  7  2  0     0  0
 33  9  2  0     0  0
 34  8  2  0     0  0
 17 35  1  1     0  0
 36 16  2  0     0  0
 37 20  2  0     0  0
 19 38  1  1     0  0
 39 22  2  0     0  0
 40 18  1  0     0  0
 41 23  2  0     0  0
 42 28  2  0     0  0
 26 43  1  6     0  0
 25 44  1  1     0  0
 45  5  1  0     0  0
 46  5  1  0     0  0
 47 24  1  0     0  0
 12 48  1  1     0  0
 49 22  1  0     0  0
 50 44  1  0     0  0
 51 59  2  0     0  0
 52 35  1  0     0  0
 53 26  1  0     0  0
 54 20  1  0     0  0
 55 18  1  0     0  0
 56 28  1  0     0  0
 57 52  1  0     0  0
 58 52  2  0     0  0
 59 58  1  0     0  0
 60 57  2  0     0  0
 61 38  1  0     0  0
 62 43  1  0     0  0
 63 40  1  0     0  0
 64 40  2  0     0  0
 65 48  1  0     0  0
 66 48  1  0     0  0
 67 62  1  0     0  0
 68 62  1  0     0  0
 69 61  1  0     0  0
 70 61  1  0     0  0
 71 64  1  0     0  0
 72 63  2  0     0  0
 73 71  2  0     0  0
 73 72  1  0     0  0
 51 60  1  0     0  0
M  END