
  SciTegic05171617272D

 30 33  0  0  1  0            999 V2000
   -7.2775    5.3768    0.0000 C   0  0
   -6.2413    5.9820    0.0000 C   0  0  2  0  0  0
   -4.9380    5.2378    0.0000 N   0  0
   -4.9300    3.7369    0.0000 C   0  0
   -5.9662    3.1317    0.0000 O   0  0
   -3.6267    2.9927    0.0000 C   0  0
   -3.6187    1.4919    0.0000 O   0  0
   -2.3155    0.7475    0.0000 C   0  0
   -2.3155   -0.7475    0.0000 C   0  0
   -1.0028   -1.5132    0.0000 C   0  0
   -0.9991   -2.7132    0.0000 C   0  0
    0.2917   -0.7475    0.0000 C   0  0
    1.7138   -1.2033    0.0000 C   0  0
    2.5889    0.0182    0.0000 N   0  0
    1.7138    1.2033    0.0000 N   0  0
    2.0825    2.3453    0.0000 C   0  0
    0.2917    0.7475    0.0000 C   0  0
   -1.0028    1.5132    0.0000 N   0  0
    2.1852   -2.6281    0.0000 C   0  0
    3.5643   -3.1717    0.0000 N   0  0
    3.4539   -4.6676    0.0000 C   0  0
    1.9971   -5.0249    0.0000 C   0  0
    1.2071   -3.7498    0.0000 S   0  0
   -6.2494    7.4828    0.0000 C   0  0
   -4.9554    8.2417    0.0000 C   0  0
   -4.9655    9.7416    0.0000 C   0  0
   -6.2695   10.4829    0.0000 C   0  0
   -6.2776   11.6828    0.0000 C   0  0
   -7.5635    9.7242    0.0000 C   0  0
   -7.5534    8.2242    0.0000 C   0  0
  2  1  1  1
  2  3  1  0
  3  4  1  0
  4  5  2  0
  4  6  1  0
  6  7  1  0
  7  8  1  0
  8  9  2  0
  9 10  1  0
 10 11  1  0
 10 12  2  0
 12 13  1  0
 13 14  2  0
 14 15  1  0
 15 16  1  0
 15 17  1  0
 12 17  1  0
 17 18  2  0
  8 18  1  0
 13 19  1  0
 19 20  2  0
 20 21  1  0
 21 22  2  0
 22 23  1  0
 19 23  1  0
  2 24  1  0
 24 25  2  0
 25 26  1  0
 26 27  2  0
 27 28  1  0
 27 29  1  0
 29 30  2  0
 24 30  1  0
M  END