
          05270816392D 1   1.00000     0.00000     0

 37 42  0     1  0            999 V2000
   10.0449  -15.9496    0.0000 C   0  0  0  0  0  0           0  0  0
   10.0435  -16.7726    0.0000 C   0  0  0  0  0  0           0  0  0
   11.4681  -15.9456    0.0000 C   0  0  0  0  0  0           0  0  0
   10.7592  -15.5368    0.0000 C   0  0  0  0  0  0           0  0  0
   11.4713  -16.7721    0.0000 C   0  0  0  0  0  0           0  0  0
   10.7599  -17.1866    0.0000 C   0  0  0  0  0  0           0  0  0
   10.7585  -18.0087    0.0000 C   0  0  0  0  0  0           0  0  0
   11.4715  -18.4226    0.0000 C   0  0  0  0  0  0           0  0  0
    9.4277  -17.3246    0.0000 N   0  0  0  0  0  0           0  0  0
    9.9741  -18.2632    0.0000 C   0  0  0  0  0  0           0  0  0
   12.1860  -17.1843    0.0000 C   0  0  2  0  0  0           0  0  0
   12.1868  -18.0121    0.0000 C   0  0  2  0  0  0           0  0  0
   12.9002  -18.4229    0.0000 N   0  0  3  0  0  0           0  0  0
   13.6173  -18.0106    0.0000 C   0  0  0  0  0  0           0  0  0
   13.6164  -17.1828    0.0000 C   0  0  1  0  0  0           0  0  0
   12.8984  -16.7674    0.0000 C   0  0  0  0  0  0           0  0  0
   12.1776  -18.8325    0.0000 H   0  0  0  0  0  0           0  0  0
   12.1776  -16.3575    0.0000 H   0  0  0  0  0  0           0  0  0
   12.8999  -19.2479    0.0000 C   0  0  0  0  0  0           0  0  0
   14.3308  -16.7702    0.0000 C   0  0  0  0  0  0           0  0  0
   14.3308  -15.9452    0.0000 O   0  0  0  0  0  0           0  0  0
   15.0454  -17.1827    0.0000 N   0  0  3  0  0  0           0  0  0
   15.0402  -18.0130    0.0000 C   0  0  0  0  0  0           0  0  0
   15.7505  -18.4254    0.0000 C   0  0  0  0  0  0           0  0  0
   16.4674  -18.0164    0.0000 N   0  0  3  0  0  0           0  0  0
   16.4694  -17.1905    0.0000 C   0  0  0  0  0  0           0  0  0
   15.7545  -16.7735    0.0000 C   0  0  0  0  0  0           0  0  0
   17.1803  -18.4316    0.0000 C   0  0  0  0  0  0           0  0  0
   17.1723  -19.2554    0.0000 C   0  0  0  0  0  0           0  0  0
   17.8844  -19.6705    0.0000 C   0  0  0  0  0  0           0  0  0
   18.6014  -19.2607    0.0000 C   0  0  0  0  0  0           0  0  0
   18.6018  -18.4314    0.0000 C   0  0  0  0  0  0           0  0  0
   17.8891  -18.0200    0.0000 N   0  0  0  0  0  0           0  0  0
    9.6797  -19.0339    0.0000 S   0  0  3  0  0  0           0  0  0
   10.4220  -19.3939    0.0000 O   0  0  0  0  0  0           0  0  0
    8.9361  -18.6767    0.0000 O   0  0  0  0  0  0           0  0  0
    9.3855  -19.8046    0.0000 C   0  0  0  0  0  0           0  0  0
 12 17  1  1     0  0
  7  8  1  0     0  0
 11 18  1  6     0  0
  8 12  1  0     0  0
 13 19  1  0     0  0
  3  4  2  0     0  0
 15 20  1  1     0  0
  2  9  1  0     0  0
 20 21  2  0     0  0
  4  1  1  0     0  0
 20 22  1  0     0  0
 22 23  1  0     0  0
  7 10  2  0     0  0
  9 10  1  0     0  0
 11 12  1  0     0  0
  5  6  2  0     0  0
  2  6  1  0     0  0
 22 27  1  0     0  0
 23 24  1  0     0  0
 24 25  1  0     0  0
 25 26  1  0     0  0
 26 27  1  0     0  0
 25 28  1  0     0  0
  5  3  1  0     0  0
 28 29  2  0     0  0
  1  2  2  0     0  0
 29 30  1  0     0  0
  5 11  1  0     0  0
 30 31  2  0     0  0
 11 16  1  0     0  0
 31 32  1  0     0  0
 12 13  1  0     0  0
 32 33  2  0     0  0
 33 28  1  0     0  0
 13 14  1  0     0  0
 10 34  1  0     0  0
 14 15  1  0     0  0
 34 35  2  0     0  0
 15 16  1  0     0  0
 34 36  2  0     0  0
  6  7  1  0     0  0
 34 37  1  0     0  0
M  END