
  SciTegic11081110012D

 18 21  0  0  0  0            999 V2000
   -5.4351   -0.1004    0.0000 C   0  0
   -5.4351   -0.9199    0.0000 C   0  0
   -4.7316   -1.3246    0.0000 C   0  0
   -4.0410   -0.9273    0.0000 C   0  0
   -3.3101   -1.3490    0.0000 C   0  0
   -2.6012   -0.9363    0.0000 C   0  0
   -2.6012   -0.1033    0.0000 C   0  0
   -3.3667    0.2737    0.0000 C   0  0
   -4.6872    0.2774    0.0000 C   0  0
   -4.0410   -0.1705    0.0000 C   0  0
   -4.4403    1.0646    0.0000 C   0  0
   -3.6134    1.0629    0.0000 C   0  0
   -3.3561    1.8488    0.0000 C   0  0
   -4.0241    2.3362    0.0000 C   0  0
   -4.6941    1.8516    0.0000 N   0  0
   -2.5845    2.1002    0.0000 C   0  0
   -1.8080    2.3506    0.0000 N   0  0
   -4.0225    3.1521    0.0000 O   0  0
  6  7  1  0
  7  8  2  0
  8 10  1  0
  9 10  2  0
 11  9  1  0
 12  8  1  0
 11 12  1  0
  1  2  2  0
  2  3  1  0
  3  4  2  0
  9  1  1  0
 12 13  2  0
 13 14  1  0
 14 15  1  0
 15 11  2  0
 10  4  1  0
  4  5  1  0
 16 17  3  0
 13 16  1  0
  5  6  2  0
 14 18  2  0
M  END