
  SciTegic06051313552D

 62 68  0  0  0  0            999 V2000
   28.8499  -21.1916    0.0000 O   0  0
   29.5666  -20.7833    0.0000 S   0  0
   28.8546  -20.3668    0.0000 O   0  0
   29.4948  -17.0994    0.0000 O   0  0
   29.5138  -17.9282    0.0000 S   0  0
   30.2221  -17.4974    0.0000 O   0  0
   28.6899  -17.9467    0.0000 N   0  0
   29.9417  -18.6357    0.0000 C   0  0
   29.5416  -19.3578    0.0000 C   0  0
   29.9680  -20.0631    0.0000 C   0  0
   30.7937  -20.0467    0.0000 C   0  0
   31.1911  -19.3189    0.0000 C   0  0
   30.7626  -18.6165    0.0000 C   0  0
   31.2216  -20.7521    0.0000 N   0  0
   32.0464  -20.7341    0.0000 C   0  0  2  0  0  0
   32.4744  -21.4394    0.0000 C   0  0
   33.2992  -21.4214    0.0000 C   0  0
   33.7271  -22.1268    0.0000 N   0  0
   32.4433  -20.0107    0.0000 C   0  0
   33.2681  -19.9928    0.0000 S   0  0
   33.6649  -19.2695    0.0000 C   0  0
   34.4904  -19.2540    0.0000 C   0  0
   34.8872  -18.5315    0.0000 C   0  0
   34.4593  -17.8253    0.0000 C   0  0
   33.6302  -17.8460    0.0000 C   0  0
   33.2372  -18.5689    0.0000 C   0  0
   33.3252  -22.8460    0.0000 C   0  0
   34.5477  -22.1029    0.0000 C   0  0
   28.2935  -18.6703    0.0000 C   0  0
   29.9964  -21.4918    0.0000 C   0  0
   29.5983  -22.2144    0.0000 F   0  0
   30.8213  -21.4753    0.0000 F   0  0
   30.4041  -22.2041    0.0000 F   0  0
   28.0481  -19.9856    0.0000 N   0  0
   28.6486  -19.4200    0.0000 N   0  0
   27.4790  -18.7789    0.0000 N   0  0
   27.3245  -19.5893    0.0000 C   0  0
   26.5909  -19.9789    0.0000 C   0  0
   26.9365  -18.1498    0.0000 C   0  0
   25.8305  -19.6523    0.0000 C   0  0
   26.1070  -18.1826    0.0000 C   0  0
   25.6175  -18.8527    0.0000 N   0  0
   24.8094  -18.7004    0.0000 C   0  0
   24.5372  -17.9207    0.0000 C   0  0
   23.7302  -17.7674    0.0000 C   0  0
   23.1897  -18.3911    0.0000 N   0  0
   23.4620  -19.1709    0.0000 C   0  0
   24.2748  -19.3270    0.0000 C   0  0
   22.3795  -18.2360    0.0000 C   0  0
   21.8399  -18.8603    0.0000 C   0  0
   21.0316  -18.7001    0.0000 C   0  0
   20.4924  -19.3235    0.0000 C   0  0
   20.7631  -20.1037    0.0000 C   0  0
   21.5781  -20.2570    0.0000 C   0  0
   22.1137  -19.6324    0.0000 C   0  0
   20.7631  -17.9240    0.0000 C   0  0
   21.3064  -17.3017    0.0000 C   0  0
   21.0388  -16.5221    0.0000 C   0  0
   20.2282  -16.3636    0.0000 C   0  0
   19.6859  -16.9910    0.0000 C   0  0
   19.9563  -17.7681    0.0000 C   0  0
   19.9591  -15.5839    0.0000 Cl  0  0
  2  1  2  0
  3  2  2  0
  5  4  2  0
  6  5  2  0
  7  5  1  0
  5  8  1  0
  8  9  2  0
  9 10  1  0
 10 11  2  0
 11 12  1  0
 12 13  2  0
 13  8  1  0
 11 14  1  0
 14 15  1  0
 15 16  1  0
 16 17  1  0
 17 18  1  0
 15 19  1  1
 19 20  1  0
 20 21  1  0
 21 22  2  0
 22 23  1  0
 23 24  2  0
 24 25  1  0
 25 26  2  0
 26 21  1  0
 18 27  1  0
 18 28  1  0
  7 29  1  0
 10  2  1  0
  2 30  1  0
 30 31  1  0
 30 32  1  0
 30 33  1  0
 29 36  1  0
 37 34  2  0
 34 35  1  0
 35 29  2  0
 36 37  1  0
 37 38  1  0
 36 39  1  0
 38 40  1  0
 39 41  1  0
 40 42  1  0
 41 42  1  0
 43 44  1  0
 43 48  1  0
 44 45  1  0
 45 46  1  0
 46 47  1  0
 47 48  1  0
 42 43  1  0
 46 49  1  0
 49 50  1  0
 50 51  2  0
 51 52  1  0
 52 53  2  0
 53 54  1  0
 54 55  2  0
 55 50  1  0
 56 57  2  0
 57 58  1  0
 58 59  2  0
 59 60  1  0
 60 61  2  0
 61 56  1  0
 51 56  1  0
 59 62  1  0
M  END