
  SciTegic02011314062D

 22 22  0  0  0  0            999 V2000
   -0.2711   -5.0469    0.0000 C   0  0
   -0.9843   -5.4598    0.0000 C   0  0
    0.4422   -5.4598    0.0000 C   0  0
   -1.6892   -5.0469    0.0000 C   0  0
    1.1554   -5.0469    0.0000 C   0  0
    1.8686   -5.4598    0.0000 C   0  0
   -0.9843   -6.2857    0.0000 C   0  0
   -0.2711   -4.2211    0.0000 C   0  0
   -1.6892   -4.2211    0.0000 C   0  0
   -2.4108   -5.4598    0.0000 C   0  0
   -0.9843   -3.8081    0.0000 C   0  0
    1.1554   -4.2211    0.0000 C   0  0
   -1.6976   -6.6986    0.0000 C   0  0
   -0.2628   -6.6986    0.0000 C   0  0
    1.8704   -6.2848    0.0000 C   0  0
    1.1569   -6.6989    0.0000 C   0  0
    1.1587   -7.5239    0.0000 C   0  0
    0.3618   -7.7374    0.0000 C   0  0
    1.8138   -8.0254    0.0000 C   0  0
    0.1483   -8.5343    0.0000 C   0  0
   -0.6486   -8.7479    0.0000 O   0  0
    0.7317   -9.1177    0.0000 O   0  0
  2  1  1  0
  3  1  2  0
  4  2  2  0
  5  3  1  0
  6  5  2  0
  7  2  1  0
  8  1  1  0
  9 11  1  0
 10  4  1  0
 11  8  1  0
 12  5  1  0
 13  7  1  0
 14  7  1  0
  4  9  1  0
  6 15  1  0
 15 16  2  0
 16 17  1  0
 17 18  2  0
 17 19  1  0
 18 20  1  0
 20 21  1  0
 20 22  2  0
M  END