
          11280715102D 1   1.00000     0.00000     0

 38 41  0     1  0            999 V2000
    7.9375   -4.4417    0.0000 C   0  0  0  0  0  0           0  0  0
    7.4542   -5.1167    0.0000 N   0  0  3  0  0  0           0  0  0
    8.7167   -4.7000    0.0000 C   0  0  0  0  0  0           0  0  0
   13.0125   -4.6792    0.0000 C   0  0  2  0  0  0           0  0  0
    8.7250   -5.5250    0.0000 C   0  0  0  0  0  0           0  0  0
    9.4375   -4.2792    0.0000 C   0  0  0  0  0  0           0  0  0
   13.0042   -6.1042    0.0000 C   0  0  0  0  0  0           0  0  0
   10.8667   -4.2792    0.0000 C   0  0  0  0  0  0           0  0  0
   13.4167   -5.3917    0.0000 N   0  0  0  0  0  0           0  0  0
    7.9417   -5.7792    0.0000 C   0  0  0  0  0  0           0  0  0
   13.7250   -4.2667    0.0000 C   0  0  0  0  0  0           0  0  0
   10.1542   -4.6917    0.0000 C   0  0  0  0  0  0           0  0  0
   11.5792   -4.6875    0.0000 N   0  0  0  0  0  0           0  0  0
    7.6792   -3.6667    0.0000 O   0  0  0  0  0  0           0  0  0
    6.7417   -4.7042    0.0000 C   0  0  0  0  0  0           0  0  0
   12.2917   -4.2750    0.0000 C   0  0  0  0  0  0           0  0  0
   13.4167   -6.8167    0.0000 N   0  0  0  0  0  0           0  0  0
    3.8875   -3.8750    0.0000 N   0  0  0  0  0  0           0  0  0
   12.1792   -6.1042    0.0000 O   0  0  0  0  0  0           0  0  0
    9.4375   -5.9375    0.0000 C   0  0  0  0  0  0           0  0  0
   10.8625   -3.4542    0.0000 O   0  0  0  0  0  0           0  0  0
   13.7167   -3.4417    0.0000 O   0  0  0  0  0  0           0  0  0
   10.1542   -5.5250    0.0000 C   0  0  0  0  0  0           0  0  0
   14.4417   -4.6792    0.0000 O   0  0  0  0  0  0           0  0  0
   13.0000   -7.5375    0.0000 C   0  0  0  0  0  0           0  0  0
    6.0250   -5.1167    0.0000 C   0  0  0  0  0  0           0  0  0
   13.4125   -8.2500    0.0000 C   0  0  0  0  0  0           0  0  0
    5.3125   -4.7042    0.0000 C   0  0  3  0  0  0           0  0  0
    3.8875   -4.7042    0.0000 C   0  0  0  0  0  0           0  0  0
    4.6042   -3.4667    0.0000 C   0  0  0  0  0  0           0  0  0
   12.9917   -8.9625    0.0000 C   0  0  0  0  0  0           0  0  0
   14.2292   -8.2417    0.0000 C   0  0  0  0  0  0           0  0  0
    4.6000   -5.1167    0.0000 C   0  0  0  0  0  0           0  0  0
    5.3167   -3.8792    0.0000 C   0  0  0  0  0  0           0  0  0
   14.6417   -8.9542    0.0000 C   0  0  0  0  0  0           0  0  0
   13.4042   -9.6750    0.0000 C   0  0  0  0  0  0           0  0  0
   14.2292   -9.6792    0.0000 C   0  0  0  0  0  0           0  0  0
   12.5917   -5.3917    0.0000 H   0  0  0  0  0  0           0  0  0
  2  1  1  0     0  0
  3  1  1  0     0  0
  4 16  1  0     0  0
  5  3  2  0     0  0
  6  3  1  0     0  0
  7  9  1  0     0  0
  8 12  1  0     0  0
  4  9  1  1     0  0
 10  2  1  0     0  0
 11  4  1  0     0  0
 12  6  2  0     0  0
 13  8  1  0     0  0
 14  1  2  0     0  0
 15  2  1  0     0  0
 16 13  1  0     0  0
 17  7  1  0     0  0
 18 30  1  0     0  0
 19  7  2  0     0  0
 20  5  1  0     0  0
 21  8  2  0     0  0
 22 11  2  0     0  0
 23 12  1  0     0  0
 24 11  1  0     0  0
 25 17  1  0     0  0
 26 15  1  0     0  0
 27 25  1  0     0  0
 28 26  1  0     0  0
 29 33  1  0     0  0
 30 34  1  0     0  0
 31 27  2  0     0  0
 32 27  1  0     0  0
 33 28  1  0     0  0
 34 28  1  0     0  0
 35 32  2  0     0  0
 36 31  1  0     0  0
 37 35  1  0     0  0
  4 38  1  6     0  0
 10  5  1  0     0  0
 20 23  2  0     0  0
 29 18  1  0     0  0
 36 37  2  0     0  0
M  END