
  SciTegic01161211242D

 41 43  0  0  0  0            999 V2000
    4.1750   -4.9542    0.0000 C   0  0
    6.3167   -4.5333    0.0000 C   0  0
    0.6000   -6.2042    0.0000 C   0  0
    9.1625   -4.5292    0.0000 N   0  3
    4.8875   -4.5375    0.0000 N   0  0
    5.6042   -4.9458    0.0000 C   0  0  1  0  0  0
    7.0333   -4.9417    0.0000 N   0  0
    3.4583   -4.5458    0.0000 N   0  0
   -0.1125   -5.7917    0.0000 O   0  0
    1.3167   -5.7917    0.0000 C   0  0
    4.1792   -5.7792    0.0000 O   0  0
    6.3125   -3.7083    0.0000 O   0  0
    0.6000   -7.0292    0.0000 O   0  0
    5.6083   -5.7708    0.0000 C   0  0
    8.4542   -4.9375    0.0000 C   0  0
    7.7458   -4.5250    0.0000 C   0  0  2  0  0  0
    1.3167   -4.9667    0.0000 C   0  0
    2.0292   -6.2042    0.0000 C   0  0
    2.7458   -4.9625    0.0000 C   0  0
    6.3250   -6.1833    0.0000 C   0  0
    7.7542   -7.0000    0.0000 C   0  0
    9.1667   -3.7000    0.0000 C   0  0
    2.0250   -4.5542    0.0000 C   0  0
    2.7500   -5.7917    0.0000 C   0  0
    8.9708   -5.3333    0.0000 C   0  0
    9.9125   -4.1792    0.0000 C   0  0
    6.3250   -7.0083    0.0000 C   0  0
    7.0292   -5.7667    0.0000 C   0  0
    7.7458   -6.1708    0.0000 C   0  0
    7.0417   -7.4167    0.0000 C   0  0
    8.4708   -7.4083    0.0000 O   0  0
   -0.8292   -6.2042    0.0000 C   0  0
    8.4500   -3.2875    0.0000 C   0  0
    7.7333   -3.7042    0.0000 C   0  0
   -1.5417   -5.7875    0.0000 C   0  0
   -0.8292   -7.0292    0.0000 C   0  0
    9.4792   -5.9917    0.0000 C   0  0
   10.6542   -4.5500    0.0000 C   0  0
   10.3083   -6.0000    0.0000 C   0  0
   10.8333   -5.3583    0.0000 C   0  0
    4.2083   -8.1500    0.0000 I   0  5
  2  6  1  0
  3 10  1  0
  4 15  1  0
  5  1  1  0
  6  5  1  0
  7  2  1  0
  8  1  1  0
  9  3  1  0
 10 17  2  0
 11  1  2  0
 12  2  2  0
 13  3  2  0
  6 14  1  6
 15 16  1  0
 16  7  1  1
 17 23  1  0
 18 24  2  0
 19  8  1  0
 20 14  1  0
 21 29  1  0
 22 33  1  0
 23 19  2  0
 24 19  1  0
 25  4  1  0
 26  4  1  0
 27 20  2  0
 28 20  1  0
 29 28  2  0
 30 27  1  0
 31 21  1  0
 32  9  1  0
 33 34  1  0
 34 16  1  0
 35 32  1  0
 36 32  1  0
 37 25  1  0
 38 26  1  0
 39 37  1  0
 40 38  1  0
 18 10  1  0
 21 30  2  0
 22  4  1  0
 39 40  1  0
M  CHG  2   4   1  41  -1
M  END