
  SciTegic12231509382D

 11 11  0  0  0  0            999 V2000
    2.9792   -3.9000    0.0000 C   0  0
    3.5292   -3.4417    0.0000 C   0  0
    3.0917   -4.5917    0.0000 C   0  0
    2.3167   -3.6417    0.0000 C   0  0
    2.5500   -5.0375    0.0000 C   0  0
    4.1917   -3.6875    0.0000 O   0  0
    3.4042   -2.7417    0.0000 O   0  0
    1.8792   -4.7792    0.0000 C   0  0
    3.7792   -4.8417    0.0000 O   0  0
    1.7792   -4.0917    0.0000 C   0  0
    1.3167   -5.2250    0.0000 N   0  0
  2  1  1  0
  3  1  2  0
  4  1  1  0
  5  3  1  0
  6  2  1  0
  7  2  2  0
  8 10  1  0
  9  3  1  0
 10  4  2  0
 11  8  1  0
  5  8  2  0
M  END