
          11280715102D 1   1.00000     0.00000     0

 36 38  0     1  0            999 V2000
   13.7750   -6.3750    0.0000 S   0  0  3  0  0  0           0  0  0
    8.7042   -4.7167    0.0000 C   0  0  0  0  0  0           0  0  0
    8.2250   -5.3792    0.0000 N   0  0  3  0  0  0           0  0  0
    9.4917   -4.9667    0.0000 C   0  0  0  0  0  0           0  0  0
   14.1917   -5.6625    0.0000 N   0  0  0  0  0  0           0  0  0
   13.7792   -4.9500    0.0000 C   0  0  2  0  0  0           0  0  0
    9.4917   -5.7917    0.0000 C   0  0  0  0  0  0           0  0  0
   10.2042   -4.5500    0.0000 C   0  0  0  0  0  0           0  0  0
   11.6375   -4.5417    0.0000 C   0  0  0  0  0  0           0  0  0
    8.7125   -6.0500    0.0000 C   0  0  0  0  0  0           0  0  0
   14.4917   -4.5292    0.0000 C   0  0  0  0  0  0           0  0  0
   10.9250   -4.9625    0.0000 C   0  0  0  0  0  0           0  0  0
   12.3542   -4.9542    0.0000 N   0  0  0  0  0  0           0  0  0
   13.3542   -7.0875    0.0000 C   0  0  0  0  0  0           0  0  0
   14.5667   -6.5875    0.0000 O   0  0  0  0  0  0           0  0  0
   12.9750   -6.1542    0.0000 O   0  0  0  0  0  0           0  0  0
    8.4500   -3.9292    0.0000 O   0  0  0  0  0  0           0  0  0
    7.5125   -4.9667    0.0000 C   0  0  0  0  0  0           0  0  0
   13.0667   -4.5417    0.0000 C   0  0  0  0  0  0           0  0  0
    4.6542   -4.1417    0.0000 N   0  0  0  0  0  0           0  0  0
   10.2042   -6.2042    0.0000 C   0  0  0  0  0  0           0  0  0
   11.6292   -3.7167    0.0000 O   0  0  0  0  0  0           0  0  0
   14.4917   -3.7042    0.0000 O   0  0  0  0  0  0           0  0  0
   10.9250   -5.7917    0.0000 C   0  0  0  0  0  0           0  0  0
   15.2125   -4.9417    0.0000 O   0  0  0  0  0  0           0  0  0
    6.7917   -5.3792    0.0000 C   0  0  0  0  0  0           0  0  0
   12.5292   -7.0792    0.0000 C   0  0  0  0  0  0           0  0  0
    6.0792   -4.9667    0.0000 C   0  0  3  0  0  0           0  0  0
   12.1125   -7.7875    0.0000 O   0  0  0  0  0  0           0  0  0
    5.3792   -3.7292    0.0000 C   0  0  0  0  0  0           0  0  0
    4.6542   -4.9667    0.0000 C   0  0  0  0  0  0           0  0  0
   11.2875   -7.7792    0.0000 C   0  0  0  0  0  0           0  0  0
    5.3667   -5.3875    0.0000 C   0  0  0  0  0  0           0  0  0
    6.0875   -4.1500    0.0000 C   0  0  0  0  0  0           0  0  0
   10.8667   -8.4917    0.0000 C   0  0  0  0  0  0           0  0  0
   13.3667   -5.6625    0.0000 H   0  0  0  0  0  0           0  0  0
  2  4  1  0     0  0
  3  2  1  0     0  0
  4  8  1  0     0  0
  5  1  1  0     0  0
  6  5  1  1     0  0
  7 21  1  0     0  0
  8 12  2  0     0  0
  9 13  1  0     0  0
 10  7  1  0     0  0
 11  6  1  0     0  0
 12  9  1  0     0  0
 13 19  1  0     0  0
 14  1  1  0     0  0
 15  1  2  0     0  0
 16  1  2  0     0  0
 17  2  2  0     0  0
 18  3  1  0     0  0
 19  6  1  0     0  0
 20 30  1  0     0  0
 21 24  2  0     0  0
 22  9  2  0     0  0
 23 11  2  0     0  0
 24 12  1  0     0  0
 25 11  1  0     0  0
 26 18  1  0     0  0
 27 14  1  0     0  0
 28 26  1  0     0  0
 29 27  1  0     0  0
 30 34  1  0     0  0
 31 33  1  0     0  0
 32 29  1  0     0  0
 33 28  1  0     0  0
 34 28  1  0     0  0
 35 32  1  0     0  0
  6 36  1  6     0  0
  4  7  2  0     0  0
  3 10  1  0     0  0
 31 20  1  0     0  0
M  END