
  SciTegic04091414152D

 40 43  0  0  0  0            999 V2000
   31.7878  -12.8654    0.0000 N   0  0
   32.5041  -12.4520    0.0000 C   0  0
   32.5013  -11.6215    0.0000 N   0  0
   31.7859  -11.2124    0.0000 C   0  0
   31.0729  -12.4526    0.0000 C   0  0
   31.0741  -11.6236    0.0000 C   0  0
   30.2861  -11.3663    0.0000 C   0  0
   29.7979  -12.0361    0.0000 C   0  0
   30.2832  -12.7074    0.0000 N   0  0
   31.7841  -10.3874    0.0000 N   0  0
   29.7904  -13.3690    0.0000 C   0  0  2  0  0  0
   28.9615  -13.3578    0.0000 O   0  0
   28.6976  -14.1392    0.0000 C   0  0  1  0  0  0
   29.3590  -14.6322    0.0000 C   0  0  2  0  0  0
   30.0321  -14.1551    0.0000 C   0  0  1  0  0  0
   27.9587  -14.5062    0.0000 C   0  0
   29.3494  -15.4571    0.0000 O   0  0
   30.8131  -14.4207    0.0000 O   0  0
   27.2718  -14.0498    0.0000 N   0  0
   26.5549  -14.4581    0.0000 C   0  0
   25.8429  -14.0414    0.0000 C   0  0
   25.1260  -14.4497    0.0000 C   0  0
   24.4139  -14.0329    0.0000 N   0  0
   23.6971  -14.4412    0.0000 C   0  0
   22.9850  -14.0246    0.0000 N   0  0
   23.6922  -15.2662    0.0000 O   0  0
   22.2681  -14.4328    0.0000 C   0  0
   21.5601  -14.0140    0.0000 C   0  0
   20.8437  -14.4215    0.0000 C   0  0
   20.8383  -15.2474    0.0000 C   0  0
   21.5554  -15.6640    0.0000 C   0  0
   22.2689  -15.2540    0.0000 C   0  0
   20.1220  -15.6566    0.0000 C   0  0
   19.4094  -15.2409    0.0000 C   0  0
   20.1182  -16.4816    0.0000 C   0  0
   19.4045  -16.0628    0.0000 C   0  0
   27.3002  -13.2253    0.0000 C   0  0
   30.0324  -10.5812    0.0000 Br  0  0
   28.0285  -12.8376    0.0000 C   0  0
   26.6004  -12.7884    0.0000 C   0  0
  5  1  1  0
  1  2  2  0
  2  3  1  0
  3  4  2  0
  4  6  1  0
  5  6  2  0
  6  7  1  0
  7  8  2  0
  8  9  1  0
  9  5  1  0
  4 10  1  0
 11  9  1  1
 11 12  1  0
 12 13  1  0
 13 14  1  0
 14 15  1  0
 15 11  1  0
 13 16  1  1
 14 17  1  6
 15 18  1  6
 16 19  1  0
 19 20  1  0
 20 21  1  0
 21 22  1  0
 22 23  1  0
 23 24  1  0
 24 25  1  0
 24 26  2  0
 25 27  1  0
 27 28  2  0
 28 29  1  0
 29 30  2  0
 30 31  1  0
 31 32  2  0
 32 27  1  0
 30 33  1  0
 33 34  1  0
 33 35  1  0
 33 36  1  0
 19 37  1  0
  7 38  1  0
 37 39  1  0
 37 40  1  0
M  END