
          11280714542D 1   1.00000     0.00000     0

 25 26  0     0  0            999 V2000
    0.4542    0.3708    0.0000 C   0  0  3  0  0  0           0  0  0
    1.0292    0.2125    0.0000 C   0  0  0  0  0  0           0  0  0
    0.4542   -0.2292    0.0000 C   0  0  0  0  0  0           0  0  0
    1.3417   -0.2167    0.0000 O   0  0  0  0  0  0           0  0  0
   -0.0708    0.6625    0.0000 C   0  0  0  0  0  0           0  0  0
    0.9792   -0.5292    0.0000 C   0  0  0  0  0  0           0  0  0
   -0.0583   -0.5375    0.0000 C   0  0  0  0  0  0           0  0  0
    1.4542    0.6458    0.0000 O   0  0  0  0  0  0           0  0  0
    3.0375    0.7708    0.0000 N   0  0  3  0  0  0           0  0  0
    0.4542   -1.4375    0.0000 C   0  0  0  0  0  0           0  0  0
   -0.0583   -1.1375    0.0000 C   0  0  0  0  0  0           0  0  0
    0.9792   -1.1375    0.0000 C   0  0  0  0  0  0           0  0  0
    0.4542   -2.0417    0.0000 O   0  0  0  0  0  0           0  0  0
    2.0292    0.4958    0.0000 C   0  0  0  0  0  0           0  0  0
    0.6042    0.9500    0.0000 C   0  0  0  0  0  0           0  0  0
    2.4542    0.9208    0.0000 C   0  0  0  0  0  0           0  0  0
   -0.0708    1.2625    0.0000 C   0  0  0  0  0  0           0  0  0
   -0.5833    0.3583    0.0000 C   0  0  0  0  0  0           0  0  0
    3.4542    1.1958    0.0000 C   0  0  0  0  0  0           0  0  0
    3.1917    0.1875    0.0000 C   0  0  0  0  0  0           0  0  0
    3.7750    0.0333    0.0000 C   0  0  0  0  0  0           0  0  0
    4.0375    1.0458    0.0000 C   0  0  0  0  0  0           0  0  0
   -1.1000    0.6583    0.0000 C   0  0  0  0  0  0           0  0  0
   -0.5875    1.5583    0.0000 C   0  0  0  0  0  0           0  0  0
   -1.1083    1.2583    0.0000 C   0  0  0  0  0  0           0  0  0
  2  1  1  0     0  0
  3  1  1  0     0  0
  4  2  2  0     0  0
  5  1  1  0     0  0
  6  3  2  0     0  0
  7  3  1  0     0  0
  8  2  1  0     0  0
  9 16  1  0     0  0
 10 11  1  0     0  0
 11  7  2  0     0  0
 12  6  1  0     0  0
 13 10  1  0     0  0
 14  8  1  0     0  0
 15  1  1  0     0  0
 16 14  1  0     0  0
 17  5  2  0     0  0
 18  5  1  0     0  0
 19  9  1  0     0  0
 20  9  1  0     0  0
 21 20  1  0     0  0
 22 19  1  0     0  0
 23 18  2  0     0  0
 24 17  1  0     0  0
 25 23  1  0     0  0
 10 12  2  0     0  0
 24 25  2  0     0  0
M  END