
  SciTegic11201309402D

 81 84  0  0  1  0            999 V2000
    5.8875   -3.4125    0.0000 N   0  0
   -0.1708   -4.4417    0.0000 N   0  0
    5.2750   -3.9625    0.0000 C   0  0
    0.4167   -5.0292    0.0000 C   0  0
   -0.6708   -2.8917    0.0000 C   0  0
    4.4792   -3.7042    0.0000 C   0  0  2  0  0  0
    4.6125   -2.8917    0.0000 N   0  0
   -0.5458   -2.0667    0.0000 N   0  0
   -0.5458   -3.7042    0.0000 C   0  0  2  0  0  0
    3.5250   -0.7500    0.0000 N   0  0
    1.1542   -0.3750    0.0000 N   0  0
    4.4792   -2.0667    0.0000 C   0  0
    0.4167   -0.7500    0.0000 C   0  0
    6.8375   -2.2792    0.0000 C   0  0
    2.7875   -0.3750    0.0000 C   0  0
    8.7917   -0.1917    0.0000 N   0  0
    4.1125   -1.3375    0.0000 C   0  0  1  0  0  0
    6.6500   -3.0917    0.0000 C   0  0  2  0  0  0
    8.6042   -1.0000    0.0000 C   0  0
   -0.1708   -1.3375    0.0000 C   0  0  1  0  0  0
    1.1542   -5.4042    0.0000 C   0  0
    7.6292   -2.0417    0.0000 N   0  0
    9.5792    0.0458    0.0000 C   0  0  2  0  0  0
    4.6875   -0.7875    0.0000 C   0  0
    1.9667   -0.2417    0.0000 C   0  0  2  0  0  0
    6.3792    2.0708    0.0000 C   0  0
    9.7750    0.8583    0.0000 C   0  0
    3.5250   -5.0292    0.0000 S   0  0
    2.7875   -5.4042    0.0000 S   0  0
    4.4667    0.0125    0.0000 C   0  0
    1.9667   -5.5292    0.0000 C   0  0
    7.8167   -1.2417    0.0000 C   0  0  1  0  0  0
    2.6875    1.8208    0.0000 C   0  0
    6.5667    2.8750    0.0000 N   0  0
    5.4417   -4.7667    0.0000 O   0  0
   -1.3333   -3.9625    0.0000 C   0  0
   -0.0708   -5.6917    0.0000 O   0  0
   -1.5000   -2.8917    0.0000 O   0  0
    4.1125   -4.4417    0.0000 C   0  0
    6.2292   -1.7167    0.0000 O   0  0
   -0.0708   -0.0792    0.0000 O   0  0
    5.2750   -1.8167    0.0000 O   0  0
    3.0417    0.4125    0.0000 O   0  0
   -0.8375   -0.8500    0.0000 C   0  0
    9.2042   -1.5625    0.0000 O   0  0
   10.1875   -0.5167    0.0000 C   0  0  2  0  0  0
    9.1667    1.4208    0.0000 O   0  0
    4.9750    0.6625    0.0000 O   0  0
    3.4042    2.2333    0.0000 O   0  0
    1.9667    0.5833    0.0000 C   0  0
    6.9792    1.5000    0.0000 N   0  0
    5.5875    1.8333    0.0000 N   0  0
   10.5625    1.0958    0.0000 N   0  0
    5.9542   -4.2375    0.0000 C   0  0
    3.6542    0.1125    0.0000 N   0  0
    2.6875    0.9958    0.0000 C   0  0
   -1.9458   -3.4042    0.0000 C   0  0
    1.9667    2.2333    0.0000 N   0  0
   -0.8375   -4.9292    0.0000 C   0  0
   -3.1708   -2.3000    0.0000 C   0  0
   -0.7500   -0.0292    0.0000 C   0  0
   -2.7333   -3.6625    0.0000 C   0  0
   -1.7708   -2.6000    0.0000 C   0  0
   -3.3458   -3.1042    0.0000 C   0  0
   -2.3875   -2.0417    0.0000 C   0  0
    7.1875   -3.7125    0.0000 C   0  0
   -3.7875   -1.7500    0.0000 O   0  0
   11.5542   -0.8625    0.0000 O   0  0
    6.7625   -4.4250    0.0000 C   0  0
   10.9750   -0.2792    0.0000 C   0  0
    2.6875   -5.8375    0.0000 C   0  0
    1.2542   -5.8375    0.0000 C   0  0
    7.2125   -0.6750    0.0000 C   0  0
   10.0000   -1.3167    0.0000 C   0  0
    6.8000    0.6958    0.0000 C   0  0
   -1.4208    0.4583    0.0000 C   0  0
    0.0042    0.3083    0.0000 C   0  0
    7.4000    0.1333    0.0000 C   0  0
    0.0917    1.1333    0.0000 C   0  0
   -1.3333    1.2833    0.0000 C   0  0
   -0.5833    1.6208    0.0000 C   0  0
  2  4  1  0
  3  1  1  0
  4 21  1  0
  5  9  1  0
  6  3  1  1
  7  6  1  0
  8  5  1  0
  9  2  1  0
 10 17  1  0
 11 25  1  0
 12  7  1  0
 13 11  1  0
 18 14  1  6
 15 10  1  0
 16 19  1  0
 17 12  1  0
 18  1  1  0
 19 32  1  0
 20 13  1  0
 21 31  1  0
 22 14  1  0
 23 16  1  6
 17 24  1  6
 25 15  1  0
 26 51  2  0
 27 23  1  0
 28 39  1  0
 29 28  1  0
 30 24  1  0
 31 29  1  0
 32 22  1  1
 33 56  1  0
 34 26  1  0
 35  3  2  0
  9 36  1  1
 37  4  2  0
 38  5  2  0
  6 39  1  0
 40 14  2  0
 41 13  2  0
 42 12  2  0
 43 15  2  0
 20 44  1  6
 45 19  2  0
 23 46  1  0
 47 27  2  0
 48 30  2  0
 49 33  2  0
 25 50  1  1
 51 75  1  0
 52 26  1  0
 53 27  1  0
 54  1  1  0
 55 30  1  0
 56 50  1  0
 57 36  1  0
 58 33  1  0
 59  2  1  0
 60 65  2  0
 61 44  1  0
 62 57  1  0
 63 57  2  0
 64 62  2  0
 65 63  1  0
 18 66  1  0
 67 60  1  0
 70 68  1  0
 69 54  1  0
 46 70  1  0
 71 31  1  0
 72 31  1  0
 32 73  1  0
 46 74  1  6
 75 78  1  0
 76 61  1  0
 77 61  2  0
 78 73  1  0
 79 77  1  0
 80 76  2  0
 81 79  2  0
 66 69  1  0
 20  8  1  0
 60 64  1  0
 81 80  1  0
M  END