
          11280715052D 1   1.00000     0.00000     0

 24 25  0     0  0            999 V2000
    3.1292    0.0625    0.0000 S   0  0  3  0  0  0           0  0  0
   -1.0958    0.1875    0.0000 N   0  0  0  0  0  0           0  0  0
    3.6417    0.3708    0.0000 C   0  0  0  0  0  0           0  0  0
   -1.0500    1.1583    0.0000 N   0  0  0  0  0  0           0  0  0
   -1.4250    0.6875    0.0000 C   0  0  0  0  0  0           0  0  0
   -0.5208    0.3458    0.0000 C   0  0  0  0  0  0           0  0  0
    2.8167   -0.6750    0.0000 O   0  0  0  0  0  0           0  0  0
    3.5042   -0.6417    0.0000 O   0  0  0  0  0  0           0  0  0
    2.5917    0.3458    0.0000 N   0  0  0  0  0  0           0  0  0
    5.1917    1.2833    0.0000 C   0  0  3  0  0  0           0  0  0
    4.6750    0.9833    0.0000 C   0  0  0  0  0  0           0  0  0
   -0.4875    0.9458    0.0000 C   0  0  0  0  0  0           0  0  0
    3.6375    0.9625    0.0000 C   0  0  0  0  0  0           0  0  0
    4.1667    0.0708    0.0000 C   0  0  0  0  0  0           0  0  0
    4.6792    0.3833    0.0000 C   0  0  0  0  0  0           0  0  0
    4.1500    1.2708    0.0000 C   0  0  0  0  0  0           0  0  0
    0.0000    0.0458    0.0000 C   0  0  0  0  0  0           0  0  0
    5.7125    0.9958    0.0000 C   0  0  0  0  0  0           0  0  0
    5.1792    1.8833    0.0000 C   0  0  0  0  0  0           0  0  0
    5.6125    1.7083    0.0000 C   0  0  0  0  0  0           0  0  0
    2.0667    0.0458    0.0000 C   0  0  0  0  0  0           0  0  0
    0.5167    0.3458    0.0000 C   0  0  0  0  0  0           0  0  0
    1.5542    0.3458    0.0000 C   0  0  0  0  0  0           0  0  0
    1.0375    0.0458    0.0000 C   0  0  0  0  0  0           0  0  0
  2  6  1  0     0  0
  3  1  1  0     0  0
  4 12  1  0     0  0
  5  2  2  0     0  0
  6 17  1  0     0  0
  7  1  2  0     0  0
  8  1  2  0     0  0
  9  1  1  0     0  0
 10 11  1  0     0  0
 11 15  2  0     0  0
 12  6  2  0     0  0
 13  3  1  0     0  0
 14  3  2  0     0  0
 15 14  1  0     0  0
 16 13  2  0     0  0
 17 22  1  0     0  0
 18 10  1  0     0  0
 19 10  1  0     0  0
 20 10  1  0     0  0
 21  9  1  0     0  0
 22 24  1  0     0  0
 23 21  1  0     0  0
 24 23  1  0     0  0
 11 16  1  0     0  0
  4  5  1  0     0  0
M  END