
  SciTegic10041313202D

 34 41  0  0  0  0            999 V2000
   -0.9083   -1.4292    0.0000 C   0  0
    0.3125   -2.1667    0.0000 C   0  0
   -0.4833   -0.7292    0.0000 C   0  0
    0.7375   -1.4625    0.0000 C   0  0
   -0.5125   -2.1500    0.0000 C   0  0
   -1.7250   -1.4167    0.0000 C   0  0
    1.1417   -2.6167    0.0000 N   0  0
   -2.1458   -2.1167    0.0000 C   0  0
   -1.2958   -2.5250    0.0000 O   0  0
   -0.8708   -0.0042    0.0000 C   0  0
   -0.4625    0.7125    0.0000 N   0  0
    1.5417   -1.4625    0.0000 C   0  0
    0.3417   -0.7417    0.0000 C   0  0
   -2.1208   -0.7042    0.0000 C   0  0
    1.9667   -2.1500    0.0000 C   0  0
   -1.6958    0.0083    0.0000 C   0  0
   -1.3208   -0.7125    0.0000 C   0  0
    2.7042    0.6833    0.0000 C   0  0
    0.2500    1.1250    0.0000 C   0  0
   -2.9583   -2.1042    0.0000 C   0  0
   -1.2875    0.7125    0.0000 C   0  0
    0.9667    0.7208    0.0000 C   0  0
    3.1292   -0.0250    0.0000 N   0  0
    2.2936    1.3676    0.0000 S   0  0
    1.7917    0.7333    0.0000 C   0  0
    1.3792    0.0125    0.0000 C   0  0
    1.9292   -0.7625    0.0000 C   0  0
   -2.9333   -0.6875    0.0000 C   0  0
   -0.0708   -0.0125    0.0000 O   0  0
    2.7542   -2.1375    0.0000 C   0  0
   -3.3583   -1.3875    0.0000 C   0  0
    2.7292   -0.7417    0.0000 C   0  0
    3.1417   -1.4375    0.0000 C   0  0
   -3.3708   -2.8167    0.0000 O   0  0
  2  5  1  0
  3  1  1  0
  4  2  2  0
  5  1  1  0
  6  1  1  0
  7  2  1  0
  8  6  1  0
  9  5  1  0
 10  3  1  0
 11 21  1  0
 12  4  1  0
 13  3  1  0
 14  6  2  0
 15  7  1  0
 16 14  1  0
 17  1  1  0
 18 23  2  0
 19 11  1  0
 20  8  2  0
 21 17  1  0
 22 19  1  0
 23 32  1  0
 24 18  2  0
 25 22  1  0
 26 22  1  0
 27 12  1  0
 28 14  1  0
 29  3  1  0
 30 15  1  0
 31 28  2  0
 32 27  2  0
 33 30  2  0
 34 20  1  0
  8  9  1  0
  4 13  1  0
 11 10  1  0
 16 10  1  0
 31 20  1  0
 15 12  2  0
 25 26  1  0
 32 33  1  0
M  END