
  CDK    9/16/09,10:1

 24 26  0  0  0  0  0  0  0  0999 V2000
   11.4069   -2.8083    0.0000 C   0  0  0  0  0  0  0  0  0  0  0  0
   11.4057   -3.6357    0.0000 C   0  0  0  0  0  0  0  0  0  0  0  0
   12.1206   -4.0485    0.0000 C   0  0  0  0  0  0  0  0  0  0  0  0
   12.8370   -3.6352    0.0000 C   0  0  0  0  0  0  0  0  0  0  0  0
   12.8341   -2.8047    0.0000 C   0  0  0  0  0  0  0  0  0  0  0  0
   12.1188   -2.3955    0.0000 C   0  0  0  0  0  0  0  0  0  0  0  0
   10.6909   -4.0476    0.0000 C   0  0  0  0  0  0  0  0  0  0  0  0
    9.9768   -3.6345    0.0000 N   0  0  0  0  0  0  0  0  0  0  0  0
    9.2620   -4.0465    0.0000 N   0  0  0  0  0  0  0  0  0  0  0  0
    8.5121   -3.7126    0.0000 C   0  0  0  0  0  0  0  0  0  0  0  0
    7.9595   -4.3253    0.0000 O   0  0  0  0  0  0  0  0  0  0  0  0
    8.3715   -5.0401    0.0000 C   0  0  0  0  0  0  0  0  0  0  0  0
    9.1785   -4.8691    0.0000 C   0  0  0  0  0  0  0  0  0  0  0  0
    8.3408   -2.9056    0.0000 O   0  0  0  0  0  0  0  0  0  0  0  0
   12.1204   -4.8735    0.0000 C   0  0  0  0  0  0  0  0  0  0  0  0
   12.1125   -5.6958    0.0000 C   0  0  0  0  0  0  0  0  0  0  0  0
   12.1046   -6.5208    0.0000 C   0  0  0  0  0  0  0  0  0  0  0  0
   11.3837   -6.9242    0.0000 C   0  0  0  0  0  0  0  0  0  0  0  0
   11.3755   -7.7484    0.0000 C   0  0  0  0  0  0  0  0  0  0  0  0
   12.0865   -8.1685    0.0000 N   0  0  0  0  0  0  0  0  0  0  0  0
   12.8073   -7.7584    0.0000 C   0  0  0  0  0  0  0  0  0  0  0  0
   12.8120   -6.9356    0.0000 N   0  0  0  0  0  0  0  0  0  0  0  0
   10.6569   -8.1537    0.0000 C   0  0  0  0  0  0  0  0  0  0  0  0
   13.5193   -8.1752    0.0000 N   0  0  0  0  0  0  0  0  0  0  0  0
 10 11  1  0  0  0  0 
 11 12  1  0  0  0  0 
 12 13  1  0  0  0  0 
 13  9  1  0  0  0  0 
  1  2  2  0  0  0  0 
 10 14  2  0  0  0  0 
  2  7  1  0  0  0  0 
  3 15  1  0  0  0  0 
  3  4  2  0  0  0  0 
 15 16  3  0  0  0  0 
  7  8  2  0  0  0  0 
 16 17  1  0  0  0  0 
 17 18  2  0  0  0  0 
  8  9  1  0  0  0  0 
 18 19  1  0  0  0  0 
  9 10  1  0  0  0  0 
 19 20  2  0  0  0  0 
  4  5  1  0  0  0  0 
 20 21  1  0  0  0  0 
  2  3  1  0  0  0  0 
 21 22  2  0  0  0  0 
 22 17  1  0  0  0  0 
  5  6  2  0  0  0  0 
 19 23  1  0  0  0  0 
  6  1  1  0  0  0  0 
 21 24  1  0  0  0  0 
M  END