
          11280715142D 1   1.00000     0.00000     0

 22 25  0     0  0            999 V2000
    5.4000   -4.1917    0.0000 C   0  0  0  0  0  0           0  0  0
    4.6792   -3.7792    0.0000 N   0  0  3  0  0  0           0  0  0
    6.0125   -3.6375    0.0000 N   0  0  0  0  0  0           0  0  0
    4.8542   -2.9667    0.0000 N   0  0  0  0  0  0           0  0  0
    5.6792   -2.8792    0.0000 C   0  0  0  0  0  0           0  0  0
    5.4000   -5.0250    0.0000 C   0  0  0  0  0  0           0  0  0
    3.9667   -4.1917    0.0000 C   0  0  0  0  0  0           0  0  0
    4.6792   -5.4375    0.0000 N   0  0  0  0  0  0           0  0  0
    3.9667   -5.0167    0.0000 C   0  0  0  0  0  0           0  0  0
    3.2542   -3.7792    0.0000 C   0  0  0  0  0  0           0  0  0
    6.0917   -2.1667    0.0000 C   0  0  0  0  0  0           0  0  0
    6.1125   -5.4375    0.0000 O   0  0  0  0  0  0           0  0  0
    3.2542   -5.4375    0.0000 C   0  0  0  0  0  0           0  0  0
    6.9167   -2.1750    0.0000 C   0  0  0  0  0  0           0  0  0
    5.6792   -1.4625    0.0000 C   0  0  0  0  0  0           0  0  0
    2.5417   -4.1917    0.0000 C   0  0  0  0  0  0           0  0  0
    6.9167   -0.7417    0.0000 C   0  0  0  0  0  0           0  0  0
    2.5417   -5.0250    0.0000 C   0  0  0  0  0  0           0  0  0
    6.0875   -0.7417    0.0000 C   0  0  0  0  0  0           0  0  0
    7.3292   -1.4542    0.0000 C   0  0  0  0  0  0           0  0  0
    1.8292   -3.7875    0.0000 Cl  0  0  0  0  0  0           0  0  0
    7.3292   -0.0292    0.0000 O   0  0  0  0  0  0           0  0  0
  2  1  1  0     0  0
  3  1  2  0     0  0
  4  2  1  0     0  0
  5  3  1  0     0  0
  6  1  1  0     0  0
  7  2  1  0     0  0
  8  6  2  0     0  0
  9  8  1  0     0  0
 10  7  2  0     0  0
 11  5  1  0     0  0
 12  6  1  0     0  0
 13  9  2  0     0  0
 14 11  2  0     0  0
 15 11  1  0     0  0
 16 10  1  0     0  0
 17 19  1  0     0  0
 18 13  1  0     0  0
 19 15  2  0     0  0
 20 14  1  0     0  0
 21 16  1  0     0  0
 22 17  1  0     0  0
  4  5  2  0     0  0
  9  7  1  0     0  0
 18 16  2  0     0  0
 17 20  2  0     0  0
M  END