
  SciTegic10311316322D

 38 41  0  0  0  0            999 V2000
    6.0845  -26.4707    0.0000 C   0  0
    6.0605  -27.2945    0.0000 C   0  0
    6.8358  -27.5764    0.0000 O   0  0
    7.3435  -26.9261    0.0000 N   0  0
    6.8818  -26.2424    0.0000 C   0  0
    7.1640  -25.4671    0.0000 C   0  0
    5.3779  -27.7579    0.0000 C   0  0
   -1.1103  -28.7749    0.0000 C   0  0
   -0.3852  -28.3811    0.0000 C   0  0
   -0.3675  -27.5593    0.0000 C   0  0
    0.3550  -27.1655    0.0000 C   0  0
    1.0610  -27.5929    0.0000 N   0  0
    1.0416  -28.4187    0.0000 C   0  0
    0.3161  -28.8170    0.0000 C   0  0
    1.7817  -27.1977    0.0000 C   0  0
    1.7986  -26.3718    0.0000 C   0  0
    2.5213  -25.9752    0.0000 C   0  0
    3.2273  -26.4036    0.0000 C   0  0
    3.2063  -27.2325    0.0000 C   0  0
    2.4832  -27.6254    0.0000 C   0  0
    1.0930  -25.9442    0.0000 F   0  0
    3.9513  -26.0079    0.0000 N   0  0
    4.6559  -26.4371    0.0000 C   0  0
    5.3798  -26.0416    0.0000 N   0  0
    4.6365  -27.2619    0.0000 O   0  0
   -1.8151  -28.3440    0.0000 C   0  0
   -1.7835  -27.5207    0.0000 C   0  0
   -2.4892  -27.0899    0.0000 C   0  0
   -3.2132  -27.4837    0.0000 C   0  0
   -3.2360  -28.3129    0.0000 C   0  0
   -2.5311  -28.7399    0.0000 C   0  0
   -1.1306  -29.5996    0.0000 C   0  0
   -1.8557  -29.9935    0.0000 O   0  0
   -0.4257  -30.0305    0.0000 N   0  0
   -0.4460  -30.8552    0.0000 C   0  0
    0.2579  -31.2861    0.0000 C   0  0
    0.3006  -29.6367    0.0000 C   0  0
    1.0042  -30.0676    0.0000 C   0  0
  1  2  2  0
  2  3  1  0
  3  4  1  0
  4  5  2  0
  5  1  1  0
  5  6  1  0
  2  7  1  0
  8  9  1  0
  9 10  1  0
  9 14  1  0
 10 11  1  0
 11 12  1  0
 12 13  1  0
 13 14  1  0
 15 16  2  0
 16 17  1  0
 17 18  2  0
 18 19  1  0
 19 20  2  0
 20 15  1  0
 12 15  1  0
 16 21  1  0
 18 22  1  0
 22 23  1  0
 23 24  1  0
 23 25  2  0
  8 26  1  0
 26 27  2  0
 27 28  1  0
 28 29  2  0
 29 30  1  0
 30 31  2  0
 31 26  1  0
  8 32  1  0
 32 33  2  0
 32 34  1  0
 34 35  1  0
 35 36  1  0
 24  1  1  0
 34 37  1  0
 37 38  1  0
M  END