
  SciTegic01091215432D

 28 30  0  0  0  0            999 V2000
    9.4587   -6.6856    0.0000 S   0  0
    9.0489   -7.4016    0.0000 O   0  0
    9.8739   -7.3985    0.0000 O   0  0
    5.1736   -6.7000    0.0000 C   0  0
    5.1724   -7.5273    0.0000 C   0  0
    5.8872   -7.9402    0.0000 C   0  0
    6.6037   -7.5269    0.0000 C   0  0
    6.6008   -6.6963    0.0000 C   0  0
    5.8854   -6.2872    0.0000 C   0  0
    7.3137   -6.2811    0.0000 C   0  0
    8.0297   -6.6909    0.0000 C   0  0
    8.7427   -6.2758    0.0000 N   0  0
   10.1716   -6.2704    0.0000 C   0  0
   10.8836   -6.6819    0.0000 C   0  0
   11.5960   -6.2674    0.0000 C   0  0
   11.5933   -5.4416    0.0000 C   0  0
   10.8723   -5.0319    0.0000 C   0  0
   10.1628   -5.4488    0.0000 C   0  0
   12.3057   -5.0254    0.0000 Cl  0  0
    5.8870   -8.7652    0.0000 C   0  0
    5.1727   -9.1774    0.0000 N   0  0
    4.4231   -8.8327    0.0000 C   0  0
    4.1419   -8.0599    0.0000 C   0  0
    3.3681   -8.3461    0.0000 C   0  0
    3.6544   -9.1199    0.0000 C   0  0
    4.4886   -7.3112    0.0000 O   0  0
    2.6186   -8.0014    0.0000 O   0  0
    3.3109   -9.8699    0.0000 O   0  0
 13 14  2  0
  7  8  1  0
 14 15  1  0
  4  5  2  0
 15 16  2  0
  8  9  2  0
 16 17  1  0
  9  4  1  0
 17 18  2  0
 18 13  1  0
  1  3  2  0
 16 19  1  0
  8 10  1  0
  6 20  1  0
  5  6  1  0
 20 21  1  0
 10 11  1  0
 21 22  1  0
 22 23  2  0
 11 12  1  0
 12  1  1  0
 23 24  1  0
 24 25  1  0
 25 22  1  0
  6  7  2  0
 23 26  1  0
  1 13  1  0
 24 27  2  0
  2  1  2  0
 25 28  2  0
M  END