
  SciTegic09291413392D

 28 30  0  0  0  0            999 V2000
   23.4577  -23.1661    0.0000 C   0  0
   23.4566  -23.9856    0.0000 C   0  0
   24.1646  -24.3946    0.0000 C   0  0
   24.1629  -22.7572    0.0000 C   0  0
   24.8715  -23.1625    0.0000 C   0  0
   24.8722  -23.9815    0.0000 C   0  0
   25.5808  -24.3886    0.0000 N   0  0
   26.2890  -23.9778    0.0000 C   0  0
   26.2843  -23.1556    0.0000 C   0  0
   25.5752  -22.7523    0.0000 C   0  0
   25.5703  -21.9401    0.0000 C   0  0
   26.2775  -21.5284    0.0000 C   0  0
   26.2735  -20.7120    0.0000 C   0  0
   25.5631  -20.3063    0.0000 C   0  0
   24.8552  -20.7231    0.0000 C   0  0
   24.8627  -21.5381    0.0000 C   0  0
   26.9895  -22.7427    0.0000 C   0  0  1  0  0  0
   27.6997  -23.1470    0.0000 C   0  0
   27.7059  -23.9648    0.0000 O   0  0
   28.4062  -22.7348    0.0000 O   0  0
   26.9983  -24.3836    0.0000 C   0  0
   25.5577  -19.4892    0.0000 Cl  0  0
   26.9845  -21.9256    0.0000 O   0  0
   27.6897  -21.5127    0.0000 C   0  0
   27.6848  -20.6955    0.0000 C   0  0
   28.3999  -21.9169    0.0000 C   0  0
   28.3953  -21.0984    0.0000 C   0  0
   22.7486  -24.3937    0.0000 C   0  0
  1  2  2  0
  2  3  1  0
  3  6  2  0
  5  4  2  0
  4  1  1  0
  5  6  1  0
  6  7  1  0
  7  8  2  0
  8  9  1  0
  9 10  2  0
 10  5  1  0
 11 12  2  0
 12 13  1  0
 13 14  2  0
 14 15  1  0
 15 16  2  0
 16 11  1  0
 10 11  1  0
  9 17  1  0
 17 18  1  0
 18 19  1  0
 18 20  2  0
  8 21  1  0
 14 22  1  0
 17 23  1  6
 23 24  1  0
 24 25  1  0
 24 26  1  0
 24 27  1  0
  2 28  1  0
M  END