
  SciTegic01161211252D

 29 31  0  0  0  0            999 V2000
    0.3361   -1.0125    0.0000 C   0  0
    0.3349   -1.8398    0.0000 C   0  0
    1.0497   -2.2527    0.0000 C   0  0
    1.7662   -1.8394    0.0000 C   0  0
    1.7633   -1.0088    0.0000 C   0  0
    1.0479   -0.5997    0.0000 C   0  0
   -0.3799   -2.2518    0.0000 N   0  0
   -1.0940   -1.8387    0.0000 C   0  0
   -1.8088   -2.2506    0.0000 N   0  0
   -1.0934   -1.0137    0.0000 O   0  0
   -2.5230   -1.8371    0.0000 C   0  0
   -2.7968   -1.0577    0.0000 C   0  0
   -3.6226   -1.0734    0.0000 C   0  0
   -3.8615   -1.8643    0.0000 O   0  0
   -3.1826   -2.3347    0.0000 N   0  0
   -4.1209   -0.4158    0.0000 C   0  0
   -3.7454    0.3188    0.0000 C   0  0
   -4.9448   -0.4578    0.0000 C   0  0
   -4.6469    0.2297    0.0000 C   0  0
    2.4762   -0.5936    0.0000 N   0  0
    3.1922   -1.0034    0.0000 C   0  0
    3.9052   -0.5883    0.0000 C   0  0
    3.1875   -1.8250    0.0000 O   0  0
    4.6212   -0.9981    0.0000 C   0  0
    4.6212   -1.8219    0.0000 C   0  0
    5.3363   -2.2316    0.0000 C   0  0
    6.0502   -1.8164    0.0000 C   0  0
    6.0445   -0.9871    0.0000 C   0  0
    5.3287   -0.5812    0.0000 C   0  0
 13 14  1  0
 14 15  1  0
 15 11  2  0
  3  4  2  0
 13 16  1  0
  7  8  1  0
 16 17  1  0
 16 18  1  0
  8  9  1  0
 16 19  1  0
  4  5  1  0
  5 20  1  0
  8 10  2  0
 20 21  1  0
  2  3  1  0
 21 22  1  0
  9 11  1  0
 21 23  2  0
 12 13  2  0
 22 24  1  0
  5  6  2  0
 24 25  2  0
  6  1  1  0
 25 26  1  0
  1  2  2  0
 26 27  2  0
  2  7  1  0
 27 28  1  0
 11 12  1  0
 28 29  2  0
 29 24  1  0
M  END