
  SciTegic09171211542D

 39 41  0  0  0  0            999 V2000
   13.0247   -0.4402    0.0000 C   0  0
   13.7412   -0.0269    0.0000 C   0  0
   13.7383    0.8037    0.0000 C   0  0
   13.0229    1.2128    0.0000 C   0  0
   12.3099   -0.0273    0.0000 C   0  0
   12.3111    0.8016    0.0000 C   0  0
   11.5232    1.0589    0.0000 S   0  0
   11.0349    0.3890    0.0000 C   0  0
   11.5212   -0.2822    0.0000 N   0  0
   14.4512    1.2189    0.0000 N   0  0
   15.1672    0.8091    0.0000 C   0  0
   15.8802    1.2242    0.0000 C   0  0
   15.1704   -0.0159    0.0000 O   0  0
   16.5962    0.8144    0.0000 C   0  0
   17.3091    1.2296    0.0000 N   0  0
   18.0251    0.8198    0.0000 C   0  0
   18.7380    1.2350    0.0000 N   0  0
   18.0282   -0.0052    0.0000 O   0  0
   19.4540    0.8252    0.0000 C   0  0
   20.1669    1.2404    0.0000 C   0  0
   20.8830    0.8306    0.0000 O   0  0
   21.5959    1.2458    0.0000 C   0  0
   22.3114    0.8330    0.0000 C   0  0
   23.0238    1.2475    0.0000 C   0  0
   23.0211    2.0734    0.0000 C   0  0
   22.3001    2.4830    0.0000 C   0  0
   21.5906    2.0662    0.0000 C   0  0
   23.7335    2.4895    0.0000 C   0  0
   23.7293    3.3145    0.0000 C   0  0
   24.4417    3.7277    0.0000 C   0  0
   23.0127    3.7183    0.0000 C   0  0
   25.1590    3.3185    0.0000 O   0  0
   24.4395    4.5537    0.0000 O   0  0
   23.0008    4.5436    0.0000 O   0  0
   22.3023    3.2985    0.0000 O   0  0
   10.2099    0.3902    0.0000 S   0  0
    9.7964   -0.3236    0.0000 C   0  0
    8.9714   -0.3224    0.0000 C   0  0
    8.5578   -1.0363    0.0000 C   0  0
 17 19  1  0
  9  5  1  0
 19 20  1  0
  4  6  1  0
 20 21  1  0
  3 10  1  0
 21 22  1  0
  5  6  2  0
 22 23  2  0
 10 11  1  0
 23 24  1  0
  1  2  2  0
 24 25  2  0
 11 12  1  0
 25 26  1  0
  5  1  1  0
 26 27  2  0
 27 22  1  0
 11 13  2  0
 25 28  1  0
  2  3  1  0
 28 29  1  0
 12 14  1  0
 29 30  1  0
 29 31  1  0
 14 15  1  0
  3  4  2  0
 30 32  1  0
 30 33  2  0
 15 16  1  0
  6  7  1  0
 31 34  1  0
 31 35  2  0
 16 17  1  0
  8 36  1  0
  7  8  1  0
 36 37  1  0
 16 18  2  0
 37 38  1  0
  8  9  2  0
 38 39  1  0
M  END