
  SciTegic12231509382D

  9  9  0  0  0  0            999 V2000
    3.1625   -5.4833    0.0000 C   0  0
    3.1583   -4.7708    0.0000 N   0  0
    2.5500   -5.8333    0.0000 N   0  0
    3.7833   -5.8333    0.0000 N   0  0
    2.5458   -4.4167    0.0000 C   0  0
    3.7792   -4.4083    0.0000 C   0  0
    2.5458   -3.7042    0.0000 C   0  0
    3.7750   -3.7042    0.0000 C   0  0
    3.1583   -3.3500    0.0000 C   0  0
  4  1  1  0
  5  2  1  0
  6  2  1  0
  7  5  1  0
  8  6  1  0
  9  8  1  0
  7  9  1  0
  2  1  1  0
  3  1  2  0
M  END