
  SciTegic09261414462D

 41 42  0  0  0  0            999 V2000
   28.9192  -24.1859    0.0000 N   0  0
   29.6336  -24.5984    0.0000 C   0  0  2  0  0  0
   30.3481  -24.1859    0.0000 C   0  0
   29.6336  -25.4234    0.0000 C   0  0
   31.0626  -24.5984    0.0000 N   0  0
   30.3481  -23.3609    0.0000 O   0  0
   31.7770  -24.1859    0.0000 C   0  0  2  0  0  0
   32.4915  -24.5984    0.0000 C   0  0
   31.7770  -23.3609    0.0000 C   0  0
   32.4915  -25.4234    0.0000 O   0  0
   33.2060  -24.1859    0.0000 N   0  0
   33.9205  -24.5984    0.0000 C   0  0  2  0  0  0
   34.6349  -24.1859    0.0000 C   0  0
   33.9205  -25.4234    0.0000 C   0  0
   35.3494  -24.5984    0.0000 N   0  0
   34.6349  -23.3609    0.0000 O   0  0
   34.6349  -25.8359    0.0000 C   0  0
   34.6349  -26.6609    0.0000 C   0  0
   35.3494  -27.0734    0.0000 C   0  0
   35.3494  -27.8984    0.0000 N   0  3
   36.0639  -28.3109    0.0000 C   0  0
   34.6349  -28.3109    0.0000 C   0  0
   35.3426  -28.7193    0.0000 C   0  0
   36.0639  -24.1859    0.0000 C   0  0
   36.7783  -24.5984    0.0000 C   0  0
   36.0639  -23.3609    0.0000 C   0  0
   36.7783  -22.9484    0.0000 O   0  0
   37.4928  -24.1859    0.0000 O   0  0
   28.2047  -24.5984    0.0000 C   0  0
   27.4902  -24.1859    0.0000 C   0  0
   28.2047  -25.4234    0.0000 O   0  0
   32.4435  -22.8767    0.0000 C   0  0
   32.1885  -22.0921    0.0000 C   0  0
   31.3635  -22.0921    0.0000 C   0  0
   31.1087  -22.8767    0.0000 C   0  0
   26.7757  -24.5984    0.0000 C   0  0
   26.0616  -24.1832    0.0000 C   0  0
   25.3476  -24.5950    0.0000 C   0  0
   25.3472  -25.4209    0.0000 C   0  0
   26.0667  -25.8332    0.0000 C   0  0
   26.7777  -25.4190    0.0000 C   0  0
  1  2  1  0
  2  3  1  0
  2  4  1  6
  3  5  1  0
  3  6  2  0
  5  7  1  0
  7  8  1  0
  7  9  1  1
  8 10  2  0
  8 11  1  0
 11 12  1  0
 12 13  1  0
 12 14  1  6
 13 15  1  0
 13 16  2  0
 14 17  1  0
 17 18  1  0
 18 19  1  0
 19 20  1  0
 20 21  1  0
 20 22  1  0
 20 23  1  0
 15 24  1  0
 24 25  1  0
 24 26  1  0
 26 27  1  0
 25 28  1  0
  1 29  1  0
 29 30  1  0
 29 31  2  0
  9 32  1  0
 32 33  1  0
 33 34  1  0
 34 35  1  0
 35  9  1  0
 30 36  1  0
 36 37  2  0
 37 38  1  0
 38 39  2  0
 39 40  1  0
 40 41  2  0
 41 36  1  0
M  CHG  1  20   1
M  END