
  SciTegic07061118172D

 30 33  0  0  0  0            999 V2000
    1.3953    0.3048    0.0000 C   0  0
    2.1117    0.7182    0.0000 C   0  0
    2.1089    1.5487    0.0000 C   0  0
    1.3935    1.9579    0.0000 C   0  0
    2.8233    0.3076    0.0000 C   0  0
    2.8233   -0.5185    0.0000 C   0  0
    3.5375   -0.9298    0.0000 C   0  0
    4.2523   -0.5162    0.0000 C   0  0
    4.2484    0.3131    0.0000 C   0  0
    3.5335    0.7207    0.0000 C   0  0
    0.6805    0.7177    0.0000 C   0  0
    0.6817    1.5466    0.0000 C   0  0
   -0.5945    1.1341    0.0000 C   0  0
   -0.1089    0.4628    0.0000 C   0  0
    1.3917    2.7828    0.0000 C   0  0
    0.6763    3.1938    0.0000 O   0  0
   -0.5301   -0.2458    0.0000 C   0  0
   -1.3558   -0.2288    0.0000 C   0  0
   -1.7811   -0.9316    0.0000 C   0  0
   -1.3853   -1.6558    0.0000 N   0  0
   -0.5595   -1.6728    0.0000 C   0  0
   -0.1295   -0.9656    0.0000 C   0  0
   -1.8134   -2.3610    0.0000 S   0  0
   -2.6382   -2.3429    0.0000 C   0  0
   -1.8211   -3.1841    0.0000 O   0  0
   -1.1044   -2.7716    0.0000 O   0  0
   -3.0349   -1.6195    0.0000 C   0  0
   -3.8597   -1.6014    0.0000 C   0  0
   -0.1042    1.7976    0.0000 N   0  0
    2.1052    3.1969    0.0000 N   0  0
 11  1  1  0
  1  2  2  0
  2  3  1  0
  3  4  2  0
  4 12  1  0
  5  6  2  0
  6  7  1  0
  7  8  2  0
  8  9  1  0
  9 10  2  0
 10  5  1  0
  2  5  1  0
 11 12  2  0
 13 14  2  0
 14 11  1  0
  4 15  1  0
 15 16  2  0
 17 18  1  0
 17 22  1  0
 18 19  1  0
 19 20  1  0
 20 21  1  0
 21 22  1  0
 14 17  1  0
 20 23  1  0
 23 24  1  0
 23 25  2  0
 23 26  2  0
 24 27  1  0
 27 28  1  0
 12 29  1  0
 13 29  1  0
 15 30  1  0
M  END