
  SciTegic11201309402D

 65 71  0  0  0  0            999 V2000
    6.3724   -7.1855    0.0000 N   0  0
    4.1898   -7.2107    0.0000 N   0  0
    4.9662   -6.9317    0.0000 C   0  0
    5.5961   -7.4646    0.0000 C   0  0  2  0  0  0
    6.5190   -6.3736    0.0000 C   0  0
    5.5524   -3.6842    0.0000 N   0  0
    3.5600   -6.6779    0.0000 C   0  0  1  0  0  0
    3.7065   -5.8660    0.0000 C   0  0
    6.9586   -3.9380    0.0000 C   0  0
    4.4829   -5.5870    0.0000 N   0  0
    7.4419   -5.2827    0.0000 N   0  0
    7.2954   -6.0946    0.0000 C   0  0  1  0  0  0
    5.4059   -4.4961    0.0000 C   0  0
    7.7350   -3.6590    0.0000 N   0  0
    4.6295   -4.7751    0.0000 C   0  0  2  0  0  0
    8.2183   -5.0037    0.0000 C   0  0
    6.3288   -3.4052    0.0000 C   0  0  2  0  0  0
    4.0433   -8.0226    0.0000 C   0  0
    6.8777   -7.8377    0.0000 C   0  0
    5.6215   -8.2892    0.0000 C   0  0
    2.7836   -6.9569    0.0000 C   0  0
    6.4136   -8.5198    0.0000 C   0  0
    8.3648   -4.1918    0.0000 C   0  0  2  0  0  0
    3.2669   -8.3016    0.0000 C   0  0
    2.6371   -7.7688    0.0000 C   0  0
    2.5934   -3.9884    0.0000 C   0  0
    5.1128   -6.1198    0.0000 O   0  0
    5.8891   -5.8408    0.0000 O   0  0
    3.0767   -5.3331    0.0000 O   0  0
    3.9996   -4.2422    0.0000 C   0  0
    6.8121   -4.7499    0.0000 O   0  0
    3.2233   -4.5213    0.0000 N   0  0
    6.0357   -5.0289    0.0000 O   0  0
    8.8481   -5.5366    0.0000 O   0  0
    6.4753   -2.5933    0.0000 C   0  0
    2.7400   -3.1765    0.0000 O   0  0
    1.8170   -4.2674    0.0000 C   0  0
    7.9252   -6.6275    0.0000 C   0  0
    8.7016   -6.3485    0.0000 N   0  0
    1.1872   -3.7346    0.0000 C   0  0
   10.9871   -1.7310    0.0000 N   0  0
    7.7005   -7.8986    0.0000 C   0  0
    6.7723   -9.2627    0.0000 C   0  0
    9.1412   -3.9128    0.0000 C   0  0
    1.8607   -8.0478    0.0000 C   0  0
    3.1204   -9.1135    0.0000 C   0  0
    7.2517   -2.3142    0.0000 C   0  0
    5.8455   -2.0604    0.0000 C   0  0
   10.2107   -2.0100    0.0000 C   0  0
    1.3338   -2.9227    0.0000 C   0  0
    0.4108   -4.0136    0.0000 C   0  0
    9.2878   -3.1009    0.0000 C   0  0
   10.0642   -2.8219    0.0000 C   0  0
    8.0591   -8.6415    0.0000 C   0  0
    7.5950   -9.3236    0.0000 C   0  0
    1.7141   -8.8597    0.0000 C   0  0
    2.3440   -9.3925    0.0000 C   0  0
    7.3983   -1.5024    0.0000 C   0  0
    5.9921   -1.2485    0.0000 C   0  0
   -0.2190   -3.4807    0.0000 C   0  0
    0.7039   -2.3898    0.0000 C   0  0
   -0.0725   -2.6689    0.0000 C   0  0
    6.7684   -0.9695    0.0000 C   0  0
    2.7966   -6.0320    0.0000 H   0  0
    4.6955   -7.8993    0.0000 H   0  0
  2  3  1  0
  4  3  1  0
  4  1  1  0
  5  1  1  0
  6 17  1  0
  7  2  1  0
  7  8  1  0
  9 14  1  0
 10  8  1  0
 11 12  1  0
 12  5  1  0
 13 15  1  0
 14 23  1  0
 15 10  1  0
 16 11  1  0
 17  9  1  0
 18  2  1  0
 19  1  1  0
 20  4  1  0
 21  7  1  0
 22 19  1  0
 23 16  1  0
 24 18  1  0
 25 24  2  0
 26 32  1  0
 27  3  2  0
 28  5  2  0
 29  8  2  0
 15 30  1  1
 31  9  2  0
 32 30  1  0
 33 13  2  0
 34 16  2  0
 17 35  1  1
 36 26  2  0
 37 26  1  0
 12 38  1  1
 39 38  1  0
 40 37  1  0
 41 49  1  0
 42 19  1  0
 43 22  1  0
 23 44  1  1
 45 25  1  0
 46 24  1  0
 47 35  1  0
 48 35  2  0
 49 53  1  0
 50 40  2  0
 51 40  1  0
 52 44  1  0
 53 52  1  0
 54 42  1  0
 55 54  1  0
 56 57  1  0
 57 46  2  0
 58 47  2  0
 59 48  1  0
 60 51  2  0
 61 50  1  0
 62 60  1  0
 63 59  2  0
 20 22  1  0
 43 55  1  0
 21 25  1  0
 56 45  2  0
 13  6  1  0
 58 63  1  0
 61 62  2  0
  7 64  1  1
  4 65  1  6
M  END