
  SciTegic03291108552D

 27 30  0  0  0  0            999 V2000
   -2.0284   -4.1201    0.0000 O   0  0
    0.8294    4.1299    0.0000 O   0  0
   -2.7429   -0.4076    0.0000 N   0  0
   -2.7429    0.4174    0.0000 N   0  0
   -2.0284    1.6549    0.0000 N   0  0
    1.5439    2.8924    0.0000 N   0  0
   -1.3140   -0.4076    0.0000 C   0  0
   -1.3140    0.4174    0.0000 C   0  0
   -2.0284   -0.8201    0.0000 C   0  0
   -2.0284    0.8299    0.0000 C   0  0
   -2.0284   -1.6451    0.0000 C   0  0
   -0.5995   -0.8201    0.0000 C   0  0
   -0.5995    0.8299    0.0000 C   0  0
   -1.3140    2.0674    0.0000 C   0  0
   -1.3140   -2.0576    0.0000 C   0  0
   -2.7429   -2.0576    0.0000 C   0  0
    0.1150   -0.4076    0.0000 C   0  0
    0.1150    0.4174    0.0000 C   0  0
   -1.3140    2.8924    0.0000 C   0  0
   -0.5995    1.6549    0.0000 C   0  0
   -1.3140   -2.8826    0.0000 C   0  0
   -2.7429   -2.8826    0.0000 C   0  0
    0.1150    2.8924    0.0000 C   0  0
   -2.0284   -3.2951    0.0000 C   0  0
   -0.5995    3.3049    0.0000 C   0  0
    0.1150    2.0674    0.0000 C   0  0
    0.8294    3.3049    0.0000 C   0  0
  1 24  1  0
  2 27  2  0
  3  4  1  0
  3  9  2  0
  4 10  2  0
  5 10  1  0
  5 14  1  0
  6 27  1  0
  7  8  1  0
  7  9  1  0
  7 12  2  0
  8 10  1  0
  8 13  2  0
  9 11  1  0
 11 15  2  0
 11 16  1  0
 12 17  1  0
 13 18  1  0
 14 19  2  0
 14 20  1  0
 15 21  1  0
 16 22  2  0
 17 18  2  0
 19 25  1  0
 20 26  2  0
 21 24  2  0
 22 24  1  0
 23 25  2  0
 23 26  1  0
 23 27  1  0
M  END