
          05080814032D 1   1.00000     0.00000     0

 30 34  0     1  0            999 V2000
   -5.6211  -10.8070    0.0000 C   0  0  0  0  0  0           0  0  0
   -5.6211  -11.6361    0.0000 C   0  0  0  0  0  0           0  0  0
   -4.9070  -12.0484    0.0000 N   0  0  3  0  0  0           0  0  0
   -4.1882  -11.6361    0.0000 C   0  0  0  0  0  0           0  0  0
   -4.1882  -10.8070    0.0000 C   0  0  0  0  0  0           0  0  0
   -4.9070  -10.3900    0.0000 O   0  0  0  0  0  0           0  0  0
   -4.9081  -12.8730    0.0000 C   0  0  0  0  0  0           0  0  0
   -4.1945  -13.2863    0.0000 C   0  0  0  0  0  0           0  0  0
   -4.1957  -14.1109    0.0000 C   0  0  0  0  0  0           0  0  0
   -3.4821  -14.5242    0.0000 O   0  0  0  0  0  0           0  0  0
   -2.7674  -14.1129    0.0000 C   0  0  0  0  0  0           0  0  0
   -2.0565  -14.5275    0.0000 C   0  0  0  0  0  0           0  0  0
   -2.0592  -12.8783    0.0000 C   0  0  0  0  0  0           0  0  0
   -2.7705  -13.2912    0.0000 C   0  0  0  0  0  0           0  0  0
   -1.3407  -13.2913    0.0000 C   0  0  0  0  0  0           0  0  0
   -1.3422  -14.1191    0.0000 C   0  0  0  0  0  0           0  0  0
    0.0897  -13.2942    0.0000 C   0  0  0  0  0  0           0  0  0
   -0.6269  -12.8766    0.0000 C   0  0  1  0  0  0           0  0  0
    0.0881  -14.1219    0.0000 N   0  0  3  0  0  0           0  0  0
   -0.6304  -14.5276    0.0000 C   0  0  2  0  0  0           0  0  0
   -0.4665  -15.3364    0.0000 C   0  0  0  0  0  0           0  0  0
    0.3533  -15.4304    0.0000 C   0  0  0  0  0  0           0  0  0
    0.6959  -14.6799    0.0000 C   0  0  0  0  0  0           0  0  0
   -0.6265  -12.0520    0.0000 C   0  0  0  0  0  0           0  0  0
   -1.3469  -14.9345    0.0000 H   0  0  0  0  0  0           0  0  0
    0.0878  -11.6445    0.0000 N   0  0  0  0  0  0           0  0  0
    0.0887  -10.8207    0.0000 C   0  0  0  0  0  0           0  0  0
   -0.6257  -10.4071    0.0000 C   0  0  0  0  0  0           0  0  0
   -1.3425  -10.8235    0.0000 C   0  0  0  0  0  0           0  0  0
   -1.3397  -11.6460    0.0000 C   0  0  0  0  0  0           0  0  0
 14 11  1  0     0  0
 15 16  2  0     0  0
  3  7  1  0     0  0
  1  2  1  0     0  0
  7  8  1  0     0  0
  1  6  1  0     0  0
 15 18  1  0     0  0
 16 20  1  0     0  0
 19 17  1  0     0  0
 17 18  1  0     0  0
 19 20  1  0     0  0
  8  9  1  0     0  0
  2  3  1  0     0  0
  9 10  1  0     0  0
  3  4  1  0     0  0
 10 11  1  0     0  0
 20 21  1  0     0  0
 21 22  1  0     0  0
 22 23  1  0     0  0
 23 19  1  0     0  0
  4  5  1  0     0  0
 18 24  1  6     0  0
 11 12  2  0     0  0
 20 25  1  1     0  0
 12 16  1  0     0  0
 24 26  2  0     0  0
  5  6  1  0     0  0
 26 27  1  0     0  0
 15 13  1  0     0  0
 27 28  2  0     0  0
 28 29  1  0     0  0
 13 14  2  0     0  0
 29 30  2  0     0  0
 30 24  1  0     0  0
M  END