
  SciTegic01161211252D

 32 35  0  0  0  0            999 V2000
    5.9100   -8.5946    0.0000 C   0  0
    6.5718   -8.1014    0.0000 C   0  0
    6.3072   -7.3195    0.0000 C   0  0
    5.4818   -7.3296    0.0000 N   0  0
    5.2366   -8.1170    0.0000 N   0  0
    4.5222   -8.5228    0.0000 C   0  0
    3.8112   -8.1022    0.0000 C   0  0
    3.0935   -8.5076    0.0000 C   0  0
    3.0857   -9.3335    0.0000 C   0  0
    3.8015   -9.7522    0.0000 C   0  0
    4.5162   -9.3444    0.0000 C   0  0
    6.7113   -6.5998    0.0000 C   0  0
    7.5362   -6.5898    0.0000 N   0  0
    6.2902   -5.8904    0.0000 O   0  0
    7.9401   -5.8704    0.0000 N   0  0
    5.9223   -9.4175    0.0000 C   0  0
    5.2112   -9.8381    0.0000 C   0  0
    5.2209  -10.6623    0.0000 C   0  0
    5.9409  -11.0668    0.0000 C   0  0
    6.6526  -10.6412    0.0000 C   0  0
    6.6394   -9.8184    0.0000 C   0  0
    2.3682   -9.7405    0.0000 Cl  0  0
    5.9521  -11.8918    0.0000 Cl  0  0
    3.8194   -7.2772    0.0000 Cl  0  0
    7.3595   -8.3467    0.0000 S   0  0
    7.5408   -9.1515    0.0000 C   0  0
    8.7877   -5.9183    0.0000 C   0  0
    9.3150   -5.3078    0.0000 C   0  0
    7.4668   -5.1871    0.0000 C   0  0
    7.7185   -4.4034    0.0000 C   0  0
    8.5217   -4.0990    0.0000 C   0  0
    9.2009   -4.5042    0.0000 C   0  0
  7  8  1  0
  3  4  2  0
 16 17  2  0
  8  9  2  0
 17 18  1  0
  4  5  1  0
 18 19  2  0
  9 10  1  0
 19 20  1  0
  5  1  1  0
 20 21  2  0
 21 16  1  0
  1 16  1  0
 10 11  2  0
  9 22  1  0
 11  6  1  0
 19 23  1  0
  5  6  1  0
  7 24  1  0
  1  2  2  0
  2 25  1  0
  3 12  1  0
 25 26  1  0
 12 13  1  0
  6  7  2  0
 12 14  2  0
  2  3  1  0
 13 15  1  0
 15 27  1  0
 27 28  1  0
 15 29  1  0
 30 31  1  0
 31 32  1  0
 32 28  1  0
 29 30  1  0
M  END