
  SciTegic12231509382D

 26 29  0  0  0  0            999 V2000
    0.2917    0.7475    0.0000 C   0  0
    0.2917   -0.7475    0.0000 C   0  0
   -1.0028    1.5132    0.0000 C   0  0
    1.7138   -1.2033    0.0000 S   0  0
    1.7138    1.2033    0.0000 C   0  0
    2.5889    0.0182    0.0000 C   0  0
   -7.8388    3.2461    0.0000 C   0  0  2  0  0  0
   -6.3695    2.9443    0.0000 C   0  0  2  0  0  0
   -2.3155    0.7475    0.0000 C   0  0
   -4.9153    0.7255    0.0000 N   0  0
   -8.4547    4.6120    0.0000 O   0  0
   -6.2216    1.4644    0.0000 C   0  0  2  0  0  0
   -1.0028   -1.5132    0.0000 C   0  0
   -0.9991    2.7132    0.0000 O   0  0
   -3.6217    1.4865    0.0000 C   0  0
   -8.5800    1.9420    0.0000 C   0  0
   -2.3155   -0.7475    0.0000 C   0  0
   -7.5687    0.8342    0.0000 C   0  0
   -5.4784    3.7480    0.0000 O   0  0
   -7.5790    5.8309    0.0000 C   0  0
    3.7889    0.0269    0.0000 C   0  0
   -8.1936    7.1992    0.0000 C   0  0
   -6.0867    5.6791    0.0000 C   0  0
   -5.2090    6.8955    0.0000 C   0  0
   -7.3160    8.4157    0.0000 C   0  0
   -5.8237    8.2638    0.0000 C   0  0
  1  2  2  0
  1  3  1  0
  2  4  1  0
  1  5  1  0
  4  6  1  0
  5  6  2  0
  7  8  1  0
  3  9  1  0
  7 11  1  1
  8 12  1  0
 12 10  1  6
  2 13  1  0
  3 14  2  0
  9 15  1  0
 10 15  1  0
  7 16  1  0
  9 17  1  0
 13 17  1  0
 12 18  1  0
 16 18  1  0
  8 19  1  1
 11 20  1  0
  6 21  1  0
 20 22  1  0
 20 23  2  0
 23 24  1  0
 22 25  2  0
 24 26  2  0
 25 26  1  0
M  END