
  SciTegic05061116452D

 33 37  0  0  0  0            999 V2000
   -4.6908    0.1786    0.0000 C   0  0
   -4.6920   -0.6462    0.0000 C   0  0
   -3.9793   -1.0577    0.0000 C   0  0
   -3.2652   -0.6457    0.0000 C   0  0
   -3.2681    0.1822    0.0000 C   0  0
   -3.9811    0.5901    0.0000 C   0  0
   -5.4031    0.5896    0.0000 O   0  0
   -6.1211    0.1783    0.0000 C   0  0
   -3.9836    1.4125    0.0000 N   0  0
   -3.2727    1.8258    0.0000 C   0  0
   -2.5613    1.4143    0.0000 N   0  0
   -2.5713    3.0591    0.0000 C   0  0
   -3.2788    2.6441    0.0000 N   0  0
   -3.9790   -1.8752    0.0000 N   0  0
   -4.6932   -2.2849    0.0000 C   0  0
   -4.6954   -3.1037    0.0000 C   0  0
   -3.9850   -3.5190    0.0000 N   0  0
   -3.2709   -3.1092    0.0000 C   0  0
   -3.2671   -2.2842    0.0000 C   0  0
   -0.3690    3.0405    0.0000 C   0  0
   -1.1969    3.1834    0.0000 N   0  0
   -1.1473    1.2733    0.0000 N   0  0
   -1.8500    1.8267    0.0000 C   0  0
   -1.8528    2.6503    0.0000 C   0  0
   -1.3409    0.4000    0.0000 C   0  0
    0.1132    3.7066    0.0000 O   0  0
    0.0455    2.2608    0.0000 C   0  0
   -0.3127    1.4693    0.0000 C   0  0
    0.1933    0.7655    0.0000 C   0  0
    1.0576    0.8519    0.0000 C   0  0
    1.4132    1.6482    0.0000 C   0  0
    0.9050    2.3486    0.0000 C   0  0
   -3.9883   -4.3414    0.0000 C   0  0
  7  8  1  0
  6  9  1  0
 14 19  1  0
 15 16  1  0
 16 17  1  0
 17 18  1  0
 18 19  1  0
  3 14  1  0
  4  5  1  0
  9 10  1  0
  2  3  1  0
 10 11  2  0
 11 23  1  0
 27 20  1  0
 20 21  1  0
 22 23  1  0
 23 24  2  0
 24 21  1  0
 28 22  1  0
  5  6  2  0
 22 25  1  0
 24 12  1  0
 20 26  2  0
  6  1  1  0
 12 13  2  0
 27 28  2  0
 13 10  1  0
 28 29  1  0
 14 15  1  0
 29 30  2  0
  1  2  2  0
 30 31  1  0
  1  7  1  0
 31 32  2  0
 32 27  1  0
  3  4  2  0
 17 33  1  0
M  END