
  SciTegic11201309402D

 62 65  0  0  1  0            999 V2000
   -3.9167   -2.9958    0.0000 N   0  0
   -2.6125    0.7500    0.0000 N   0  0
   -3.9125   -1.4958    0.0000 C   0  0
   -2.6125   -0.7458    0.0000 C   0  0  1  0  0  0
   -2.7208   -3.8333    0.0000 C   0  0  1  0  0  0
   -3.9125    1.5042    0.0000 C   0  0
   -3.9083    3.0042    0.0000 C   0  0  1  0  0  0
   -1.3000    1.5000    0.0000 C   0  0
   -5.1292   -3.8500    0.0000 C   0  0  2  0  0  0
   -3.1750   -5.2667    0.0000 C   0  0
   -1.3000   -1.4958    0.0000 C   0  0
  -11.6792   16.5250    0.0000 C   0  0
  -11.6833   15.0250    0.0000 N   0  0
   -1.3042   -3.3417    0.0000 C   0  0
   -5.2083    3.7583    0.0000 N   0  0
   -4.6667   -5.2708    0.0000 C   0  0  2  0  0  0
  -15.5667   23.2875    0.0000 C   0  0
   -6.4833   19.5250    0.0000 C   0  0
  -10.3875   12.7708    0.0000 C   0  0
    0.0000    0.7500    0.0000 C   0  0
    0.0000   -0.7458    0.0000 C   0  0
   -4.9542   -0.8917    0.0000 O   0  0
   -5.2042    5.2542    0.0000 C   0  0
  -10.3833   14.2708    0.0000 C   0  0  2  0  0  0
   -6.4833   20.7250    0.0000 N   0  0
  -16.6042   23.8917    0.0000 N   0  0
   -4.9500    0.9042    0.0000 O   0  0
  -10.6375   17.1250    0.0000 O   0  0
   -1.0750   -2.1625    0.0000 O   0  0
  -11.4250   12.1708    0.0000 O   0  0
   -4.1625    5.8542    0.0000 O   0  0
  -12.9792   17.2792    0.0000 C   0  0  2  0  0  0
   -7.7833   18.7750    0.0000 N   0  0
  -15.5708   21.7875    0.0000 N   0  0
   -9.0875   12.0167    0.0000 N   0  0
  -14.5250   23.8875    0.0000 N   0  0
   -5.4500   18.9250    0.0000 N   0  0
   -0.3958   -4.1292    0.0000 O   0  0
   -2.6083    3.7542    0.0000 C   0  0
  -14.0167   16.6792    0.0000 N   0  0
   -6.5917   -3.5208    0.0000 C   0  0
   -2.6083    4.9500    0.0000 O   0  0
   -5.6625   -6.4000    0.0000 C   0  0
    1.2958   -1.4958    0.0000 C   0  0
    1.2958    1.5000    0.0000 C   0  0
   -6.5000    6.0083    0.0000 C   0  0
   -9.0833   15.0208    0.0000 C   0  0
  -14.2708   21.0333    0.0000 C   0  0
   -7.7833   17.2750    0.0000 C   0  0
   -9.0917   10.5167    0.0000 C   0  0
  -12.9750   18.7792    0.0000 C   0  0
   -9.0833   16.5208    0.0000 C   0  0
   -6.4958    7.5083    0.0000 C   0  0
  -14.2750   19.5333    0.0000 C   0  0
   -7.7917    9.7625    0.0000 C   0  0
   -7.7958    8.2625    0.0000 C   0  0
   -7.6042   -4.6542    0.0000 C   0  0
   -7.1417   -6.0750    0.0000 C   0  0
    2.5917    0.7500    0.0000 C   0  0
    2.5917   -0.7458    0.0000 C   0  0
   -4.2540   -6.1817    0.0000 H   0  0
   -5.3241   -2.8692    0.0000 H   0  0
  2  4  1  0
  3  1  1  0
  4  3  1  6
  5  1  1  0
  6  2  1  0
  7  6  1  0
  8  2  1  0
  9  1  1  0
 10  5  1  0
 11  4  1  0
 12 13  1  0
 24 13  1  1
  5 14  1  6
  7 15  1  1
 16  9  1  0
 17 34  2  0
 18 33  2  0
 19 35  1  0
 20  8  1  0
 21 11  1  0
 22  3  2  0
 23 15  1  0
 24 19  1  0
 25 18  1  0
 26 17  1  0
 27  6  2  0
 28 12  2  0
 29 14  2  0
 30 19  2  0
 31 23  2  0
 32 12  1  0
 33 49  1  0
 34 48  1  0
 35 50  1  0
 36 17  1  0
 37 18  1  0
 38 14  1  0
 39  7  1  0
 32 40  1  6
  9 41  1  0
 42 39  1  0
 16 43  1  0
 44 21  2  0
 45 20  2  0
 46 23  1  0
 47 24  1  0
 48 54  1  0
 49 52  1  0
 50 55  1  0
 51 32  1  0
 52 47  1  0
 53 46  1  0
 54 51  1  0
 55 56  1  0
 56 53  1  0
 57 41  1  0
 58 43  1  0
 59 45  1  0
 60 44  1  0
 10 16  1  0
 58 57  1  0
 20 21  1  0
 60 59  2  0
 16 61  1  1
  9 62  1  1
M  END