
          11280715482D 1   1.00000     0.00000     0

 37 43  0     0  0            999 V2000
    4.1167   -0.9667    0.0000 C   0  0  0  0  0  0           0  0  0
    3.3667   -0.6250    0.0000 N   0  0  0  0  0  0           0  0  0
    2.8125   -1.2375    0.0000 C   0  0  0  0  0  0           0  0  0
    4.0250   -1.7875    0.0000 C   0  0  0  0  0  0           0  0  0
    3.2167   -1.9542    0.0000 N   0  0  0  0  0  0           0  0  0
    4.8375   -0.5542    0.0000 C   0  0  0  0  0  0           0  0  0
    1.9917   -1.1417    0.0000 C   0  0  3  0  0  0           0  0  0
    5.0667   -3.7042    0.0000 C   0  0  3  0  0  0           0  0  0
    5.5500   -0.9750    0.0000 N   0  0  0  0  0  0           0  0  0
    8.4000   -1.0000    0.0000 C   0  0  0  0  0  0           0  0  0
    7.6917   -0.5792    0.0000 C   0  0  0  0  0  0           0  0  0
    4.6292   -2.3417    0.0000 C   0  0  0  0  0  0           0  0  0
    5.2417   -4.9625    0.0000 C   0  0  3  0  0  0           0  0  0
    5.6667   -5.1917    0.0000 C   0  0  3  0  0  0           0  0  0
    6.3750   -4.0417    0.0000 C   0  0  3  0  0  0           0  0  0
    4.8417    0.2708    0.0000 O   0  0  0  0  0  0           0  0  0
    4.4542   -3.1500    0.0000 O   0  0  0  0  0  0           0  0  0
    6.2667   -0.5667    0.0000 C   0  0  0  0  0  0           0  0  0
    6.9750   -0.9917    0.0000 C   0  0  0  0  0  0           0  0  0
    5.0917   -4.5667    0.0000 C   0  0  0  0  0  0           0  0  0
    4.7042   -4.3792    0.0000 C   0  0  0  0  0  0           0  0  0
    5.8292   -3.4292    0.0000 C   0  0  0  0  0  0           0  0  0
    8.3917   -1.8250    0.0000 O   0  0  0  0  0  0           0  0  0
    2.4625   -0.4875    0.0000 C   0  0  0  0  0  0           0  0  0
    2.1792   -2.0167    0.0000 C   0  0  0  0  0  0           0  0  0
    1.0167   -0.8125    0.0000 C   0  0  0  0  0  0           0  0  0
    5.2292   -5.9000    0.0000 C   0  0  0  0  0  0           0  0  0
    5.9417   -4.6792    0.0000 C   0  0  0  0  0  0           0  0  0
    6.4292   -4.9125    0.0000 C   0  0  0  0  0  0           0  0  0
    9.1167   -0.5917    0.0000 O   0  0  0  0  0  0           0  0  0
    1.7000   -0.4917    0.0000 C   0  0  0  0  0  0           0  0  0
    1.4292   -1.9750    0.0000 C   0  0  0  0  0  0           0  0  0
    0.3917   -0.9375    0.0000 C   0  0  0  0  0  0           0  0  0
    1.2417   -1.1375    0.0000 C   0  0  3  0  0  0           0  0  0
    7.6917    0.2458    0.0000 C   0  0  0  0  0  0           0  0  0
    6.9792    0.6583    0.0000 C   0  0  0  0  0  0           0  0  0
    6.2667    0.2500    0.0000 C   0  0  0  0  0  0           0  0  0
  2  1  1  0     0  0
  3  2  1  0     0  0
  4  1  2  0     0  0
  5  4  1  0     0  0
  6  1  1  0     0  0
  7  3  1  0     0  0
  8 17  1  0     0  0
  9  6  1  0     0  0
 10 11  1  0     0  0
 11 19  2  0     0  0
 12  4  1  0     0  0
 13 21  1  0     0  0
 14 20  1  0     0  0
 15 22  1  0     0  0
 16  6  2  0     0  0
 17 12  1  0     0  0
 18  9  1  0     0  0
 19 18  1  0     0  0
 20  8  1  0     0  0
 21  8  1  0     0  0
 22  8  1  0     0  0
 23 10  2  0     0  0
 24  7  1  0     0  0
 25  7  1  0     0  0
 26  7  1  0     0  0
 27 13  1  0     0  0
 28 15  1  0     0  0
 29 15  1  0     0  0
 30 10  1  0     0  0
 31 24  1  0     0  0
 32 25  1  0     0  0
 33 26  1  0     0  0
 34 33  1  0     0  0
 35 36  2  0     0  0
 36 37  1  0     0  0
 37 18  2  0     0  0
  3  5  2  0     0  0
 11 35  1  0     0  0
 31 34  1  0     0  0
 34 32  1  0     0  0
 14 29  1  0     0  0
 13 28  1  0     0  0
 14 27  1  0     0  0
M  END