
  SciTegic02271514512D

 28 31  0  0  0  0            999 V2000
   12.5172   -7.0384    0.0000 N   0  0
   10.6961   -8.2052    0.0000 C   0  0
   11.4908   -8.0138    0.0000 N   0  0
   11.7225   -7.2298    0.0000 C   0  0
   11.1593   -6.6372    0.0000 C   0  0
   10.3646   -6.8286    0.0000 C   0  0
   10.1330   -7.6126    0.0000 N   0  0
   11.3909   -5.8532    0.0000 F   0  0
    9.7161  -10.0797    0.0000 C   0  0
    9.6941   -9.2626    0.0000 C   0  0
    8.9754   -8.8730    0.0000 C   0  0
    8.2787   -9.3006    0.0000 C   0  0
    8.3007  -10.1178    0.0000 C   0  0
    9.0194  -10.5074    0.0000 N   0  0
   10.5001  -10.3114    0.0000 N   0  0
   10.4645   -8.9891    0.0000 C   0  0
   10.9626   -9.6373    0.0000 C   0  0
    7.5600   -8.9111    0.0000 Cl  0  0
   13.0802   -7.6307    0.0000 C   0  0
   13.8746   -7.4394    0.0000 C   0  0  2  0  0  0
   14.4328   -8.0344    0.0000 C   0  0
   15.2243   -7.8458    0.0000 N   0  0
   15.4599   -7.0629    0.0000 C   0  0
   14.8978   -6.4685    0.0000 C   0  0
   14.0999   -6.6570    0.0000 C   0  0
   15.7850   -8.4403    0.0000 C   0  0
   15.5505   -9.2231    0.0000 O   0  0
   16.5801   -8.2519    0.0000 C   0  0
  2  3  1  0
  3  4  2  0
  4  5  1  0
  5  6  2  0
  6  7  1  0
  2  7  2  0
  5  8  1  0
  9 10  1  0
 10 11  2  0
 11 12  1  0
 12 13  2  0
 13 14  1  0
  9 14  2  0
 16 17  2  0
 15 17  1  0
  9 15  1  0
 10 16  1  0
 12 18  1  0
  2 16  1  0
  1  4  1  0
  1 19  1  0
 20 19  1  1
 20 21  1  0
 20 25  1  0
 21 22  1  0
 22 23  1  0
 23 24  1  0
 24 25  1  0
 22 26  1  0
 26 27  2  0
 26 28  1  0
M  END