
          11280715102D 1   1.00000     0.00000     0

 31 34  0     0  0            999 V2000
   -1.2958   -1.1042    0.0000 N   0  0  3  0  0  0           0  0  0
   -1.7083    0.1583    0.0000 N   0  0  0  0  0  0           0  0  0
   -0.6333   -0.6292    0.0000 N   0  0  0  0  0  0           0  0  0
    2.2667   -2.3417    0.0000 C   0  0  0  0  0  0           0  0  0
   -1.9583   -0.6292    0.0000 C   0  0  0  0  0  0           0  0  0
    1.8417   -1.0792    0.0000 N   0  0  0  0  0  0           0  0  0
    1.5917   -1.8667    0.0000 N   0  0  0  0  0  0           0  0  0
    2.6667   -1.0667    0.0000 N   0  0  0  0  0  0           0  0  0
   -0.8833    0.1583    0.0000 C   0  0  0  0  0  0           0  0  0
    2.9292   -1.8542    0.0000 N   0  0  0  0  0  0           0  0  0
    2.2667   -3.1667    0.0000 C   0  0  0  0  0  0           0  0  0
    1.5667   -3.5792    0.0000 C   0  0  0  0  0  0           0  0  0
   -1.2958   -1.9292    0.0000 C   0  0  0  0  0  0           0  0  0
    0.8417   -3.1667    0.0000 C   0  0  0  0  0  0           0  0  0
    0.1292   -3.5792    0.0000 C   0  0  0  0  0  0           0  0  0
    0.8417   -2.3417    0.0000 C   0  0  0  0  0  0           0  0  0
   -0.5833   -2.3417    0.0000 C   0  0  0  0  0  0           0  0  0
   -0.5833   -3.1667    0.0000 C   0  0  0  0  0  0           0  0  0
    0.1292   -1.9292    0.0000 C   0  0  0  0  0  0           0  0  0
   -2.7458   -0.8792    0.0000 C   0  0  0  0  0  0           0  0  0
   -0.3958    0.8208    0.0000 C   0  0  0  0  0  0           0  0  0
    2.9792   -3.5792    0.0000 C   0  0  0  0  0  0           0  0  0
    1.5542   -4.4042    0.0000 C   0  0  0  0  0  0           0  0  0
   -3.3583   -0.3292    0.0000 C   0  0  0  0  0  0           0  0  0
    0.4167    0.7458    0.0000 C   0  0  0  0  0  0           0  0  0
   -4.1458   -0.5917    0.0000 C   0  0  0  0  0  0           0  0  0
    0.9042    1.4083    0.0000 C   0  0  0  0  0  0           0  0  0
    2.2792   -4.8167    0.0000 C   0  0  0  0  0  0           0  0  0
    2.9917   -4.4042    0.0000 C   0  0  0  0  0  0           0  0  0
   -4.7708   -0.0417    0.0000 C   0  0  0  0  0  0           0  0  0
    1.7167    1.3208    0.0000 C   0  0  0  0  0  0           0  0  0
  2  5  2  0     0  0
  3  1  1  0     0  0
  4 11  1  0     0  0
  5  1  1  0     0  0
  6  7  2  0     0  0
  7  4  1  0     0  0
  8 10  1  0     0  0
  9  3  2  0     0  0
 10  4  2  0     0  0
 11 12  2  0     0  0
 12 14  1  0     0  0
 13  1  1  0     0  0
 14 16  2  0     0  0
 15 18  2  0     0  0
 16 19  1  0     0  0
 17 13  1  0     0  0
 18 17  1  0     0  0
 19 17  2  0     0  0
 20  5  1  0     0  0
 21  9  1  0     0  0
 22 11  1  0     0  0
 23 12  1  0     0  0
 24 20  1  0     0  0
 25 21  1  0     0  0
 26 24  1  0     0  0
 27 25  1  0     0  0
 28 23  2  0     0  0
 29 28  1  0     0  0
 30 26  1  0     0  0
 31 27  1  0     0  0
  9  2  1  0     0  0
 15 14  1  0     0  0
 22 29  2  0     0  0
  8  6  1  0     0  0
M  END