
          11280715022D 1   1.00000     0.00000     0

 21 22  0     1  0            999 V2000
    6.9792   -4.3417    0.0000 C   0  0  1  0  0  0           0  0  0
    7.2167   -3.4417    0.0000 C   0  0  0  0  0  0           0  0  0
    6.9792   -5.2542    0.0000 C   0  0  1  0  0  0           0  0  0
    7.7750   -4.8000    0.0000 C   0  0  0  0  0  0           0  0  0
    6.1875   -5.7125    0.0000 N   0  0  3  0  0  0           0  0  0
    7.2167   -2.5292    0.0000 C   0  0  0  0  0  0           0  0  0
    7.7667   -5.7167    0.0000 O   0  0  0  0  0  0           0  0  0
    6.1875   -3.8792    0.0000 C   0  0  0  0  0  0           0  0  0
    8.0000   -2.0792    0.0000 C   0  0  0  0  0  0           0  0  0
    8.5667   -4.3417    0.0000 O   0  0  0  0  0  0           0  0  0
    8.0042   -3.9042    0.0000 C   0  0  0  0  0  0           0  0  0
    5.4042   -5.2542    0.0000 C   0  0  0  0  0  0           0  0  0
    6.1875   -6.6292    0.0000 C   0  0  0  0  0  0           0  0  0
    8.0000   -1.1625    0.0000 O   0  0  0  0  0  0           0  0  0
    7.2167   -6.1417    0.0000 C   0  0  0  0  0  0           0  0  0
    5.4042   -4.3417    0.0000 C   0  0  0  0  0  0           0  0  0
    8.8000   -3.4500    0.0000 C   0  0  0  0  0  0           0  0  0
    8.8000   -2.5292    0.0000 C   0  0  0  0  0  0           0  0  0
    9.3542   -4.8042    0.0000 C   0  0  0  0  0  0           0  0  0
   10.1542   -4.3417    0.0000 C   0  0  0  0  0  0           0  0  0
    6.7417   -6.1417    0.0000 H   0  0  0  0  0  0           0  0  0
  1  2  1  6     0  0
  3  1  1  0     0  0
  1  4  1  1     0  0
  5  3  1  0     0  0
  6  2  1  0     0  0
  7  4  2  0     0  0
  8  1  1  0     0  0
  9  6  2  0     0  0
 10  4  1  0     0  0
 11  2  2  0     0  0
 12 16  1  0     0  0
 13  5  1  0     0  0
 14  9  1  0     0  0
  3 15  1  6     0  0
 16  8  1  0     0  0
 17 11  1  0     0  0
 18 17  2  0     0  0
 19 10  1  0     0  0
 20 19  1  0     0  0
  3 21  1  1     0  0
  5 12  1  0     0  0
  9 18  1  0     0  0
M  END