
  SciTegic12231509382D

 16 17  0  0  0  0            999 V2000
    1.1470   -3.3397    0.0000 C   0  0
    1.6332   -2.2426    0.0000 C   0  0
    2.8264   -2.1154    0.0000 O   0  0
    0.7500   -1.0323    0.0000 N   0  0
    1.2135    0.3943    0.0000 C   0  0
    0.0000    1.2760    0.0000 C   0  0
   -1.2135    0.3943    0.0000 C   0  0
   -0.7500   -1.0323    0.0000 C   0  0  1  0  0  0
   -1.6306   -2.2444    0.0000 C   0  0
   -2.5128   -3.4586    0.0000 C   0  0
   -3.3950   -4.6728    0.0000 C   0  0
   -4.8877   -4.5169    0.0000 N   0  0
   -5.8712   -5.6325    0.0000 C   0  0
   -7.2407   -5.0204    0.0000 C   0  0
   -7.0817   -3.5288    0.0000 C   0  0
   -5.6141   -3.2191    0.0000 C   0  0
  1  2  1  0
  2  3  2  0
  2  4  1  0
  4  5  1  0
  5  6  1  0
  6  7  1  0
  7  8  1  0
  8  4  1  0
  8  9  1  6
  9 10  3  0
 10 11  1  0
 11 12  1  0
 12 13  1  0
 13 14  1  0
 14 15  1  0
 15 16  1  0
 16 12  1  0
M  END