
  SciTegic07221113202D

 33 34  0  0  0  0            999 V2000
    1.4143  -18.1205    0.0000 C   0  0
    2.2393  -18.1205    0.0000 C   0  0
    1.0018  -18.8350    0.0000 C   0  0
    2.6518  -18.8350    0.0000 C   0  0
    3.4768  -18.8350    0.0000 O   0  0
    2.2393  -19.5495    0.0000 O   0  0
    0.1768  -18.8350    0.0000 O   0  0
    1.4143  -19.5495    0.0000 O   0  0
    3.8372  -22.0885    0.0000 N   0  0
    4.5606  -22.5019    0.0000 C   0  0
    3.1252  -22.5019    0.0000 C   0  0
    5.2667  -22.0885    0.0000 C   0  0
    4.5606  -23.3286    0.0000 O   0  0
    5.9901  -22.5019    0.0000 N   0  0
    2.4076  -22.0885    0.0000 C   0  0
    3.1252  -23.3286    0.0000 C   0  0
    6.7077  -22.0827    0.0000 C   0  0
    3.8372  -21.2618    0.0000 C   0  0
    2.4076  -21.2618    0.0000 C   0  0
    1.6956  -22.5019    0.0000 C   0  0
    2.4190  -23.7420    0.0000 C   0  0
    3.8372  -23.7420    0.0000 C   0  0
    7.4197  -22.4961    0.0000 C   0  0
    6.6963  -21.2560    0.0000 C   0  0
    0.9780  -22.0999    0.0000 C   0  0
    1.6956  -20.8484    0.0000 C   0  0
    3.8372  -24.5687    0.0000 C   0  0
    2.4190  -24.5687    0.0000 C   0  0
    7.4197  -20.8426    0.0000 C   0  0
    8.1259  -22.0885    0.0000 C   0  0
    8.1259  -21.2618    0.0000 C   0  0
    3.1252  -24.9821    0.0000 C   0  0
    0.9780  -21.2618    0.0000 C   0  0
  1  2  2  0
  1  3  1  0
  2  4  1  0
  4  5  2  0
  4  6  1  0
  3  7  1  0
  3  8  2  0
 10  9  1  0
 11  9  1  0
 12 10  1  0
 13 10  2  0
 14 12  1  0
 15 11  1  0
 16 11  1  0
 17 14  1  0
 18  9  1  0
 19 15  2  0
 20 15  1  0
 21 16  1  0
 22 16  1  0
 23 17  1  0
 24 17  1  0
 25 20  2  0
 26 19  1  0
 27 22  1  0
 28 21  1  0
 29 24  1  0
 30 23  1  0
 31 29  1  0
 32 27  1  0
 33 25  1  0
 32 28  1  0
 33 26  2  0
 31 30  1  0
M  END