
          11280714452D 1   1.00000     0.00000     0

 33 36  0     0  0            999 V2000
    7.1500   -2.8875    0.0000 C   0  0  0  0  0  0           0  0  0
    7.8625   -3.3000    0.0000 C   0  0  0  0  0  0           0  0  0
    7.1500   -2.0625    0.0000 C   0  0  0  0  0  0           0  0  0
    7.8625   -1.6417    0.0000 C   0  0  0  0  0  0           0  0  0
    0.0167   -2.0667    0.0000 N   0  0  0  0  0  0           0  0  0
    8.5792   -2.8875    0.0000 C   0  0  0  0  0  0           0  0  0
    7.8542   -0.8167    0.0000 C   0  0  0  0  0  0           0  0  0
    6.4292   -3.3000    0.0000 C   0  0  0  0  0  0           0  0  0
    5.7167   -2.8875    0.0000 C   0  0  0  0  0  0           0  0  0
    8.5792   -2.0542    0.0000 C   0  0  0  0  0  0           0  0  0
   -0.6958   -1.6625    0.0000 C   0  0  0  0  0  0           0  0  0
    5.0042   -3.3000    0.0000 C   0  0  0  0  0  0           0  0  0
    7.1417   -0.4042    0.0000 O   0  0  0  0  0  0           0  0  0
    6.4292   -4.1250    0.0000 O   0  0  0  0  0  0           0  0  0
    0.7250   -1.6542    0.0000 C   0  0  0  0  0  0           0  0  0
   -0.7000   -0.8292    0.0000 C   0  0  0  0  0  0           0  0  0
    0.0167   -0.4167    0.0000 C   0  0  0  0  0  0           0  0  0
    9.2917   -3.3000    0.0000 Cl  0  0  0  0  0  0           0  0  0
    4.2917   -2.8875    0.0000 C   0  0  0  0  0  0           0  0  0
    2.1542   -1.6500    0.0000 O   0  0  0  0  0  0           0  0  0
    7.8625   -4.1250    0.0000 O   0  0  0  0  0  0           0  0  0
    8.5667   -0.4042    0.0000 O   0  0  0  0  0  0           0  0  0
    2.8667   -2.0625    0.0000 C   0  0  0  0  0  0           0  0  0
    1.4417   -2.0667    0.0000 C   0  0  0  0  0  0           0  0  0
    0.7292   -0.8292    0.0000 C   0  0  0  0  0  0           0  0  0
    3.5792   -3.2917    0.0000 C   0  0  0  0  0  0           0  0  0
    4.2917   -2.0542    0.0000 C   0  0  0  0  0  0           0  0  0
    3.5792   -1.6417    0.0000 C   0  0  0  0  0  0           0  0  0
    2.8667   -2.8875    0.0000 C   0  0  0  0  0  0           0  0  0
   -1.4083   -2.0792    0.0000 C   0  0  0  0  0  0           0  0  0
   -1.4208   -0.4250    0.0000 C   0  0  0  0  0  0           0  0  0
   -2.1250   -1.6750    0.0000 C   0  0  0  0  0  0           0  0  0
   -2.1333   -0.8417    0.0000 C   0  0  0  0  0  0           0  0  0
  2  1  1  0     0  0
  3  1  2  0     0  0
  4  3  1  0     0  0
  5 15  1  0     0  0
  6  2  2  0     0  0
  7  4  1  0     0  0
  8  1  1  0     0  0
  9  8  1  0     0  0
 10  4  2  0     0  0
 11  5  2  0     0  0
 12  9  2  0     0  0
 13  7  2  0     0  0
 14  8  2  0     0  0
 15 24  1  0     0  0
 16 17  2  0     0  0
 17 25  1  0     0  0
 18  6  1  0     0  0
 19 12  1  0     0  0
 20 23  1  0     0  0
 21  2  1  0     0  0
 22  7  1  0     0  0
 23 28  2  0     0  0
 24 20  1  0     0  0
 25 15  2  0     0  0
 26 19  1  0     0  0
 27 19  2  0     0  0
 28 27  1  0     0  0
 29 26  2  0     0  0
 30 11  1  0     0  0
 31 16  1  0     0  0
 32 30  2  0     0  0
 33 31  2  0     0  0
 10  6  1  0     0  0
 23 29  1  0     0  0
 16 11  1  0     0  0
 33 32  1  0     0  0
M  END