
  SciTegic05061409282D

 21 19  0  0  0  0            999 V2000
   12.9040   -7.2458    0.0000 K   0  3
   11.6706   -6.4164    0.0000 C   0  0
   11.6706   -7.2414    0.0000 C   0  0
   10.9548   -7.6538    0.0000 C   0  0
   10.2389   -7.2414    0.0000 C   0  0
    9.5230   -7.6538    0.0000 C   0  0
    8.8114   -7.2414    0.0000 C   0  0
    8.0955   -7.6538    0.0000 C   0  0
    7.3838   -7.2414    0.0000 C   0  0
    6.6679   -7.6538    0.0000 C   0  0
    5.9521   -7.2414    0.0000 C   0  0
    5.9521   -6.4164    0.0000 C   0  0
    5.2404   -6.0039    0.0000 C   0  0
    5.2404   -5.1789    0.0000 C   0  0
    5.9521   -4.7664    0.0000 C   0  0
    5.9521   -3.9414    0.0000 C   0  0
    6.6679   -3.5289    0.0000 C   0  0
    7.3838   -3.9414    0.0000 C   0  0
    8.0955   -3.5289    0.0000 C   0  0
   10.9548   -6.0039    0.0000 O   0  0
   12.3823   -6.0039    0.0000 O   0  5
  2  3  1  0
  3  4  1  0
  4  5  1  0
  5  6  1  0
  6  7  1  0
  7  8  1  0
  8  9  1  0
  9 10  1  0
 10 11  2  0
 11 12  1  0
 12 13  1  0
 13 14  2  0
 14 15  1  0
 15 16  1  0
 16 17  2  0
 17 18  1  0
 18 19  1  0
  2 20  2  0
  2 21  1  0
M  CHG  2   1   1  21  -1
M  END