
          11280715182D 1   1.00000     0.00000     0

 28 30  0     1  0            999 V2000
   14.5250   -7.9292    0.0000 N   0  0  3  0  0  0           0  0  0
   13.6292   -7.4125    0.0000 C   0  0  0  0  0  0           0  0  0
   15.5667   -7.9292    0.0000 C   0  0  3  0  0  0           0  0  0
   14.0042   -8.8375    0.0000 C   0  0  0  0  0  0           0  0  0
   10.9292   -7.9292    0.0000 C   0  0  0  0  0  0           0  0  0
   16.0875   -8.8375    0.0000 C   0  0  0  0  0  0           0  0  0
   11.8292   -7.4125    0.0000 C   0  0  0  0  0  0           0  0  0
   12.7292   -7.9292    0.0000 C   0  0  2  0  0  0           0  0  0
   16.0875   -7.0292    0.0000 C   0  0  0  0  0  0           0  0  0
   10.9292   -8.9667    0.0000 C   0  0  0  0  0  0           0  0  0
   10.0292   -7.4125    0.0000 C   0  0  0  0  0  0           0  0  0
   14.5250   -9.7375    0.0000 C   0  0  0  0  0  0           0  0  0
   15.5667   -9.7375    0.0000 C   0  0  0  0  0  0           0  0  0
   13.6292   -6.3667    0.0000 O   0  0  0  0  0  0           0  0  0
    9.1292   -7.9292    0.0000 C   0  0  0  0  0  0           0  0  0
   10.0292   -9.4875    0.0000 C   0  0  0  0  0  0           0  0  0
    9.1292   -8.9667    0.0000 C   0  0  0  0  0  0           0  0  0
   17.1250   -7.0292    0.0000 O   0  0  0  0  0  0           0  0  0
   12.7292   -8.9667    0.0000 N   0  0  0  0  0  0           0  0  0
   15.5667   -6.1292    0.0000 O   0  0  0  0  0  0           0  0  0
    8.2292   -9.4875    0.0000 O   0  0  0  0  0  0           0  0  0
   10.0292   -6.3667    0.0000 C   0  0  0  0  0  0           0  0  0
   11.8292   -9.4875    0.0000 C   0  0  0  0  0  0           0  0  0
   16.0875  -10.6375    0.0000 C   0  0  0  0  0  0           0  0  0
   14.0042  -10.6375    0.0000 C   0  0  0  0  0  0           0  0  0
   11.6667   -8.9375    0.0000 C   0  0  0  0  0  0           0  0  0
   14.5250  -11.5417    0.0000 C   0  0  0  0  0  0           0  0  0
   15.5667  -11.5417    0.0000 C   0  0  0  0  0  0           0  0  0
  2  1  1  0     0  0
  3  1  1  0     0  0
  4  1  1  0     0  0
  5  7  1  0     0  0
  6  3  1  0     0  0
  8  7  1  1     0  0
  8  2  1  0     0  0
  9  3  1  0     0  0
 10  5  1  0     0  0
 11  5  2  0     0  0
 12  4  1  0     0  0
 13 12  2  0     0  0
 14  2  2  0     0  0
 15 11  1  0     0  0
 16 10  2  0     0  0
 17 15  2  0     0  0
 18  9  2  0     0  0
 19  8  1  0     0  0
 20  9  1  0     0  0
 21 17  1  0     0  0
 22 11  1  0     0  0
 23 10  1  0     0  0
 24 13  1  0     0  0
 25 12  1  0     0  0
 26 19  1  0     0  0
 27 25  2  0     0  0
 28 27  1  0     0  0
 13  6  1  0     0  0
 24 28  2  0     0  0
 17 16  1  0     0  0
M  END