
          11280715452D 1   1.00000     0.00000     0

 12 13  0     0  0            999 V2000
    0.7042   -0.8167    0.0000 N   0  0  0  0  0  0           0  0  0
   -0.0083   -0.4042    0.0000 C   0  0  0  0  0  0           0  0  0
    1.4167   -0.4167    0.0000 C   0  0  0  0  0  0           0  0  0
    0.0042    0.4208    0.0000 C   0  0  0  0  0  0           0  0  0
   -0.7083    0.8333    0.0000 C   0  0  0  0  0  0           0  0  0
   -0.7083   -0.8292    0.0000 C   0  0  0  0  0  0           0  0  0
    0.7042    0.8208    0.0000 C   0  0  0  0  0  0           0  0  0
   -1.4333    0.4208    0.0000 C   0  0  0  0  0  0           0  0  0
    2.1292   -0.8292    0.0000 N   0  0  0  0  0  0           0  0  0
    1.4167    0.4083    0.0000 C   0  0  0  0  0  0           0  0  0
   -1.4333   -0.4042    0.0000 C   0  0  0  0  0  0           0  0  0
   -2.1458    0.8333    0.0000 F   0  0  0  0  0  0           0  0  0
  2  1  1  0     0  0
  3  1  2  0     0  0
  4  2  1  0     0  0
  5  4  2  0     0  0
  6  2  2  0     0  0
  7 10  2  0     0  0
  8 11  2  0     0  0
  9  3  1  0     0  0
 10  3  1  0     0  0
 11  6  1  0     0  0
 12  8  1  0     0  0
  4  7  1  0     0  0
  5  8  1  0     0  0
M  END