
  SciTegic06051315212D

 17 19  0  0  0  0            999 V2000
    3.3304  -17.8117    0.0000 N   0  0
    4.0401  -17.4022    0.0000 C   0  0
    4.0372  -16.5796    0.0000 C   0  0
    3.3286  -16.1743    0.0000 C   0  0
    3.3285  -15.3605    0.0000 N   0  0
    4.0368  -14.9510    0.0000 C   0  0
    4.0363  -14.1374    0.0000 C   0  0
    3.3292  -13.7271    0.0000 N   0  0
    2.6209  -14.1366    0.0000 C   0  0
    2.6197  -14.9564    0.0000 C   0  0
    4.7484  -17.8097    0.0000 C   0  0
    2.6224  -17.4027    0.0000 C   0  0
    2.6246  -16.5849    0.0000 C   0  0
    1.9187  -16.1759    0.0000 C   0  0
    1.2100  -16.5834    0.0000 C   0  0
    1.2117  -17.4043    0.0000 C   0  0
    1.9182  -17.8097    0.0000 C   0  0
 12  1  1  0
  1  2  2  0
  2  3  1  0
  3  4  2  0
  4 13  1  0
  5  6  1  0
  5 10  1  0
  6  7  1  0
  7  8  1  0
  8  9  1  0
  9 10  1  0
  4  5  1  0
  2 11  1  0
 12 13  1  0
 13 14  2  0
 14 15  1  0
 15 16  2  0
 16 17  1  0
 17 12  2  0
M  END