
  SciTegic09261414552D

 22 24  0  0  0  0            999 V2000
   10.8451   -8.4586    0.0000 C   0  0
   11.6701   -8.4586    0.0000 N   0  0
   12.0826   -6.3152    0.0000 C   0  0
   12.9076   -6.3152    0.0000 N   0  0
   13.3201   -7.0297    0.0000 C   0  0
   12.9076   -7.7441    0.0000 C   0  0
   12.0826   -7.7441    0.0000 C   0  0
   11.6701   -7.0297    0.0000 N   0  0
   13.4596   -8.3572    0.0000 C   0  0
   14.2133   -8.0217    0.0000 C   0  0
   14.1271   -7.2012    0.0000 S   0  0
   14.9278   -8.4342    0.0000 C   0  0
   15.6422   -8.0217    0.0000 C   0  0
   16.3567   -9.2592    0.0000 C   0  0
   14.9278   -9.2592    0.0000 C   0  0
   16.3567   -8.4342    0.0000 C   0  0
   15.6422   -9.6717    0.0000 C   0  0
   17.0712   -9.6717    0.0000 C   0  0
   10.4326   -9.1731    0.0000 P   0  0
   11.1471   -9.4952    0.0000 O   0  0
   10.4720  -10.0683    0.0000 O   0  0
    9.5825   -9.1674    0.0000 O   0  0
  3  4  1  0
  4  5  2  0
  5  6  1  0
  6  7  2  0
  7  8  1  0
  3  8  2  0
  9 10  2  0
 10 11  1  0
  5 11  1  0
  6  9  1  0
 12 13  1  0
 12 15  2  0
 13 16  2  0
 14 16  1  0
 14 17  2  0
 15 17  1  0
 14 18  1  0
 10 12  1  0
  2  7  1  0
  1  2  1  0
 19 20  1  0
 19 21  1  0
 19 22  2  0
  1 19  1  0
M  END