
          11280715462D 1   1.00000     0.00000     0

 22 22  0     1  0            999 V2000
   -1.1208   -1.9042    0.0000 C   0  0  0  0  0  0           0  0  0
   -0.4000   -1.4917    0.0000 N   0  0  3  0  0  0           0  0  0
   -1.8333   -1.4917    0.0000 C   0  0  2  0  0  0           0  0  0
   -1.1208    0.5708    0.0000 P   0  0  3  0  0  0           0  0  0
    0.3500   -1.8292    0.0000 C   0  0  1  0  0  0           0  0  0
   -1.8333   -0.6667    0.0000 C   0  0  2  0  0  0           0  0  0
   -2.5458   -1.9042    0.0000 N   0  0  0  0  0  0           0  0  0
    0.5250   -2.6375    0.0000 C   0  0  0  0  0  0           0  0  0
   -1.1208   -0.2542    0.0000 O   0  0  0  0  0  0           0  0  0
   -3.2583   -1.4917    0.0000 C   0  0  0  0  0  0           0  0  0
   -1.1208   -2.7292    0.0000 O   0  0  0  0  0  0           0  0  0
   -1.9458    0.5708    0.0000 O   0  0  0  0  0  0           0  0  0
   -0.0958   -3.1875    0.0000 O   0  0  0  0  0  0           0  0  0
   -3.2583   -0.6667    0.0000 O   0  0  0  0  0  0           0  0  0
   -1.1208    1.3958    0.0000 O   0  0  0  0  0  0           0  0  0
   -0.2958    0.5708    0.0000 O   0  0  0  0  0  0           0  0  0
    1.3042   -2.8917    0.0000 N   0  0  0  0  0  0           0  0  0
   -0.3208   -0.6667    0.0000 C   0  0  0  0  0  0           0  0  0
    0.9042   -1.2167    0.0000 C   0  0  0  0  0  0           0  0  0
   -2.5458   -0.2542    0.0000 C   0  0  0  0  0  0           0  0  0
    0.4917   -0.5000    0.0000 C   0  0  0  0  0  0           0  0  0
   -3.9708   -1.9042    0.0000 C   0  0  0  0  0  0           0  0  0
  2  1  1  0     0  0
  3  1  1  1     0  0
  4  9  1  0     0  0
  5  2  1  0     0  0
  6  3  1  0     0  0
  7  3  1  0     0  0
  5  8  1  6     0  0
  6  9  1  1     0  0
 10  7  1  0     0  0
 11  1  2  0     0  0
 12  4  2  0     0  0
 13  8  2  0     0  0
 14 10  2  0     0  0
 15  4  1  0     0  0
 16  4  1  0     0  0
 17  8  1  0     0  0
 18  2  1  0     0  0
 19  5  1  0     0  0
 20  6  1  0     0  0
 21 18  1  0     0  0
 22 10  1  0     0  0
 21 19  1  0     0  0
M  END