
          11280715072D 1   1.00000     0.00000     0

 24 26  0     0  0            999 V2000
    3.3792   -1.1042    0.0000 C   0  0  0  0  0  0           0  0  0
    3.3792   -1.9292    0.0000 C   0  0  0  0  0  0           0  0  0
    2.6667   -0.6917    0.0000 C   0  0  0  0  0  0           0  0  0
    2.6667   -2.3417    0.0000 C   0  0  0  0  0  0           0  0  0
    1.9542   -1.1042    0.0000 C   0  0  0  0  0  0           0  0  0
    1.9542   -1.9292    0.0000 C   0  0  0  0  0  0           0  0  0
    4.0917   -0.6875    0.0000 C   0  0  0  0  0  0           0  0  0
    1.1667   -2.1875    0.0000 O   0  0  0  0  0  0           0  0  0
    4.0917    0.1375    0.0000 O   0  0  0  0  0  0           0  0  0
    4.8125   -1.0917    0.0000 C   0  0  0  0  0  0           0  0  0
    4.0917   -2.3417    0.0000 O   0  0  0  0  0  0           0  0  0
    2.6667    0.1333    0.0000 O   0  0  0  0  0  0           0  0  0
    2.6667   -3.1667    0.0000 O   0  0  0  0  0  0           0  0  0
    1.1667   -0.8542    0.0000 C   0  0  0  0  0  0           0  0  0
    5.5250   -0.6792    0.0000 C   0  0  0  0  0  0           0  0  0
    0.6875   -1.5167    0.0000 C   0  0  0  0  0  0           0  0  0
    6.2417   -1.0917    0.0000 C   0  0  0  0  0  0           0  0  0
    1.9500    0.5458    0.0000 C   0  0  0  0  0  0           0  0  0
    3.3792   -3.5792    0.0000 C   0  0  0  0  0  0           0  0  0
    6.2417   -1.9167    0.0000 C   0  0  0  0  0  0           0  0  0
    6.9417   -0.6750    0.0000 C   0  0  0  0  0  0           0  0  0
    7.6625   -1.0792    0.0000 C   0  0  0  0  0  0           0  0  0
    6.9542   -2.3250    0.0000 C   0  0  0  0  0  0           0  0  0
    7.6667   -1.9042    0.0000 C   0  0  0  0  0  0           0  0  0
  2  1  1  0     0  0
  3  1  2  0     0  0
  4  2  2  0     0  0
  5  3  1  0     0  0
  6  5  2  0     0  0
  7  1  1  0     0  0
  8  6  1  0     0  0
  9  7  2  0     0  0
 10  7  1  0     0  0
 11  2  1  0     0  0
 12  3  1  0     0  0
 13  4  1  0     0  0
 14  5  1  0     0  0
 15 10  1  0     0  0
 16 14  1  0     0  0
 17 15  1  0     0  0
 18 12  1  0     0  0
 19 13  1  0     0  0
 20 17  2  0     0  0
 21 17  1  0     0  0
 22 21  2  0     0  0
 23 20  1  0     0  0
 24 22  1  0     0  0
  4  6  1  0     0  0
  8 16  1  0     0  0
 24 23  2  0     0  0
M  END