
  SciTegic08041117222D

 18 19  0  0  0  0            999 V2000
    5.6527  -14.6312    0.0000 N   0  0
    5.6517  -15.4584    0.0000 C   0  0
    6.3659  -15.8713    0.0000 C   0  0
    7.0817  -15.4580    0.0000 C   0  0
    7.0791  -14.6279    0.0000 N   0  0
    6.3642  -14.2185    0.0000 C   0  0
    6.3619  -13.3936    0.0000 N   0  0
    4.9872  -15.9469    0.0000 N   0  0
    7.7470  -15.9459    0.0000 N   0  0
    7.7444  -16.7679    0.0000 C   0  0
    8.5280  -17.0258    0.0000 C   0  0
    9.0155  -16.3603    0.0000 C   0  0  2  0  0  0
    8.5332  -15.6910    0.0000 C   0  0
    9.8405  -16.3635    0.0000 N   0  0
   10.2503  -17.0795    0.0000 C   0  0
    4.2317  -15.6156    0.0000 C   0  0
    3.5671  -16.1043    0.0000 C   0  0
    4.1409  -14.7957    0.0000 C   0  0
  4  9  1  0
  9 10  1  0
  4  5  1  0
  2  3  1  0
  5  6  2  0
  6  1  1  0
 10 11  1  0
 11 12  1  0
 12 13  1  0
 13  9  1  0
  1  2  2  0
 12 14  1  6
  6  7  1  0
 14 15  1  0
  3  4  2  0
  8 16  1  0
  2  8  1  0
 16 17  1  0
 16 18  1  0
M  END