
  SciTegic10301317112D

 30 30  0  0  0  0            999 V2000
    2.2315   -5.5057    0.0000 S   0  0
    5.5224   -5.4932    0.0000 C   0  0
    3.0574   -5.5057    0.0000 C   0  0
   13.2054   -9.3764    0.0000 C   0  0
   11.8748   -8.8509    0.0000 N   0  0
   11.0489   -8.8634    0.0000 C   0  0
    5.9436   -6.2064    0.0000 N   0  0
    2.2273   -6.3315    0.0000 O   0  0
    2.2315   -4.6798    0.0000 O   0  0
    7.1866   -6.9113    0.0000 C   0  0
    9.3221   -7.4869    0.0000 C   0  0
   12.3920   -9.5015    0.0000 C   0  0  1  0  0  0
    4.6966   -5.4974    0.0000 C   0  0
    1.4057   -5.4974    0.0000 N   0  0
    9.8018   -8.1501    0.0000 N   0  0
    8.0125   -6.9071    0.0000 N   0  0
    5.9353   -4.7716    0.0000 O   0  0
   13.5057   -8.6131    0.0000 O   0  0
   10.6402   -9.5766    0.0000 O   0  0
    6.7737   -7.6246    0.0000 O   0  0
    9.6517   -6.7320    0.0000 O   0  0
    3.4578   -4.7925    0.0000 C   0  0
    3.4703   -6.2189    0.0000 C   0  0
    4.2919   -6.2106    0.0000 C   0  0
    4.2794   -4.7841    0.0000 C   0  0
    6.7695   -6.1981    0.0000 C   0  0
   10.6277   -8.1501    0.0000 C   0  0
    8.5005   -7.5745    0.0000 C   0  0
   13.7184  -10.0271    0.0000 O   0  0
   12.0875  -10.2648    0.0000 C   0  0
  2 13  1  0
  3  1  1  0
  4 12  1  0
  5  6  1  0
  6 27  1  0
  7  2  1  0
  8  1  2  0
  9  1  2  0
 10 26  1  0
 11 28  1  0
 12  5  1  0
 13 24  2  0
 14  1  1  0
 15 11  1  0
 16 10  1  0
 17  2  2  0
 18  4  2  0
 19  6  2  0
 20 10  2  0
 21 11  2  0
 22  3  1  0
 23  3  2  0
 24 23  1  0
 25 22  2  0
 26  7  1  0
 27 15  1  0
 28 16  1  0
 29  4  1  0
 12 30  1  6
 25 13  1  0
M  END