
  SciTegic05171617292D

 46 51  0  0  0  0            999 V2000
   -3.6486    1.3517    0.0000 C   0  0
   -2.6111    0.7486    0.0000 C   0  0
   -1.2964    1.4973    0.0000 C   0  0
    0.0000    0.7486    0.0000 C   0  0
    1.2964    1.4973    0.0000 C   0  0
    1.2995    2.9981    0.0000 C   0  0
    0.2613    3.5999    0.0000 O   0  0
    2.6003    3.7467    0.0000 C   0  0
    2.6034    5.2475    0.0000 C   0  0
    3.9025    5.9976    0.0000 C   0  0
    3.9025    7.4976    0.0000 C   0  0
    2.6035    8.2476    0.0000 C   0  0
    1.3044    7.4976    0.0000 C   0  0
    1.3044    5.9976    0.0000 C   0  0
    2.5929    0.7486    0.0000 C   0  0
    3.6321    1.3486    0.0000 O   0  0
    2.5929   -0.7486    0.0000 C   0  0
    3.6321   -1.3486    0.0000 O   0  0
    1.2964   -1.4973    0.0000 C   0  0
    0.0000   -0.7486    0.0000 C   0  0
   -1.2964   -1.4973    0.0000 C   0  0
   -1.2928   -2.6973    0.0000 O   0  0
   -2.6111   -0.7486    0.0000 C   0  0
   -3.9086   -1.5029    0.0000 C   0  0
   -5.2105   -0.7631    0.0000 C   0  0
   -5.2229    0.4368    0.0000 C   0  0
   -6.5102   -1.5375    0.0000 C   0  0
   -6.4984   -3.0345    0.0000 C   0  0
   -7.7892   -3.7930    0.0000 C   0  0
   -9.0962   -3.0553    0.0000 C   0  0
   -9.1077   -1.8554    0.0000 O   0  0
  -10.3890   -3.8177    0.0000 C   0  0
  -11.6961   -3.0801    0.0000 C   0  0
  -12.9893   -3.8401    0.0000 C   0  0
  -14.2942   -3.1002    0.0000 C   0  0
  -14.3059   -1.6003    0.0000 C   0  0
  -13.0127   -0.8402    0.0000 C   0  0
  -11.7079   -1.5800    0.0000 C   0  0
   -7.7774   -5.2900    0.0000 C   0  0
   -8.8119   -5.8981    0.0000 O   0  0
   -6.4749   -6.0285    0.0000 C   0  0
   -6.4657   -7.2285    0.0000 O   0  0
   -5.1842   -5.2700    0.0000 C   0  0
   -5.1960   -3.7730    0.0000 C   0  0
   -3.9053   -3.0146    0.0000 C   0  0
   -2.8631   -3.6094    0.0000 O   0  0
  1  2  1  0
  2  3  1  0
  3  4  2  0
  4  5  1  0
  5  6  1  0
  6  7  2  0
  6  8  1  0
  8  9  1  0
  9 10  2  0
 10 11  1  0
 11 12  2  0
 12 13  1  0
 13 14  2  0
  9 14  1  0
  5 15  2  0
 15 16  1  0
 15 17  1  0
 17 18  1  0
 17 19  2  0
 19 20  1  0
  4 20  1  0
 20 21  2  0
 21 22  1  0
 21 23  1  0
  2 23  2  0
 23 24  1  0
 24 25  2  0
 25 26  1  0
 25 27  1  0
 27 28  2  0
 28 29  1  0
 29 30  1  0
 30 31  2  0
 30 32  1  0
 32 33  1  0
 33 34  2  0
 34 35  1  0
 35 36  2  0
 36 37  1  0
 37 38  2  0
 33 38  1  0
 29 39  2  0
 39 40  1  0
 39 41  1  0
 41 42  1  0
 41 43  2  0
 43 44  1  0
 28 44  1  0
 44 45  2  0
 24 45  1  0
 45 46  1  0
M  END