
  SciTegic01161211222D

 41 45  0  0  0  0            999 V2000
    4.8944   -5.2208    0.0000 C   0  0
    4.8932   -6.0482    0.0000 C   0  0
    5.6081   -6.4610    0.0000 C   0  0
    5.6063   -4.8080    0.0000 C   0  0
    6.3216   -5.2172    0.0000 C   0  0
    6.3224   -6.0440    0.0000 C   0  0
    7.0377   -6.4550    0.0000 N   0  0
    7.7527   -6.0402    0.0000 C   0  0
    7.7480   -5.2102    0.0000 N   0  0
    7.0321   -4.8030    0.0000 C   0  0
    7.0277   -3.9780    0.0000 N   0  0
    7.7404   -3.5672    0.0000 C   0  0
    7.7381   -2.7458    0.0000 C   0  0
    7.0232   -2.3332    0.0000 N   0  0
    6.3091   -2.7483    0.0000 C   0  0
    6.3099   -3.5759    0.0000 C   0  0
    7.0220   -1.5082    0.0000 C   0  0
    7.7358   -1.0946    0.0000 N   0  0
    6.3069   -1.0968    0.0000 O   0  0
    8.4509   -1.5060    0.0000 C   0  0
    8.4485   -2.3303    0.0000 C   0  0
    9.1627   -2.7416    0.0000 C   0  0
    9.8776   -2.3279    0.0000 C   0  0
    9.8736   -1.4987    0.0000 C   0  0
    9.1588   -1.0911    0.0000 C   0  0
   10.5932   -2.7384    0.0000 O   0  0
   11.3065   -2.3239    0.0000 C   0  0
   12.0221   -2.7343    0.0000 C   0  0
   11.3041   -1.4989    0.0000 C   0  0
    4.1798   -4.8085    0.0000 O   0  0
    3.4655   -5.2211    0.0000 C   0  0
    4.1792   -6.4583    0.0000 O   0  0
    3.4667   -6.0458    0.0000 C   0  0
    2.7542   -6.4583    0.0000 C   0  0
    2.0417   -6.0458    0.0000 C   0  0
    1.3292   -6.4583    0.0000 N   0  0
    0.6158   -6.0453    0.0000 C   0  0
   -0.0945   -6.4543    0.0000 C   0  0
   -0.0978   -7.2780    0.0000 C   0  0
    0.6155   -7.6910    0.0000 C   0  0
    1.3321   -7.2803    0.0000 C   0  0
  4  1  1  0
 18 20  1  0
  9 10  2  0
 20 21  2  0
 10  5  1  0
 21 22  1  0
 22 23  2  0
 10 11  1  0
 23 24  1  0
 11 12  1  0
 24 25  2  0
 25 20  1  0
  2  3  1  0
 23 26  1  0
  5  6  1  0
 26 27  1  0
  3  6  2  0
 27 28  1  0
  6  7  1  0
 27 29  1  0
  1  2  2  0
  1 30  1  0
 11 16  1  0
 30 31  1  0
 12 13  1  0
  2 32  1  0
 13 14  1  0
 32 33  1  0
 14 15  1  0
 33 34  1  0
 15 16  1  0
 34 35  1  0
  7  8  2  0
 35 36  1  0
 36 37  1  0
 14 17  1  0
  5  4  2  0
 17 18  1  0
  8  9  1  0
 17 19  2  0
 36 41  1  0
 37 38  1  0
 38 39  1  0
 39 40  1  0
 40 41  1  0
M  END