
  SciTegic01161211252D

 38 43  0  0  0  0            999 V2000
   -5.5431   -3.2291    0.0000 C   0  0
   -5.5443   -4.0565    0.0000 C   0  0
   -4.8294   -4.4694    0.0000 C   0  0
   -4.8312   -2.8164    0.0000 C   0  0
   -4.1159   -3.2255    0.0000 C   0  0
   -4.1151   -4.0523    0.0000 C   0  0
   -3.3998   -4.4633    0.0000 C   0  0
   -2.6848   -4.0485    0.0000 C   0  0
   -3.4054   -2.8113    0.0000 C   0  0
   -2.6930   -3.2172    0.0000 C   0  0
   -1.9874   -2.8033    0.0000 C   0  0
   -3.4128   -1.9959    0.0000 N   0  0
   -2.7101   -1.5797    0.0000 C   0  0
   -1.9978   -1.9858    0.0000 N   0  0
   -1.3914   -1.4339    0.0000 C   0  0
   -1.7290   -0.6866    0.0000 C   0  0
   -2.5439   -0.7768    0.0000 S   0  0
   -1.2689   -3.2087    0.0000 C   0  0
   -1.2655   -4.0344    0.0000 C   0  0
   -0.5478   -4.4398    0.0000 C   0  0
    0.1635   -4.0202    0.0000 C   0  0
    0.1527   -3.1910    0.0000 C   0  0
   -0.5655   -2.7894    0.0000 C   0  0
   -1.3203    0.0301    0.0000 C   0  0
   -0.5836   -1.6011    0.0000 O   0  0
   -1.7367    0.7423    0.0000 C   0  0
   -1.3241    1.4588    0.0000 C   0  0
   -1.7398    2.1628    0.0000 C   0  0
   -2.5657    2.1585    0.0000 C   0  0
   -2.9741    1.4448    0.0000 C   0  0
   -2.5561    0.7360    0.0000 C   0  0
   -1.3327    2.8803    0.0000 O   0  0
   -0.5077    2.8865    0.0000 C   0  0
   -0.1006    3.6041    0.0000 C   0  0
    0.7244    3.6102    0.0000 O   0  0
   -0.5184    4.3179    0.0000 O   0  0
   -1.9771   -4.4518    0.0000 O   0  0
   -1.9715   -5.2767    0.0000 C   0  0
  8 10  1  0
 11 18  1  0
  9  5  1  0
 18 19  2  0
  5  4  2  0
 19 20  1  0
  4  1  1  0
 20 21  2  0
  9 10  2  0
 21 22  1  0
 22 23  2  0
 23 18  1  0
 10 11  1  0
 16 24  2  0
 11 14  1  0
 15 25  2  0
  2  3  1  0
 24 26  1  0
 13 12  2  0
 26 27  2  0
 12  9  1  0
 27 28  1  0
 13 14  1  0
 28 29  2  0
  5  6  1  0
 29 30  1  0
  3  6  2  0
 30 31  2  0
 31 26  1  0
  6  7  1  0
 28 32  1  0
  1  2  2  0
 32 33  1  0
  7  8  1  0
 33 34  1  0
 14 15  1  0
 34 35  1  0
 15 16  1  0
 34 36  2  0
 16 17  1  0
 19 37  1  0
 17 13  1  0
 37 38  1  0
M  END