
          01220811382D 1   1.00000     0.00000     0

 17 19  0     0  0            999 V2000
   -4.9109   -9.3457    0.0000 C   0  0  0  0  0  0           0  0  0
   -4.8502  -10.1710    0.0000 N   0  0  0  0  0  0           0  0  0
   -4.1064  -10.5292    0.0000 C   0  0  0  0  0  0           0  0  0
   -3.4228  -10.0633    0.0000 C   0  0  0  0  0  0           0  0  0
   -3.4877   -9.2353    0.0000 C   0  0  0  0  0  0           0  0  0
   -4.2318   -8.8808    0.0000 C   0  0  0  0  0  0           0  0  0
   -2.8079   -8.7679    0.0000 C   0  0  0  0  0  0           0  0  0
   -2.0328   -9.0435    0.0000 O   0  0  0  0  0  0           0  0  0
   -1.5304   -8.3887    0.0000 C   0  0  0  0  0  0           0  0  0
   -1.9980   -7.7089    0.0000 N   0  0  0  0  0  0           0  0  0
   -2.7891   -7.9433    0.0000 N   0  0  0  0  0  0           0  0  0
   -0.7057   -8.4101    0.0000 C   0  0  0  0  0  0           0  0  0
   -0.3140   -9.1348    0.0000 C   0  0  0  0  0  0           0  0  0
    0.5099   -9.1565    0.0000 C   0  0  0  0  0  0           0  0  0
    0.9417   -8.4524    0.0000 C   0  0  0  0  0  0           0  0  0
    0.5435   -7.7249    0.0000 C   0  0  0  0  0  0           0  0  0
   -0.2792   -7.7067    0.0000 C   0  0  0  0  0  0           0  0  0
  8  9  1  0     0  0
  4  5  1  0     0  0
  2  3  1  0     0  0
  7  8  1  0     0  0
  9 10  2  0     0  0
 11  7  2  0     0  0
  5  6  2  0     0  0
  9 12  1  0     0  0
  6  1  1  0     0  0
 12 13  2  0     0  0
  1  2  2  0     0  0
 13 14  1  0     0  0
  5  7  1  0     0  0
 14 15  2  0     0  0
 10 11  1  0     0  0
 15 16  1  0     0  0
  3  4  2  0     0  0
 16 17  2  0     0  0
 17 12  1  0     0  0
M  END