
  SciTegic04191613082D

181191  0  0  0  0            999 V2000
  -23.7906    1.0402    0.0000 C   0  0
  -23.1455    2.3953    0.0000 C   0  0
  -24.3655    3.2680    0.0000 C   0  0
  -24.2198    4.7610    0.0000 C   0  0
  -22.8541    5.3812    0.0000 C   0  0
  -21.6340    4.5086    0.0000 C   0  0
  -21.7797    3.0157    0.0000 C   0  0
  -22.7375    6.5756    0.0000 F   0  0
  -22.9336   -0.2064    0.0000 C   0  0  1  0  0  0
  -21.6209    0.5195    0.0000 C   0  0
  -20.1946    0.9838    0.0000 N   0  0
  -18.7062    1.1698    0.0000 C   0  0  1  0  0  0
  -17.2094    1.0707    0.0000 C   0  0
  -17.0167    2.2552    0.0000 O   0  0
  -15.7585    0.6902    0.0000 N   0  0
  -15.8691    2.1949    0.0000 C   0  0
  -14.6314    3.0422    0.0000 C   0  0
  -13.2787    2.3940    0.0000 C   0  0
  -13.1637    0.8984    0.0000 C   0  0
  -14.4058    0.0420    0.0000 C   0  0  2  0  0  0
  -13.2002   -0.8506    0.0000 C   0  0
  -12.1854   -1.9551    0.0000 N   0  0
  -11.3979   -3.2318    0.0000 C   0  0  2  0  0  0
  -10.8662   -4.6344    0.0000 C   0  0
  -10.6096   -6.1123    0.0000 N   0  0
  -10.6374   -7.6120    0.0000 C   0  0  2  0  0  0
  -10.9484   -9.0794    0.0000 C   0  0
  -11.5316  -10.4614    0.0000 N   0  0
  -12.3657  -11.7081    0.0000 C   0  0  2  0  0  0
  -13.4207  -12.7744    0.0000 C   0  0
  -14.6585  -13.6217    0.0000 N   0  0
  -16.0342  -14.2195    0.0000 C   0  0  1  0  0  0
  -17.4982  -14.5461    0.0000 C   0  0
  -18.9976  -14.5898    0.0000 N   0  0
  -20.4781  -14.3489    0.0000 C   0  0  2  0  0  0
  -19.1874  -15.8353    0.0000 C   0  0
  -19.7844  -16.8763    0.0000 O   0  0
  -17.7132  -16.1122    0.0000 N   0  0
  -16.2134  -16.0868    0.0000 C   0  0  2  0  0  0
  -14.7495  -15.7599    0.0000 C   0  0
  -14.3709  -16.8986    0.0000 O   0  0
  -13.3813  -15.1450    0.0000 N   0  0
  -12.1649  -14.2673    0.0000 C   0  0  1  0  0  0
  -11.1625  -15.4000    0.0000 C   0  0
  -11.6376  -16.8237    0.0000 C   0  0
  -10.6470  -17.9468    0.0000 C   0  0
  -11.1390  -19.3774    0.0000 C   0  0
  -12.6067  -19.6723    0.0000 C   0  0
  -13.5962  -18.5486    0.0000 C   0  0
  -15.0639  -18.8434    0.0000 C   0  0
  -15.5422  -20.2621    0.0000 C   0  0
  -14.5527  -21.3858    0.0000 C   0  0
  -13.0850  -21.0909    0.0000 C   0  0
  -13.1179  -17.1300    0.0000 C   0  0
  -11.1501  -13.1627    0.0000 C   0  0
  -10.3784  -11.8765    0.0000 N   0  0
   -9.8814  -10.4612    0.0000 C   0  0  2  0  0  0
   -9.6794   -8.9749    0.0000 C   0  0
   -8.4801   -9.0153    0.0000 O   0  0
   -9.7809   -7.4783    0.0000 N   0  0
  -10.1815   -6.0328    0.0000 C   0  0  1  0  0  0
   -8.7711   -5.4862    0.0000 C   0  0
   -8.0469   -4.1716    0.0000 C   0  0
   -6.5464   -4.1405    0.0000 C   0  0
   -5.8223   -2.8260    0.0000 N   0  0
   -4.3218   -2.7949    0.0000 C   0  0
   -3.7007   -3.8217    0.0000 N   0  0
   -3.7427   -1.7439    0.0000 N   0  0
  -10.8648   -4.6975    0.0000 C   0  0
   -9.8574   -4.0455    0.0000 O   0  0
  -11.8030   -3.5271    0.0000 N   0  0
  -12.9576   -2.5695    0.0000 C   0  0  2  0  0  0
  -14.2813   -1.8639    0.0000 C   0  0
  -15.7199   -1.4393    0.0000 N   0  0
  -17.2146   -1.3129    0.0000 C   0  0  1  0  0  0
  -16.7187    0.1161    0.0000 C   0  0
  -18.0292    0.8477    0.0000 C   0  0
  -18.5637    2.2501    0.0000 C   0  0
  -17.6171    3.4148    0.0000 N   0  0
  -18.1516    4.8172    0.0000 C   0  0
  -19.3365    5.0074    0.0000 N   0  0
  -17.3948    5.7485    0.0000 N   0  0
  -18.7041   -1.4900    0.0000 C   0  0
  -18.9656   -0.3188    0.0000 O   0  0
  -20.1275   -1.9633    0.0000 N   0  0
  -21.4264   -2.7134    0.0000 C   0  0  2  0  0  0
  -22.3138   -1.4885    0.0000 C   0  0
  -21.8239   -0.3930    0.0000 O   0  0
  -23.8067   -1.6424    0.0000 N   0  0
  -24.6873   -0.4271    0.0000 C   0  0  2  0  0  0
  -26.1804   -0.5794    0.0000 C   0  0
  -26.8833    0.3932    0.0000 O   0  0
  -26.6715   -1.6743    0.0000 O   0  0
  -24.5816    1.0700    0.0000 C   0  0
  -25.8247    1.9109    0.0000 C   0  0
  -27.1749    1.2557    0.0000 C   0  0
  -28.4180    2.0966    0.0000 C   0  0
  -29.4976    1.5726    0.0000 N   0  0
  -22.5478   -3.7096    0.0000 C   0  0
  -23.4457   -4.9112    0.0000 N   0  0
  -24.0833   -6.2690    0.0000 C   0  0
  -25.2793   -6.1705    0.0000 O   0  0
  -23.4278   -8.5937    0.0000 C   0  0
  -24.5895   -7.6448    0.0000 C   0  0
  -26.2503   -8.0667    0.0000 C   0  0
  -25.8544   -9.5135    0.0000 C   0  0
  -25.1918  -10.8592    0.0000 C   0  0
  -24.2865  -12.0552    0.0000 C   0  0
  -23.1713  -13.0583    0.0000 N   0  0
  -21.8863  -13.8322    0.0000 C   0  0
  -25.1702  -12.8671    0.0000 O   0  0
  -23.6687  -10.0742    0.0000 C   0  0
  -26.3653   -6.5711    0.0000 C   0  0
  -26.1951   -5.0808    0.0000 N   0  0
  -25.7460   -3.6496    0.0000 C   0  0  2  0  0  0
  -27.1409   -3.0642    0.0000 C   0  0
  -28.3363   -3.9715    0.0000 C   0  0
  -29.7204   -3.3931    0.0000 C   0  0
  -30.9133   -4.3024    0.0000 C   0  0
  -30.7224   -5.7902    0.0000 C   0  0
  -29.3384   -6.3687    0.0000 C   0  0
  -28.1454   -5.4594    0.0000 C   0  0
  -25.0341   -2.3293    0.0000 C   0  0
  -26.0314   -1.6620    0.0000 O   0  0
  -24.0852   -1.1675    0.0000 N   0  0
  -27.5651   -6.5489    0.0000 O   0  0
  -13.8268   -0.7533    0.0000 O   0  0
  -11.7343   -1.6799    0.0000 C   0  0
  -11.8908   -0.1873    0.0000 C   0  0
  -10.6770    0.6954    0.0000 C   0  0
  -10.8336    2.1880    0.0000 N   0  0
   -9.6198    3.0707    0.0000 C   0  0
   -8.5235    2.5828    0.0000 N   0  0
   -9.7450    4.2642    0.0000 N   0  0
   -8.4115  -10.8182    0.0000 C   0  0
   -7.9883  -12.2581    0.0000 C   0  0
   -6.5299  -12.6124    0.0000 C   0  0
   -6.1066  -14.0523    0.0000 N   0  0
   -4.6482  -14.4066    0.0000 C   0  0
   -3.8201  -13.5381    0.0000 N   0  0
   -4.3097  -15.5579    0.0000 N   0  0
  -10.1888  -13.8810    0.0000 O   0  0
  -16.0378  -17.5891    0.0000 C   0  0
  -17.2410  -18.4861    0.0000 C   0  0
  -17.0690  -19.9763    0.0000 C   0  0
  -18.2734  -20.8703    0.0000 C   0  0
  -19.6499  -20.2743    0.0000 C   0  0
  -19.8220  -18.7842    0.0000 C   0  0
  -18.6176  -17.8902    0.0000 C   0  0
  -17.3494  -15.7369    0.0000 O   0  0
  -15.6628  -15.3606    0.0000 C   0  0
  -12.6518  -13.6957    0.0000 O   0  0
  -11.4363  -12.4672    0.0000 C   0  0
   -9.8035   -9.4387    0.0000 O   0  0
   -9.1341   -7.7807    0.0000 C   0  0
   -8.2426   -6.5733    0.0000 C   0  0
   -6.7512   -6.7407    0.0000 C   0  0
   -5.8597   -5.5333    0.0000 N   0  0
   -4.3683   -5.7006    0.0000 C   0  0
   -3.8882   -6.8005    0.0000 N   0  0
   -3.6555   -4.7353    0.0000 N   0  0
   -9.7088   -4.3177    0.0000 O   0  0
   -9.8943   -3.0651    0.0000 C   0  0
   -9.2908   -1.6910    0.0000 C   0  0
  -10.1744   -0.4819    0.0000 C   0  0
   -9.5535    0.8977    0.0000 C   0  0
   -8.0649    1.0569    0.0000 C   0  0
   -7.4588    2.4257    0.0000 C   0  0
   -5.9702    2.5850    0.0000 C   0  0
   -5.0878    1.3753    0.0000 C   0  0
   -5.6940    0.0065    0.0000 C   0  0
   -7.1825   -0.1527    0.0000 C   0  0
   -7.7887   -1.5216    0.0000 C   0  0
  -12.3978    0.0417    0.0000 O   0  0
  -19.2620    2.5767    0.0000 C   0  0  1  0  0  0
  -18.5165    3.5171    0.0000 O   0  0
  -20.4490    2.7526    0.0000 C   0  0
  -22.0992    1.6201    0.0000 O   0  0
  -19.6047  -14.8358    0.0000 H   0  0
  -13.4060    0.0251    0.0000 H   0  0
  -19.5664    1.6797    0.0000 H   0  0
  1  2  1  0
  2  3  2  0
  3  4  1  0
  4  5  2  0
  5  6  1  0
  6  7  2  0
  7  2  1  0
  5  8  1  0
  9  1  1  1
 10  9  1  0
 11 10  1  0
 12 11  1  0
 12 13  1  0
 13 14  2  0
 15 13  1  0
 16 15  1  0
 17 16  1  0
 18 17  1  0
 19 18  1  0
 20 19  1  0
 20 21  1  0
 22 21  1  0
 23 22  1  0
 23 24  1  0
 24 25  1  0
 25 26  1  0
 26 27  1  0
 27 28  1  0
 28 29  1  0
 29 30  1  0
 30 31  1  0
 31 32  1  0
 32 33  1  0
 33 34  1  0
 34 35  1  0
 35 36  1  0
 36 37  2  0
 36 38  1  0
 38 39  1  0
 39 40  1  0
 40 41  2  0
 40 42  1  0
 42 43  1  0
 43 44  1  6
 44 45  1  0
 46 45  1  0
 47 46  2  0
 48 47  1  0
 48 49  1  0
 49 50  2  0
 50 51  1  0
 51 52  2  0
 52 53  1  0
 53 48  2  0
 54 49  1  0
 45 54  2  0
 43 55  1  0
 55 56  1  0
 56 57  1  0
 57 58  1  0
 58 59  2  0
 58 60  1  0
 60 61  1  0
 61 62  1  6
 62 63  1  0
 63 64  1  0
 64 65  1  0
 65 66  1  0
 66 67  1  0
 66 68  2  0
 61 69  1  0
 69 70  2  0
 69 71  1  0
 72 71  1  0
 73 72  1  0
 74 73  1  0
 75 74  1  0
 75 76  1  6
 76 77  1  0
 77 78  1  0
 78 79  1  0
 79 80  1  0
 80 81  1  0
 80 82  2  0
 83 75  1  0
 83 84  2  0
 85 83  1  0
 86 85  1  0
 86 87  1  1
 87 88  2  0
 87 89  1  0
 90 89  1  6
 90 91  1  0
 91 92  2  0
 91 93  1  0
 90 94  1  0
 94 95  1  0
 95 96  1  0
 96 97  1  0
 97 98  1  0
 86 99  1  0
100 99  1  0
101100  1  0
101102  2  0
103101  1  0
104103  1  0
105104  2  0
106105  1  0
107106  2  0
107108  1  0
108109  1  0
110109  1  0
 35110  1  0
108111  2  0
112107  1  0
103112  2  0
113105  1  0
114113  1  0
114115  1  0
115116  1  6
116117  1  0
118117  1  0
119118  2  0
120119  1  0
121120  2  0
122121  1  0
117122  2  0
115123  1  0
123124  2  0
125123  1  0
  9125  1  0
113126  2  0
 73127  2  0
 72128  1  6
128129  1  0
129130  1  0
130131  1  0
131132  1  0
132133  1  0
132134  2  0
 57135  1  6
135136  1  0
136137  1  0
137138  1  0
138139  1  0
139140  1  0
139141  2  0
 55142  2  0
 39143  1  6
143144  1  0
145144  1  0
146145  2  0
147146  1  0
148147  2  0
149148  1  0
144149  2  0
 33150  2  0
 32151  1  6
 30152  2  0
 29153  1  1
 27154  2  0
 26155  1  1
155156  1  0
156157  1  0
157158  1  0
158159  1  0
159160  1  0
159161  2  0
 24162  2  0
 23163  1  1
163164  1  0
165164  1  0
166165  2  0
167166  1  0
168167  2  0
169168  1  0
170169  2  0
171170  1  0
172171  2  0
173172  1  0
164173  2  0
167172  1  0
 21174  2  0
 20 15  1  0
 12175  1  0
175176  1  6
175177  1  0
 10178  2  0
 35179  1  1
 20180  1  1
 12181  1  1
M  END