
          11280715492D 1   1.00000     0.00000     0

 68 74  0     1  0            999 V2000
   10.5158   -4.3566    0.0000 N   0  0  0  0  0  0           0  0  0
   10.4878   -1.8808    0.0000 C   0  0  0  0  0  0           0  0  0
    9.7584   -0.6537    0.0000 N   0  0  0  0  0  0           0  0  0
   10.4774   -1.0583    0.0000 C   0  0  1  0  0  0           0  0  0
   11.1880   -0.6368    0.0000 C   0  0  0  0  0  0           0  0  0
   11.1796    0.1894    0.0000 C   0  0  0  0  0  0           0  0  0
   10.4606    0.5940    0.0000 C   0  0  0  0  0  0           0  0  0
   10.4502    1.4166    0.0000 C   0  0  0  0  0  0           0  0  0
   11.1607    1.8381    0.0000 C   0  0  0  0  0  0           0  0  0
   11.1524    2.6643    0.0000 O   0  0  0  0  0  0           0  0  0
   11.8797    1.4335    0.0000 C   0  0  0  0  0  0           0  0  0
   11.8881    0.6073    0.0000 C   0  0  0  0  0  0           0  0  0
   11.2068   -2.2855    0.0000 O   0  0  0  0  0  0           0  0  0
    9.7772   -2.3024    0.0000 N   0  0  3  0  0  0           0  0  0
   12.6071    0.2027    0.0000 C   0  0  0  0  0  0           0  0  0
    9.7493    0.1713    0.0000 C   0  0  0  0  0  0           0  0  0
    9.0593   -1.8938    0.0000 C   0  0  0  0  0  0           0  0  0
    9.0766   -3.5452    0.0000 C   0  0  0  0  0  0           0  0  0
    9.7913   -3.1255    0.0000 C   0  0  3  0  0  0           0  0  0
    8.3563   -3.1384    0.0000 C   0  0  0  0  0  0           0  0  0
    8.3512   -2.3156    0.0000 C   0  0  0  0  0  0           0  0  0
    7.6372   -1.9105    0.0000 C   0  0  0  0  0  0           0  0  0
    6.9279   -2.3270    0.0000 C   0  0  0  0  0  0           0  0  0
    6.9371   -3.1529    0.0000 C   0  0  0  0  0  0           0  0  0
    7.6516   -3.5543    0.0000 C   0  0  0  0  0  0           0  0  0
   10.5107   -3.5292    0.0000 C   0  0  0  0  0  0           0  0  0
   11.2201   -3.1080    0.0000 O   0  0  0  0  0  0           0  0  0
    9.7991   -4.7652    0.0000 C   0  0  0  0  0  0           0  0  0
    6.9390   -4.7598    0.0000 C   0  0  0  0  0  0           0  0  0
    6.9390   -5.5890    0.0000 C   0  0  0  0  0  0           0  0  0
    7.6552   -6.0015    0.0000 N   0  0  0  0  0  0           0  0  0
    8.3672   -5.5890    0.0000 C   0  0  0  0  0  0           0  0  0
    8.3672   -4.7598    0.0000 C   0  0  0  0  0  0           0  0  0
    7.6552   -4.3431    0.0000 N   0  0  0  0  0  0           0  0  0
    9.0853   -6.0067    0.0000 O   0  0  0  0  0  0           0  0  0
    6.2192   -4.3494    0.0000 C   0  0  0  0  0  0           0  0  0
    9.0871   -4.3494    0.0000 C   0  0  0  0  0  0           0  0  0
    6.2210   -6.0067    0.0000 C   0  0  0  0  0  0           0  0  0
    5.5052   -5.5965    0.0000 C   0  0  0  0  0  0           0  0  0
    4.7921   -6.0114    0.0000 C   0  0  0  0  0  0           0  0  0
    4.7948   -6.8364    0.0000 C   0  0  0  0  0  0           0  0  0
    4.0817   -7.2512    0.0000 N   0  0  0  0  0  0           0  0  0
    1.9512   -5.9885    0.0000 C   0  0  0  0  0  0           0  0  0
    0.5238   -5.9726    0.0000 N   0  0  0  0  0  0           0  0  0
    1.2435   -5.5693    0.0000 C   0  0  1  0  0  0           0  0  0
    1.2534   -4.7432    0.0000 C   0  0  0  0  0  0           0  0  0
    0.5436   -4.3203    0.0000 C   0  0  0  0  0  0           0  0  0
   -0.1761   -4.7236    0.0000 C   0  0  0  0  0  0           0  0  0
   -0.8839   -4.3044    0.0000 C   0  0  0  0  0  0           0  0  0
   -0.8769   -3.4730    0.0000 C   0  0  0  0  0  0           0  0  0
   -1.5867   -3.0502    0.0000 O   0  0  0  0  0  0           0  0  0
   -0.1571   -3.0697    0.0000 C   0  0  0  0  0  0           0  0  0
    0.5556   -3.4978    0.0000 C   0  0  0  0  0  0           0  0  0
    2.6709   -5.5852    0.0000 O   0  0  0  0  0  0           0  0  0
    1.9413   -6.8147    0.0000 N   0  0  3  0  0  0           0  0  0
    1.2753   -3.0945    0.0000 C   0  0  0  0  0  0           0  0  0
   -0.1853   -5.5509    0.0000 C   0  0  0  0  0  0           0  0  0
    1.2188   -7.2150    0.0000 C   0  0  0  0  0  0           0  0  0
    2.6378   -8.0598    0.0000 C   0  0  0  0  0  0           0  0  0
    2.6514   -7.2311    0.0000 C   0  0  3  0  0  0           0  0  0
    1.9156   -8.4631    0.0000 C   0  0  0  0  0  0           0  0  0
    1.2104   -8.0392    0.0000 C   0  0  0  0  0  0           0  0  0
    0.4928   -8.4380    0.0000 C   0  0  0  0  0  0           0  0  0
    0.4793   -9.2604    0.0000 C   0  0  0  0  0  0           0  0  0
    1.1892   -9.6825    0.0000 C   0  0  0  0  0  0           0  0  0
    1.9039   -9.2813    0.0000 C   0  0  0  0  0  0           0  0  0
    3.3706   -6.8269    0.0000 C   0  0  0  0  0  0           0  0  0
    3.3802   -6.0020    0.0000 O   0  0  0  0  0  0           0  0  0
 31 32  2  0     0  0
 32 33  1  0     0  0
 33 34  2  0     0  0
  2  4  1  0     0  0
 32 35  1  0     0  0
  4  5  1  0     0  0
 29 36  1  0     0  0
 14 19  1  0     0  0
 33 37  1  0     0  0
 17 21  1  0     0  0
 30 38  1  0     0  0
 20 18  1  0     0  0
 38 39  1  0     0  0
 37 28  1  0     0  0
 18 19  1  0     0  0
 39 40  1  0     0  0
  5  6  1  0     0  0
 40 41  1  0     0  0
  6  7  2  0     0  0
 41 42  1  0     0  0
 20 21  2  0     0  0
  7  8  1  0     0  0
 21 22  1  0     0  0
  8  9  2  0     0  0
 22 23  2  0     0  0
  9 10  1  0     0  0
 23 24  1  0     0  0
  9 11  1  0     0  0
 24 25  2  0     0  0
 25 20  1  0     0  0
 11 12  2  0     0  0
 19 26  1  0     0  0
  6 12  1  0     0  0
 26 27  2  0     0  0
 45 44  1  1     0  0
 43 45  1  0     0  0
 45 46  1  0     0  0
 46 47  1  0     0  0
 47 48  2  0     0  0
 48 49  1  0     0  0
 49 50  2  0     0  0
 50 51  1  0     0  0
 50 52  1  0     0  0
 52 53  2  0     0  0
 47 53  1  0     0  0
 43 54  2  0     0  0
 43 55  1  0     0  0
 53 56  1  0     0  0
 48 57  1  0     0  0
  1 26  1  0     0  0
 55 58  1  0     0  0
  2 13  2  0     0  0
 28  1  1  0     0  0
 29 30  2  0     0  0
 55 60  1  0     0  0
 58 62  1  0     0  0
 61 59  1  0     0  0
 59 60  1  0     0  0
  2 14  1  0     0  0
 12 15  1  0     0  0
 61 62  2  0     0  0
  7 16  1  0     0  0
 62 63  1  0     0  0
 63 64  2  0     0  0
 14 17  1  0     0  0
 64 65  1  0     0  0
  4  3  1  1     0  0
 65 66  2  0     0  0
 66 61  1  0     0  0
 29 34  1  0     0  0
 60 67  1  0     0  0
 30 31  1  0     0  0
 67 68  2  0     0  0
 42 67  1  0     0  0
M  END