
  SciTegic01161211212D

 25 28  0  0  0  0            999 V2000
    5.4777  -19.3496    0.0000 C   0  0  1  0  0  0
    6.2443  -19.6546    0.0000 C   0  0  2  0  0  0
    6.9407  -19.2155    0.0000 O   0  0
    6.1892  -20.4772    0.0000 C   0  0  2  0  0  0
    6.8232  -21.0062    0.0000 O   0  0
    5.3917  -20.6816    0.0000 C   0  0  2  0  0  0
    4.9488  -19.9836    0.0000 O   0  0
    5.0867  -21.4481    0.0000 C   0  0
    4.2652  -21.5258    0.0000 O   0  0
    5.2749  -18.5500    0.0000 N   0  0
    3.0569  -17.4666    0.0000 N   0  0
    3.0557  -18.2940    0.0000 C   0  0
    3.7706  -18.7069    0.0000 N   0  0
    3.7688  -17.0539    0.0000 C   0  0
    4.4841  -17.4630    0.0000 C   0  0
    4.4844  -18.2940    0.0000 C   0  0
    5.7632  -17.8781    0.0000 C   0  0
    5.2744  -17.2060    0.0000 N   0  0
    3.7663  -16.2289    0.0000 N   0  0
    4.4795  -15.8142    0.0000 C   0  0
    5.1932  -16.2262    0.0000 C   0  0
    5.9043  -15.8151    0.0000 C   0  0
    5.9061  -14.9897    0.0000 C   0  0
    5.1906  -14.5772    0.0000 C   0  0
    4.4732  -14.9899    0.0000 C   0  0
 12 13  1  0
 13 16  2  0
  4  5  1  6
 15 14  2  0
 14 11  1  0
 15 16  1  0
  4  6  1  0
  6  7  1  0
  6  8  1  1
  8  9  1  0
 16 10  1  0
 10 17  1  0
 17 18  2  0
 18 15  1  0
  1  7  1  0
 14 19  1  0
 19 20  1  0
 20 21  1  0
  1 10  1  1
  1  2  1  0
  2  3  1  6
 11 12  2  0
  2  4  1  0
 20 25  1  0
 21 22  1  0
 22 23  1  0
 23 24  1  0
 24 25  1  0
M  END