
  CDK    6/4/10,11:41

 23 24  0  0  0  0  0  0  0  0999 V2000
   25.0000   -0.5750    0.0000 C   0  0  0  0  0  0  0  0  0  0  0  0
   24.1750   -0.5750    0.0000 C   0  0  0  0  0  0  0  0  0  0  0  0
   24.5875   -1.2895    0.0000 C   0  0  0  0  0  0  0  0  0  0  0  0
   23.0458    1.3792    0.0000 C   0  0  0  0  0  0  0  0  0  0  0  0
   23.4625    0.6625    0.0000 C   0  0  0  0  0  0  0  0  0  0  0  0
   23.8748    1.3817    0.0000 C   0  0  0  0  0  0  0  0  0  0  0  0
   17.7527   -1.0041    0.0000 C   0  0  0  0  0  0  0  0  0  0  0  0
   17.7516   -1.8315    0.0000 C   0  0  0  0  0  0  0  0  0  0  0  0
   18.4664   -2.2444    0.0000 C   0  0  0  0  0  0  0  0  0  0  0  0
   19.1828   -1.8310    0.0000 C   0  0  0  0  0  0  0  0  0  0  0  0
   19.1800   -1.0005    0.0000 C   0  0  0  0  0  0  0  0  0  0  0  0
   18.4646   -0.5914    0.0000 C   0  0  0  0  0  0  0  0  0  0  0  0
   19.8929   -0.5853    0.0000 N   0  0  0  0  0  0  0  0  0  0  0  0
   20.6089   -0.9951    0.0000 C   0  0  0  0  0  0  0  0  0  0  0  0
   21.3218   -0.5799    0.0000 C   0  0  0  0  0  0  0  0  0  0  0  0
   20.6120   -1.8201    0.0000 O   0  0  0  0  0  0  0  0  0  0  0  0
   22.0378   -0.9897    0.0000 N   0  0  0  0  0  0  0  0  0  0  0  0
   21.3187    0.2451    0.0000 O   0  0  0  0  0  0  0  0  0  0  0  0
   22.7508   -0.5745    0.0000 C   0  0  0  0  0  0  0  0  0  0  0  0
   23.4666   -0.9875    0.0000 C   0  0  0  0  0  0  0  0  0  0  0  0
   24.1786    0.2495    0.0000 N   0  0  0  0  0  0  0  0  0  0  0  0
   22.7457    0.2482    0.0000 C   0  0  0  0  0  0  0  0  0  0  0  0
   17.0368   -2.2434    0.0000 Cl  0  0  0  0  0  0  0  0  0  0  0  0
  6  5  1  0  0  0  0 
 11 13  1  0  0  0  0 
  7  8  2  0  0  0  0 
 13 14  1  0  0  0  0 
 14 15  1  0  0  0  0 
  8  9  1  0  0  0  0 
 14 16  2  0  0  0  0 
  2  1  1  0  0  0  0 
 15 17  1  0  0  0  0 
  9 10  2  0  0  0  0 
 15 18  2  0  0  0  0 
  3  2  1  0  0  0  0 
 17 19  1  0  0  0  0 
 19 20  1  0  0  0  0 
 10 11  1  0  0  0  0 
  5  4  1  0  0  0  0 
 11 12  2  0  0  0  0 
 19 22  1  0  0  0  0 
 20  2  1  0  0  0  0 
  2 21  1  0  0  0  0 
 21  5  1  0  0  0  0 
  5 22  1  0  0  0  0 
 12  7  1  0  0  0  0 
  8 23  1  0  0  0  0 
M  END