
  SciTegic02011310442D

 38 42  0  0  0  0            999 V2000
   15.2626   -5.4779    0.0000 N   0  0
   15.9790   -5.0644    0.0000 C   0  0
   15.9762   -4.2340    0.0000 N   0  0
   15.2608   -3.8248    0.0000 C   0  0
   14.5477   -5.0649    0.0000 N   0  0
   14.5489   -4.2360    0.0000 C   0  0
   13.7609   -3.9786    0.0000 C   0  0
   13.2727   -4.6486    0.0000 C   0  0
   13.7590   -5.3199    0.0000 C   0  0
   16.6942   -5.4758    0.0000 S   0  0
   17.4079   -5.0622    0.0000 C   0  0
   15.2590   -2.9998    0.0000 N   0  0
   15.9725   -2.5857    0.0000 C   0  0
   18.1198   -5.4740    0.0000 C   0  0
   18.8331   -5.0611    0.0000 C   0  0
   18.8323   -4.2352    0.0000 C   0  0
   18.1121   -3.8240    0.0000 C   0  0
   17.4017   -4.2393    0.0000 C   0  0
   16.7248   -2.9209    0.0000 C   0  0
   17.2754   -2.3066    0.0000 C   0  0
   16.8614   -1.5929    0.0000 N   0  0
   16.0547   -1.7664    0.0000 N   0  0
   18.0961   -2.3910    0.0000 C   0  0
   19.5455   -3.8206    0.0000 N   0  0
   20.2612   -4.2310    0.0000 C   0  0
   20.9745   -3.8165    0.0000 C   0  0
   21.6902   -4.2269    0.0000 N   0  0
   20.2636   -5.0561    0.0000 O   0  0
   21.7760   -5.0450    0.0000 C   0  0
   22.5834   -5.2142    0.0000 C   0  0  1  0  0  0
   22.9939   -4.4984    0.0000 C   0  0
   22.4401   -3.8871    0.0000 C   0  0
   22.9212   -5.9669    0.0000 N   0  0
   23.7419   -6.0507    0.0000 C   0  0
   24.0797   -6.8034    0.0000 O   0  0
   24.2249   -5.3819    0.0000 C   0  0
   25.0457   -5.4658    0.0000 C   0  0
   23.8872   -4.6291    0.0000 C   0  0
  5  1  1  0
  1  2  2  0
  2  3  1  0
  3  4  2  0
  4  6  1  0
  5  6  1  0
  6  7  2  0
  7  8  1  0
  8  9  2  0
  9  5  1  0
  2 10  1  0
 10 11  1  0
  4 12  1  0
 12 13  1  0
 11 14  2  0
 14 15  1  0
 15 16  2  0
 16 17  1  0
 17 18  2  0
 18 11  1  0
 13 19  1  0
 19 20  2  0
 20 21  1  0
 21 22  1  0
 22 13  2  0
 20 23  1  0
 16 24  1  0
 24 25  1  0
 25 26  1  0
 26 27  1  0
 25 28  2  0
 27 29  1  0
 29 30  1  0
 30 31  1  0
 31 32  1  0
 32 27  1  0
 30 33  1  1
 33 34  1  0
 34 35  2  0
 34 36  1  0
 36 37  1  0
 36 38  1  0
M  END