
  CDK    8/10/10,12:22

 32 35  0  0  0  0  0  0  0  0999 V2000
    9.2018   -7.5135    0.0000 C   0  0  0  0  0  0  0  0  0  0  0  0
    9.2018   -8.3385    0.0000 C   0  0  0  0  0  0  0  0  0  0  0  0
    8.4901   -8.7510    0.0000 C   0  0  0  0  0  0  0  0  0  0  0  0
    8.4901   -9.5760    0.0000 O   0  0  0  0  0  0  0  0  0  0  0  0
    7.7742   -8.3385    0.0000 C   0  0  0  0  0  0  0  0  0  0  0  0
    7.0583   -8.7510    0.0000 C   0  0  0  0  0  0  0  0  0  0  0  0
    7.0583   -9.5760    0.0000 O   0  0  0  0  0  0  0  0  0  0  0  0
    6.3425   -8.3385    0.0000 C   0  0  0  0  0  0  0  0  0  0  0  0
    6.3425   -7.5135    0.0000 C   0  0  0  0  0  0  0  0  0  0  0  0
    7.0583   -7.1010    0.0000 C   0  0  0  0  0  0  0  0  0  0  0  0
    7.7742   -7.5135    0.0000 C   0  0  0  0  0  0  0  0  0  0  0  0
    8.4901   -7.1010    0.0000 O   0  0  0  0  0  0  0  0  0  0  0  0
    9.9176   -7.1010    0.0000 C   0  0  0  0  0  0  0  0  0  0  0  0
    9.9176   -6.2760    0.0000 C   0  0  0  0  0  0  0  0  0  0  0  0
   10.6293   -5.8635    0.0000 C   0  0  0  0  0  0  0  0  0  0  0  0
   10.6293   -5.0385    0.0000 O   0  0  0  0  0  0  0  0  0  0  0  0
   11.3452   -6.2760    0.0000 C   0  0  0  0  0  0  0  0  0  0  0  0
   12.0611   -5.8635    0.0000 O   0  0  0  0  0  0  0  0  0  0  0  0
   11.3452   -7.1010    0.0000 C   0  0  0  0  0  0  0  0  0  0  0  0
   10.6293   -7.5135    0.0000 C   0  0  0  0  0  0  0  0  0  0  0  0
    5.6308   -7.1010    0.0000 O   0  0  0  0  0  0  0  0  0  0  0  0
    4.9149   -7.5135    0.0000 C   0  0  0  0  0  0  0  0  0  0  0  0
    4.9149   -8.3385    0.0000 C   0  0  0  0  0  0  0  0  0  0  0  0
    5.6308   -8.7510    0.0000 O   0  0  0  0  0  0  0  0  0  0  0  0
    4.2032   -8.7510    0.0000 C   0  0  0  0  0  0  0  0  0  0  0  0
    4.2032   -9.5760    0.0000 O   0  0  0  0  0  0  0  0  0  0  0  0
    3.4873   -8.3385    0.0000 C   0  0  0  0  0  0  0  0  0  0  0  0
    2.7715   -8.7510    0.0000 O   0  0  0  0  0  0  0  0  0  0  0  0
    3.4873   -7.5135    0.0000 C   0  0  0  0  0  0  0  0  0  0  0  0
    4.2032   -7.1010    0.0000 O   0  0  0  0  0  0  0  0  0  0  0  0
    2.7715   -7.1010    0.0000 C   0  0  0  0  0  0  0  0  0  0  0  0
    2.0556   -7.5135    0.0000 O   0  0  0  0  0  0  0  0  0  0  0  0
  1  2  2  0  0  0  0 
  2  3  1  0  0  0  0 
  3  4  2  0  0  0  0 
  3  5  1  0  0  0  0 
  5  6  1  0  0  0  0 
  6  7  1  0  0  0  0 
  6  8  2  0  0  0  0 
  8  9  1  0  0  0  0 
  9 10  2  0  0  0  0 
 10 11  1  0  0  0  0 
  5 11  2  0  0  0  0 
 11 12  1  0  0  0  0 
  1 12  1  0  0  0  0 
  1 13  1  0  0  0  0 
 13 14  1  0  0  0  0 
 14 15  2  0  0  0  0 
 15 16  1  0  0  0  0 
 15 17  1  0  0  0  0 
 17 18  1  0  0  0  0 
 17 19  2  0  0  0  0 
 19 20  1  0  0  0  0 
 13 20  2  0  0  0  0 
 22 21  1  1  0  0  0 
 22 23  1  0  0  0  0 
 23 24  1  6  0  0  0 
 23 25  1  0  0  0  0 
 25 26  1  1  0  0  0 
 25 27  1  0  0  0  0 
 27 28  1  6  0  0  0 
 27 29  1  0  0  0  0 
 29 30  1  0  0  0  0 
 29 31  1  1  0  0  0 
 31 32  1  0  0  0  0 
 22 30  1  0  0  0  0 
  9 21  1  0  0  0  0 
M  END