
  SciTegic01161211252D

 26 29  0  0  0  0            999 V2000
    3.5090  -11.5623    0.0000 N   0  0
    4.3100  -11.3833    0.0000 C   0  0
    4.9559  -11.8996    0.0000 C   0  0
    3.1482  -12.3066    0.0000 C   0  0
    4.9576  -12.7232    0.0000 N   0  0
    3.5060  -13.0515    0.0000 C   0  0
    4.3116  -13.2340    0.0000 C   0  0
    5.6715  -13.1366    0.0000 C   0  0
    5.6695  -13.9616    0.0000 O   0  0
    6.3867  -12.7265    0.0000 C   0  0  2  0  0  0
    7.0572  -13.2016    0.0000 N   0  0
    7.7174  -12.7069    0.0000 C   0  0
    7.4510  -11.9261    0.0000 C   0  0  2  0  0  0
    6.6261  -11.9383    0.0000 C   0  0
    7.9261  -11.2515    0.0000 O   0  0
    7.5208  -10.5329    0.0000 C   0  0
    7.9421   -9.8257    0.0000 C   0  0
    7.5375   -9.1076    0.0000 C   0  0
    6.7116   -9.0989    0.0000 C   0  0
    6.2921   -9.8142    0.0000 C   0  0
    6.6991  -10.5294    0.0000 C   0  0
    2.9282  -10.9764    0.0000 C   0  0
    2.9324  -10.1503    0.0000 C   0  0
    2.1074  -10.1467    0.0000 C   0  0
    2.1038  -10.9717    0.0000 C   0  0
    7.9574   -8.3975    0.0000 F   0  0
 11 12  1  0
 12 13  1  0
 13 14  1  0
 14 10  1  0
  6  7  1  0
 13 15  1  6
  1  4  1  0
 15 16  1  0
  5  8  1  0
 16 17  2  0
 17 18  1  0
  8  9  2  0
 18 19  2  0
  3  5  1  0
 19 20  1  0
 10  8  1  1
 20 21  2  0
 21 16  1  0
 10 11  1  0
  1 22  1  0
 22 23  1  0
  2  3  1  0
  4  6  1  0
  1  2  1  0
 23 24  1  0
 24 25  1  0
 25 22  1  0
  5  7  1  0
 18 26  1  0
M  END