
  SciTegic12231509382D

 24 25  0  0  0  0            999 V2000
   -2.6793   -0.4813    0.0000 O   0  0
    5.1799    0.7563    0.0000 O   0  0
    3.0365   -1.3063    0.0000 O   0  0
   -5.5371    1.1687    0.0000 O   0  0
   -1.2503   -1.3062    0.0000 O   0  0
    3.7510   -0.0688    0.0000 N   0  0
    2.3220   -0.0687    0.0000 N   0  0
    0.1786   -0.4812    0.0000 N   0  0
    3.0365   -0.4812    0.0000 C   0  0
    4.4654   -0.4813    0.0000 C   0  0
    3.7510    0.7563    0.0000 C   0  0
   -3.3937   -0.0688    0.0000 C   0  0
    5.1799   -0.0687    0.0000 C   0  0
    4.4654    1.1688    0.0000 C   0  0
   -4.8227    0.7562    0.0000 C   0  0
   -4.1082   -0.4813    0.0000 C   0  0
   -3.3937    0.7562    0.0000 C   0  0
   -4.8227   -0.0688    0.0000 C   0  0
   -4.1082    1.1687    0.0000 C   0  0
    1.6076   -0.4812    0.0000 C   0  0
   -1.9648   -0.0687    0.0000 C   0  0
   -1.2503   -0.4812    0.0000 C   0  0
    0.8931   -0.0687    0.0000 C   0  0
   -0.5359   -0.0687    0.0000 C   0  0
  1 12  1  0
  1 21  1  0
  2 13  1  0
  2 14  1  0
  3  9  2  0
  4 15  1  0
  5 22  1  0
  6  9  1  0
  6 10  1  0
  6 11  1  0
  7  9  1  0
  7 20  1  0
  8 23  1  0
  8 24  1  0
 10 13  1  0
 11 14  1  0
 12 16  2  0
 12 17  1  0
 15 18  2  0
 15 19  1  0
 16 18  1  0
 17 19  2  0
 20 23  1  0
 21 22  1  0
 22 24  1  0
M  END