
  CDK    9/16/09,9:48

 51 56  0  0  0  0  0  0  0  0999 V2000
    1.4244  -14.3697    0.0000 C   0  0  0  0  0  0  0  0  0  0  0  0
    1.4135  -12.7268    0.0000 C   0  0  0  0  0  0  0  0  0  0  0  0
    0.7026  -13.1474    0.0000 C   0  0  0  0  0  0  0  0  0  0  0  0
    0.7120  -13.9670    0.0000 C   0  0  0  0  0  0  0  0  0  0  0  0
    2.1288  -13.1331    0.0000 C   0  0  0  0  0  0  0  0  0  0  0  0
    2.1380  -13.9565    0.0000 C   0  0  0  0  0  0  0  0  0  0  0  0
    2.8518  -14.3581    0.0000 C   0  0  0  0  0  0  0  0  0  0  0  0
    3.5609  -13.9407    0.0000 C   0  0  0  0  0  0  0  0  0  0  0  0
    3.5517  -13.1173    0.0000 C   0  0  0  0  0  0  0  0  0  0  0  0
    2.8333  -12.7113    0.0000 N   0  0  0  0  0  0  0  0  0  0  0  0
    2.8229  -11.8855    0.0000 C   0  0  0  0  0  0  0  0  0  0  0  0
    3.5329  -11.4636    0.0000 O   0  0  0  0  0  0  0  0  0  0  0  0
    4.2626  -12.6971    0.0000 C   0  0  0  0  0  0  0  0  0  0  0  0
    4.9820  -13.1027    0.0000 C   0  0  0  0  0  0  0  0  0  0  0  0
    4.2800  -14.3466    0.0000 O   0  0  0  0  0  0  0  0  0  0  0  0
    4.9904  -13.9285    0.0000 O   0  0  0  0  0  0  0  0  0  0  0  0
    5.6930  -12.6826    0.0000 O   0  0  0  0  0  0  0  0  0  0  0  0
    2.8598  -15.1839    0.0000 N   0  0  0  0  0  0  0  0  0  0  0  0
    2.1487  -15.6038    0.0000 C   0  0  0  0  0  0  0  0  0  0  0  0
    1.4295  -15.1979    0.0000 O   0  0  0  0  0  0  0  0  0  0  0  0
    0.0011  -14.3873    0.0000 O   0  0  0  0  0  0  0  0  0  0  0  0
   -0.7184  -13.9818    0.0000 C   0  0  0  0  0  0  0  0  0  0  0  0
   -1.4293  -14.4020    0.0000 O   0  0  0  0  0  0  0  0  0  0  0  0
   -2.1486  -13.9964    0.0000 C   0  0  0  0  0  0  0  0  0  0  0  0
   -2.8596  -14.4167    0.0000 C   0  0  0  0  0  0  0  0  0  0  0  0
   -3.5790  -14.0111    0.0000 O   0  0  0  0  0  0  0  0  0  0  0  0
   -4.2898  -14.4314    0.0000 C   0  0  0  0  0  0  0  0  0  0  0  0
    2.1559  -16.4280    0.0000 C   0  0  0  0  0  0  0  0  0  0  0  0
    1.4431  -16.8473    0.0000 C   0  0  0  0  0  0  0  0  0  0  0  0
    2.8840  -17.6547    0.0000 C   0  0  0  0  0  0  0  0  0  0  0  0
    2.8728  -16.8310    0.0000 C   0  0  0  0  0  0  0  0  0  0  0  0
    2.1026  -11.4816    0.0000 C   0  0  0  0  0  0  0  0  0  0  0  0
    2.0962  -10.6569    0.0000 C   0  0  0  0  0  0  0  0  0  0  0  0
    0.6788  -11.5050    0.0000 C   0  0  0  0  0  0  0  0  0  0  0  0
    1.3989  -11.9052    0.0000 C   0  0  0  0  0  0  0  0  0  0  0  0
    0.6658  -10.6750    0.0000 C   0  0  0  0  0  0  0  0  0  0  0  0
    1.3810  -10.2539    0.0000 C   0  0  0  0  0  0  0  0  0  0  0  0
    2.1735  -18.0785    0.0000 C   0  0  0  0  0  0  0  0  0  0  0  0
    1.4538  -17.6698    0.0000 C   0  0  0  0  0  0  0  0  0  0  0  0
   -0.0523  -10.2735    0.0000 C   0  0  0  0  0  0  0  0  0  0  0  0
   -0.0610   -9.4466    0.0000 C   0  0  0  0  0  0  0  0  0  0  0  0
   -0.7803   -9.0425    0.0000 C   0  0  0  0  0  0  0  0  0  0  0  0
   -1.4914   -9.4641    0.0000 C   0  0  0  0  0  0  0  0  0  0  0  0
   -1.4787  -10.2941    0.0000 C   0  0  0  0  0  0  0  0  0  0  0  0
   -0.7588  -10.6945    0.0000 C   0  0  0  0  0  0  0  0  0  0  0  0
    2.1837  -18.9034    0.0000 C   0  0  0  0  0  0  0  0  0  0  0  0
    1.4713  -19.3234    0.0000 C   0  0  0  0  0  0  0  0  0  0  0  0
    1.4798  -20.1484    0.0000 C   0  0  0  0  0  0  0  0  0  0  0  0
    2.1999  -20.5544    0.0000 C   0  0  0  0  0  0  0  0  0  0  0  0
    2.9130  -20.1294    0.0000 C   0  0  0  0  0  0  0  0  0  0  0  0
    2.9010  -19.3058    0.0000 C   0  0  0  0  0  0  0  0  0  0  0  0
 24 25  1  0  0  0  0 
 11 12  2  0  0  0  0 
 25 26  1  0  0  0  0 
  1  6  2  0  0  0  0 
 26 27  1  0  0  0  0 
  9 13  1  1  0  0  0 
  2  3  1  0  0  0  0 
 28 29  2  0  0  0  0 
 29 39  1  0  0  0  0 
 13 14  1  0  0  0  0 
 38 30  1  0  0  0  0 
 30 31  2  0  0  0  0 
 31 28  1  0  0  0  0 
 19 28  1  0  0  0  0 
  8 15  1  6  0  0  0 
 11 32  1  0  0  0  0 
  3  4  2  0  0  0  0 
 32 33  2  0  0  0  0 
 33 37  1  0  0  0  0 
 14 16  2  0  0  0  0 
 36 34  1  0  0  0  0 
  4  1  1  0  0  0  0 
 34 35  2  0  0  0  0 
 35 32  1  0  0  0  0 
 14 17  1  0  0  0  0 
  5 10  1  0  0  0  0 
 36 37  2  0  0  0  0 
  7 18  1  1  0  0  0 
  6  7  1  0  0  0  0 
 38 39  2  0  0  0  0 
 18 19  1  0  0  0  0 
  7  8  1  0  0  0  0 
 40 41  2  0  0  0  0 
 19 20  2  0  0  0  0 
 41 42  1  0  0  0  0 
  8  9  1  0  0  0  0 
 42 43  2  0  0  0  0 
  4 21  1  0  0  0  0 
 43 44  1  0  0  0  0 
  9 10  1  0  0  0  0 
 44 45  2  0  0  0  0 
 45 40  1  0  0  0  0 
 36 40  1  0  0  0  0 
 21 22  1  0  0  0  0 
  5  6  1  0  0  0  0 
 46 47  2  0  0  0  0 
 22 23  1  0  0  0  0 
 47 48  1  0  0  0  0 
 10 11  1  0  0  0  0 
 48 49  2  0  0  0  0 
 23 24  1  0  0  0  0 
 49 50  1  0  0  0  0 
  5  2  2  0  0  0  0 
 50 51  2  0  0  0  0 
 51 46  1  0  0  0  0 
 38 46  1  0  0  0  0 
M  END