
          08180812472D 1   1.00000     0.00000     0

 24 27  0     1  0            999 V2000
   -4.0182   -5.1140    0.0000 C   0  0  1  0  0  0           0  0  0
   -4.0182   -4.2890    0.0000 C   0  0  0  0  0  0           0  0  0
   -3.3041   -3.8765    0.0000 C   0  0  0  0  0  0           0  0  0
   -3.3041   -5.5265    0.0000 C   0  0  0  0  0  0           0  0  0
   -2.5853   -5.1140    0.0000 C   0  0  0  0  0  0           0  0  0
   -1.8712   -5.5265    0.0000 C   0  0  0  0  0  0           0  0  0
   -1.1571   -5.1140    0.0000 C   0  0  0  0  0  0           0  0  0
   -1.1571   -4.2890    0.0000 C   0  0  1  0  0  0           0  0  0
   -0.4430   -3.8765    0.0000 C   0  0  2  0  0  0           0  0  0
    0.3422   -4.1318    0.0000 C   0  0  0  0  0  0           0  0  0
    0.8250   -3.4640    0.0000 C   0  0  0  0  0  0           0  0  0
    0.3422   -2.7962    0.0000 C   0  0  1  0  0  0           0  0  0
   -0.4430   -3.0515    0.0000 C   0  0  2  0  0  0           0  0  0
   -0.4430   -2.2265    0.0000 C   0  0  0  0  0  0           0  0  0
   -1.1571   -2.6390    0.0000 C   0  0  0  0  0  0           0  0  0
   -1.8712   -3.0515    0.0000 C   0  0  0  0  0  0           0  0  0
   -1.8712   -3.8765    0.0000 C   0  0  2  0  0  0           0  0  0
   -2.5853   -4.2890    0.0000 C   0  0  1  0  0  0           0  0  0
   -1.8712   -4.7015    0.0000 H   0  0  0  0  0  0           0  0  0
   -1.1571   -3.4640    0.0000 H   0  0  0  0  0  0           0  0  0
   -0.4430   -4.7015    0.0000 H   0  0  0  0  0  0           0  0  0
    0.5981   -2.0118    0.0000 O   0  0  0  0  0  0           0  0  0
   -4.7326   -5.5264    0.0000 O   0  0  0  0  0  0           0  0  0
   -2.5853   -3.4640    0.0000 H   0  0  0  0  0  0           0  0  0
  2  3  1  0     0  0
  1  4  1  0     0  0
  4  5  1  0     0  0
  5  6  2  0     0  0
  6  7  1  0     0  0
  7  8  1  0     0  0
  8  9  1  0     0  0
  9 10  1  0     0  0
 10 11  1  0     0  0
 11 12  1  0     0  0
 12 13  1  0     0  0
  9 13  1  0     0  0
 13 14  1  1     0  0
 13 15  1  0     0  0
 15 16  1  0     0  0
 16 17  1  0     0  0
  8 17  1  0     0  0
 17 18  1  0     0  0
  3 18  1  0     0  0
  5 18  1  0     0  0
 18 24  1  1     0  0
 17 19  1  6     0  0
  8 20  1  1     0  0
  9 21  1  6     0  0
 12 22  1  1     0  0
  1  2  1  0     0  0
  1 23  1  1     0  0
M  END