
  SciTegic10301317112D

 30 30  0  0  0  0            999 V2000
    1.5542   -4.3000    0.0000 S   0  0
    4.8500   -4.2875    0.0000 C   0  0
    2.3792   -4.3000    0.0000 C   0  0
   10.3667   -7.6500    0.0000 C   0  0
    9.1250   -6.9417    0.0000 N   0  0
    8.6417   -6.2792    0.0000 C   0  0
    5.2667   -5.0000    0.0000 N   0  0
    9.9500   -6.9375    0.0000 C   0  0  1  0  0  0
    1.5542   -5.1250    0.0000 O   0  0
    1.5542   -3.4750    0.0000 O   0  0
    6.5042   -5.7042    0.0000 C   0  0
    4.0250   -4.2917    0.0000 C   0  0
   11.5917   -5.5000    0.0000 C   0  0
    0.7292   -4.2917    0.0000 N   0  0
    7.3292   -5.7000    0.0000 N   0  0
    5.2542   -3.5667    0.0000 O   0  0
    9.9542   -8.3667    0.0000 O   0  0
    8.9750   -5.5250    0.0000 O   0  0
    6.1000   -6.4167    0.0000 O   0  0
   12.4167   -5.4917    0.0000 O   0  0
    2.7792   -3.5875    0.0000 C   0  0
    2.7917   -5.0125    0.0000 C   0  0
    3.6167   -5.0042    0.0000 C   0  0
    3.6042   -3.5792    0.0000 C   0  0
   10.3542   -6.2167    0.0000 C   0  0
    6.0917   -4.9917    0.0000 C   0  0
    7.8167   -6.3667    0.0000 C   0  0
   11.1792   -6.2167    0.0000 C   0  0
   11.1917   -7.6417    0.0000 O   0  0
   11.1750   -4.7875    0.0000 O   0  0
  2 12  1  0
  3  1  1  0
  4  8  1  0
  5  6  1  0
  6 27  1  0
  7  2  1  0
  8  5  1  0
  9  1  2  0
 10  1  2  0
 11 26  1  0
 12 23  2  0
 13 28  1  0
 14  1  1  0
 15 11  1  0
 16  2  2  0
 17  4  2  0
 18  6  2  0
 19 11  2  0
 20 13  2  0
 21  3  1  0
 22  3  2  0
 23 22  1  0
 24 21  2  0
  8 25  1  1
 26  7  1  0
 27 15  1  0
 28 25  1  0
 29  4  1  0
 30 13  1  0
 12 24  1  0
M  END