
  SciTegic01161211262D

138130  0  0  0  0            999 V2000
   -5.0574    4.6525    0.0000 Na  0  3
   -5.7718    0.9400    0.0000 Na  0  3
   -4.3429   -0.7100    0.0000 Na  0  3
   -4.4495   -3.6542    0.0000 Na  0  3
   -2.6665   -3.5384    0.0000 Na  0  3
    2.8018   -0.7100    0.0000 Na  0  3
   -2.4138   -7.0213    0.0000 Na  0  3
   -0.4623   -7.1206    0.0000 Na  0  3
    4.2308   -3.1850    0.0000 Na  0  3
    0.1789  -10.0150    0.0000 Na  0  3
    3.2182  -10.0012    0.0000 Na  0  3
    5.7718   -8.3580    0.0000 Na  0  3
    5.7378   -6.1755    0.0000 Na  0  3
   -0.7705    2.1775    0.0000 O   0  0
   -1.4850    1.7650    0.0000 C   0  0  2  0  0  0
   -1.4850    0.9400    0.0000 C   0  0  2  0  0  0
   -0.7705    0.5275    0.0000 O   0  0
   -2.1995    0.5275    0.0000 C   0  0  2  0  0  0
   -2.1995   -0.2975    0.0000 O   0  0
   -2.9139    0.9400    0.0000 C   0  0  2  0  0  0
   -3.6284    0.5275    0.0000 O   0  0
   -2.9139    1.7650    0.0000 C   0  0  2  0  0  0
   -2.1995    2.1775    0.0000 O   0  0
   -3.6284    2.1775    0.0000 C   0  0
   -3.6284    3.0025    0.0000 O   0  0
   -4.3429    3.4150    0.0000 S   0  0
   -4.7554    2.7005    0.0000 O   0  0
   -3.9304    4.1295    0.0000 O   0  0
   -5.0574    3.8275    0.0000 O   0  5
   -4.3429    0.9400    0.0000 S   0  0
   -4.7554    0.2255    0.0000 O   0  0
   -3.9304    1.6545    0.0000 O   0  0
   -5.0574    1.3525    0.0000 O   0  5
   -2.9139   -0.7100    0.0000 S   0  0
   -2.5014   -1.4245    0.0000 O   0  0
   -3.3264    0.0045    0.0000 O   0  0
   -3.6284   -1.1225    0.0000 O   0  5
   -0.0561   -0.7100    0.0000 C   0  0  2  0  0  0
    0.6584   -0.2975    0.0000 O   0  0
   -0.0561   -1.5350    0.0000 C   0  0  2  0  0  0
    0.6584   -1.9475    0.0000 O   0  0
   -0.7705   -1.9475    0.0000 C   0  0  2  0  0  0
   -0.6273   -2.7600    0.0000 O   0  0
   -1.4850   -1.5350    0.0000 C   0  0  2  0  0  0
   -1.4850   -0.7100    0.0000 O   0  0
   -2.2603   -1.8172    0.0000 C   0  0
   -2.5424   -2.5924    0.0000 O   0  0
   -3.3549   -2.7357    0.0000 S   0  0
   -3.2116   -3.5481    0.0000 O   0  0
   -3.4981   -1.9232    0.0000 O   0  0
   -4.1673   -2.8789    0.0000 O   0  5
   -1.2593   -3.2903    0.0000 S   0  0
   -0.7290   -3.9223    0.0000 O   0  0
   -1.7896   -2.6583    0.0000 O   0  0
   -1.8912   -3.8206    0.0000 O   0  5
    1.3729   -0.7100    0.0000 S   0  0
    1.7854    0.0045    0.0000 O   0  0
    0.9604   -1.4245    0.0000 O   0  0
    2.0874   -1.1225    0.0000 O   0  5
    1.3729   -3.1850    0.0000 C   0  0  2  0  0  0
    2.0874   -2.7725    0.0000 O   0  0
    1.3729   -4.0100    0.0000 C   0  0  2  0  0  0
    2.3017   -4.5463    0.0000 O   0  0
    0.6584   -4.4225    0.0000 C   0  0  2  0  0  0
    0.6584   -5.2475    0.0000 O   0  0
   -0.0561   -4.0100    0.0000 C   0  0  2  0  0  0
   -0.0561   -3.1850    0.0000 O   0  0
   -0.9849   -4.5463    0.0000 C   0  0
   -0.9849   -5.3713    0.0000 O   0  0
   -1.6993   -5.7838    0.0000 S   0  0
   -1.2868   -6.4982    0.0000 O   0  0
   -2.1118   -5.0693    0.0000 O   0  0
   -2.4138   -6.1963    0.0000 O   0  5
    0.0264   -5.7778    0.0000 S   0  0
   -0.5039   -5.1458    0.0000 O   0  0
    0.5567   -6.4098    0.0000 O   0  0
   -0.6056   -6.3081    0.0000 O   0  5
    2.8018   -3.1850    0.0000 S   0  0
    3.2143   -2.4705    0.0000 O   0  0
    2.3893   -3.8995    0.0000 O   0  0
    3.5163   -3.5975    0.0000 O   0  5
    3.3004   -5.7457    0.0000 C   0  0  2  0  0  0
    3.8307   -5.1137    0.0000 O   0  0
    3.5826   -6.5210    0.0000 C   0  0  2  0  0  0
    4.3950   -6.6642    0.0000 O   0  0
    3.0523   -7.1530    0.0000 C   0  0  2  0  0  0
    3.4648   -7.8674    0.0000 O   0  0
    2.2398   -7.0097    0.0000 C   0  0  2  0  0  0
    1.9576   -6.2344    0.0000 O   0  0
    1.6078   -7.5400    0.0000 C   0  0
    1.6078   -8.3650    0.0000 O   0  0
    0.8933   -8.7775    0.0000 S   0  0
    0.4808   -8.0630    0.0000 O   0  0
    1.3058   -9.4920    0.0000 O   0  0
    0.1789   -9.1900    0.0000 O   0  5
    3.0523   -8.5819    0.0000 S   0  0
    3.7895   -8.9522    0.0000 O   0  0
    2.2770   -8.2997    0.0000 O   0  0
    2.7255   -9.3394    0.0000 O   0  5
    4.6772   -7.4395    0.0000 S   0  0
    5.4524   -7.1573    0.0000 O   0  0
    3.9019   -7.7216    0.0000 O   0  0
    4.9594   -8.2147    0.0000 O   0  5
    4.6432   -5.2570    0.0000 S   0  0
    4.7864   -4.4445    0.0000 O   0  0
    4.4999   -6.0695    0.0000 O   0  0
    5.4556   -5.4003    0.0000 O   0  5
   -0.7705    3.0025    0.0000 C   0  0
   -0.0561    3.4150    0.0000 C   0  0
   -0.0561    4.2400    0.0000 C   0  0
    0.6584    4.6525    0.0000 C   0  0
    0.6584    5.4775    0.0000 C   0  0
    1.3729    5.8900    0.0000 C   0  0
    1.3729    6.7150    0.0000 C   0  0
    2.0874    7.1275    0.0000 C   0  0
    1.3729    8.3650    0.0000 S   0  0
    0.9604    7.6505    0.0000 O   0  0
    1.7854    9.0795    0.0000 O   0  0
    2.0874    7.9525    0.0000 N   0  0
    0.6584    8.7775    0.0000 C   0  0
    0.6584    9.6025    0.0000 C   0  0
   -0.0561   10.0150    0.0000 C   0  0
   -0.7705    9.6025    0.0000 C   0  0
   -0.7705    8.7775    0.0000 C   0  0
   -1.4850    8.3650    0.0000 C   0  0
   -1.4850    7.5400    0.0000 C   0  0
   -0.7705    7.1275    0.0000 C   0  0
   -0.0561    7.5400    0.0000 C   0  0
   -0.0561    8.3650    0.0000 C   0  0
   -2.1995    8.7775    0.0000 N   0  0
   -2.1995    9.6025    0.0000 C   0  0
   -2.9139    8.3650    0.0000 C   0  0
    2.4879   -5.6025    0.0000 C   0  0  2  0  0  0
    3.0713   -5.0191    0.0000 H   0  0
    0.6584   -2.7725    0.0000 C   0  0  2  0  0  0
    1.3729   -2.3600    0.0000 H   0  0
   -0.7705   -0.2975    0.0000 C   0  0  2  0  0  0
    0.0264   -0.0840    0.0000 H   0  0
 15 14  1  6
 15 16  1  0
 16 17  1  1
 16 18  1  0
 18 19  1  1
 18 20  1  0
 20 21  1  6
 20 22  1  0
 22 23  1  0
 22 24  1  1
 24 25  1  0
 15 23  1  0
 26 27  2  0
 26 28  2  0
 26 29  1  0
 25 26  1  0
 30 31  2  0
 30 32  2  0
 30 33  1  0
 21 30  1  0
 34 35  2  0
 34 36  2  0
 34 37  1  0
 19 34  1  0
137 38  1  0
 38 39  1  1
 38 40  1  0
 40 41  1  1
 40 42  1  0
 42 43  1  6
 42 44  1  0
 44 45  1  0
 44 46  1  1
 46 47  1  0
137 45  1  0
 48 49  2  0
 48 50  2  0
 48 51  1  0
 47 48  1  0
 52 53  2  0
 52 54  2  0
 52 55  1  0
 43 52  1  0
 56 57  2  0
 56 58  2  0
 56 59  1  0
 39 56  1  0
135 60  1  0
 60 61  1  1
 60 62  1  0
 62 63  1  1
 62 64  1  0
 64 65  1  6
 64 66  1  0
 66 67  1  0
 66 68  1  1
 68 69  1  0
135 67  1  0
 70 71  2  0
 70 72  2  0
 70 73  1  0
 69 70  1  0
 74 75  2  0
 74 76  2  0
 74 77  1  0
 65 74  1  0
 78 79  2  0
 78 80  2  0
 78 81  1  0
 61 78  1  0
133 82  1  0
 82 83  1  1
 82 84  1  0
 84 85  1  1
 84 86  1  0
 86 87  1  6
 86 88  1  0
 88 89  1  0
 88 90  1  1
 90 91  1  0
133 89  1  0
 92 93  2  0
 92 94  2  0
 92 95  1  0
 91 92  1  0
 96 97  2  0
 96 98  2  0
 96 99  1  0
 87 96  1  0
100101  2  0
100102  2  0
100103  1  0
 85100  1  0
104105  2  0
104106  2  0
104107  1  0
 83104  1  0
133 63  1  0
135 41  1  0
137 17  1  0
108109  1  0
109110  1  0
110111  1  0
111112  1  0
112113  1  0
113114  1  0
114115  1  0
116117  2  0
116118  2  0
116119  1  0
120121  1  0
121122  2  0
122123  1  0
123124  2  0
124125  1  0
125126  2  0
126127  1  0
127128  2  0
128129  1  0
120129  2  0
124129  1  0
116120  1  0
130131  1  0
130132  1  0
125130  1  0
115119  1  0
 14108  1  0
133134  1  1
135136  1  1
137138  1  1
M  CHG  8   1   1   2   1   3   1   4   1   5   1   6   1   7   1   8   1
M  CHG  8   9   1  10   1  11   1  12   1  13   1  29  -1  33  -1  37  -1
M  CHG  8  51  -1  55  -1  59  -1  73  -1  77  -1  81  -1  95  -1  99  -1
M  CHG  2 103  -1 107  -1
M  END