
  SciTegic12161615062D

 16 17  0  0  0  0            999 V2000
    1.2990   -0.7500    0.0000 C   0  0
    1.2990    0.7500    0.0000 C   0  0
    0.0000    1.5000    0.0000 C   0  0
   -1.2990    0.7500    0.0000 C   0  0
   -1.2990   -0.7500    0.0000 C   0  0
    0.0000   -1.5000    0.0000 C   0  0
   -0.0031    3.0008    0.0000 C   0  0
   -1.3039    3.7494    0.0000 C   0  0
   -1.3092    5.2494    0.0000 C   0  0
   -2.6108    5.9949    0.0000 C   0  0
   -3.9073    5.2404    0.0000 N   0  0
   -3.9021    3.7404    0.0000 C   0  0
   -2.6005    2.9949    0.0000 C   0  0
   -5.2112    5.9836    0.0000 C   0  0
   -6.5072    5.2269    0.0000 C   0  0
   -7.5498    5.8211    0.0000 N   0  0
  1  2  2  0
  2  3  1  0
  3  4  2  0
  4  5  1  0
  5  6  2  0
  6  1  1  0
  3  7  1  0
  7  8  1  0
  8  9  1  0
  8 13  1  0
  9 10  1  0
 10 11  1  0
 11 12  1  0
 12 13  1  0
 11 14  1  0
 14 15  1  0
 15 16  1  0
M  END