
  SciTegic09261414482D

 24 24  0  0  0  0            999 V2000
    2.4436   -3.7029    0.0000 C   0  0
    2.4424   -4.5299    0.0000 C   0  0
    3.1570   -4.9427    0.0000 C   0  0
    3.1552   -3.2902    0.0000 C   0  0
    3.8703   -3.6992    0.0000 C   0  0
    3.8706   -4.5254    0.0000 C   0  0
    4.6564   -4.7805    0.0000 N   0  0
    5.1418   -4.1119    0.0000 C   0  0
    4.6560   -3.4437    0.0000 C   0  0
    4.9105   -2.6592    0.0000 C   0  0
    5.7171   -2.4876    0.0000 C   0  0
    5.9718   -1.7031    0.0000 N   0  0
    6.7784   -1.5314    0.0000 C   0  0
    5.4197   -1.0904    0.0000 C   0  0
    1.7293   -3.2906    0.0000 O   0  0
    1.7291   -2.4660    0.0000 C   0  0
    1.0148   -2.0537    0.0000 C   0  0
    2.4432   -2.0534    0.0000 O   0  0
    8.8317   -5.3193    0.0000 C   0  0
    8.4192   -6.0338    0.0000 C   0  0
    8.4192   -4.6049    0.0000 O   0  0
    9.6567   -5.3193    0.0000 O   0  0
    8.8317   -6.7483    0.0000 O   0  0
    7.5942   -6.0338    0.0000 O   0  0
  1  2  2  0
  2  3  1  0
  3  6  2  0
  5  4  2  0
  4  1  1  0
  5  6  1  0
  6  7  1  0
  7  8  1  0
  8  9  2  0
  9  5  1  0
  9 10  1  0
 10 11  1  0
 11 12  1  0
 12 13  1  0
 12 14  1  0
  1 15  1  0
 15 16  1  0
 16 17  1  0
 16 18  2  0
 19 20  1  0
 19 21  2  0
 19 22  1  0
 20 23  2  0
 20 24  1  0
M  END