
  SciTegic02011310462D

 23 25  0  0  0  0            999 V2000
   20.7627  -24.6725    0.0000 C   0  0
   20.7615  -25.4921    0.0000 C   0  0
   21.4696  -25.9010    0.0000 C   0  0
   21.4678  -24.2637    0.0000 C   0  0
   22.1764  -24.6689    0.0000 C   0  0
   22.1752  -25.4896    0.0000 C   0  0
   22.8814  -25.8986    0.0000 O   0  0
   23.5933  -25.4916    0.0000 C   0  0
   22.8838  -24.2573    0.0000 C   0  0
   23.5935  -24.6723    0.0000 C   0  0
   24.3001  -25.9017    0.0000 O   0  0
   24.3023  -24.2657    0.0000 C   0  0
   24.3046  -23.4485    0.0000 C   0  0
   25.0140  -23.0441    0.0000 C   0  0
   25.0167  -22.2277    0.0000 C   0  0
   24.3096  -21.8163    0.0000 C   0  0
   23.5984  -22.2272    0.0000 C   0  0
   23.5992  -23.0423    0.0000 C   0  0
   21.4712  -26.7182    0.0000 C   0  0
   21.4653  -23.4465    0.0000 C   0  0
   22.1718  -23.0358    0.0000 C   0  0
   20.7564  -23.0400    0.0000 C   0  0
   25.7199  -23.4558    0.0000 O   0  0
  1  2  2  0
  2  3  1  0
  3  6  2  0
  5  4  2  0
  4  1  1  0
  5  6  1  0
  5  9  1  0
  6  7  1  0
  7  8  1  0
  8 10  1  0
  9 10  2  0
  8 11  2  0
 10 12  1  0
 12 13  1  0
 13 14  2  0
 14 15  1  0
 15 16  2  0
 16 17  1  0
 17 18  2  0
 18 13  1  0
  3 19  1  0
  4 20  1  0
 20 21  1  0
 20 22  1  0
 14 23  1  0
M  END