
  SciTegic04201614442D

 43 48  0  0  0  0            999 V2000
    4.6043   -0.6682    0.0000 N   0  0
    4.6043    0.8382    0.0000 C   0  0
    3.3044    1.5915    0.0000 N   0  0
    3.3044   -1.4214    0.0000 C   0  0
    1.9924   -0.6682    0.0000 C   0  0
    1.9924    0.8382    0.0000 C   0  0
    0.7168    1.5915    0.0000 N   0  0
    0.7168   -1.4214    0.0000 C   0  0
   -0.5831   -0.6682    0.0000 N   0  0
   -0.5831    0.8382    0.0000 C   0  0
   -2.0045    1.2999    0.0000 N   0  0
   -2.8792    0.0850    0.0000 C   0  0
   -2.0045   -1.1298    0.0000 C   0  0
    0.7217   -2.6214    0.0000 O   0  0
    0.7229    3.0922    0.0000 C   0  0
    2.0207    3.8440    0.0000 C   0  0
    2.0185    5.3440    0.0000 C   0  0
    0.7184    6.0921    0.0000 C   0  0
   -0.5795    5.3402    0.0000 C   0  0
   -0.5774    3.8402    0.0000 C   0  0
   -1.8819    6.0861    0.0000 N   0  0
   -3.1795    5.3320    0.0000 C   0  0
   -4.4819    6.0779    0.0000 C   0  0
   -3.1757    4.1320    0.0000 O   0  0
   -5.5194    5.4749    0.0000 C   0  0
    5.9025    1.5913    0.0000 N   0  0
    5.9004    3.0921    0.0000 C   0  0
    7.1969    3.8466    0.0000 C   0  0
    7.1918    5.3466    0.0000 C   0  0
    5.8902    6.0922    0.0000 C   0  0
    4.5937    5.3377    0.0000 C   0  0
    4.5988    3.8377    0.0000 C   0  0
    5.8851    7.5929    0.0000 N   0  0
    7.1803    8.3495    0.0000 C   0  0
    7.1728    9.8495    0.0000 C   0  0
    5.8701   10.5930    0.0000 C   0  0
    4.5748    9.8365    0.0000 C   0  0
    4.5823    8.3365    0.0000 C   0  0
    5.8595   12.0938    0.0000 N   0  0
    4.8164   12.6871    0.0000 C   0  0
    6.8946   12.7008    0.0000 C   0  0
    8.5008    3.1034    0.0000 O   0  0
    9.5371    3.7084    0.0000 C   0  0
  1  2  2  0
  2  3  1  0
  3  6  2  0
  5  4  2  0
  4  1  1  0
  5  6  1  0
  5  8  1  0
  6  7  1  0
  7 10  1  0
  9  8  1  0
  9 10  1  0
 10 11  2  0
 11 12  1  0
 12 13  2  0
 13  9  1  0
  8 14  2  0
 15 16  2  0
 16 17  1  0
 17 18  2  0
 18 19  1  0
 19 20  2  0
 20 15  1  0
  7 15  1  0
 19 21  1  0
 21 22  1  0
 22 23  1  0
 22 24  2  0
 23 25  2  0
  2 26  1  0
 26 27  1  0
 27 28  2  0
 28 29  1  0
 29 30  2  0
 30 31  1  0
 31 32  2  0
 32 27  1  0
 33 34  1  0
 33 38  1  0
 34 35  1  0
 35 36  1  0
 36 37  1  0
 37 38  1  0
 30 33  1  0
 36 39  1  0
 39 40  1  0
 39 41  1  0
 42 43  1  0
 28 42  1  0
M  END