
  SciTegic05061409282D

 44 46  0  0  0  0            999 V2000
   14.0327   -9.4303    0.0000 C   0  0
   13.3378   -9.0340    0.0000 C   0  0
   15.4193   -9.4223    0.0000 C   0  0
   14.7215   -8.2271    0.0000 C   0  0
   14.7245   -9.0259    0.0000 C   0  0
   12.1303   -8.4760    0.0000 C   0  0
    8.9653  -10.2796    0.0000 C   0  0
    9.6519   -9.8757    0.0000 O   0  0
    9.6500   -7.4699    0.0000 C   0  0
   12.6708   -9.5107    0.0000 C   0  0  1  0  0  0
   13.1148  -11.0768    0.0000 C   0  0
   11.0366  -11.4698    0.0000 C   0  0
    7.5720  -10.2789    0.0000 C   0  0
   17.2769  -11.0824    0.0000 C   0  0
   11.0366   -9.0673    0.0000 C   0  0
    9.6565  -12.2766    0.0000 O   0  0
    9.6547  -11.4779    0.0000 C   0  0
   13.8073  -12.2798    0.0000 C   0  0
   10.3452   -8.6647    0.0000 C   0  0
   12.4225  -11.4779    0.0000 C   0  0
   11.3487   -8.6573    0.0000 C   0  0
   11.7281  -11.0737    0.0000 C   0  0  2  0  0  0
   10.3489  -11.0737    0.0000 C   0  0
   16.5830  -12.2821    0.0000 C   0  0
    8.9625  -11.0768    0.0000 C   0  0
    6.8789   -9.8797    0.0000 O   0  0
   15.8903  -11.0792    0.0000 C   0  0
   13.8091  -11.4810    0.0000 C   0  0
   16.5847  -11.4835    0.0000 C   0  0
   14.5014  -11.0800    0.0000 C   0  0
   15.1918  -11.4803    0.0000 C   0  0
    8.2667   -9.0760    0.0000 O   0  0
   11.7281  -10.2750    0.0000 C   0  0
    7.5781  -11.0843    0.0000 C   0  0
    8.2698  -11.4795    0.0000 C   0  0
    8.2680   -9.8747    0.0000 C   0  0
   12.6828  -10.4543    0.0000 C   0  0
   11.8912   -9.2441    0.0000 C   0  0
   11.0366   -9.8701    0.0000 C   0  0  2  0  0  0
   10.3489  -10.2750    0.0000 C   0  0
   10.3452   -7.8661    0.0000 C   0  0
   11.0366  -12.2726    0.0000 O   0  0
   11.0366   -7.4699    0.0000 C   0  0
   12.4212   -9.8757    0.0000 O   0  0
  2  1  1  0
  5  3  1  0
  5  4  1  0
  1  5  2  0
 40 39  1  0
 33 44  2  0
 36 13  2  0
 17 25  1  0
 35 25  1  0
 10 37  1  0
 25  7  2  0
 13 26  1  0
 12 22  1  0
 13 34  1  0
 34 35  2  0
 41 43  1  0
 41  9  1  0
 12 42  1  0
 28 30  1  0
 20 11  1  0
 23 12  2  0
 39 38  1  0
 29 24  1  0
 36 32  1  0
 38  6  1  0
 40 23  1  0
 22 37  1  0
 11 28  2  0
 27 29  2  0
 38 21  1  0
 30 31  1  0
 33 39  1  0
 38 10  1  0
 31 27  1  0
 19 41  2  0
 40  8  2  0
 22 20  1  1
 23 17  1  0
  7 36  1  0
 29 14  1  0
 39 15  1  1
 15 19  1  0
 22 33  1  0
 28 18  1  0
 17 16  2  0
 10  2  1  1
M  END