
  SciTegic01161211252D

 26 28  0  0  0  0            999 V2000
    3.9675   -6.4535    0.0000 C   0  0
    3.2542   -6.0365    0.0000 C   0  0
    2.5371   -6.4471    0.0000 C   0  0
    2.5372   -7.2744    0.0000 C   0  0
    3.2582   -7.6873    0.0000 C   0  0
    3.9682   -7.2751    0.0000 C   0  0
    6.8304   -6.4538    0.0000 N   0  0
    6.1128   -6.0395    0.0000 C   0  0
    5.4017   -6.4553    0.0000 C   0  0
    5.3976   -7.2755    0.0000 C   0  0
    6.1147   -7.6880    0.0000 C   0  0
    6.8346   -7.2785    0.0000 C   0  0
    7.5448   -6.0379    0.0000 C   0  0
    8.2578   -6.4530    0.0000 O   0  0
    7.5448   -5.2131    0.0000 C   0  0
    8.2585   -4.8018    0.0000 C   0  0
    8.9725   -5.2133    0.0000 C   0  0
    9.6892   -4.7969    0.0000 C   0  0
   10.4036   -5.2081    0.0000 C   0  0
   10.4035   -6.0369    0.0000 C   0  0
    9.6812   -6.4477    0.0000 C   0  0
    8.9724   -6.0329    0.0000 C   0  0
    9.6892   -3.9695    0.0000 Cl  0  0
    4.6832   -7.6872    0.0000 N   0  0
    6.1147   -8.5153    0.0000 F   0  0
    1.8228   -6.0313    0.0000 F   0  0
  7 13  1  0
  7  8  1  0
 13 14  2  0
  1  2  2  0
 13 15  1  0
  3  4  2  0
 15 16  2  0
 16 17  1  0
  4  5  1  0
 17 18  2  0
  2  3  1  0
 18 19  1  0
  5  6  2  0
 19 20  2  0
  7 12  1  0
 20 21  1  0
  8  9  1  0
 21 22  2  0
 22 17  1  0
  9 10  1  0
 18 23  1  0
 10 11  1  0
 10 24  1  0
 24  6  1  0
 11 12  1  0
 11 25  1  0
  6  1  1  0
  3 26  1  0
M  END