
          11280715122D 1   1.00000     0.00000     0

 37 40  0     0  0            999 V2000
    6.2792   -3.8375    0.0000 C   0  0  0  0  0  0           0  0  0
    6.2792   -5.4917    0.0000 C   0  0  0  0  0  0           0  0  0
    6.2792   -3.0125    0.0000 C   0  0  0  0  0  0           0  0  0
    5.5667   -4.2500    0.0000 C   0  0  0  0  0  0           0  0  0
    6.2875   -6.3125    0.0000 C   0  0  0  0  0  0           0  0  0
    5.5667   -5.0792    0.0000 C   0  0  0  0  0  0           0  0  0
    7.0000   -5.0792    0.0000 N   0  0  0  0  0  0           0  0  0
    1.4042   -4.4792    0.0000 N   0  0  3  0  0  0           0  0  0
    7.0000   -4.2500    0.0000 C   0  0  0  0  0  0           0  0  0
    7.0042   -6.7167    0.0000 C   0  0  0  0  0  0           0  0  0
    0.6917   -4.0667    0.0000 C   0  0  0  0  0  0           0  0  0
    0.6917   -3.2417    0.0000 C   0  0  0  0  0  0           0  0  0
    2.8417   -5.2667    0.0000 N   0  0  3  0  0  0           0  0  0
   -0.0250   -2.8292    0.0000 C   0  0  0  0  0  0           0  0  0
    6.9917   -2.6000    0.0000 N   0  0  3  0  0  0           0  0  0
   -0.0250   -4.4792    0.0000 C   0  0  0  0  0  0           0  0  0
    5.5667   -2.6042    0.0000 O   0  0  0  0  0  0           0  0  0
    1.4167   -5.3042    0.0000 C   0  0  0  0  0  0           0  0  0
    2.1125   -4.0542    0.0000 C   0  0  0  0  0  0           0  0  0
    7.7167   -6.3042    0.0000 O   0  0  0  0  0  0           0  0  0
    4.8625   -3.8417    0.0000 N   0  0  0  0  0  0           0  0  0
   -0.7375   -3.2417    0.0000 C   0  0  0  0  0  0           0  0  0
    7.0042   -7.5417    0.0000 N   0  0  0  0  0  0           0  0  0
    2.1417   -5.7000    0.0000 C   0  0  0  0  0  0           0  0  0
    2.8292   -4.4417    0.0000 C   0  0  0  0  0  0           0  0  0
   -0.7375   -4.0667    0.0000 C   0  0  0  0  0  0           0  0  0
    5.5792   -6.7292    0.0000 C   0  0  0  0  0  0           0  0  0
    1.4042   -2.8250    0.0000 O   0  0  0  0  0  0           0  0  0
    4.8542   -5.4917    0.0000 C   0  0  0  0  0  0           0  0  0
   -1.4500   -2.8292    0.0000 F   0  0  0  0  0  0           0  0  0
    3.5667   -5.6667    0.0000 C   0  0  0  0  0  0           0  0  0
    4.1542   -5.0792    0.0000 C   0  0  0  0  0  0           0  0  0
    4.8542   -6.3167    0.0000 C   0  0  0  0  0  0           0  0  0
    4.1500   -4.2542    0.0000 C   0  0  0  0  0  0           0  0  0
    6.9917   -1.7750    0.0000 C   0  0  0  0  0  0           0  0  0
    7.7042   -3.0042    0.0000 C   0  0  0  0  0  0           0  0  0
    2.1167   -3.2292    0.0000 C   0  0  0  0  0  0           0  0  0
  2  7  2  0     0  0
  3  1  1  0     0  0
  4  1  1  0     0  0
  5  2  1  0     0  0
  6  4  2  0     0  0
  7  9  1  0     0  0
  8 19  1  0     0  0
  9  1  2  0     0  0
 10  5  1  0     0  0
 11  8  1  0     0  0
 12 11  1  0     0  0
 13 31  1  0     0  0
 14 12  2  0     0  0
 15  3  1  0     0  0
 16 11  2  0     0  0
 17  3  2  0     0  0
 18 24  1  0     0  0
 19 25  1  0     0  0
 20 10  2  0     0  0
 21  4  1  0     0  0
 22 26  2  0     0  0
 23 10  1  0     0  0
 24 13  1  0     0  0
 25 13  1  0     0  0
 26 16  1  0     0  0
 27  5  2  0     0  0
 28 12  1  0     0  0
 29  6  1  0     0  0
 30 22  1  0     0  0
 31 32  1  0     0  0
 32 34  1  0     0  0
 33 29  2  0     0  0
 34 21  1  0     0  0
 35 15  1  0     0  0
 36 15  1  0     0  0
 37 28  1  0     0  0
  2  6  1  0     0  0
 27 33  1  0     0  0
  8 18  1  0     0  0
 22 14  1  0     0  0
M  END