
  SciTegic06051315212D

 14 15  0  0  0  0            999 V2000
   23.5497   -4.7036    0.0000 C   0  0
   24.2594   -4.2942    0.0000 C   0  0
   24.2565   -3.4715    0.0000 C   0  0
   23.5479   -3.0662    0.0000 C   0  0
   22.8416   -4.2946    0.0000 C   0  0
   22.8383   -3.4781    0.0000 C   0  0
   22.0608   -3.2289    0.0000 N   0  0
   21.5835   -3.8915    0.0000 C   0  0
   22.0661   -4.5500    0.0000 N   0  0
   24.9627   -3.0602    0.0000 N   0  0
   20.7663   -3.8948    0.0000 O   0  0
   21.8168   -5.3282    0.0000 C   0  0
   21.8051   -2.4527    0.0000 C   0  0
   24.9677   -4.7016    0.0000 C   0  0
  5  1  1  0
  1  2  2  0
  2  3  1  0
  3  4  2  0
  4  6  1  0
  5  6  2  0
  6  7  1  0
  7  8  1  0
  8  9  1  0
  9  5  1  0
  3 10  1  0
  8 11  2  0
  9 12  1  0
  7 13  1  0
  2 14  1  0
M  END