
  SciTegic01161211232D

 34 36  0  0  0  0            999 V2000
    4.9958   -9.9583    0.0000 Cl  0  0
   -1.0764   -8.9791    0.0000 C   0  0
   -1.0776   -9.8065    0.0000 C   0  0
   -0.3628  -10.2194    0.0000 C   0  0
   -0.3646   -8.5664    0.0000 C   0  0
    0.3508   -8.9755    0.0000 C   0  0
    0.3496   -9.8040    0.0000 C   0  0
    1.0626  -10.2169    0.0000 O   0  0
    1.0649   -8.5600    0.0000 C   0  0
    1.0654   -7.7392    0.0000 C   0  0
    1.7815   -7.3273    0.0000 C   0  0
    1.7819   -6.5030    0.0000 C   0  0
    1.0669   -6.0897    0.0000 C   0  0
    0.3501   -6.5066    0.0000 C   0  0
    0.3532   -7.3295    0.0000 C   0  0
    1.7824   -8.9775    0.0000 C   0  0
    1.7808   -9.8023    0.0000 C   0  0
    2.4931  -10.2144    0.0000 C   0  0
    3.2076   -9.8028    0.0000 C   0  0
    3.2053   -8.9748    0.0000 C   0  0
    2.4924   -8.5665    0.0000 C   0  0
    3.9185   -8.5601    0.0000 C   0  0
    3.9225  -10.2146    0.0000 N   0  0
    3.9232  -11.0396    0.0000 C   0  0
    4.6381  -11.4515    0.0000 C   0  0
   -1.7924  -10.2184    0.0000 N   0  0
   -2.5065   -9.8054    0.0000 C   0  0
   -3.2213  -10.2173    0.0000 C   0  0
   -1.7910   -8.5668    0.0000 C   0  0
    2.4956   -7.7405    0.0000 C   0  0
    2.2480   -8.3020    0.0000 O   0  0
    3.3206   -7.7456    0.0000 O   0  0
    3.7374   -7.0337    0.0000 C   0  0
    4.5624   -7.0387    0.0000 C   0  0
  3  4  1  0
  4  7  2  0
 16 17  1  0
  6  9  1  0
 17 18  2  0
  7  8  1  0
 18 19  1  0
  8 17  1  0
 19 20  1  0
 16  9  2  0
 20 21  2  0
 21 16  1  0
 20 22  1  0
  6  5  2  0
 19 23  2  0
 10 11  2  0
 23 24  1  0
  5  2  1  0
 24 25  1  0
 11 12  1  0
  3 26  1  0
  6  7  1  0
 26 27  1  0
 12 13  2  0
 27 28  1  0
  2  3  2  0
  2 29  1  0
 13 14  1  0
 11 30  1  0
 30 31  2  0
 14 15  2  0
 30 32  1  0
 15 10  1  0
 32 33  1  0
  9 10  1  0
 33 34  1  0
M  END