
  SciTegic02271514512D

 23 25  0  0  0  0            999 V2000
    2.5919   -6.0835    0.0000 C   0  0
    2.5919   -6.9007    0.0000 C   0  0
    3.2972   -7.3052    0.0000 C   0  0
    4.0025   -6.9007    0.0000 C   0  0
    4.0025   -6.0835    0.0000 C   0  0
    3.2972   -5.6708    0.0000 C   0  0
    1.8857   -7.3108    0.0000 C   0  0
    1.1771   -6.9015    0.0000 C   0  0
    0.4705   -7.3105    0.0000 C   0  0
    0.4713   -8.1286    0.0000 C   0  0
    1.1845   -8.5360    0.0000 C   0  0
    1.8882   -8.1247    0.0000 C   0  0
    3.2972   -4.8536    0.0000 O   0  0
    4.7114   -5.6770    0.0000 S   0  0
    5.4179   -6.0877    0.0000 C   0  0
    4.7096   -7.3103    0.0000 O   0  0
    5.4139   -6.9059    0.0000 C   0  0
    6.1196   -7.3165    0.0000 C   0  0
    6.8295   -6.9099    0.0000 C   0  0
    6.8292   -6.0885    0.0000 C   0  0
    6.1230   -5.6816    0.0000 C   0  0
    6.1230   -4.8644    0.0000 Cl  0  0
   -0.2434   -8.5391    0.0000 Cl  0  0
  1  2  1  0
  1  6  1  0
  2  3  1  0
  3  4  1  0
  4  5  1  0
  5  6  2  0
  7  8  2  0
  8  9  1  0
  9 10  2  0
 10 11  1  0
 11 12  2  0
 12  7  1  0
  2  7  1  0
  6 13  1  0
  5 14  1  0
 14 15  1  0
  4 16  2  0
 15 17  2  0
 17 18  1  0
 18 19  2  0
 19 20  1  0
 20 21  2  0
 21 15  1  0
 21 22  1  0
 10 23  1  0
M  END