
  SciTegic04091414152D

 33 37  0  0  0  0            999 V2000
   15.9971   -7.1187    0.0000 C   0  0
   15.3785   -7.6506    0.0000 C   0  0  2  0  0  0
   15.5322   -8.4496    0.0000 C   0  0
   16.3177   -8.6939    0.0000 N   0  3
   16.9224   -8.1837    0.0000 C   0  0
   16.7691   -7.3784    0.0000 C   0  0
   15.6052   -7.8335    0.0000 C   0  0
   16.4011   -8.0177    0.0000 C   0  0
   14.6068   -7.3818    0.0000 O   0  0
   13.1992   -7.2111    0.0000 C   0  0
   12.6590   -7.8290    0.0000 C   0  0
   13.8583   -7.7042    0.0000 C   0  0
   12.4456   -6.8897    0.0000 C   0  0
   12.2191   -6.1033    0.0000 C   0  0
   12.6963   -5.4366    0.0000 C   0  0
   13.5103   -5.4026    0.0000 C   0  0
   14.0527   -6.0138    0.0000 C   0  0
   13.9135   -6.8214    0.0000 C   0  0
   11.8453   -7.7590    0.0000 C   0  0
   11.5227   -8.5134    0.0000 C   0  0
   12.1406   -9.0534    0.0000 C   0  0
   12.8449   -8.6326    0.0000 C   0  0
   13.7614   -8.5156    0.0000 O   0  0
   16.3730   -9.5092    0.0000 C   0  0
   17.1068   -9.8689    0.0000 C   0  0
   17.1622  -10.6842    0.0000 O   0  0
   17.7852   -9.4133    0.0000 N   0  0
   18.5190   -9.7730    0.0000 C   0  0
   18.6634  -10.5771    0.0000 C   0  0
   19.4724  -10.6925    0.0000 C   0  0
   19.8321   -9.9587    0.0000 O   0  0
   19.2453   -9.3899    0.0000 N   0  0
   19.8546  -11.4148    0.0000 C   0  0
  1  2  1  0
  1  6  1  0
  2  3  1  0
  3  4  1  0
  4  5  1  0
  5  6  1  0
  1  7  1  0
  4  8  1  0
  7  8  1  0
  2  9  1  6
 11 10  1  0
 10 12  1  0
 13 14  1  0
 14 15  1  0
 15 16  1  0
 13 10  1  0
 16 17  1  0
 10 18  1  0
 17 18  1  0
 11 19  2  0
 19 20  1  0
 20 21  2  0
 21 22  1  0
 22 11  1  0
 12 23  2  0
 12  9  1  0
  4 24  1  0
 24 25  1  0
 25 26  2  0
 25 27  1  0
 27 28  1  0
 28 29  1  0
 29 30  2  0
 30 31  1  0
 31 32  1  0
 32 28  2  0
 30 33  1  0
M  CHG  1   4   1
M  END