
  SciTegic10041218142D

 25 28  0  0  1  0            999 V2000
   10.8258   -4.0235    0.0000 O   0  0
    5.5129   -5.9070    0.0000 O   0  0
    5.5194   -7.5551    0.0000 O   0  0
    9.0828   -6.3050    0.0000 C   0  0  1  0  0  0
    9.7948   -5.8901    0.0000 C   0  0  1  0  0  0
    8.3675   -5.8957    0.0000 C   0  0  1  0  0  0
    9.7915   -5.0660    0.0000 C   0  0  1  0  0  0
    7.6555   -6.3106    0.0000 C   0  0
   10.5743   -4.8082    0.0000 C   0  0  2  0  0  0
    8.3643   -5.0716    0.0000 C   0  0
   10.5796   -6.1416    0.0000 C   0  0
    9.0763   -4.6568    0.0000 C   0  0
    9.0860   -7.1290    0.0000 C   0  0
    7.6588   -7.1346    0.0000 C   0  0
   11.0613   -5.4730    0.0000 C   0  0
    8.3740   -7.5438    0.0000 C   0  0
    9.8745   -4.2462    0.0000 C   0  0
    6.9402   -5.9013    0.0000 C   0  0
    6.9467   -7.5494    0.0000 C   0  0
    6.2281   -6.3162    0.0000 C   0  0
    6.2314   -7.1402    0.0000 C   0  0
    4.8009   -6.3218    0.0000 C   0  0
    8.3667   -6.7167    0.0000 H   0  0
    9.0792   -5.4792    0.0000 H   0  0
    9.7917   -6.7208    0.0000 H   0  0
  9  1  1  1
  2 20  1  0
  2 22  1  0
  3 21  1  0
  4  5  1  0
  4  6  1  0
  4 13  1  0
  5  7  1  0
  5 11  1  0
  6  8  1  0
  6 10  1  0
  7  9  1  0
  7 12  1  0
  7 17  1  1
  8 14  2  0
  8 18  1  0
  9 15  1  0
 10 12  1  0
 11 15  1  0
 13 16  1  0
 14 16  1  0
 14 19  1  0
 18 20  2  0
 19 21  2  0
 20 21  1  0
  6 23  1  6
  4 24  1  1
  5 25  1  6
M  END