
  CDK    9/16/09,10:4

 34 37  0  0  0  0  0  0  0  0999 V2000
   14.4454  -11.3704    0.0000 C   0  0  0  0  0  0  0  0  0  0  0  0
   15.2748  -11.3515    0.0000 C   0  0  0  0  0  0  0  0  0  0  0  0
   15.6708  -10.6277    0.0000 C   0  0  0  0  0  0  0  0  0  0  0  0
   15.2420   -9.9183    0.0000 C   0  0  0  0  0  0  0  0  0  0  0  0
   14.4127   -9.9372    0.0000 C   0  0  0  0  0  0  0  0  0  0  0  0
   14.0121  -10.6656    0.0000 N   0  0  0  0  0  0  0  0  0  0  0  0
   14.6476  -10.9898    0.0000 C   0  0  0  0  0  0  0  0  0  0  0  0
   14.9710  -10.2947    0.0000 C   0  0  0  0  0  0  0  0  0  0  0  0
   13.1876  -10.6930    0.0000 C   0  0  0  0  0  0  0  0  0  0  0  0
   16.4958  -10.6176    0.0000 C   0  0  0  0  0  0  0  0  0  0  0  0
   17.3206  -10.6033    0.0000 C   0  0  0  0  0  0  0  0  0  0  0  0
   16.5080  -11.4424    0.0000 O   0  0  0  0  0  0  0  0  0  0  0  0
   16.4836   -9.7927    0.0000 C   0  0  0  0  0  0  0  0  0  0  0  0
   17.1926   -9.3724    0.0000 C   0  0  0  0  0  0  0  0  0  0  0  0
   17.1808   -8.5483    0.0000 C   0  0  0  0  0  0  0  0  0  0  0  0
   16.4598   -8.1456    0.0000 C   0  0  0  0  0  0  0  0  0  0  0  0
   15.7492   -8.5730    0.0000 C   0  0  0  0  0  0  0  0  0  0  0  0
   15.7645   -9.3957    0.0000 C   0  0  0  0  0  0  0  0  0  0  0  0
   17.7436  -11.3129    0.0000 C   0  0  0  0  0  0  0  0  0  0  0  0
   18.5677  -11.2990    0.0000 C   0  0  0  0  0  0  0  0  0  0  0  0
   18.9686  -10.5770    0.0000 C   0  0  0  0  0  0  0  0  0  0  0  0
   18.5394   -9.8675    0.0000 C   0  0  0  0  0  0  0  0  0  0  0  0
   17.7167   -9.8849    0.0000 C   0  0  0  0  0  0  0  0  0  0  0  0
   12.7515   -9.9927    0.0000 C   0  0  0  0  0  0  0  0  0  0  0  0
   11.9270  -10.0202    0.0000 O   0  0  0  0  0  0  0  0  0  0  0  0
   11.4910   -9.3198    0.0000 C   0  0  0  0  0  0  0  0  0  0  0  0
   10.6664   -9.3473    0.0000 C   0  0  0  0  0  0  0  0  0  0  0  0
   10.2340   -8.6456    0.0000 C   0  0  0  0  0  0  0  0  0  0  0  0
    9.4102   -8.6727    0.0000 C   0  0  0  0  0  0  0  0  0  0  0  0
    9.0209   -9.4010    0.0000 C   0  0  0  0  0  0  0  0  0  0  0  0
    9.4615  -10.1035    0.0000 C   0  0  0  0  0  0  0  0  0  0  0  0
   10.2838  -10.0730    0.0000 C   0  0  0  0  0  0  0  0  0  0  0  0
   10.7229  -10.7713    0.0000 C   0  0  0  0  0  0  0  0  0  0  0  0
   12.9707   -7.0720    0.0000 Br  0  0  0  0  0  0  0  0  0  0  0  0
 15 16  2  0  0  0  0 
 16 17  1  0  0  0  0 
  7  8  1  0  0  0  0 
 17 18  2  0  0  0  0 
 18 13  1  0  0  0  0 
  3  8  1  0  0  0  0 
 11 19  2  0  0  0  0 
  1  2  1  0  0  0  0 
 19 20  1  0  0  0  0 
  6  9  1  0  0  0  0 
 20 21  2  0  0  0  0 
  1  6  1  0  0  0  0 
 21 22  1  0  0  0  0 
  3 10  1  0  0  0  0 
 22 23  2  0  0  0  0 
 23 11  1  0  0  0  0 
  2  3  1  0  0  0  0 
  9 24  1  0  0  0  0 
 10 11  1  0  0  0  0 
 24 25  1  0  0  0  0 
  3  4  1  0  0  0  0 
 25 26  1  0  0  0  0 
 10 12  1  0  0  0  0 
 26 27  1  0  0  0  0 
  4  5  1  0  0  0  0 
 27 28  2  0  0  0  0 
 10 13  1  0  0  0  0 
 28 29  1  0  0  0  0 
  5  6  1  0  0  0  0 
 29 30  2  0  0  0  0 
 13 14  2  0  0  0  0 
 30 31  1  0  0  0  0 
 31 32  2  0  0  0  0 
 32 27  1  0  0  0  0 
 14 15  1  0  0  0  0 
 32 33  1  0  0  0  0 
  6  7  1  0  0  0  0 
M  CHG  1   6   1
M  CHG  1  34  -1
M  END