
  SciTegic10301317112D

 29 29  0  0  0  0            999 V2000
   -0.3083   -1.4667    0.0000 S   0  0
    8.5000   -3.3875    0.0000 C   0  0
    8.0917   -4.1042    0.0000 C   0  0  1  0  0  0
    2.9875   -1.4542    0.0000 C   0  0
    8.5042   -4.8167    0.0000 C   0  0
    7.2667   -4.1125    0.0000 N   0  0
    0.5167   -1.4667    0.0000 C   0  0
    9.3250   -3.3792    0.0000 C   0  0
    6.7792   -3.4417    0.0000 C   0  0
    3.4042   -2.1667    0.0000 N   0  0
   -0.3083   -2.2917    0.0000 O   0  0
   -0.3083   -0.6417    0.0000 O   0  0
    4.6417   -2.8667    0.0000 C   0  0
    2.1625   -1.4542    0.0000 C   0  0
   -1.1333   -1.4625    0.0000 N   0  0
    5.4667   -2.8667    0.0000 N   0  0
    3.3917   -0.7375    0.0000 O   0  0
    8.1000   -5.5292    0.0000 O   0  0
    9.7417   -4.0917    0.0000 O   0  0
    7.1125   -2.6917    0.0000 O   0  0
    4.2375   -3.5875    0.0000 O   0  0
    0.9167   -0.7542    0.0000 C   0  0
    0.9292   -2.1792    0.0000 C   0  0
    1.7542   -2.1750    0.0000 C   0  0
    1.7417   -0.7417    0.0000 C   0  0
    4.2292   -2.1542    0.0000 C   0  0
    5.9542   -3.5292    0.0000 C   0  0
    9.7292   -2.6667    0.0000 N   0  0
    9.3292   -4.8125    0.0000 O   0  0
  3  2  1  1
  3  6  1  0
  4 14  1  0
  5  3  1  0
  6  9  1  0
  7  1  1  0
  8  2  1  0
  9 27  1  0
 10  4  1  0
 11  1  2  0
 12  1  2  0
 13 26  1  0
 14 24  2  0
 15  1  1  0
 16 13  1  0
 17  4  2  0
 18  5  2  0
 19  8  2  0
 20  9  2  0
 21 13  2  0
 22  7  1  0
 23  7  2  0
 24 23  1  0
 25 22  2  0
 26 10  1  0
 27 16  1  0
 28  8  1  0
 29  5  1  0
 14 25  1  0
M  END