
  SciTegic04151115542D

 21 22  0  0  0  0            999 V2000
    6.2319  -14.7625    0.0000 C   0  0
    6.2307  -15.5898    0.0000 C   0  0
    6.9456  -16.0027    0.0000 C   0  0
    7.6620  -15.5894    0.0000 C   0  0
    7.6591  -14.7588    0.0000 C   0  0
    6.9438  -14.3497    0.0000 C   0  0
    6.9454  -16.8277    0.0000 F   0  0
    5.5159  -16.0018    0.0000 Cl  0  0
    8.3721  -14.3436    0.0000 N   0  0
    9.0881  -14.7534    0.0000 C   0  0
    9.8010  -14.3383    0.0000 C   0  0
    9.0912  -15.5784    0.0000 O   0  0
   10.5170  -14.7481    0.0000 N   0  0
    9.7979  -13.5133    0.0000 O   0  0
   11.2299  -14.3329    0.0000 C   0  0
   11.9459  -14.7427    0.0000 C   0  0
   11.9470  -15.5675    0.0000 C   0  0
   12.6589  -15.9773    0.0000 C   0  0
   13.3742  -15.5656    0.0000 N   0  0
   13.3731  -14.7396    0.0000 C   0  0
   12.6566  -14.3253    0.0000 C   0  0
  2  3  1  0
 10 11  1  0
  5  6  2  0
 10 12  2  0
  6  1  1  0
 11 13  1  0
  1  2  2  0
 11 14  2  0
  3  7  1  0
 13 15  1  0
 15 16  1  0
  3  4  2  0
 16 17  1  0
  2  8  1  0
  5  9  1  0
  4  5  1  0
  9 10  1  0
 16 21  1  0
 17 18  1  0
 18 19  1  0
 19 20  1  0
 20 21  1  0
M  END