
  SciTegic11201309402D

118124  0  0  0  0            999 V2000
    0.6929   -1.8651    0.0000 C   0  0  1  0  0  0
    0.6953   -2.7006    0.0000 C   0  0
    1.4058   -3.1316    0.0000 N   0  0
    2.1396   -2.7103    0.0000 C   0  0
    3.5906   -2.7309    0.0000 N   0  0
    2.8635   -3.1410    0.0000 C   0  0
    2.1569    0.5488    0.0000 C   0  0
    5.0337   -2.7297    0.0000 C   0  0
    4.2974   -3.1570    0.0000 C   0  0  2  0  0  0
    0.7388    0.5638    0.0000 S   0  0
    1.4495    0.9648    0.0000 S   0  0
   -0.0023   -1.4880    0.0000 N   0  0
    5.7461   -3.1429    0.0000 N   0  0
    6.4619   -2.7281    0.0000 C   0  0  2  0  0  0
    7.1744   -3.1413    0.0000 C   0  0
    7.8858   -2.7307    0.0000 N   0  0
    8.6025   -3.1439    0.0000 C   0  0  1  0  0  0
    9.3145    0.5701    0.0000 C   0  0
    8.5979    0.9790    0.0000 N   0  0
    7.8864    0.5684    0.0000 C   0  0  2  0  0  0
    7.1697    0.9773    0.0000 C   0  0
    6.4583    0.5668    0.0000 C   0  0
    4.3134    0.9742    0.0000 C   0  0
    3.6019    0.5636    0.0000 N   0  0
    2.8895    0.9768    0.0000 C   0  0  2  0  0  0
    2.8838    1.8005    0.0000 C   0  0
    3.5971    2.2152    0.0000 O   0  0
    4.3125    1.7979    0.0000 O   0  0
    5.7472    0.9763    0.0000 N   0  0
    5.0329    0.5703    0.0000 C   0  0  1  0  0  0
    5.1981   -0.2340    0.0000 C   0  0
    6.0130   -0.3263    0.0000 C   0  0
    6.3532    0.4218    0.0000 C   0  0
    6.8616   -0.1442    0.0000 O   0  0
    7.1687    1.8011    0.0000 O   0  0
    7.1753   -3.9692    0.0000 O   0  0
    7.8761    1.3927    0.0000 C   0  0
    8.5872    1.8070    0.0000 C   0  0
    9.3053    1.4011    0.0000 C   0  0
   10.0155    1.8186    0.0000 C   0  0
   10.0103    2.6437    0.0000 C   0  0
    9.2898    3.0527    0.0000 C   0  0
    8.5755    2.6316    0.0000 C   0  0
    6.4542   -3.5540    0.0000 C   0  0
    5.0328   -1.9059    0.0000 O   0  0
    6.0379   -4.2671    0.0000 C   0  0
    5.2120   -4.2598    0.0000 C   0  0
    4.7959   -4.9717    0.0000 C   0  0
    5.2041   -5.6893    0.0000 C   0  0
    6.0350   -5.6924    0.0000 C   0  0
    6.4496   -4.9795    0.0000 C   0  0
    4.2909   -3.9807    0.0000 C   0  0
    3.5736   -4.3853    0.0000 C   0  0
    2.8224   -4.0492    0.0000 N   0  0
    2.2692   -4.6563    0.0000 C   0  0
    3.4802   -5.2074    0.0000 C   0  0
    2.2748   -3.7187    0.0000 O   0  0
   -0.0228   -3.1082    0.0000 O   0  0
    1.4006   -1.4451    0.0000 C   0  0  2  0  0  0
    2.1208   -1.8445    0.0000 O   0  0
    1.3923   -0.6215    0.0000 C   0  0
   -0.7089   -1.9198    0.0000 C   0  0
   -1.4339   -1.5282    0.0000 C   0  0  2  0  0  0
   -0.6861   -2.7429    0.0000 O   0  0
   -1.4405   -0.7034    0.0000 C   0  0
   -2.1383   -1.9537    0.0000 N   0  0
   -2.1236   -2.7772    0.0000 C   0  0
   -2.8280   -3.2026    0.0000 C   0  0  2  0  0  0
   -1.4002   -3.1753    0.0000 O   0  0
   -3.5471   -2.8004    0.0000 C   0  0
   -3.5661   -1.9768    0.0000 C   0  0
   -2.8559   -1.5567    0.0000 C   0  0
   -2.8743   -0.7344    0.0000 C   0  0
   -3.5943   -0.3308    0.0000 C   0  0
   -4.3022   -0.7632    0.0000 C   0  0
   -4.2826   -1.5876    0.0000 C   0  0
   -3.5225   -4.4488    0.0000 C   0  0
   -3.5078   -5.2765    0.0000 C   0  0  2  0  0  0
   -4.2459   -4.0550    0.0000 O   0  0
   -2.7888   -5.6746    0.0000 C   0  0
   -2.7740   -6.4981    0.0000 C   0  0
   -2.0506   -6.8962    0.0000 C   0  0
   -1.3160   -8.1239    0.0000 C   0  0
   -0.6116   -7.6984    0.0000 N   0  0
    2.8911   -0.0232    0.0000 H   0  0
    4.2254   -0.0196    0.0000 H   0  0
    0.6736   -0.8653    0.0000 H   0  0
   -1.4098   -2.5279    0.0000 H   0  0
   -4.9343   -5.2991    0.0000 C   0  0
   -5.6557   -5.7322    0.0000 C   0  0
   -4.9465   -4.4585    0.0000 O   0  0
   -1.6639    0.1156    0.0000 C   0  0
   -2.2828   -0.6996    0.0000 C   0  0
    8.5991   -3.9689    0.0000 C   0  0
    9.3116   -4.3820    0.0000 C   0  0
   10.0302   -3.9715    0.0000 C   0  0
   10.0317   -3.1433    0.0000 N   0  0
    9.3146   -2.7256    0.0000 C   0  0
    9.3131   -1.8805    0.0000 O   0  0
   10.7647   -2.7228    0.0000 C   0  0
   10.7671   -1.8778    0.0000 C   0  0
   11.5002   -1.4573    0.0000 O   0  0
   10.0364   -1.4532    0.0000 N   0  0
   10.0388   -0.6081    0.0000 C   0  0  1  0  0  0
    9.3007   -1.0283    0.0000 C   0  0
   10.8523   -0.3793    0.0000 C   0  0
   11.0609    0.4397    0.0000 C   0  0
   11.8744    0.6685    0.0000 C   0  0
   10.4560    1.0298    0.0000 C   0  0
    9.9110    1.1740    0.0000 O   0  0
   10.7205    3.0623    0.0000 O   0  0
    2.6726   -5.3759    0.0000 N   0  0
    2.1690    2.2096    0.0000 N   0  0
   -2.8132   -4.0275    0.0000 N   0  0
   -4.2145   -5.7023    0.0000 N   0  0
   -2.0360   -7.7211    0.0000 N   0  0
   -1.3013   -8.9473    0.0000 N   0  0
    7.7356   -3.6424    0.0000 H   0  0
 30 31  1  0
 31 32  1  0
 32 33  1  0
 33 29  1  0
 22 34  2  0
 21 35  2  0
 15 36  2  0
 20 37  1  1
 37 38  1  0
 38 39  2  0
 39 40  1  0
 40 41  2  0
 41 42  1  0
 42 43  2  0
 43 38  1  0
 14 44  1  1
  8 45  2  0
 44 46  1  0
 46 47  2  0
 47 48  1  0
 48 49  2  0
 49 50  1  0
 50 51  2  0
 51 46  1  0
  9 52  1  6
 52 53  1  0
 53 54  1  0
 54 55  2  0
 56 53  2  0
  6 57  2  0
  2 58  2  0
  1 59  1  0
 59 60  1  1
 59 61  1  0
 12 62  1  0
 62 63  1  0
 62 64  2  0
 63 65  1  0
 65 10  1  0
 63 66  1  0
 66 67  1  0
 67 68  1  0
 67 69  2  0
 68 70  1  1
 70 71  1  0
 71 72  2  0
 72 73  1  0
 73 74  2  0
 74 75  1  0
 75 76  2  0
 76 71  1  0
 77 78  1  0
 77 79  2  0
 78 80  1  6
 80 81  1  0
 81 82  1  0
 83 84  2  0
 25 85  1  6
 30 86  1  6
  1 87  1  6
 63 88  1  6
  1  2  1  0
 89 90  1  0
  2  3  1  0
 89 91  2  0
  3  4  1  0
 65 92  1  0
  5  6  1  0
 65 93  1  0
 17 94  1  0
  6  4  1  0
  7 25  1  0
  5  9  1  0
  9  8  1  0
  7 11  1  0
 17 98  1  0
 94 95  1  0
 95 96  1  0
 96 97  1  0
 97 98  1  0
 10 11  1  0
 98 99  2  0
 12  1  1  0
 97100  1  0
  8 13  1  0
100101  1  0
 13 14  1  0
101102  2  0
 14 15  1  0
101103  1  0
 15 16  1  0
103104  1  0
 17 16  1  0
103105  1  0
 18104  1  0
 18 19  1  0
104106  1  6
 19 20  1  0
106107  1  0
 20 21  1  0
107108  1  0
 21 22  1  0
107109  1  0
 22 29  1  0
 18110  2  0
 30 23  1  0
 23 24  1  0
 24 25  1  0
 25 26  1  0
 26 27  2  0
 23 28  2  0
 29 30  1  0
 68114  1  0
114 77  1  0
 55112  1  0
112 56  1  0
 78115  1  0
115 89  1  0
 41111  1  0
 82116  1  0
116 83  1  0
 26113  1  0
 83117  1  0
 17118  1  1
M  END