
          08180812472D 1   1.00000     0.00000     0

 24 27  0     1  0            999 V2000
   -4.4751  -17.1154    0.0000 C   0  0  0  0  0  0           0  0  0
   -4.4751  -16.2903    0.0000 C   0  0  0  0  0  0           0  0  0
   -3.7609  -15.8778    0.0000 C   0  0  0  0  0  0           0  0  0
   -5.1893  -17.5279    0.0000 O   0  0  0  0  0  0           0  0  0
   -3.7609  -17.5279    0.0000 C   0  0  0  0  0  0           0  0  0
   -3.0468  -17.1154    0.0000 C   0  0  0  0  0  0           0  0  0
   -2.3326  -17.5279    0.0000 C   0  0  0  0  0  0           0  0  0
   -1.6138  -17.1154    0.0000 C   0  0  2  0  0  0           0  0  0
   -1.6138  -16.2903    0.0000 C   0  0  1  0  0  0           0  0  0
   -0.8996  -15.8778    0.0000 C   0  0  0  0  0  0           0  0  0
   -0.1190  -16.1376    0.0000 C   0  0  0  0  0  0           0  0  0
    0.3684  -15.4652    0.0000 C   0  0  0  0  0  0           0  0  0
   -0.1190  -14.8019    0.0000 C   0  0  2  0  0  0           0  0  0
    0.1409  -14.0167    0.0000 O   0  0  0  0  0  0           0  0  0
   -0.8996  -15.0527    0.0000 C   0  0  2  0  0  0           0  0  0
   -0.8996  -14.2277    0.0000 C   0  0  0  0  0  0           0  0  0
   -1.6138  -14.6402    0.0000 C   0  0  0  0  0  0           0  0  0
   -2.3326  -15.0527    0.0000 C   0  0  0  0  0  0           0  0  0
   -2.3326  -15.8778    0.0000 C   0  0  2  0  0  0           0  0  0
   -3.0468  -16.2903    0.0000 C   0  0  1  0  0  0           0  0  0
   -2.3326  -16.7028    0.0000 H   0  0  0  0  0  0           0  0  0
   -1.6138  -15.4652    0.0000 H   0  0  0  0  0  0           0  0  0
   -0.8999  -17.5288    0.0000 C   0  0  0  0  0  0           0  0  0
   -3.0468  -15.4653    0.0000 H   0  0  0  0  0  0           0  0  0
  1  2  1  0     0  0
  2  3  1  0     0  0
  1  4  2  0     0  0
  1  5  1  0     0  0
  5  6  2  0     0  0
  6  7  1  0     0  0
  7  8  1  0     0  0
  8  9  1  0     0  0
  9 10  1  0     0  0
 10 11  2  0     0  0
 11 12  1  0     0  0
 12 13  1  0     0  0
 13 14  1  1     0  0
 13 15  1  0     0  0
 10 15  1  0     0  0
 15 16  1  1     0  0
 15 17  1  0     0  0
 17 18  1  0     0  0
 18 19  1  0     0  0
  9 19  1  0     0  0
 19 20  1  0     0  0
  3 20  1  0     0  0
  6 20  1  0     0  0
 20 24  1  1     0  0
 19 21  1  6     0  0
  9 22  1  1     0  0
  8 23  1  6     0  0
M  END