
          11280714522D 1   1.00000     0.00000     0

 58 63  0     1  0            999 V2000
    6.1542   -1.0250    0.0000 N   0  0  0  0  0  0           0  0  0
    6.5167   -0.2667    0.0000 C   0  0  2  0  0  0           0  0  0
    5.3417    0.6625    0.0000 N   0  0  3  0  0  0           0  0  0
    6.1542    0.4833    0.0000 C   0  0  0  0  0  0           0  0  0
    5.3417   -1.2125    0.0000 C   0  0  0  0  0  0           0  0  0
    4.6917   -0.6917    0.0000 C   0  0  0  0  0  0           0  0  0
    7.3417   -0.2667    0.0000 N   0  0  0  0  0  0           0  0  0
    4.6917    0.1375    0.0000 C   0  0  0  0  0  0           0  0  0
    7.7542   -0.9792    0.0000 C   0  0  0  0  0  0           0  0  0
    8.5792   -0.9792    0.0000 N   0  0  0  0  0  0           0  0  0
    2.2292  -13.7042    0.0000 N   0  0  3  0  0  0           0  0  0
    7.7542   -3.8292    0.0000 C   0  0  0  0  0  0           0  0  0
    6.6667    1.1333    0.0000 O   0  0  0  0  0  0           0  0  0
    6.9792   -8.3750    0.0000 C   0  0  0  0  0  0           0  0  0
    5.1625   -2.0167    0.0000 C   0  0  0  0  0  0           0  0  0
    7.3417   -1.6917    0.0000 O   0  0  0  0  0  0           0  0  0
    8.9917   -1.6917    0.0000 C   0  0  0  0  0  0           0  0  0
    7.3417   -3.1167    0.0000 O   0  0  0  0  0  0           0  0  0
    6.3667   -7.8250    0.0000 O   0  0  0  0  0  0           0  0  0
    3.0167  -13.4417    0.0000 C   0  0  0  0  0  0           0  0  0
    3.1792  -12.6292    0.0000 C   0  0  0  0  0  0           0  0  0
    8.9917   -3.1167    0.0000 C   0  0  0  0  0  0           0  0  0
    8.5792   -3.8292    0.0000 C   0  0  0  0  0  0           0  0  0
    7.3417   -4.5500    0.0000 N   0  0  0  0  0  0           0  0  0
    6.8125   -9.1792    0.0000 N   0  0  0  0  0  0           0  0  0
    8.5792   -2.4042    0.0000 C   0  0  0  0  0  0           0  0  0
    5.1542    1.4708    0.0000 C   0  0  0  0  0  0           0  0  0
    3.9625  -12.3750    0.0000 C   0  0  0  0  0  0           0  0  0
    3.9750   -1.1042    0.0000 C   0  0  0  0  0  0           0  0  0
    4.1250  -11.5667    0.0000 C   0  0  0  0  0  0           0  0  0
    3.9750    0.5500    0.0000 C   0  0  0  0  0  0           0  0  0
    5.8625  -10.2417    0.0000 C   0  0  0  0  0  0           0  0  0
    4.9042  -11.3125    0.0000 O   0  0  0  0  0  0           0  0  0
    2.0667  -14.5042    0.0000 C   0  0  0  0  0  0           0  0  0
    1.6167  -13.1542    0.0000 C   0  0  0  0  0  0           0  0  0
   10.2292   -2.3917    0.0000 C   0  0  0  0  0  0           0  0  0
    2.7292  -11.2750    0.0000 C   0  0  0  0  0  0           0  0  0
    7.7625   -8.1167    0.0000 C   0  0  0  0  0  0           0  0  0
    6.0292   -9.4375    0.0000 C   0  0  0  0  0  0           0  0  0
    9.8167   -1.6875    0.0000 C   0  0  0  0  0  0           0  0  0
    2.5625  -12.0792    0.0000 C   0  0  0  0  0  0           0  0  0
    9.8167   -3.1167    0.0000 C   0  0  0  0  0  0           0  0  0
    5.7667   -2.5667    0.0000 C   0  0  0  0  0  0           0  0  0
    4.3750   -2.2542    0.0000 C   0  0  0  0  0  0           0  0  0
    5.0792  -10.5042    0.0000 C   0  0  0  0  0  0           0  0  0
    7.7625   -5.2625    0.0000 C   0  0  0  0  0  0           0  0  0
    3.5125  -11.0167    0.0000 C   0  0  0  0  0  0           0  0  0
    7.3500   -7.4042    0.0000 C   0  0  0  0  0  0           0  0  0
    7.3500   -5.9792    0.0000 C   0  0  0  0  0  0           0  0  0
    3.2625   -0.6917    0.0000 C   0  0  0  0  0  0           0  0  0
    7.7625   -6.6917    0.0000 C   0  0  0  0  0  0           0  0  0
    3.2625    0.1375    0.0000 C   0  0  0  0  0  0           0  0  0
    1.2792  -14.7667    0.0000 C   0  0  0  0  0  0           0  0  0
    0.8375  -13.4042    0.0000 C   0  0  0  0  0  0           0  0  0
    4.1917   -3.0542    0.0000 C   0  0  0  0  0  0           0  0  0
    5.5875   -3.3667    0.0000 C   0  0  0  0  0  0           0  0  0
    4.7917   -3.6167    0.0000 C   0  0  0  0  0  0           0  0  0
    0.6667  -14.2167    0.0000 C   0  0  0  0  0  0           0  0  0
  2  1  1  0     0  0
  3  4  1  0     0  0
  4  2  1  0     0  0
  5  1  2  0     0  0
  6  5  1  0     0  0
  2  7  1  6     0  0
  8  6  1  0     0  0
  9  7  1  0     0  0
 10  9  1  0     0  0
 11 20  1  0     0  0
 12 23  1  0     0  0
 13  4  2  0     0  0
 14 38  1  0     0  0
 15  5  1  0     0  0
 16  9  2  0     0  0
 17 10  1  0     0  0
 18 12  2  0     0  0
 19 14  2  0     0  0
 20 21  1  0     0  0
 21 28  2  0     0  0
 22 26  1  0     0  0
 23 22  1  0     0  0
 24 12  1  0     0  0
 25 14  1  0     0  0
 26 17  2  0     0  0
 27  3  1  0     0  0
 28 30  1  0     0  0
 29  6  2  0     0  0
 30 33  1  0     0  0
 31  8  2  0     0  0
 32 39  1  0     0  0
 33 45  1  0     0  0
 34 11  1  0     0  0
 35 11  1  0     0  0
 36 40  2  0     0  0
 37 47  1  0     0  0
 38 48  1  0     0  0
 39 25  1  0     0  0
 40 17  1  0     0  0
 41 37  2  0     0  0
 42 36  1  0     0  0
 43 15  1  0     0  0
 44 15  2  0     0  0
 45 32  1  0     0  0
 46 24  1  0     0  0
 47 30  2  0     0  0
 48 51  1  0     0  0
 49 46  1  0     0  0
 50 29  1  0     0  0
 51 49  1  0     0  0
 52 50  2  0     0  0
 53 34  1  0     0  0
 54 35  1  0     0  0
 55 44  1  0     0  0
 56 43  2  0     0  0
 57 55  2  0     0  0
 58 54  1  0     0  0
  8  3  1  0     0  0
 57 56  1  0     0  0
 31 52  1  0     0  0
 22 42  2  0     0  0
 21 41  1  0     0  0
 53 58  1  0     0  0
M  END