
  SciTegic05061116452D

 31 34  0  0  0  0            999 V2000
   15.1027   -2.5958    0.0000 C   0  0
   15.1016   -3.4232    0.0000 C   0  0
   15.8164   -3.8360    0.0000 C   0  0
   15.8146   -2.1830    0.0000 C   0  0
   16.5300   -2.5922    0.0000 C   0  0
   16.5307   -3.4190    0.0000 C   0  0
   17.2460   -3.8300    0.0000 N   0  0
   17.9611   -3.4152    0.0000 C   0  0
   17.9563   -2.5852    0.0000 C   0  0
   17.2404   -2.1780    0.0000 N   0  0
   18.6771   -3.8249    0.0000 O   0  0
   18.6804   -4.6499    0.0000 C   0  0
   19.3964   -5.0596    0.0000 C   0  0
   18.6682   -2.1684    0.0000 C   0  0
   19.3852   -2.5765    0.0000 N   0  0
   19.3862   -3.4054    0.0000 C   0  0
   20.0991   -3.8135    0.0000 C   0  0
   20.8135   -3.4001    0.0000 N   0  0
   20.8104   -2.5742    0.0000 C   0  0
   20.0930   -2.1615    0.0000 C   0  0
   18.6632   -1.3434    0.0000 O   0  0
   21.5289   -3.8110    0.0000 C   0  0
   21.5283   -4.6344    0.0000 C   0  0
   22.2429   -5.0452    0.0000 C   0  0
   22.9574   -4.6310    0.0000 C   0  0
   22.9528   -3.8017    0.0000 C   0  0
   22.2377   -3.3947    0.0000 C   0  0
   23.6649   -3.3851    0.0000 C   0  0
   24.3817   -3.7934    0.0000 F   0  0
   23.6600   -2.5601    0.0000 F   0  0
   24.3750   -2.9667    0.0000 F   0  0
 14 15  1  0
 15 16  1  0
  1  2  2  0
  7  8  2  0
  5  4  2  0
  8  9  1  0
  4  1  1  0
 15 20  1  0
 16 17  1  0
 17 18  1  0
 18 19  1  0
 19 20  1  0
  9 10  2  0
 14 21  2  0
 10  5  1  0
 18 22  1  0
 22 23  2  0
  8 11  1  0
 23 24  1  0
  2  3  1  0
 24 25  2  0
 11 12  1  0
 25 26  1  0
  5  6  1  0
 26 27  2  0
 27 22  1  0
 12 13  1  0
 26 28  1  0
  3  6  2  0
 28 29  1  0
  9 14  1  0
 28 30  1  0
  6  7  1  0
 28 31  1  0
M  END