
          11280715122D 1   1.00000     0.00000     0

 30 33  0     0  0            999 V2000
    6.6667   -5.4667    0.0000 C   0  0  0  0  0  0           0  0  0
    6.1417   -6.6917    0.0000 N   0  0  0  0  0  0           0  0  0
    6.8500   -6.2750    0.0000 N   0  0  0  0  0  0           0  0  0
    5.5250   -6.1625    0.0000 N   0  0  0  0  0  0           0  0  0
    5.8542   -5.3917    0.0000 N   0  0  0  0  0  0           0  0  0
    3.6542   -1.1375    0.0000 C   0  0  0  0  0  0           0  0  0
    7.2167   -4.8500    0.0000 C   0  0  0  0  0  0           0  0  0
    4.3667   -1.5500    0.0000 N   0  0  3  0  0  0           0  0  0
    7.2167   -4.0250    0.0000 C   0  0  0  0  0  0           0  0  0
    2.9417   -1.5500    0.0000 N   0  0  0  0  0  0           0  0  0
    6.5042   -3.6125    0.0000 C   0  0  0  0  0  0           0  0  0
    4.3667   -2.3750    0.0000 C   0  0  0  0  0  0           0  0  0
    3.6542   -0.3042    0.0000 C   0  0  0  0  0  0           0  0  0
    6.5042   -2.7792    0.0000 C   0  0  0  0  0  0           0  0  0
    5.7917   -4.0250    0.0000 C   0  0  0  0  0  0           0  0  0
    5.0792   -2.7875    0.0000 C   0  0  0  0  0  0           0  0  0
    5.0792   -3.6125    0.0000 C   0  0  0  0  0  0           0  0  0
    5.7875   -2.3667    0.0000 C   0  0  0  0  0  0           0  0  0
    5.0792   -1.1375    0.0000 C   0  0  0  0  0  0           0  0  0
    7.9292   -5.2625    0.0000 C   0  0  0  0  0  0           0  0  0
    7.9292   -3.6125    0.0000 C   0  0  0  0  0  0           0  0  0
    2.2292   -1.1375    0.0000 C   0  0  0  0  0  0           0  0  0
    4.3792    0.1125    0.0000 C   0  0  0  0  0  0           0  0  0
    2.9417    0.1083    0.0000 C   0  0  0  0  0  0           0  0  0
    5.7875   -1.5500    0.0000 C   0  0  0  0  0  0           0  0  0
    6.4917   -1.1417    0.0000 C   0  0  0  0  0  0           0  0  0
    2.2292   -0.3125    0.0000 C   0  0  0  0  0  0           0  0  0
    8.6417   -4.8500    0.0000 C   0  0  0  0  0  0           0  0  0
    8.6417   -4.0167    0.0000 C   0  0  0  0  0  0           0  0  0
    7.2042   -1.5500    0.0000 C   0  0  0  0  0  0           0  0  0
  2  3  2  0     0  0
  3  1  1  0     0  0
  4  5  1  0     0  0
  5  1  2  0     0  0
  6  8  1  0     0  0
  7  1  1  0     0  0
  8 12  1  0     0  0
  9  7  2  0     0  0
 10  6  2  0     0  0
 11  9  1  0     0  0
 12 16  1  0     0  0
 13  6  1  0     0  0
 14 11  2  0     0  0
 15 11  1  0     0  0
 16 17  1  0     0  0
 17 15  2  0     0  0
 18 14  1  0     0  0
 19  8  1  0     0  0
 20  7  1  0     0  0
 21  9  1  0     0  0
 22 10  1  0     0  0
 23 13  1  0     0  0
 24 13  2  0     0  0
 25 19  1  0     0  0
 26 25  1  0     0  0
 27 24  1  0     0  0
 28 20  2  0     0  0
 29 28  1  0     0  0
 30 26  1  0     0  0
  2  4  1  0     0  0
 21 29  2  0     0  0
 16 18  2  0     0  0
 27 22  2  0     0  0
M  END