
          11280714542D 1   1.00000     0.00000     0

 21 22  0     0  0            999 V2000
   10.2375   -5.7917    0.0000 N   0  0  0  0  0  0           0  0  0
    9.7167   -5.4917    0.0000 C   0  0  0  0  0  0           0  0  0
   10.7542   -5.4917    0.0000 C   0  0  0  0  0  0           0  0  0
    9.2000   -5.8000    0.0000 C   0  0  0  0  0  0           0  0  0
   13.4042   -4.6125    0.0000 N   0  0  3  0  0  0           0  0  0
    9.2000   -6.4042    0.0000 C   0  0  0  0  0  0           0  0  0
    8.6792   -5.5000    0.0000 C   0  0  0  0  0  0           0  0  0
   11.2792   -5.7875    0.0000 O   0  0  0  0  0  0           0  0  0
   10.7542   -4.8917    0.0000 O   0  0  0  0  0  0           0  0  0
    9.7125   -4.8917    0.0000 O   0  0  0  0  0  0           0  0  0
    8.6792   -6.7042    0.0000 C   0  0  0  0  0  0           0  0  0
    8.1625   -5.8000    0.0000 C   0  0  0  0  0  0           0  0  0
    8.1625   -6.4042    0.0000 C   0  0  0  0  0  0           0  0  0
   12.3125   -5.1792    0.0000 C   0  0  0  0  0  0           0  0  0
   12.0292   -4.7792    0.0000 C   0  0  0  0  0  0           0  0  0
   12.8542   -4.9250    0.0000 C   0  0  0  0  0  0           0  0  0
   13.1750   -5.3167    0.0000 C   0  0  0  0  0  0           0  0  0
   11.7917   -5.4875    0.0000 C   0  0  3  0  0  0           0  0  0
    8.6750   -7.3042    0.0000 Cl  0  0  0  0  0  0           0  0  0
    7.6417   -5.5000    0.0000 Cl  0  0  0  0  0  0           0  0  0
   13.7042   -4.0917    0.0000 C   0  0  0  0  0  0           0  0  0
  2  1  1  0     0  0
  3  1  1  0     0  0
  4  2  1  0     0  0
  5 16  1  0     0  0
  6  4  1  0     0  0
  7  4  2  0     0  0
  8  3  1  0     0  0
  9  3  2  0     0  0
 10  2  2  0     0  0
 11  6  2  0     0  0
 12  7  1  0     0  0
 13 12  2  0     0  0
 14 18  1  0     0  0
 15 18  1  0     0  0
 16 15  1  0     0  0
 17 14  1  0     0  0
 18  8  1  0     0  0
 19 11  1  0     0  0
 20 12  1  0     0  0
 21  5  1  0     0  0
  5 17  1  0     0  0
 11 13  1  0     0  0
M  END