
          11280715382D 1   1.00000     0.00000     0

 40 41  0     0  0            999 V2000
   -3.4708    2.2250    0.0000 C   0  0  0  0  0  0           0  0  0
    8.8292   -4.5292    0.0000 C   0  0  0  0  0  0           0  0  0
   -3.7708    1.7083    0.0000 C   0  0  0  0  0  0           0  0  0
    9.1250   -5.0500    0.0000 C   0  0  0  0  0  0           0  0  0
    8.8167   -5.5667    0.0000 Cl  0  0  0  0  0  0           0  0  0
   -3.4750    1.1958    0.0000 Cl  0  0  0  0  0  0           0  0  0
   -2.5708    1.7083    0.0000 N   0  0  0  0  0  0           0  0  0
    7.9292   -4.0042    0.0000 N   0  0  0  0  0  0           0  0  0
    4.6292   -2.4500    0.0000 N   0  0  0  0  0  0           0  0  0
    0.7292    0.1500    0.0000 N   0  0  0  0  0  0           0  0  0
   -2.8708    2.2250    0.0000 C   0  0  0  0  0  0           0  0  0
    8.2292   -4.5292    0.0000 C   0  0  0  0  0  0           0  0  0
   -3.7708    2.7500    0.0000 C   0  0  0  0  0  0           0  0  0
    9.1250   -4.0042    0.0000 C   0  0  0  0  0  0           0  0  0
    9.7250   -5.0500    0.0000 C   0  0  0  0  0  0           0  0  0
   -4.3708    1.7083    0.0000 C   0  0  0  0  0  0           0  0  0
    5.2292   -2.4500    0.0000 C   0  0  0  0  0  0           0  0  0
    7.3292   -4.0042    0.0000 C   0  0  0  0  0  0           0  0  0
   -1.9708    1.7083    0.0000 C   0  0  0  0  0  0           0  0  0
    1.0292   -0.3667    0.0000 C   0  0  0  0  0  0           0  0  0
    4.3292   -1.9292    0.0000 C   0  0  0  0  0  0           0  0  0
    0.1292    0.1500    0.0000 C   0  0  0  0  0  0           0  0  0
   -0.1708    0.6708    0.0000 C   0  0  0  0  0  0           0  0  0
   -1.6708    1.1875    0.0000 C   0  0  0  0  0  0           0  0  0
    1.6292   -0.3667    0.0000 C   0  0  0  0  0  0           0  0  0
    5.5292   -2.9667    0.0000 C   0  0  0  0  0  0           0  0  0
    7.0292   -3.4875    0.0000 C   0  0  0  0  0  0           0  0  0
    3.7292   -1.9292    0.0000 C   0  0  0  0  0  0           0  0  0
    6.1292   -2.9667    0.0000 C   0  0  0  0  0  0           0  0  0
    6.4292   -3.4875    0.0000 C   0  0  0  0  0  0           0  0  0
    3.4292   -1.4042    0.0000 C   0  0  0  0  0  0           0  0  0
   -0.7708    0.6708    0.0000 C   0  0  0  0  0  0           0  0  0
   -1.0708    1.1875    0.0000 C   0  0  0  0  0  0           0  0  0
    1.9292   -0.8917    0.0000 C   0  0  0  0  0  0           0  0  0
    2.5292   -0.8917    0.0000 C   0  0  0  0  0  0           0  0  0
    2.8292   -1.4042    0.0000 C   0  0  0  0  0  0           0  0  0
   -4.3708    2.7500    0.0000 C   0  0  0  0  0  0           0  0  0
    9.7167   -4.0042    0.0000 C   0  0  0  0  0  0           0  0  0
   -4.6708    2.2333    0.0000 C   0  0  0  0  0  0           0  0  0
   10.0167   -4.5292    0.0000 C   0  0  0  0  0  0           0  0  0
  2 12  1  0     0  0
  3  1  1  0     0  0
  4  2  2  0     0  0
  5  4  1  0     0  0
  6  3  1  0     0  0
  7 11  1  0     0  0
  8 18  1  0     0  0
  9 21  1  0     0  0
 10 22  1  0     0  0
 11  1  1  0     0  0
 12  8  1  0     0  0
 13  1  2  0     0  0
 14  2  1  0     0  0
 15  4  1  0     0  0
 16  3  2  0     0  0
 17  9  1  0     0  0
 18 27  1  0     0  0
 19  7  1  0     0  0
 20 10  1  0     0  0
 21 28  1  0     0  0
 22 23  1  0     0  0
 23 32  1  0     0  0
 24 19  1  0     0  0
 25 20  1  0     0  0
 26 17  1  0     0  0
 27 30  1  0     0  0
 28 31  1  0     0  0
 29 26  1  0     0  0
 30 29  1  0     0  0
 31 36  1  0     0  0
 32 33  1  0     0  0
 33 24  1  0     0  0
 34 25  1  0     0  0
 35 34  1  0     0  0
 36 35  1  0     0  0
 37 13  1  0     0  0
 38 14  2  0     0  0
 39 37  2  0     0  0
 40 38  1  0     0  0
 39 16  1  0     0  0
 15 40  2  0     0  0
M  END