
  SciTegic04151115542D

 22 23  0  0  0  0            999 V2000
   15.0361  -14.6416    0.0000 C   0  0
   15.0349  -15.4690    0.0000 C   0  0
   15.7497  -15.8819    0.0000 C   0  0
   16.4662  -15.4685    0.0000 C   0  0
   16.4633  -14.6380    0.0000 C   0  0
   15.7479  -14.2289    0.0000 C   0  0
   15.7495  -16.7069    0.0000 F   0  0
   14.3201  -15.8809    0.0000 Cl  0  0
   17.1762  -14.2228    0.0000 N   0  0
   17.8922  -14.6326    0.0000 C   0  0
   18.6052  -14.2174    0.0000 C   0  0
   17.8954  -15.4576    0.0000 O   0  0
   19.3212  -14.6272    0.0000 N   0  0
   18.6020  -13.3924    0.0000 O   0  0
   20.0341  -14.2120    0.0000 C   0  0
   20.7501  -14.6218    0.0000 C   0  0
   20.7511  -15.4467    0.0000 C   0  0
   21.4630  -15.8564    0.0000 C   0  0
   22.1784  -15.4447    0.0000 N   0  0
   22.1773  -14.6188    0.0000 C   0  0
   21.4608  -14.2045    0.0000 C   0  0
   22.8929  -15.8573    0.0000 C   0  0
 10 11  1  0
  5  6  2  0
 10 12  2  0
  6  1  1  0
 11 13  1  0
  1  2  2  0
 11 14  2  0
  3  7  1  0
 13 15  1  0
 15 16  1  0
  3  4  2  0
 16 17  1  0
  2  8  1  0
  5  9  1  0
  4  5  1  0
  9 10  1  0
 16 21  1  0
 17 18  1  0
 18 19  1  0
 19 20  1  0
 20 21  1  0
  2  3  1  0
 19 22  1  0
M  END