
  SciTegic05221516342D

 34 37  0  0  0  0            999 V2000
   16.1132   -3.2747    0.0000 C   0  0
   16.7987   -3.7300    0.0000 N   0  0
   16.8338   -4.5497    0.0000 C   0  0
   17.6254   -4.7681    0.0000 C   0  0
   18.0765   -4.0826    0.0000 N   0  0
   17.5637   -3.4389    0.0000 C   0  0
   17.7858   -2.6472    0.0000 C   0  0
   18.5810   -2.4422    0.0000 N   0  0
   18.7989   -1.6505    0.0000 O   0  0
   12.5534   -3.6819    0.0000 C   0  0
   11.8422   -3.2681    0.0000 N   0  0
   11.1366   -3.6789    0.0000 C   0  0
   11.1369   -2.0372    0.0000 C   0  0
   11.8480   -2.4451    0.0000 C   0  0
   10.4246   -2.4468    0.0000 C   0  0
   10.4279   -3.2670    0.0000 C   0  0
    9.7199   -3.6802    0.0000 C   0  0
    9.0081   -3.2703    0.0000 C   0  0
    9.0087   -2.4471    0.0000 C   0  0
    9.7173   -2.0417    0.0000 C   0  0
    8.2973   -2.0378    0.0000 O   0  0
    7.5850   -2.4456    0.0000 C   0  0
    8.2968   -3.6839    0.0000 O   0  0
    8.2977   -4.5052    0.0000 C   0  0
   13.2659   -3.2703    0.0000 C   0  0
   13.9771   -3.6841    0.0000 C   0  0
   14.6895   -3.2725    0.0000 C   0  0
   15.4007   -3.6863    0.0000 C   0  0
   11.1367   -4.4926    0.0000 C   0  0
   10.4275   -4.9009    0.0000 C   0  0
   10.4275   -5.7173    0.0000 C   0  0
   11.1359   -6.1265    0.0000 C   0  0
   11.8458   -5.7132    0.0000 C   0  0
   11.8423   -4.8982    0.0000 C   0  0
  1  2  1  0
  2  3  1  0
  3  4  2  0
  4  5  1  0
  5  6  2  0
  6  2  1  0
  6  7  1  0
  7  8  2  0
  8  9  1  0
 10 11  1  0
 11 12  1  0
 11 14  1  0
 12 16  1  0
 15 13  1  0
 13 14  1  0
 15 16  2  0
 16 17  1  0
 17 18  2  0
 18 19  1  0
 19 20  2  0
 20 15  1  0
 19 21  1  0
 21 22  1  0
 18 23  1  0
 23 24  1  0
 10 25  1  0
 25 26  1  0
 26 27  1  0
 27 28  1  0
 28  1  1  0
 29 30  2  0
 30 31  1  0
 31 32  2  0
 32 33  1  0
 33 34  2  0
 34 29  1  0
 12 29  1  0
M  END