
  SciTegic05071316162D

 19 20  0  0  0  0            999 V2000
    4.5468  -19.2246    0.0000 C   0  0
    4.5456  -20.0441    0.0000 C   0  0
    5.2537  -20.4531    0.0000 C   0  0
    5.9634  -20.0437    0.0000 C   0  0
    5.9605  -19.2210    0.0000 C   0  0
    5.2519  -18.8157    0.0000 C   0  0
    3.8390  -18.8162    0.0000 C   0  0  1  0  0  0
    3.1314  -19.2249    0.0000 C   0  0
    2.4236  -18.8165    0.0000 C   0  0
    1.7160  -19.2253    0.0000 N   0  0
    0.9700  -18.8891    0.0000 N   0  0
    0.4233  -19.4966    0.0000 C   0  0
    0.8321  -20.2042    0.0000 N   0  0
    1.6313  -20.0340    0.0000 C   0  0
    3.8388  -17.9990    0.0000 C   0  0
    4.5464  -17.5902    0.0000 C   0  0
    5.2542  -17.9986    0.0000 C   0  0
    5.9618  -17.5899    0.0000 C   0  0
    6.6717  -20.4511    0.0000 F   0  0
  1  2  2  0
  2  3  1  0
  3  4  2  0
  4  5  1  0
  5  6  2  0
  6  1  1  0
  1  7  1  0
  7  8  1  0
  8  9  1  0
  9 10  1  0
 10 11  1  0
 11 12  2  0
 12 13  1  0
 13 14  2  0
 14 10  1  0
  7 15  1  1
 15 16  1  0
 16 17  1  0
 17 18  1  0
  4 19  1  0
M  END