
          11280715132D 1   1.00000     0.00000     0

 29 31  0     0  0            999 V2000
    9.5875   -5.5792    0.0000 N   0  0  3  0  0  0           0  0  0
   10.2667   -4.3292    0.0000 N   0  0  3  0  0  0           0  0  0
   10.2917   -5.1542    0.0000 C   0  0  0  0  0  0           0  0  0
    8.8667   -5.1875    0.0000 C   0  0  0  0  0  0           0  0  0
    8.8542   -4.3625    0.0000 C   0  0  0  0  0  0           0  0  0
    9.5542   -3.9292    0.0000 C   0  0  0  0  0  0           0  0  0
    3.6542   -5.3000    0.0000 N   0  0  3  0  0  0           0  0  0
    2.9375   -4.8875    0.0000 C   0  0  0  0  0  0           0  0  0
    5.2250   -5.7917    0.0000 N   0  0  3  0  0  0           0  0  0
   11.0167   -5.5542    0.0000 O   0  0  0  0  0  0           0  0  0
    9.5292   -3.1042    0.0000 O   0  0  0  0  0  0           0  0  0
    8.1542   -5.6000    0.0000 N   0  0  0  0  0  0           0  0  0
    3.8292   -6.1042    0.0000 C   0  0  0  0  0  0           0  0  0
    4.2542   -4.7417    0.0000 C   0  0  0  0  0  0           0  0  0
    2.9375   -4.0542    0.0000 C   0  0  0  0  0  0           0  0  0
    9.6042   -6.4042    0.0000 C   0  0  0  0  0  0           0  0  0
   10.9792   -3.9000    0.0000 C   0  0  0  0  0  0           0  0  0
    8.2625   -3.7750    0.0000 C   0  0  0  0  0  0           0  0  0
    5.0417   -4.9917    0.0000 C   0  0  0  0  0  0           0  0  0
    4.6167   -6.3500    0.0000 C   0  0  0  0  0  0           0  0  0
    3.6500   -3.6417    0.0000 O   0  0  0  0  0  0           0  0  0
    6.0125   -6.0292    0.0000 C   0  0  0  0  0  0           0  0  0
    6.7250   -5.6167    0.0000 C   0  0  0  0  0  0           0  0  0
    2.2167   -5.3000    0.0000 C   0  0  0  0  0  0           0  0  0
    7.4417   -6.0167    0.0000 C   0  0  0  0  0  0           0  0  0
    2.2167   -3.6417    0.0000 C   0  0  0  0  0  0           0  0  0
    4.3667   -4.0500    0.0000 C   0  0  0  0  0  0           0  0  0
    1.5042   -4.8875    0.0000 C   0  0  0  0  0  0           0  0  0
    1.5042   -4.0625    0.0000 C   0  0  0  0  0  0           0  0  0
  2  3  1  0     0  0
  3  1  1  0     0  0
  4  1  1  0     0  0
  5  4  2  0     0  0
  6  5  1  0     0  0
  7 13  1  0     0  0
  8  7  1  0     0  0
  9 22  1  0     0  0
 10  3  2  0     0  0
 11  6  2  0     0  0
 12  4  1  0     0  0
 13 20  1  0     0  0
 14 19  1  0     0  0
 15  8  1  0     0  0
 16  1  1  0     0  0
 17  2  1  0     0  0
 18  5  1  0     0  0
 19  9  1  0     0  0
 20  9  1  0     0  0
 21 15  1  0     0  0
 22 23  1  0     0  0
 23 25  1  0     0  0
 24  8  2  0     0  0
 25 12  1  0     0  0
 26 15  2  0     0  0
 27 21  1  0     0  0
 28 24  1  0     0  0
 29 28  2  0     0  0
  6  2  1  0     0  0
  7 14  1  0     0  0
 29 26  1  0     0  0
M  END