
  SciTegic11261311332D

 27 28  0  0  0  0            999 V2000
   -1.8574    2.7509    0.0000 N   0  0
   -2.6420    3.0058    0.0000 C   0  0
   -2.8135    3.8128    0.0000 C   0  0
   -3.2551    2.4538    0.0000 N   0  0
   -3.0835    1.6468    0.0000 C   0  0
   -3.6966    1.0948    0.0000 N   0  0
   -2.2989    1.3919    0.0000 C   0  0
   -1.6858    1.9439    0.0000 C   0  0
   -2.1274    0.5849    0.0000 C   0  0
   -1.3428    0.3300    0.0000 N   0  0
   -0.6753    0.8149    0.0000 C   0  0
   -0.6753    1.6399    0.0000 O   0  0
   -0.0079    0.3300    0.0000 S   0  0
   -0.2628   -0.4547    0.0000 C   0  0
   -1.0878   -0.4547    0.0000 C   0  0
   -1.5728   -1.1221    0.0000 C   0  0
    0.2221   -1.1221    0.0000 C   0  0
    1.0426   -1.0359    0.0000 C   0  0
    1.5275   -1.7033    0.0000 O   0  0
    2.3480   -1.6171    0.0000 P   0  0
    3.1685   -1.5308    0.0000 O   0  0
    2.2617   -0.7966    0.0000 O   0  0
    2.4342   -2.4376    0.0000 O   0  0
    3.6534   -2.1983    0.0000 P   0  0
    4.1383   -2.8657    0.0000 O   0  0
    4.3208   -1.7134    0.0000 O   0  0
    2.9859   -2.6832    0.0000 O   0  0
  2  1  2  0
  8  1  1  0
  2  3  1  0
  2  4  1  0
  5  4  2  0
  5  6  1  0
  5  7  1  0
  7  8  2  0
  9  7  1  0
  9 10  1  0
 11 10  1  0
 15 10  1  0
 11 12  2  0
 11 13  1  0
 14 13  1  0
 15 14  2  0
 14 17  1  0
 15 16  1  0
 17 18  1  0
 18 19  1  0
 20 19  1  0
 21 20  1  0
 22 20  2  0
 20 23  1  0
 21 24  1  0
 25 24  1  0
 26 24  2  0
 27 24  1  0
M  END