
  SciTegic04021211102D

 31 34  0  0  0  0            999 V2000
   19.9949   -3.9565    0.0000 C   0  0
   19.9937   -4.7782    0.0000 C   0  0
   20.7064   -5.1882    0.0000 C   0  0
   21.4208   -4.7777    0.0000 C   0  0
   21.4178   -3.9528    0.0000 C   0  0
   20.7045   -3.5423    0.0000 C   0  0
   22.1209   -3.5373    0.0000 C   0  0
   22.8352   -3.9503    0.0000 C   0  0
   23.5454   -3.5343    0.0000 C   0  0
   23.5426   -2.7141    0.0000 N   0  0
   22.8234   -2.3075    0.0000 C   0  0
   22.1163   -2.7217    0.0000 N   0  0
   20.7062   -6.0117    0.0000 C   0  0
   21.4185   -6.4216    0.0000 N   0  0
   22.1265   -6.0122    0.0000 C   0  0
   22.8388   -6.4219    0.0000 C   0  0
   20.7020   -2.7231    0.0000 C   0  0
   22.8171   -1.4840    0.0000 N   0  0
   19.2466   -5.2096    0.0000 C   0  0
   19.9593   -6.4437    0.0000 O   0  0
   22.8400   -7.2847    0.0000 C   0  0
   23.5879   -7.7150    0.0000 C   0  0
   24.3343   -7.2825    0.0000 C   0  0
   24.3331   -6.4197    0.0000 O   0  0
   25.0797   -5.9872    0.0000 C   0  0
   25.8257   -6.4226    0.0000 C   0  0
   26.5718   -5.9908    0.0000 C   0  0
   26.5710   -5.1271    0.0000 C   0  0
   25.8179   -4.6971    0.0000 C   0  0
   25.0750   -5.1313    0.0000 C   0  0
   25.8136   -3.8343    0.0000 S   0  0
 14 15  1  0
  7  8  2  0
 15 16  1  0
  6 17  1  0
  8  9  1  0
 11 18  1  0
  4  5  1  0
  2 19  1  0
  9 10  2  0
 13 20  2  0
  2  3  1  0
 16 21  1  0
 10 11  1  0
 21 22  1  0
  5  6  2  0
 22 23  1  0
 11 12  2  0
 23 24  1  0
 12  7  1  0
 24 25  1  0
  5  7  1  0
 25 26  2  0
  6  1  1  0
 26 27  1  0
  3 13  1  0
 27 28  2  0
  1  2  2  0
 28 29  1  0
 13 14  1  0
 29 30  2  0
 30 25  1  0
  3  4  2  0
 29 31  1  0
  9 31  1  0
M  END