
  SciTegic02131210002D

 22 25  0  0  0  0            999 V2000
   -4.0973   -4.8625    0.0000 C   0  0
   -4.0984   -5.6898    0.0000 C   0  0
   -3.3836   -6.1027    0.0000 N   0  0
   -3.3854   -4.4497    0.0000 C   0  0
   -2.6700   -4.8588    0.0000 C   0  0
   -2.6651   -5.6899    0.0000 C   0  0
   -1.8733   -5.9421    0.0000 O   0  0
   -1.8812   -4.5975    0.0000 C   0  0
   -1.3910   -5.2660    0.0000 C   0  0
   -0.2263   -4.5698    0.0000 N   0  0
   -0.6574   -3.8579    0.0000 C   0  0
   -1.4830   -3.8445    0.0000 N   0  0
   -0.2602   -3.1349    0.0000 N   0  0
   -0.6750   -5.2708    0.0000 C   0  0
   -0.2807   -5.9951    0.0000 N   0  0
   -4.8118   -4.4501    0.0000 Cl  0  0
   -0.4851   -6.7966    0.0000 C   0  0
    0.2096   -7.2411    0.0000 C   0  0
    0.8470   -6.7176    0.0000 C   0  0  2  0  0  0
    0.5461   -5.9498    0.0000 C   0  0
    1.6454   -6.9257    0.0000 N   0  0
    1.8644   -7.7211    0.0000 C   0  0
  5  6  1  0
 10 11  1  0
 11 12  2  0
 12  8  1  0
  2  3  1  0
 11 13  1  0
  3  6  2  0
  9 14  1  0
  6  7  1  0
 14 15  1  0
  7  9  1  0
  1 16  1  0
 15 17  1  0
  8  5  1  0
  1  2  2  0
  5  4  2  0
  8  9  2  0
 17 18  1  0
 18 19  1  0
 19 20  1  0
 20 15  1  0
  4  1  1  0
 19 21  1  6
 14 10  2  0
 21 22  1  0
M  END