
          11280714442D 1   1.00000     0.00000     0

 30 30  0     1  0            999 V2000
    6.8417   -6.3000    0.0000 C   0  0  0  0  0  0           0  0  0
    4.6917   -6.7125    0.0000 C   0  0  0  0  0  0           0  0  0
    7.5542   -6.7125    0.0000 N   0  0  0  0  0  0           0  0  0
    5.4042   -6.3000    0.0000 N   0  0  0  0  0  0           0  0  0
    6.1167   -6.7125    0.0000 C   0  0  1  0  0  0           0  0  0
    8.2667   -6.3000    0.0000 C   0  0  2  0  0  0           0  0  0
    8.9792   -6.7125    0.0000 C   0  0  0  0  0  0           0  0  0
    2.5542   -6.3000    0.0000 C   0  0  0  0  0  0           0  0  0
    6.8417   -5.4750    0.0000 O   0  0  0  0  0  0           0  0  0
    4.6917   -7.5375    0.0000 O   0  0  0  0  0  0           0  0  0
    8.2667   -5.4750    0.0000 C   0  0  0  0  0  0           0  0  0
    8.9792   -7.5375    0.0000 O   0  0  0  0  0  0           0  0  0
    3.9792   -6.3000    0.0000 C   0  0  1  0  0  0           0  0  0
    6.1167   -7.5375    0.0000 C   0  0  0  0  0  0           0  0  0
    2.5542   -5.4750    0.0000 O   0  0  0  0  0  0           0  0  0
    3.2667   -6.7125    0.0000 N   0  0  0  0  0  0           0  0  0
    9.6917   -6.3000    0.0000 O   0  0  0  0  0  0           0  0  0
    8.9792   -5.0625    0.0000 C   0  0  0  0  0  0           0  0  0
    4.6917   -4.2375    0.0000 S   0  0  0  0  0  0           0  0  0
    3.9792   -5.4750    0.0000 C   0  0  0  0  0  0           0  0  0
    6.5250   -8.2417    0.0000 C   0  0  3  0  0  0           0  0  0
    4.6917   -5.0625    0.0000 C   0  0  0  0  0  0           0  0  0
    5.4042   -3.8250    0.0000 C   0  0  0  0  0  0           0  0  0
    9.6917   -5.4750    0.0000 C   0  0  0  0  0  0           0  0  0
    8.9792   -4.2375    0.0000 C   0  0  0  0  0  0           0  0  0
    6.1042   -8.9542    0.0000 C   0  0  0  0  0  0           0  0  0
    7.3500   -8.2417    0.0000 C   0  0  0  0  0  0           0  0  0
    9.6917   -3.8250    0.0000 C   0  0  0  0  0  0           0  0  0
   10.4042   -5.0625    0.0000 C   0  0  0  0  0  0           0  0  0
   10.4042   -4.2375    0.0000 C   0  0  0  0  0  0           0  0  0
  2  4  1  0     0  0
  3  1  1  0     0  0
  4  5  1  0     0  0
  5  1  1  0     0  0
  6  3  1  0     0  0
  7  6  1  0     0  0
  8 16  1  0     0  0
  9  1  2  0     0  0
 10  2  2  0     0  0
  6 11  1  1     0  0
 12  7  2  0     0  0
 13  2  1  0     0  0
  5 14  1  6     0  0
 15  8  2  0     0  0
 16 13  1  0     0  0
 17  7  1  0     0  0
 18 11  1  0     0  0
 19 22  1  0     0  0
 13 20  1  1     0  0
 21 14  1  0     0  0
 22 20  1  0     0  0
 23 19  1  0     0  0
 24 18  2  0     0  0
 25 18  1  0     0  0
 26 21  1  0     0  0
 27 21  1  0     0  0
 28 25  2  0     0  0
 29 24  1  0     0  0
 30 28  1  0     0  0
 29 30  2  0     0  0
M  END