
  Mrv0541 04051115152D          

 25 27  0  0  0  0            999 V2000
   -1.7683    3.6293    0.0000 C   0  0  0  0  0  0  0  0  0  0  0  0
   -1.7683    4.4543    0.0000 C   0  0  0  0  0  0  0  0  0  0  0  0
   -1.0538    4.8668    0.0000 C   0  0  0  0  0  0  0  0  0  0  0  0
   -0.3394    4.4543    0.0000 C   0  0  0  0  0  0  0  0  0  0  0  0
   -0.3394    3.6293    0.0000 C   0  0  0  0  0  0  0  0  0  0  0  0
   -1.0538    3.2168    0.0000 C   0  0  0  0  0  0  0  0  0  0  0  0
   -1.0538    2.3918    0.0000 C   0  0  0  0  0  0  0  0  0  0  0  0
   -1.0538    1.5668    0.0000 C   0  0  0  0  0  0  0  0  0  0  0  0
   -1.0538    0.7418    0.0000 C   0  0  0  0  0  0  0  0  0  0  0  0
   -0.3864    0.2569    0.0000 O   0  0  0  0  0  0  0  0  0  0  0  0
   -1.7213    0.2569    0.0000 C   0  0  0  0  0  0  0  0  0  0  0  0
   -1.4663   -0.5277    0.0000 C   0  0  0  0  0  0  0  0  0  0  0  0
   -0.6413   -0.5277    0.0000 C   0  0  0  0  0  0  0  0  0  0  0  0
   -0.1564   -1.1951    0.0000 C   0  0  0  0  0  0  0  0  0  0  0  0
   -0.4920   -1.9488    0.0000 O   0  0  0  0  0  0  0  0  0  0  0  0
    0.6641   -1.1089    0.0000 S   0  0  0  0  0  0  0  0  0  0  0  0
    1.1490   -1.7763    0.0000 C   0  0  0  0  0  0  0  0  0  0  0  0
    1.9740   -1.7763    0.0000 N   0  0  0  0  0  0  0  0  0  0  0  0
    2.2289   -2.5610    0.0000 C   0  0  0  0  0  0  0  0  0  0  0  0
    3.0136   -2.8159    0.0000 C   0  0  0  0  0  0  0  0  0  0  0  0
    3.7982   -3.0708    0.0000 F   0  0  0  0  0  0  0  0  0  0  0  0
    2.7586   -3.6005    0.0000 F   0  0  0  0  0  0  0  0  0  0  0  0
    3.2685   -2.0313    0.0000 F   0  0  0  0  0  0  0  0  0  0  0  0
    1.5615   -3.0459    0.0000 N   0  0  0  0  0  0  0  0  0  0  0  0
    0.8941   -2.5610    0.0000 N   0  0  0  0  0  0  0  0  0  0  0  0
  1  2  1  0  0  0  0
  1  6  2  0  0  0  0
  2  3  2  0  0  0  0
  3  4  1  0  0  0  0
  4  5  2  0  0  0  0
  5  6  1  0  0  0  0
  6  7  1  0  0  0  0
  7  8  3  0  0  0  0
  8  9  1  0  0  0  0
  9 10  1  0  0  0  0
  9 11  2  0  0  0  0
 13 10  1  0  0  0  0
 11 12  1  0  0  0  0
 12 13  2  0  0  0  0
 13 14  1  0  0  0  0
 14 15  2  0  0  0  0
 14 16  1  0  0  0  0
 17 16  1  0  0  0  0
 17 18  1  0  0  0  0
 17 25  2  0  0  0  0
 19 18  1  0  0  0  0
 19 20  1  0  0  0  0
 19 24  2  0  0  0  0
 20 21  1  0  0  0  0
 20 22  1  0  0  0  0
 20 23  1  0  0  0  0
 25 24  1  0  0  0  0
M  END