
  SciTegic05191616072D

 28 28  0  0  0  0            999 V2000
    6.6084   -3.3083    0.0000 S   0  0
    7.3229   -2.8958    0.0000 C   0  0
    8.0373   -3.3083    0.0000 N   0  0
    7.3229   -2.0708    0.0000 N   0  0
    8.7518   -2.8958    0.0000 C   0  0
    5.8939   -2.8958    0.0000 C   0  0
    5.1795   -3.3083    0.0000 C   0  0
    4.4650   -2.8958    0.0000 C   0  0
    3.7507   -3.3083    0.0000 N   0  0
    9.4663   -3.3083    0.0000 C   0  0
   10.1807   -2.8958    0.0000 C   0  0
   10.8976   -3.3147    0.0000 C   0  0
    3.0346   -2.8970    0.0000 C   0  0
    2.3225   -3.3060    0.0000 C   0  0
    2.3184   -4.1311    0.0000 C   0  0
    3.0325   -4.5457    0.0000 C   0  0
    3.7508   -4.1351    0.0000 C   0  0
   11.6120   -2.9016    0.0000 C   0  0
   12.3254   -3.3154    0.0000 C   0  0
   13.0394   -2.9029    0.0000 C   0  0
   13.0392   -2.0768    0.0000 C   0  0
   12.3192   -1.6649    0.0000 C   0  0
   11.6082   -2.0797    0.0000 C   0  0
   13.7529   -1.6628    0.0000 C   0  0
   14.4681   -2.0738    0.0000 F   0  0
   13.7511   -0.8378    0.0000 F   0  0
   14.4626   -1.2458    0.0000 F   0  0
    7.7417   -4.7792    0.0000 Cl  0  0
  1  2  1  0
  2  3  1  0
  2  4  2  0
  3  5  1  0
  1  6  1  0
  6  7  1  0
  7  8  1  0
  8  9  1  0
  5 10  1  0
 10 11  1  0
 11 12  1  0
  9 13  1  0
  9 17  1  0
 13 14  1  0
 14 15  1  0
 15 16  1  0
 16 17  1  0
 18 12  1  0
 18 19  2  0
 19 20  1  0
 20 21  2  0
 21 22  1  0
 22 23  2  0
 23 18  1  0
 21 24  1  0
 24 25  1  0
 24 26  1  0
 24 27  1  0
M  END