
  Mrv0541 05211314572D          

 20 23  0  0  0  0            999 V2000
    5.5227   -8.2301    0.0000 C   0  0  0  0  0  0  0  0  0  0  0  0
    6.2581   -7.8564    0.0000 C   0  0  0  0  0  0  0  0  0  0  0  0
    5.9721   -7.4398    0.0000 C   0  0  0  0  0  0  0  0  0  0  0  0
    6.9937   -8.2301    0.0000 C   0  0  0  0  0  0  0  0  0  0  0  0
    6.7076   -7.8135    0.0000 C   0  0  0  0  0  0  0  0  0  0  0  0
    7.4432   -7.4398    0.0000 C   0  0  0  0  0  0  0  0  0  0  0  0
    5.9721   -6.6924    0.0000 C   0  0  0  0  0  0  0  0  0  0  0  0
    6.7076   -6.3187    0.0000 C   0  0  0  0  0  0  0  0  0  0  0  0
    6.2581   -7.1090    0.0000 C   0  0  0  0  0  0  0  0  0  0  0  0
    7.4432   -6.6924    0.0000 C   0  0  0  0  0  0  0  0  0  0  0  0
    8.2408   -7.6507    0.0000 C   0  0  0  0  0  0  0  0  0  0  0  0
    8.4569   -8.4469    0.0000 C   0  0  0  0  0  0  0  0  0  0  0  0
    9.2544   -8.6579    0.0000 N   0  0  0  0  0  0  0  0  0  0  0  0
    9.4705   -9.4541    0.0000 C   0  0  0  0  0  0  0  0  0  0  0  0
   10.2681   -9.6650    0.0000 C   0  0  0  0  0  0  0  0  0  0  0  0
   10.4842  -10.4612    0.0000 C   0  0  0  0  0  0  0  0  0  0  0  0
    9.9027  -11.0464    0.0000 C   0  0  0  0  0  0  0  0  0  0  0  0
    9.1051  -10.8355    0.0000 C   0  0  0  0  0  0  0  0  0  0  0  0
    8.8891  -10.0393    0.0000 C   0  0  0  0  0  0  0  0  0  0  0  0
    7.8754   -9.0322    0.0000 O   0  0  0  0  0  0  0  0  0  0  0  0
  7  8  1  0  0  0  0
 10  8  1  0  0  0  0
  8  9  1  0  0  0  0
  6 11  1  0  0  0  0
  1  2  1  0  0  0  0
 11 12  1  0  0  0  0
  1  3  1  0  0  0  0
 12 13  1  0  0  0  0
  2  4  1  0  0  0  0
 13 14  1  0  0  0  0
  3  5  1  0  0  0  0
 14 15  2  0  0  0  0
  4  6  1  0  0  0  0
 15 16  1  0  0  0  0
  5  6  1  0  0  0  0
 16 17  2  0  0  0  0
  6 10  1  0  0  0  0
 17 18  1  0  0  0  0
  3  7  1  0  0  0  0
 18 19  2  0  0  0  0
 19 14  1  0  0  0  0
  2  9  1  0  0  0  0
 12 20  2  0  0  0  0
M  END