
  SciTegic12011114592D

 35 39  0  0  0  0            999 V2000
   17.8413   -0.4622    0.0000 N   0  0
   18.5564   -0.0524    0.0000 C   0  0
   18.5593    0.7734    0.0000 N   0  0
   17.8410    1.1879    0.0000 C   0  0
   17.8405    2.0129    0.0000 N   0  0
   18.5551    2.4259    0.0000 C   0  0
   19.2695   -0.4674    0.0000 S   0  0
   19.9854   -0.0573    0.0000 C   0  0
   20.6942   -0.4754    0.0000 C   0  0
   21.4096   -0.0660    0.0000 C   0  0
   21.4129    0.7599    0.0000 C   0  0
   20.6948    1.1747    0.0000 C   0  0
   19.9823    0.7629    0.0000 C   0  0
   22.1282    1.1709    0.0000 N   0  0
   19.3409    2.1778    0.0000 C   0  0
   19.8199    2.8494    0.0000 C   0  0
   19.3292    3.5126    0.0000 N   0  0
   18.5468    3.2509    0.0000 N   0  0
   20.6449    2.8566    0.0000 C   0  0
   16.3545    1.0270    0.0000 C   0  0
   15.8734    0.3659    0.0000 C   0  0
   16.3536   -0.2959    0.0000 C   0  0
   17.1314   -0.0438    0.0000 N   0  0
   17.1320    0.7739    0.0000 C   0  0
   22.8418    0.7569    0.0000 C   0  0
   23.5571    1.1679    0.0000 C   0  0
   24.2707    0.7535    0.0000 N   0  0
   22.8401   -0.0681    0.0000 O   0  0
   24.2621   -0.0670    0.0000 C   0  0
   25.0439   -0.3304    0.0000 C   0  0  1  0  0  0
   25.5360    0.3318    0.0000 C   0  0
   25.0583    1.0044    0.0000 C   0  0  1  0  0  0
   25.3197    1.7869    0.0000 C   0  0
   26.1280    1.9517    0.0000 O   0  0
   25.2903   -1.1177    0.0000 O   0  0
  7  8  1  0
  6 15  1  0
 16 17  1  0
 18  6  2  0
  3  4  2  0
 16 19  1  0
 23 24  1  0
  8  9  2  0
  4 24  1  0
 21 22  2  0
  9 10  1  0
  1  2  2  0
 10 11  2  0
 20 21  1  0
 22 23  1  0
 24 20  2  0
  4  5  1  0
 14 25  1  0
 11 12  1  0
 25 26  1  0
 23  1  1  0
 26 27  1  0
 12 13  2  0
 25 28  2  0
 27 29  1  0
 13  8  1  0
  5  6  1  0
 11 14  1  0
 17 18  1  0
 29 30  1  0
 30 31  1  0
 31 32  1  0
 32 27  1  0
  2  3  1  0
 32 33  1  6
 15 16  2  0
 33 34  1  0
  2  7  1  0
 30 35  1  1
M  END