
  SciTegic10311316212D

 25 28  0  0  0  0            999 V2000
    4.7738   -1.1680    0.0000 C   0  0
    4.7726   -1.9875    0.0000 C   0  0
    5.4807   -2.3965    0.0000 C   0  0
    5.4789   -0.7591    0.0000 C   0  0
    6.1875   -1.1644    0.0000 C   0  0
    6.1878   -1.9830    0.0000 C   0  0
    6.9664   -2.2358    0.0000 S   0  0
    7.4475   -1.5733    0.0000 C   0  0
    6.9660   -0.9112    0.0000 C   0  0
    4.0692   -2.3947    0.0000 N   0  0
    3.3229   -2.0617    0.0000 C   0  0
    2.7756   -2.6686    0.0000 N   0  0
    3.1837   -3.3767    0.0000 N   0  0
    3.9831   -3.2073    0.0000 C   0  0
    4.5887   -3.7513    0.0000 C   0  0
    4.4167   -4.5513    0.0000 C   0  0
    5.0228   -5.0983    0.0000 C   0  0
    5.8011   -4.8465    0.0000 C   0  0
    5.9699   -4.0426    0.0000 C   0  0
    5.3625   -3.4991    0.0000 C   0  0
    3.1536   -1.2623    0.0000 S   0  0
    8.2626   -1.5709    0.0000 C   0  0
    8.6714   -2.2784    0.0000 O   0  0
    8.6709   -0.8630    0.0000 O   0  0
    7.2183   -0.1339    0.0000 Cl  0  0
  1  2  2  0
  2  3  1  0
  3  6  2  0
  5  4  2  0
  4  1  1  0
  5  6  1  0
  6  7  1  0
  7  8  1  0
  8  9  2  0
  9  5  1  0
 10 11  1  0
 11 12  2  0
 12 13  1  0
 13 14  2  0
 14 10  1  0
  2 10  1  0
 15 16  1  0
 16 17  1  0
 17 18  1  0
 18 19  1  0
 19 20  1  0
 20 15  1  0
 14 15  1  0
 11 21  1  0
 22 23  1  0
 22 24  2  0
  8 22  1  0
  9 25  1  0
M  END