
  SciTegic11081110012D

 28 31  0  0  0  0            999 V2000
   -0.7446   -7.8062    0.0000 N   0  0
   -0.7457   -8.6334    0.0000 C   0  0
   -0.0314   -9.0462    0.0000 N   0  0
   -0.0331   -7.3935    0.0000 C   0  0
    0.6818   -7.8029    0.0000 C   0  0
    0.6819   -8.6290    0.0000 C   0  0
    1.4675   -8.8841    0.0000 N   0  0
    1.9531   -8.2158    0.0000 C   0  0
    1.4674   -7.5475    0.0000 N   0  0
   -0.0354   -6.5685    0.0000 N   0  0
    1.7225   -9.6687    0.0000 C   0  0  1  0  0  0
    1.2379  -10.3328    0.0000 C   0  0  1  0  0  0
    1.7229  -11.0002    0.0000 C   0  0  1  0  0  0
    2.5075  -10.7452    0.0000 C   0  0  2  0  0  0
    2.5074   -9.9201    0.0000 O   0  0
    3.1750  -11.2300    0.0000 C   0  0
    3.0889  -12.0505    0.0000 O   0  0
    0.4129  -10.3319    0.0000 O   0  0
    1.4680  -11.7848    0.0000 O   0  0
    3.7563  -12.5353    0.0000 C   0  0
    3.6702  -13.3558    0.0000 C   0  0
    2.9150  -13.6892    0.0000 C   0  0
    2.8273  -14.5059    0.0000 C   0  0
    3.4925  -14.9944    0.0000 C   0  0
    4.2478  -14.6601    0.0000 C   0  0
    4.3378  -13.8374    0.0000 C   0  0
    2.7780   -8.2157    0.0000 N   0  0
    3.1907   -8.9301    0.0000 C   0  0
  1  2  2  0
 12 13  1  0
 13 14  1  0
 14 15  1  0
 15 11  1  0
  5  4  2  0
 14 16  1  6
  6  7  1  0
 16 17  1  0
  7  8  1  0
 12 18  1  1
  8  9  2  0
 13 19  1  1
  9  5  1  0
 17 20  1  0
  4  1  1  0
 20 21  1  0
 21 22  1  0
  4 10  1  0
  5  6  1  0
 11  7  1  6
 11 12  1  0
 21 26  1  0
 22 23  1  0
 23 24  1  0
 24 25  1  0
 25 26  1  0
  2  3  1  0
  8 27  1  0
  3  6  2  0
 27 28  1  0
M  END