
  CDK    9/16/09,10:4

 26 28  0  0  0  0  0  0  0  0999 V2000
   -0.4208   -3.6542    0.0000 C   0  0  0  0  0  0  0  0  0  0  0  0
    0.2936   -3.2417    0.0000 N   0  0  0  0  0  0  0  0  0  0  0  0
   -1.1353   -3.2417    0.0000 N   0  0  0  0  0  0  0  0  0  0  0  0
   -0.4208   -4.4792    0.0000 S   0  0  0  0  0  0  0  0  0  0  0  0
   -1.8498   -3.6542    0.0000 C   0  0  0  0  0  0  0  0  0  0  0  0
   -2.5637   -3.2385    0.0000 C   0  0  0  0  0  0  0  0  0  0  0  0
   -3.2777   -3.6503    0.0000 C   0  0  0  0  0  0  0  0  0  0  0  0
   -3.2781   -4.4762    0.0000 C   0  0  0  0  0  0  0  0  0  0  0  0
   -2.5586   -4.8886    0.0000 C   0  0  0  0  0  0  0  0  0  0  0  0
   -1.8476   -4.4744    0.0000 C   0  0  0  0  0  0  0  0  0  0  0  0
    1.0081   -3.6542    0.0000 C   0  0  0  0  0  0  0  0  0  0  0  0
    1.0056   -4.4802    0.0000 C   0  0  0  0  0  0  0  0  0  0  0  0
    1.7192   -4.8927    0.0000 C   0  0  0  0  0  0  0  0  0  0  0  0
    1.7178   -3.2422    0.0000 C   0  0  0  0  0  0  0  0  0  0  0  0
    2.4320   -3.6508    0.0000 C   0  0  0  0  0  0  0  0  0  0  0  0
    2.4356   -4.4786    0.0000 C   0  0  0  0  0  0  0  0  0  0  0  0
    3.1511   -4.8894    0.0000 S   0  0  0  0  0  0  0  0  0  0  0  0
    3.8625   -5.3000    0.0000 N   0  0  0  0  0  0  0  0  0  0  0  0
    3.5627   -4.1744    0.0000 O   0  0  0  0  0  0  0  0  0  0  0  0
    2.7427   -5.6062    0.0000 O   0  0  0  0  0  0  0  0  0  0  0  0
   -3.9920   -4.8897    0.0000 C   0  0  0  0  0  0  0  0  0  0  0  0
    3.8626   -6.1250    0.0000 C   0  0  0  0  0  0  0  0  0  0  0  0
    3.1954   -6.6099    0.0000 N   0  0  0  0  0  0  0  0  0  0  0  0
    3.4504   -7.3945    0.0000 C   0  0  0  0  0  0  0  0  0  0  0  0
    4.2755   -7.3944    0.0000 C   0  0  0  0  0  0  0  0  0  0  0  0
    4.5302   -6.6097    0.0000 S   0  0  0  0  0  0  0  0  0  0  0  0
 12 13  1  0  0  0  0 
 13 16  2  0  0  0  0 
  6  7  1  0  0  0  0 
 15 14  2  0  0  0  0 
 14 11  1  0  0  0  0 
 15 16  1  0  0  0  0 
  1  4  2  0  0  0  0 
  7  8  2  0  0  0  0 
 16 17  1  0  0  0  0 
  8  9  1  0  0  0  0 
 17 18  1  0  0  0  0 
  3  5  1  0  0  0  0 
 17 19  2  0  0  0  0 
  9 10  2  0  0  0  0 
 17 20  2  0  0  0  0 
 10  5  1  0  0  0  0 
  8 21  1  0  0  0  0 
  1  3  1  0  0  0  0 
 18 22  1  0  0  0  0 
 22 23  2  0  0  0  0 
  2 11  1  0  0  0  0 
  5  6  2  0  0  0  0 
 11 12  2  0  0  0  0 
  1  2  1  0  0  0  0 
 23 24  1  0  0  0  0 
 24 25  2  0  0  0  0 
 25 26  1  0  0  0  0 
 26 22  1  0  0  0  0 
M  END