
          11280715032D 1   1.00000     0.00000     0

 35 37  0     0  0            999 V2000
    0.1500   -0.7500    0.0000 S   0  0  3  0  0  0           0  0  0
    5.8667   -1.5875    0.0000 S   0  0  3  0  0  0           0  0  0
   -0.3708   -0.4500    0.0000 C   0  0  0  0  0  0           0  0  0
    5.3417   -1.2917    0.0000 C   0  0  0  0  0  0           0  0  0
   -0.3458   -1.3750    0.0000 O   0  0  0  0  0  0           0  0  0
    0.5000   -1.3417    0.0000 O   0  0  0  0  0  0           0  0  0
    3.2625   -0.7167    0.0000 C   0  0  0  0  0  0           0  0  0
    5.8750   -2.1875    0.0000 O   0  0  0  0  0  0           0  0  0
    6.4500   -1.7417    0.0000 O   0  0  0  0  0  0           0  0  0
    0.6667   -0.4417    0.0000 N   0  0  0  0  0  0           0  0  0
    3.2792   -3.1250    0.0000 C   0  0  0  0  0  0           0  0  0
    2.7625   -3.4292    0.0000 O   0  0  0  0  0  0           0  0  0
    2.7500   -1.6292    0.0000 C   0  0  0  0  0  0           0  0  0
    2.2250   -0.7292    0.0000 C   0  0  0  0  0  0           0  0  0
   -0.3708    0.1583    0.0000 C   0  0  0  0  0  0           0  0  0
   -0.8875   -0.7500    0.0000 C   0  0  0  0  0  0           0  0  0
    5.3375   -0.6917    0.0000 C   0  0  0  0  0  0           0  0  0
    4.8292   -1.6000    0.0000 C   0  0  0  0  0  0           0  0  0
    3.2667   -1.3250    0.0000 C   0  0  0  0  0  0           0  0  0
    2.7417   -0.4292    0.0000 C   0  0  0  0  0  0           0  0  0
    3.7792   -0.4167    0.0000 C   0  0  0  0  0  0           0  0  0
    2.2292   -1.3292    0.0000 C   0  0  0  0  0  0           0  0  0
    3.2750   -2.5250    0.0000 C   0  0  0  0  0  0           0  0  0
    6.2917   -1.1625    0.0000 C   0  0  0  0  0  0           0  0  0
    4.3000   -0.7042    0.0000 C   0  0  0  0  0  0           0  0  0
   -1.4083    0.1500    0.0000 C   0  0  0  0  0  0           0  0  0
    2.7542   -2.2292    0.0000 C   0  0  0  0  0  0           0  0  0
    3.8042   -3.4167    0.0000 O   0  0  0  0  0  0           0  0  0
   -1.4083   -0.4500    0.0000 C   0  0  0  0  0  0           0  0  0
   -0.8875    0.4583    0.0000 C   0  0  0  0  0  0           0  0  0
    4.3042   -1.3042    0.0000 C   0  0  0  0  0  0           0  0  0
    4.8125   -0.4000    0.0000 C   0  0  0  0  0  0           0  0  0
   -1.9250    0.4583    0.0000 Cl  0  0  0  0  0  0           0  0  0
    1.1875   -0.7417    0.0000 C   0  0  0  0  0  0           0  0  0
    1.7042   -0.4375    0.0000 C   0  0  0  0  0  0           0  0  0
  2  4  1  0     0  0
  3  1  1  0     0  0
  4 17  1  0     0  0
  5  1  2  0     0  0
  6  1  2  0     0  0
  7 20  2  0     0  0
  8  2  2  0     0  0
  9  2  2  0     0  0
 10  1  1  0     0  0
 11 23  1  0     0  0
 12 11  2  0     0  0
 13 22  1  0     0  0
 14 35  1  0     0  0
 15  3  1  0     0  0
 16  3  2  0     0  0
 17 32  2  0     0  0
 18 31  1  0     0  0
 19 13  2  0     0  0
 20 14  1  0     0  0
 21  7  1  0     0  0
 22 14  2  0     0  0
 23 27  1  0     0  0
 24  2  1  0     0  0
 25 21  1  0     0  0
 26 29  2  0     0  0
 27 13  1  0     0  0
 28 11  1  0     0  0
 29 16  1  0     0  0
 30 15  2  0     0  0
 31 25  2  0     0  0
 32 25  1  0     0  0
 33 26  1  0     0  0
 34 10  1  0     0  0
 35 34  1  0     0  0
 26 30  1  0     0  0
  7 19  1  0     0  0
  4 18  2  0     0  0
M  END