
  SciTegic09261414532D

 42 48  0  0  0  0            999 V2000
    7.9158  -10.7874    0.0000 N   0  0
    7.1301  -10.9947    0.0000 C   0  0
    7.0855  -11.8107    0.0000 N   0  0
    8.3631  -11.4701    0.0000 C   0  0
    7.8479  -12.0999    0.0000 C   0  0
    8.1360  -12.8589    0.0000 C   0  0
    8.9390  -12.9892    0.0000 C   0  0
    9.4531  -12.3545    0.0000 C   0  0
    9.1622  -11.5980    0.0000 C   0  0
    0.6507   -8.2131    0.0000 C   0  0
    0.6495   -9.0327    0.0000 C   0  0
    1.3576   -9.4416    0.0000 C   0  0
    1.3558   -7.8043    0.0000 C   0  0
    2.0644   -8.2095    0.0000 C   0  0
    2.0647   -9.0327    0.0000 C   0  0
    2.8476   -9.2869    0.0000 N   0  0
    3.3314   -8.6207    0.0000 C   0  0
    2.8472   -7.9550    0.0000 N   0  0
    3.1004  -10.0640    0.0000 C   0  0
    4.1453   -8.6190    0.0000 N   0  0
    4.5535   -9.3282    0.0000 C   0  0
    5.3700   -9.3283    0.0000 C   0  0
    5.7791   -8.6199    0.0000 C   0  0
    5.3659   -7.9100    0.0000 C   0  0
    4.5508   -7.9134    0.0000 C   0  0
    6.5963   -8.6186    0.0000 C   0  0
    7.0061   -9.3256    0.0000 O   0  0
    7.8233   -9.3242    0.0000 C   0  0
    2.5537  -10.6715    0.0000 C   0  0
    8.2331  -10.0312    0.0000 C   0  0  2  0  0  0
    7.0037   -7.9102    0.0000 O   0  0
    9.0474   -9.9806    0.0000 C   0  0
    9.4994  -10.6626    0.0000 C   0  0
   10.3114  -10.6125    0.0000 C   0  0
   10.6779   -9.8817    0.0000 N   0  0
   10.2260   -9.1997    0.0000 C   0  0
    9.4076   -9.2485    0.0000 C   0  0
    1.7441  -10.5894    0.0000 C   0  0
    1.4119  -11.3361    0.0000 S   0  0
    2.0194  -11.8828    0.0000 C   0  0
    2.7269  -11.4739    0.0000 C   0  0
    6.4966  -10.4785    0.0000 C   0  0
  1  2  1  0
  2  3  2  0
  3  5  1  0
  4  1  1  0
  4  5  2  0
  5  6  1  0
  6  7  2  0
  7  8  1  0
  8  9  2  0
  9  4  1  0
 10 11  2  0
 11 12  1  0
 12 15  2  0
 14 13  2  0
 13 10  1  0
 14 15  1  0
 15 16  1  0
 16 17  1  0
 17 18  2  0
 18 14  1  0
 16 19  1  0
 20 21  1  0
 21 22  1  0
 22 23  1  0
 23 24  1  0
 24 25  1  0
 25 20  1  0
 17 20  1  0
 23 26  1  0
 26 27  1  0
 27 28  1  0
 19 29  1  0
 28 30  1  0
 30  1  1  6
 26 31  2  0
 32 33  1  0
 32 37  1  0
 33 34  1  0
 34 35  1  0
 35 36  1  0
 36 37  1  0
 30 32  1  0
 29 38  2  0
 38 39  1  0
 39 40  1  0
 40 41  2  0
 41 29  1  0
  2 42  1  0
M  END