
  SciTegic02211115552D

 48 52  0  0  0  0            999 V2000
   -1.5306    2.8417    0.0000 C   0  0
   -1.5318    2.0143    0.0000 C   0  0
   -0.8169    1.6015    0.0000 C   0  0
   -0.1005    2.0148    0.0000 C   0  0
   -0.1034    2.8453    0.0000 C   0  0
   -0.8187    3.2545    0.0000 C   0  0
    0.6146    1.6034    0.0000 N   0  0
    1.3284    2.0171    0.0000 C   0  0
    2.0436    1.6057    0.0000 C   0  0
    1.3271    2.8421    0.0000 O   0  0
    2.0402    0.7822    0.0000 C   0  0
    2.7545    0.3709    0.0000 C   0  0
    3.4693    0.7846    0.0000 C   0  0
    3.4653    1.6139    0.0000 C   0  0
    2.7505    2.0215    0.0000 C   0  0
    4.1777    2.0300    0.0000 O   0  0
    4.8942    1.6212    0.0000 C   0  0
    4.1849    0.3742    0.0000 N   0  0
   -0.8171    0.7765    0.0000 C   0  0
   -1.5317    0.3641    0.0000 C   0  0
   -2.2461    0.7768    0.0000 N   0  0
   -2.9607    0.3645    0.0000 C   0  0
   -3.6718    0.7806    0.0000 N   0  0
   -4.3858    0.3690    0.0000 C   0  0
   -4.3865   -0.4569    0.0000 N   0  0
   -3.6671   -0.8694    0.0000 C   0  0
   -2.9560   -0.4554    0.0000 C   0  0
   -5.1000    0.7820    0.0000 N   0  0
   -3.6644   -1.6944    0.0000 C   0  0
   -4.3775   -2.1093    0.0000 C   0  0
   -2.2396   -0.8646    0.0000 C   0  0
   -2.2406   -1.6886    0.0000 C   0  0
   -1.5342   -0.4472    0.0000 C   0  0
   -0.8180   -0.8525    0.0000 C   0  0
   -0.8081   -1.6789    0.0000 C   0  0
   -1.5233   -2.0967    0.0000 C   0  0
   -1.5191   -2.9204    0.0000 N   0  0
   -0.8013   -3.3326    0.0000 C   0  0
   -0.0861   -2.9148    0.0000 C   0  0
   -0.0886   -2.0848    0.0000 O   0  0
    0.6250   -2.4958    0.0000 C   0  0
    0.4958   -3.4958    0.0000 C   0  0
   -0.7982   -4.1576    0.0000 O   0  0
   -2.2320   -3.3356    0.0000 C   0  0
   -2.2289   -4.1606    0.0000 C   0  0
   -2.9418   -4.5758    0.0000 C   0  0
   -3.6578   -4.1659    0.0000 O   0  0
   -4.3707   -4.5811    0.0000 C   0  0
  5  6  2  0
 23 24  1  0
 11 12  1  0
 24 25  2  0
  6  1  1  0
 25 26  1  0
 12 13  2  0
 26 27  2  0
 27 22  1  0
  1  2  2  0
 24 28  1  0
 13 14  1  0
 26 29  1  0
  4  7  1  0
 29 30  1  0
 14 15  2  0
 27 31  1  0
 15  9  1  0
 31 32  2  0
 32 36  1  0
  3  4  2  0
 34 33  2  0
 33 31  1  0
 34 35  1  0
 14 16  1  0
 35 36  2  0
  7  8  1  0
 16 17  1  0
 13 18  1  0
  8  9  1  0
  3 19  1  0
 35 40  1  0
 36 37  1  0
 37 38  1  0
 38 39  1  0
 39 40  1  0
  4  5  1  0
 39 41  1  0
 19 20  1  0
 39 42  1  0
  8 10  2  0
 38 43  2  0
 20 21  1  0
 37 44  1  0
  2  3  1  0
 44 45  1  0
 21 22  1  0
 45 46  1  0
  9 11  2  0
 46 47  1  0
 22 23  2  0
 47 48  1  0
M  END