
  SciTegic04091416462D

 15 16  0  0  0  0            999 V2000
   12.3144   -9.6413    0.0000 C   0  0
    9.4830   -8.8240    0.0000 C   0  0
    9.4818   -9.6435    0.0000 C   0  0
   10.1899  -10.0525    0.0000 C   0  0
   10.8995   -9.6430    0.0000 C   0  0
   10.8967   -8.8204    0.0000 C   0  0
   10.1881   -8.4151    0.0000 N   0  0
   11.6079  -10.0505    0.0000 N   0  0
   12.3136   -8.8236    0.0000 O   0  0
   12.9523  -10.1474    0.0000 C   0  0
   12.9185  -10.9641    0.0000 C   0  0
   13.6859  -11.2478    0.0000 C   0  0
   14.1918  -10.6046    0.0000 S   0  0
   13.7354   -9.9256    0.0000 C   0  0
   14.0168   -9.1584    0.0000 C   0  0
  2  3  2  0
  3  4  1  0
  4  5  2  0
  5  6  1  0
  6  7  2  0
  7  2  1  0
  5  8  1  0
  8  1  1  0
  1  9  2  0
 11 12  2  0
 10 11  1  0
 12 13  1  0
 13 14  1  0
 14 10  2  0
  1 10  1  0
 14 15  1  0
M  END