
  SciTegic01161211252D

 32 35  0  0  0  0            999 V2000
    0.0667  -23.2583    0.0000 O   0  0
   -0.6458  -23.6750    0.0000 S   0  0
    0.0713  -24.0837    0.0000 O   0  0
    0.0386  -21.6041    0.0000 C   0  0
    0.6979  -21.1081    0.0000 C   0  0
    0.4317  -20.3272    0.0000 C   0  0
   -0.3958  -20.3406    0.0000 N   0  0
   -0.6346  -21.1294    0.0000 N   0  0
   -0.8920  -19.6811    0.0000 C   0  0
   -0.5686  -18.9210    0.0000 C   0  0
   -1.0648  -18.2629    0.0000 C   0  0
   -1.8845  -18.3637    0.0000 C   0  0
   -2.2055  -19.1283    0.0000 C   0  0
   -1.7073  -19.7832    0.0000 C   0  0
    0.9077  -19.6561    0.0000 C   0  0
    1.7304  -19.7312    0.0000 C   0  0
    2.2049  -19.0573    0.0000 C   0  0
    1.8579  -18.3078    0.0000 C   0  0
    1.0317  -18.2364    0.0000 C   0  0
    0.5609  -18.9113    0.0000 C   0  0
    0.0513  -22.4290    0.0000 C   0  0
   -0.6567  -22.8525    0.0000 N   0  0
    0.7721  -22.8305    0.0000 N   0  0
   -2.3824  -17.7058    0.0000 Cl  0  0
    1.4801  -22.4071    0.0000 C   0  0
   -1.3521  -24.1008    0.0000 C   0  0
   -2.0706  -23.6950    0.0000 C   0  0
   -2.7782  -24.1177    0.0000 C   0  0
   -2.7659  -24.9435    0.0000 C   0  0
   -2.0402  -25.3447    0.0000 C   0  0
   -1.3356  -24.9197    0.0000 C   0  0
   -3.4734  -25.3679    0.0000 F   0  0
  2  1  2  0
 16 17  1  0
  3  2  2  0
 17 18  2  0
  9 10  2  0
 18 19  1  0
  4  5  1  0
 19 20  2  0
 20 15  1  0
  6 15  1  0
 10 11  1  0
  4 21  1  0
 21 22  2  0
 11 12  2  0
 21 23  1  0
  5  6  1  0
 12 24  1  0
 12 13  1  0
 23 25  1  0
 22  2  1  0
  6  7  1  0
  2 26  1  0
 13 14  2  0
 26 27  2  0
 14  9  1  0
 27 28  1  0
  7  9  1  0
 28 29  2  0
  7  8  1  0
 29 30  1  0
  8  4  2  0
 30 31  2  0
 31 26  1  0
 15 16  2  0
 29 32  1  0
M  END