
  SciTegic03291108512D

 33 36  0  0  0  0            999 V2000
   -0.2492   -3.3652    0.0000 S   0  0
   -1.8140   -4.8172    0.0000 O   0  0
   -0.9166   -2.0553    0.0000 O   0  0
   -1.9271   -1.7512    0.0000 O   0  0
    2.0649   -8.8691    0.0000 O   0  0
    3.0211   -7.8072    0.0000 O   0  0
   -1.5840   -3.3652    0.0000 N   0  0
    1.3533   -5.3441    0.0000 N   0  0
   -3.3248   -2.0483    0.0000 N   0  0
   -0.5041   -4.1498    0.0000 C   0  0
   -1.3291   -4.1498    0.0000 C   0  0
   -0.9166   -2.8803    0.0000 C   0  0
    0.8013   -4.7310    0.0000 C   0  0
   -0.0192   -4.8172    0.0000 C   0  0
    1.1818   -6.1511    0.0000 C   0  0
   -2.3687   -3.1102    0.0000 C   0  0
    1.2138   -4.0165    0.0000 C   0  0
    2.1070   -5.0085    0.0000 C   0  0
   -2.5402   -2.3033    0.0000 C   0  0
    1.7949   -6.7031    0.0000 C   0  0
    2.0208   -4.1881    0.0000 C   0  0
    0.3972   -6.4060    0.0000 C   0  0
    1.6234   -7.5101    0.0000 C   0  0
    0.2257   -7.2130    0.0000 C   0  0
    0.8388   -7.7650    0.0000 C   0  0
   -3.4963   -1.2414    0.0000 C   0  0
    2.2365   -8.0621    0.0000 C   0  0
   -4.2810   -0.9864    0.0000 C   0  0
   -2.8832   -0.6893    0.0000 C   0  0
   -4.4525   -0.1794    0.0000 C   0  0
   -3.0548    0.1177    0.0000 C   0  0
   -3.8394    0.3726    0.0000 C   0  0
   -5.2371    0.0755    0.0000 C   0  0
  1 10  1  0
  1 12  1  0
  2 11  2  0
  3 12  2  0
  4 19  2  0
  5 27  2  0
  6 27  1  0
  7 11  1  0
  7 12  1  0
  7 16  1  0
  8 13  1  0
  8 15  1  0
  8 18  1  0
  9 19  1  0
  9 26  1  0
 10 11  1  0
 10 14  2  0
 13 14  1  0
 13 17  2  0
 15 20  1  0
 15 22  2  0
 16 19  1  0
 17 21  1  0
 18 21  2  0
 20 23  2  0
 22 24  1  0
 23 25  1  0
 23 27  1  0
 24 25  2  0
 26 28  2  0
 26 29  1  0
 28 30  1  0
 29 31  2  0
 30 32  2  0
 30 33  1  0
 31 32  1  0
M  END