
          11280714452D 1   1.00000     0.00000     0

 26 29  0     0  0            999 V2000
    0.7417   -0.5792    0.0000 N   0  0  0  0  0  0           0  0  0
    0.3500   -1.0292    0.0000 C   0  0  0  0  0  0           0  0  0
    0.6542   -1.5417    0.0000 N   0  0  0  0  0  0           0  0  0
    1.2875   -0.8125    0.0000 C   0  0  0  0  0  0           0  0  0
    1.2417   -1.4125    0.0000 C   0  0  0  0  0  0           0  0  0
   -1.1583   -0.5375    0.0000 C   0  0  3  0  0  0           0  0  0
    2.2875    1.0125    0.0000 C   0  0  3  0  0  0           0  0  0
   -0.5583   -0.5250    0.0000 C   0  0  0  0  0  0           0  0  0
    2.5750    1.5375    0.0000 C   0  0  0  0  0  0           0  0  0
    1.9750    1.5208    0.0000 C   0  0  0  0  0  0           0  0  0
   -0.2458   -1.0417    0.0000 C   0  0  0  0  0  0           0  0  0
   -1.4458   -1.0667    0.0000 C   0  0  0  0  0  0           0  0  0
   -1.4708   -0.0125    0.0000 C   0  0  0  0  0  0           0  0  0
    2.3042    0.4125    0.0000 N   0  0  0  0  0  0           0  0  0
    1.8042   -0.4917    0.0000 C   0  0  0  0  0  0           0  0  0
    1.7917    0.1083    0.0000 C   0  0  0  0  0  0           0  0  0
   -1.1375   -1.5792    0.0000 C   0  0  0  0  0  0           0  0  0
   -2.0833   -0.0042    0.0000 C   0  0  0  0  0  0           0  0  0
   -1.1708    0.4958    0.0000 C   0  0  0  0  0  0           0  0  0
   -2.0458   -1.0750    0.0000 C   0  0  0  0  0  0           0  0  0
   -1.4708    1.0250    0.0000 C   0  0  0  0  0  0           0  0  0
   -2.3708    0.5125    0.0000 C   0  0  0  0  0  0           0  0  0
   -2.3333   -1.6042    0.0000 C   0  0  0  0  0  0           0  0  0
   -1.4250   -2.1000    0.0000 C   0  0  0  0  0  0           0  0  0
   -2.0250   -2.1125    0.0000 C   0  0  0  0  0  0           0  0  0
   -2.0625    1.0333    0.0000 C   0  0  0  0  0  0           0  0  0
  2  1  2  0     0  0
  3  2  1  0     0  0
  4  1  1  0     0  0
  5  4  2  0     0  0
  6  8  1  0     0  0
  7 14  1  0     0  0
  8 11  1  0     0  0
  9  7  1  0     0  0
 10  7  1  0     0  0
 11  2  1  0     0  0
 12  6  1  0     0  0
 13  6  1  0     0  0
 14 16  1  0     0  0
 15  4  1  0     0  0
 16 15  1  0     0  0
 17 12  1  0     0  0
 18 13  1  0     0  0
 19 13  2  0     0  0
 20 12  2  0     0  0
 21 19  1  0     0  0
 22 18  2  0     0  0
 23 20  1  0     0  0
 24 17  2  0     0  0
 25 23  2  0     0  0
 26 21  2  0     0  0
  5  3  1  0     0  0
  9 10  1  0     0  0
 22 26  1  0     0  0
 25 24  1  0     0  0
M  END