
          11280715192D 1   1.00000     0.00000     0

 24 25  0     0  0            999 V2000
    2.3917   -4.2167    0.0000 C   0  0  0  0  0  0           0  0  0
    3.0917   -2.9750    0.0000 C   0  0  0  0  0  0           0  0  0
    2.3792   -3.3917    0.0000 N   0  0  0  0  0  0           0  0  0
    1.6875   -4.6375    0.0000 C   0  0  0  0  0  0           0  0  0
    3.1125   -4.6167    0.0000 C   0  0  0  0  0  0           0  0  0
    1.7000   -5.4625    0.0000 C   0  0  0  0  0  0           0  0  0
    3.1167   -5.4417    0.0000 C   0  0  0  0  0  0           0  0  0
    3.8792   -3.2250    0.0000 N   0  0  0  0  0  0           0  0  0
    3.1000   -2.1417    0.0000 N   0  0  0  0  0  0           0  0  0
    2.4167   -5.8625    0.0000 C   0  0  0  0  0  0           0  0  0
    5.2792   -6.6500    0.0000 N   0  0  0  0  0  0           0  0  0
    6.0042   -7.0542    0.0000 C   0  0  3  0  0  0           0  0  0
    2.4250   -6.6875    0.0000 O   0  0  0  0  0  0           0  0  0
    0.9667   -4.2292    0.0000 Cl  0  0  0  0  0  0           0  0  0
    4.0542   -4.5375    0.0000 Cl  0  0  0  0  0  0           0  0  0
    3.8542   -6.6667    0.0000 C   0  0  3  0  0  0           0  0  0
    4.5750   -7.0667    0.0000 C   0  0  0  0  0  0           0  0  0
    3.1417   -7.0917    0.0000 C   0  0  0  0  0  0           0  0  0
    3.8417   -5.8417    0.0000 O   0  0  0  0  0  0           0  0  0
    3.8875   -1.8917    0.0000 C   0  0  0  0  0  0           0  0  0
    4.3667   -2.5625    0.0000 C   0  0  0  0  0  0           0  0  0
    6.0167   -7.8750    0.0000 C   0  0  0  0  0  0           0  0  0
    6.7125   -6.6292    0.0000 C   0  0  0  0  0  0           0  0  0
    5.4292   -7.6417    0.0000 C   0  0  0  0  0  0           0  0  0
  2  3  1  0     0  0
  3  1  1  0     0  0
  4  1  2  0     0  0
  5  1  1  0     0  0
  6  4  1  0     0  0
  7  5  2  0     0  0
  8  2  2  0     0  0
  9  2  1  0     0  0
 10  7  1  0     0  0
 11 17  1  0     0  0
 12 11  1  0     0  0
 13 10  1  0     0  0
 14  4  1  0     0  0
 15  5  1  0     0  0
 16 18  1  0     0  0
 17 16  1  0     0  0
 18 13  1  0     0  0
 19 16  1  0     0  0
 20  9  1  0     0  0
 21  8  1  0     0  0
 22 12  1  0     0  0
 23 12  1  0     0  0
 24 12  1  0     0  0
 10  6  2  0     0  0
 20 21  1  0     0  0
M  END