
          11280715122D 1   1.00000     0.00000     0

 22 22  0     0  0            999 V2000
    1.6042    1.2750    0.0000 N   0  0  0  0  0  0           0  0  0
    2.3917    1.0250    0.0000 C   0  0  0  0  0  0           0  0  0
    1.6125   -0.0625    0.0000 N   0  0  0  0  0  0           0  0  0
    1.1167    0.6083    0.0000 C   0  0  0  0  0  0           0  0  0
    5.7042   -3.9542    0.0000 C   0  0  0  0  0  0           0  0  0
    4.0667   -3.9167    0.0000 C   0  0  0  0  0  0           0  0  0
    4.4875   -3.2042    0.0000 C   0  0  0  0  0  0           0  0  0
    5.3125   -3.2292    0.0000 C   0  0  0  0  0  0           0  0  0
    2.3917    0.2000    0.0000 C   0  0  0  0  0  0           0  0  0
    4.4750   -4.6375    0.0000 O   0  0  0  0  0  0           0  0  0
    6.5292   -3.9875    0.0000 O   0  0  0  0  0  0           0  0  0
    3.8167    1.0375    0.0000 O   0  0  0  0  0  0           0  0  0
    3.2417   -3.9042    0.0000 O   0  0  0  0  0  0           0  0  0
    5.2667   -4.6625    0.0000 O   0  0  0  0  0  0           0  0  0
    3.1042    1.4458    0.0000 C   0  0  0  0  0  0           0  0  0
    5.2500    1.0500    0.0000 C   0  0  3  0  0  0           0  0  0
    4.5292    1.4583    0.0000 C   0  0  0  0  0  0           0  0  0
    5.2500    0.2250    0.0000 C   0  0  0  0  0  0           0  0  0
    5.9542    1.4708    0.0000 C   0  0  0  0  0  0           0  0  0
    6.6750    1.0583    0.0000 C   0  0  0  0  0  0           0  0  0
    5.9667   -0.1792    0.0000 C   0  0  0  0  0  0           0  0  0
    6.6792    0.2333    0.0000 C   0  0  0  0  0  0           0  0  0
  2  1  1  0     0  0
  3  4  1  0     0  0
  4  1  2  0     0  0
  6  7  1  0     0  0
  7  8  2  0     0  0
  8  5  1  0     0  0
  9  2  2  0     0  0
 10  6  2  0     0  0
 11  5  2  0     0  0
 12 15  1  0     0  0
 13  6  1  0     0  0
 14  5  1  0     0  0
 15  2  1  0     0  0
 16 17  1  0     0  0
 17 12  1  0     0  0
 18 16  1  0     0  0
 19 16  1  0     0  0
 20 19  1  0     0  0
 21 18  1  0     0  0
 22 20  1  0     0  0
  9  3  1  0     0  0
 22 21  1  0     0  0
M  END