
  SciTegic06051315212D

 24 25  0  0  0  0            999 V2000
    7.7908  -16.0219    0.0000 C   0  0
    7.7896  -16.8414    0.0000 C   0  0
    8.4977  -17.2504    0.0000 C   0  0
    9.2074  -16.8409    0.0000 C   0  0
    9.2045  -16.0183    0.0000 C   0  0
    8.4959  -15.6130    0.0000 C   0  0
    8.4935  -14.7958    0.0000 S   0  0
    9.1999  -14.3851    0.0000 N   0  0
    7.6973  -15.0025    0.0000 O   0  0
    8.0770  -14.0821    0.0000 O   0  0
    9.9107  -15.6070    0.0000 F   0  0
    7.0830  -15.6134    0.0000 F   0  0
    7.0816  -17.2494    0.0000 F   0  0
    9.9157  -17.2484    0.0000 F   0  0
    8.4975  -18.0676    0.0000 N   0  0
    7.7897  -18.4760    0.0000 C   0  0
    7.7895  -19.2932    0.0000 C   0  0
    7.0817  -19.7016    0.0000 C   0  0
    6.3762  -19.2916    0.0000 C   0  0
    5.6689  -19.6994    0.0000 C   0  0
    5.6682  -20.5174    0.0000 C   0  0
    6.3808  -20.9260    0.0000 C   0  0
    7.0852  -20.5160    0.0000 C   0  0
    4.9610  -20.9268    0.0000 O   0  0
  1  2  2  0
  2  3  1  0
  3  4  2  0
  4  5  1  0
  5  6  2  0
  6  1  1  0
  6  7  1  0
  7  8  1  0
  7  9  2  0
  7 10  2  0
  5 11  1  0
  1 12  1  0
  2 13  1  0
  4 14  1  0
  3 15  1  0
 15 16  1  0
 16 17  1  0
 17 18  1  0
 18 19  2  0
 19 20  1  0
 20 21  2  0
 21 22  1  0
 22 23  2  0
 23 18  1  0
 21 24  1  0
M  END