
  SciTegic09291413392D

 30 31  0  0  0  0            999 V2000
   17.0181  -23.0137    0.0000 O   0  0
   16.3506  -23.5073    0.0000 C   0  0
   16.6182  -24.2947    0.0000 C   0  0
   17.4451  -24.2842    0.0000 C   0  0
   17.6951  -23.4932    0.0000 C   0  0
   18.4753  -23.2310    0.0000 O   0  0
   17.8904  -24.9817    0.0000 C   0  0
   15.9317  -22.7976    0.0000 C   0  0
   15.6013  -23.8522    0.0000 C   0  0
   14.9285  -23.3735    0.0000 O   0  0
   15.1068  -22.8083    0.0000 O   0  0
   14.6856  -22.0999    0.0000 C   0  0
   13.8606  -22.1107    0.0000 C   0  0
   15.0892  -21.3808    0.0000 O   0  0
   18.7155  -24.9434    0.0000 C   0  0
   19.0942  -24.2063    0.0000 C   0  0
   19.9184  -24.1678    0.0000 C   0  0
   20.3608  -24.8619    0.0000 C   0  0
   19.9784  -25.5975    0.0000 C   0  0
   19.1581  -25.6341    0.0000 C   0  0
   13.4394  -21.3982    0.0000 C   0  0
   12.6144  -21.4090    0.0000 C   0  0
   13.8431  -20.6792    0.0000 C   0  0
   12.1932  -20.7007    0.0000 C   0  0
   12.2108  -22.1281    0.0000 C   0  0
   14.6680  -20.6684    0.0000 C   0  0
   13.4219  -19.9707    0.0000 C   0  0
   21.1851  -24.8255    0.0000 C   0  0
   21.6287  -25.5211    0.0000 O   0  0
   21.5657  -24.0935    0.0000 O   0  0
  2  3  1  0
  1  2  1  0
  3  4  1  0
  4  5  1  0
  5  1  1  0
  5  6  2  0
  4  7  2  0
  2  8  1  0
  2  9  1  0
  9 10  1  0
  8 11  1  0
 11 12  1  0
 12 13  1  0
 12 14  2  0
  7 15  1  0
 15 16  2  0
 16 17  1  0
 17 18  2  0
 18 19  1  0
 19 20  2  0
 20 15  1  0
 13 21  1  0
 21 22  1  0
 21 23  1  0
 22 24  1  0
 22 25  1  0
 23 26  1  0
 23 27  1  0
 18 28  1  0
 28 29  1  0
 28 30  2  0
M  END