
          11280714452D 1   1.00000     0.00000     0

 37 40  0     1  0            999 V2000
    7.6625   -1.4167    0.0000 S   0  0  3  0  0  0           0  0  0
    6.9292   -1.0417    0.0000 N   0  0  0  0  0  0           0  0  0
    8.3750   -1.8292    0.0000 C   0  0  0  0  0  0           0  0  0
    6.8917   -0.2167    0.0000 C   0  0  2  0  0  0           0  0  0
    0.5250   -1.7042    0.0000 C   0  0  0  0  0  0           0  0  0
    8.3667   -2.6500    0.0000 C   0  0  0  0  0  0           0  0  0
    9.0792   -1.4167    0.0000 C   0  0  0  0  0  0           0  0  0
    7.5875    0.2250    0.0000 C   0  0  0  0  0  0           0  0  0
    7.2417   -2.1292    0.0000 O   0  0  0  0  0  0           0  0  0
    8.0667   -0.7042    0.0000 O   0  0  0  0  0  0           0  0  0
   -0.1958   -1.3042    0.0000 N   0  0  0  0  0  0           0  0  0
    1.2292   -1.2750    0.0000 N   0  0  0  0  0  0           0  0  0
   -0.9000   -1.7375    0.0000 C   0  0  3  0  0  0           0  0  0
    3.3792   -1.6042    0.0000 C   0  0  0  0  0  0           0  0  0
    9.7917   -1.8250    0.0000 C   0  0  0  0  0  0           0  0  0
    9.0792   -3.0625    0.0000 C   0  0  0  0  0  0           0  0  0
   -1.7333   -1.7542    0.0000 C   0  0  0  0  0  0           0  0  0
   -1.2958   -2.4625    0.0000 C   0  0  0  0  0  0           0  0  0
    6.1625    0.1625    0.0000 C   0  0  0  0  0  0           0  0  0
    4.0750   -1.1667    0.0000 C   0  0  0  0  0  0           0  0  0
    0.5417   -2.5292    0.0000 O   0  0  0  0  0  0           0  0  0
    2.6500   -1.2292    0.0000 C   0  0  0  0  0  0           0  0  0
    1.9542   -1.6667    0.0000 C   0  0  0  0  0  0           0  0  0
    8.1417   -0.0667    0.0000 O   0  0  0  0  0  0           0  0  0
    9.7917   -2.6542    0.0000 C   0  0  0  0  0  0           0  0  0
    4.8042   -1.5500    0.0000 C   0  0  0  0  0  0           0  0  0
    4.0375   -0.3417    0.0000 C   0  0  0  0  0  0           0  0  0
    5.4667   -0.2792    0.0000 C   0  0  0  0  0  0           0  0  0
    7.5542    1.0500    0.0000 O   0  0  0  0  0  0           0  0  0
    5.5000   -1.1042    0.0000 C   0  0  0  0  0  0           0  0  0
    4.7292    0.1000    0.0000 C   0  0  0  0  0  0           0  0  0
    9.0792   -0.5917    0.0000 C   0  0  0  0  0  0           0  0  0
    7.6542   -3.0625    0.0000 C   0  0  0  0  0  0           0  0  0
    3.4167   -2.4375    0.0000 C   0  0  0  0  0  0           0  0  0
    2.7167   -2.8792    0.0000 C   0  0  0  0  0  0           0  0  0
    1.9875   -2.4917    0.0000 C   0  0  0  0  0  0           0  0  0
   10.5042   -3.0667    0.0000 C   0  0  0  0  0  0           0  0  0
  2  1  1  0     0  0
  3  1  1  0     0  0
  4  2  1  1     0  0
  5 12  1  0     0  0
  6  3  2  0     0  0
  7  3  1  0     0  0
  8  4  1  0     0  0
  9  1  2  0     0  0
 10  1  2  0     0  0
 11  5  1  0     0  0
 12 23  1  0     0  0
 13 11  1  0     0  0
 14 20  1  0     0  0
 15  7  2  0     0  0
 16  6  1  0     0  0
 17 13  1  0     0  0
 18 13  1  0     0  0
 19  4  1  0     0  0
 20 27  1  0     0  0
 21  5  2  0     0  0
 22 14  2  0     0  0
 23 22  1  0     0  0
 24  8  2  0     0  0
 25 15  1  0     0  0
 26 30  1  0     0  0
 27 31  2  0     0  0
 28 19  1  0     0  0
 29  8  1  0     0  0
 30 28  2  0     0  0
 31 28  1  0     0  0
 32  7  1  0     0  0
 33  6  1  0     0  0
 34 14  1  0     0  0
 35 34  2  0     0  0
 36 35  1  0     0  0
 37 25  1  0     0  0
 25 16  2  0     0  0
 20 26  2  0     0  0
 36 23  2  0     0  0
 17 18  1  0     0  0
M  END