
          11280715302D 1   1.00000     0.00000     0

 23 26  0     0  0            999 V2000
    3.5417   -4.2042    0.0000 C   0  0  0  0  0  0           0  0  0
    4.2625   -3.7875    0.0000 C   0  0  0  0  0  0           0  0  0
    2.8250   -3.8000    0.0000 C   0  0  0  0  0  0           0  0  0
    2.1125   -4.2125    0.0000 C   0  0  0  0  0  0           0  0  0
    3.5417   -5.0375    0.0000 C   0  0  0  0  0  0           0  0  0
    2.1125   -5.0375    0.0000 C   0  0  0  0  0  0           0  0  0
    4.2625   -2.9625    0.0000 N   0  0  0  0  0  0           0  0  0
    2.8250   -5.4500    0.0000 C   0  0  0  0  0  0           0  0  0
    4.9750   -2.5417    0.0000 C   0  0  3  0  0  0           0  0  0
    5.7042   -1.3042    0.0000 N   0  0  3  0  0  0           0  0  0
    2.8167   -2.9792    0.0000 N   0  0  0  0  0  0           0  0  0
    4.9667   -1.7167    0.0000 C   0  0  0  0  0  0           0  0  0
    4.9792   -4.1917    0.0000 O   0  0  0  0  0  0           0  0  0
    5.6875   -2.9542    0.0000 C   0  0  3  0  0  0           0  0  0
    1.3917   -5.4625    0.0000 N   0  0  0  0  0  0           0  0  0
    6.0917   -2.2417    0.0000 C   0  0  0  0  0  0           0  0  0
    6.3917   -2.5417    0.0000 C   0  0  0  0  0  0           0  0  0
    5.2917   -2.0250    0.0000 C   0  0  0  0  0  0           0  0  0
    6.4000   -1.7167    0.0000 C   0  0  0  0  0  0           0  0  0
    2.8250   -6.2750    0.0000 Cl  0  0  0  0  0  0           0  0  0
    1.4042   -3.8042    0.0000 C   0  0  0  0  0  0           0  0  0
    2.1042   -2.5667    0.0000 C   0  0  0  0  0  0           0  0  0
    1.4000   -2.9875    0.0000 C   0  0  0  0  0  0           0  0  0
  2  1  1  0     0  0
  3  1  2  0     0  0
  4  3  1  0     0  0
  5  1  1  0     0  0
  6  8  1  0     0  0
  7  2  1  0     0  0
  8  5  2  0     0  0
  9  7  1  0     0  0
 10 12  1  0     0  0
 11  3  1  0     0  0
 12  9  1  0     0  0
 13  2  2  0     0  0
 14  9  1  0     0  0
 15  6  1  0     0  0
 16 14  1  0     0  0
 17 14  1  0     0  0
 18 16  1  0     0  0
 19 17  1  0     0  0
 20  8  1  0     0  0
 21  4  1  0     0  0
 22 11  2  0     0  0
 23 22  1  0     0  0
  6  4  2  0     0  0
 23 21  2  0     0  0
 19 10  1  0     0  0
 18 10  1  0     0  0
M  END