
          11280715162D 1   1.00000     0.00000     0

 34 37  0     0  0            999 V2000
    6.2167   -6.0042    0.0000 C   0  0  0  0  0  0           0  0  0
    5.5000   -7.2500    0.0000 N   0  0  3  0  0  0           0  0  0
    6.2167   -6.8292    0.0000 C   0  0  0  0  0  0           0  0  0
    6.9250   -9.7292    0.0000 S   0  0  3  0  0  0           0  0  0
    4.7917   -6.0042    0.0000 C   0  0  0  0  0  0           0  0  0
    4.7917   -6.8292    0.0000 C   0  0  0  0  0  0           0  0  0
    7.5917   -5.6375    0.0000 N   0  0  3  0  0  0           0  0  0
    8.7875   -6.2417    0.0000 N   0  0  0  0  0  0           0  0  0
    6.8000   -5.4250    0.0000 C   0  0  0  0  0  0           0  0  0
    7.7167   -9.9417    0.0000 C   0  0  0  0  0  0           0  0  0
    7.9667   -6.3667    0.0000 C   0  0  0  0  0  0           0  0  0
    4.0750   -7.2417    0.0000 C   0  0  0  0  0  0           0  0  0
    6.7042  -10.5250    0.0000 O   0  0  0  0  0  0           0  0  0
    7.1375   -8.9292    0.0000 O   0  0  0  0  0  0           0  0  0
    6.2042   -9.3125    0.0000 N   0  0  0  0  0  0           0  0  0
    4.0750   -5.5917    0.0000 C   0  0  0  0  0  0           0  0  0
    1.9292   -4.3542    0.0000 C   0  0  0  0  0  0           0  0  0
    8.9167   -5.4292    0.0000 C   0  0  0  0  0  0           0  0  0
    8.1875   -5.0542    0.0000 C   0  0  0  0  0  0           0  0  0
    1.2167   -4.7667    0.0000 O   0  0  0  0  0  0           0  0  0
    5.5000   -8.0750    0.0000 C   0  0  0  0  0  0           0  0  0
    6.2125   -8.4875    0.0000 C   0  0  0  0  0  0           0  0  0
    7.9292  -10.7375    0.0000 C   0  0  0  0  0  0           0  0  0
    8.2917   -9.3542    0.0000 C   0  0  0  0  0  0           0  0  0
    3.3625   -6.0042    0.0000 C   0  0  0  0  0  0           0  0  0
    3.3625   -6.8292    0.0000 C   0  0  0  0  0  0           0  0  0
    2.6500   -4.7667    0.0000 C   0  0  0  0  0  0           0  0  0
    6.9292   -7.2417    0.0000 C   0  0  0  0  0  0           0  0  0
    9.3042  -10.3625    0.0000 C   0  0  0  0  0  0           0  0  0
    1.9292   -3.5292    0.0000 O   0  0  0  0  0  0           0  0  0
    8.7250  -10.9417    0.0000 C   0  0  0  0  0  0           0  0  0
    9.0875   -9.5667    0.0000 C   0  0  0  0  0  0           0  0  0
   10.1042  -10.5750    0.0000 F   0  0  0  0  0  0           0  0  0
    2.6500   -5.5917    0.0000 C   0  0  0  0  0  0           0  0  0
  2  3  1  0     0  0
  3  1  2  0     0  0
  4 15  1  0     0  0
  5  1  1  0     0  0
  6  5  1  0     0  0
  7  9  1  0     0  0
  8 11  2  0     0  0
  9  1  1  0     0  0
 10  4  1  0     0  0
 11  7  1  0     0  0
 12  6  2  0     0  0
 13  4  2  0     0  0
 14  4  2  0     0  0
 15 22  1  0     0  0
 16  5  2  0     0  0
 17 27  1  0     0  0
 18 19  2  0     0  0
 19  7  1  0     0  0
 20 17  2  0     0  0
 21  2  1  0     0  0
 22 21  1  0     0  0
 23 10  2  0     0  0
 24 10  1  0     0  0
 25 16  1  0     0  0
 26 25  2  0     0  0
 27 34  1  0     0  0
 28  3  1  0     0  0
 29 32  1  0     0  0
 30 17  1  0     0  0
 31 23  1  0     0  0
 32 24  2  0     0  0
 33 29  1  0     0  0
 34 25  1  0     0  0
  6  2  1  0     0  0
 18  8  1  0     0  0
 26 12  1  0     0  0
 29 31  2  0     0  0
M  END