
  SciTegic05201615352D

 46 45  0  0  0  0            999 V2000
   -1.1352   -1.3174    0.0000 O   0  0
    0.5148   -1.3174    0.0000 O   0  0
   -0.3102   -1.3174    0.0000 P   0  0
   -0.3102   -2.1424    0.0000 O   0  0
    0.4043   -2.5549    0.0000 C   0  0
    0.4043   -3.3799    0.0000 C   0  0
   -0.3102   -3.7924    0.0000 N   0  3
   -0.7227   -3.0780    0.0000 C   0  0
    0.1023   -4.5069    0.0000 C   0  0
   -1.0247   -4.2049    0.0000 C   0  0
   -0.3102   -0.4924    0.0000 O   0  0
    0.4043   -0.0799    0.0000 C   0  0
    0.4043    0.7451    0.0000 C   0  0  1  0  0  0
   -0.3102    1.1576    0.0000 C   0  0
   -1.0247    0.7451    0.0000 O   0  0
   -1.7391    1.1576    0.0000 C   0  0
   -1.7391    1.9826    0.0000 O   0  0
   -2.4536    0.7451    0.0000 C   0  0
   -3.1681    1.1576    0.0000 C   0  0
   -3.8825    0.7451    0.0000 C   0  0
   -4.5970    1.1576    0.0000 C   0  0
   -5.3115    0.7451    0.0000 C   0  0
   -6.0260    1.1576    0.0000 C   0  0
   -6.7404    0.7451    0.0000 C   0  0
   -7.4549    1.1576    0.0000 C   0  0
   -8.1694    0.7451    0.0000 C   0  0
   -8.8838    1.1576    0.0000 C   0  0
   -9.5983    0.7451    0.0000 C   0  0
  -10.3128    1.1576    0.0000 C   0  0
  -11.0273    0.7451    0.0000 C   0  0
    1.1188    1.1576    0.0000 O   0  0
    1.8332    0.7451    0.0000 C   0  0
    1.8332   -0.0799    0.0000 O   0  0
    2.5477    1.1576    0.0000 C   0  0
    3.2622    0.7451    0.0000 C   0  0
    3.9766    1.1576    0.0000 C   0  0
    4.6911    0.7451    0.0000 C   0  0
    5.4056    1.1576    0.0000 C   0  0
    6.1200    0.7451    0.0000 C   0  0
    6.8345    1.1576    0.0000 C   0  0
    7.5490    0.7451    0.0000 C   0  0
    8.2635    1.1576    0.0000 C   0  0
    8.9779    0.7451    0.0000 C   0  0
    9.6924    1.1576    0.0000 C   0  0
   10.4069    0.7451    0.0000 C   0  0
   11.1213    1.1576    0.0000 C   0  0
  3  1  1  0
  2  3  2  0
  3  4  1  0
 11  3  1  0
  5  4  1  0
  5  6  1  0
  6  7  1  0
  8  7  1  0
  9  7  1  0
 10  7  1  0
 12 11  1  0
 12 13  1  0
 13 14  1  0
 13 31  1  1
 14 15  1  0
 16 15  1  0
 16 17  2  0
 18 16  1  0
 18 19  1  0
 19 20  1  0
 20 21  1  0
 21 22  1  0
 22 23  1  0
 23 24  1  0
 24 25  1  0
 25 26  1  0
 26 27  1  0
 27 28  1  0
 28 29  1  0
 29 30  1  0
 32 31  1  0
 32 33  2  0
 32 34  1  0
 34 35  1  0
 35 36  1  0
 36 37  1  0
 37 38  1  0
 38 39  1  0
 39 40  1  0
 40 41  1  0
 41 42  1  0
 42 43  1  0
 43 44  1  0
 44 45  1  0
 45 46  1  0
M  CHG  1   7   1
M  END