
          05080814032D 1   1.00000     0.00000     0

 33 38  0     1  0            999 V2000
   17.2379  -23.2787    0.0000 C   0  0  0  0  0  0           0  0  0
   17.2379  -24.1083    0.0000 C   0  0  0  0  0  0           0  0  0
   17.9524  -24.5208    0.0000 N   0  0  3  0  0  0           0  0  0
   18.6714  -24.1083    0.0000 C   0  0  0  0  0  0           0  0  0
   18.6714  -23.2787    0.0000 C   0  0  0  0  0  0           0  0  0
   17.9524  -22.8616    0.0000 O   0  0  0  0  0  0           0  0  0
   17.9512  -25.3458    0.0000 C   0  0  0  0  0  0           0  0  0
   18.6651  -25.7593    0.0000 C   0  0  0  0  0  0           0  0  0
   18.6640  -26.5843    0.0000 C   0  0  0  0  0  0           0  0  0
   19.3779  -26.9978    0.0000 O   0  0  0  0  0  0           0  0  0
   20.0929  -26.5863    0.0000 C   0  0  0  0  0  0           0  0  0
   20.8042  -27.0010    0.0000 C   0  0  0  0  0  0           0  0  0
   20.8014  -25.3510    0.0000 C   0  0  0  0  0  0           0  0  0
   20.0898  -25.7642    0.0000 C   0  0  0  0  0  0           0  0  0
   21.5204  -25.7644    0.0000 C   0  0  0  0  0  0           0  0  0
   21.5187  -26.5925    0.0000 C   0  0  0  0  0  0           0  0  0
   22.9514  -25.7671    0.0000 C   0  0  0  0  0  0           0  0  0
   22.2344  -25.3493    0.0000 C   0  0  1  0  0  0           0  0  0
   22.9497  -26.5953    0.0000 N   0  0  3  0  0  0           0  0  0
   22.2310  -27.0012    0.0000 C   0  0  2  0  0  0           0  0  0
   22.3949  -27.8103    0.0000 C   0  0  0  0  0  0           0  0  0
   23.2150  -27.9044    0.0000 C   0  0  0  0  0  0           0  0  0
   23.5578  -27.1535    0.0000 C   0  0  0  0  0  0           0  0  0
   22.2348  -24.5244    0.0000 C   0  0  0  0  0  0           0  0  0
   21.5141  -27.4083    0.0000 H   0  0  0  0  0  0           0  0  0
   22.8995  -24.0376    0.0000 C   0  0  0  0  0  0           0  0  0
   22.6450  -23.2529    0.0000 N   0  0  0  0  0  0           0  0  0
   21.5647  -24.0368    0.0000 N   0  0  3  0  0  0           0  0  0
   21.8204  -23.2556    0.0000 C   0  0  0  0  0  0           0  0  0
   21.2722  -22.6456    0.0000 C   0  0  0  0  0  0           0  0  0
   20.4681  -22.8155    0.0000 C   0  0  0  0  0  0           0  0  0
   20.2152  -23.6010    0.0000 C   0  0  0  0  0  0           0  0  0
   20.7651  -24.2078    0.0000 C   0  0  0  0  0  0           0  0  0
  1  2  1  0     0  0
  7  8  1  0     0  0
  1  6  1  0     0  0
 15 18  1  0     0  0
 16 20  1  0     0  0
 19 17  1  0     0  0
 17 18  1  0     0  0
 19 20  1  0     0  0
  8  9  1  0     0  0
  2  3  1  0     0  0
  9 10  1  0     0  0
  3  4  1  0     0  0
 10 11  1  0     0  0
 20 21  1  0     0  0
 21 22  1  0     0  0
 22 23  1  0     0  0
 23 19  1  0     0  0
  4  5  1  0     0  0
 18 24  1  6     0  0
 11 12  2  0     0  0
 20 25  1  1     0  0
 24 26  2  0     0  0
 12 16  1  0     0  0
  5  6  1  0     0  0
 26 27  1  0     0  0
 27 29  2  0     0  0
 28 24  1  0     0  0
 15 13  1  0     0  0
 28 29  1  0     0  0
 13 14  2  0     0  0
 29 30  1  0     0  0
 14 11  1  0     0  0
 30 31  2  0     0  0
 15 16  2  0     0  0
 31 32  1  0     0  0
  3  7  1  0     0  0
 32 33  2  0     0  0
 33 28  1  0     0  0
M  END