
  SciTegic01161211252D

 36 40  0  0  0  0            999 V2000
   15.0926  -10.7007    0.0000 N   0  0
   15.0884  -11.5257    0.0000 C   0  0
   15.7970  -11.9395    0.0000 C   0  0
   16.5141  -11.5329    0.0000 C   0  0
   16.5183  -10.7079    0.0000 C   0  0
   15.8053  -10.2894    0.0000 C   0  0
   13.7153   -9.0117    0.0000 C   0  0
   14.4177   -9.4445    0.0000 C   0  0
   14.3941  -10.2692    0.0000 C   0  0
   17.2510  -10.3511    0.0000 C   0  0
   17.9533  -10.7840    0.0000 N   0  0
   17.2746   -9.5264    0.0000 O   0  0
   17.9254  -11.6050    0.0000 C   0  0
   18.6236  -12.0376    0.0000 C   0  0
   19.3520  -11.6493    0.0000 N   0  0
   19.3777  -10.8237    0.0000 C   0  0
   18.6750  -10.3863    0.0000 C   0  0
   20.0498  -12.0839    0.0000 C   0  0
   20.0216  -12.9096    0.0000 C   0  0
   20.7216  -13.3450    0.0000 C   0  0
   21.4501  -12.9559    0.0000 C   0  0
   21.4743  -12.1269    0.0000 C   0  0
   20.7738  -11.6952    0.0000 C   0  0
   22.1526  -13.3924    0.0000 N   0  3
   22.8796  -13.0023    0.0000 O   0  0
   22.1270  -14.2171    0.0000 O   0  5
   15.1437   -9.0527    0.0000 C   0  0
   12.9893   -9.4035    0.0000 C   0  0
   12.2905   -8.9685    0.0000 C   0  0
   12.2482  -10.6181    0.0000 C   0  0
   12.9708  -10.2244    0.0000 C   0  0
   11.5407  -10.1852    0.0000 C   0  0
   11.5640   -9.3615    0.0000 C   0  0
   10.7879   -9.0848    0.0000 O   0  0
   10.2847   -9.7375    0.0000 C   0  0
   10.7502  -10.4175    0.0000 O   0  0
  8  9  1  0
  9  1  1  0
 18 19  2  0
  2  3  1  0
 19 20  1  0
  5 10  1  0
 20 21  2  0
  3  4  1  0
 21 22  1  0
 10 11  1  0
 22 23  2  0
 23 18  1  0
 15 18  1  0
  4  5  1  0
 10 12  2  0
 11 13  1  0
 24 25  2  0
 24 26  1  0
 21 24  1  0
  5  6  1  0
  8 27  1  0
  7 28  1  0
  1  2  1  0
 28 29  2  0
 29 33  1  0
  7  8  1  0
 32 30  1  0
  1  6  1  0
 30 31  2  0
 31 28  1  0
 32 33  2  0
 11 17  1  0
 13 14  1  0
 14 15  1  0
 15 16  1  0
 16 17  1  0
 33 34  1  0
 34 35  1  0
 35 36  1  0
 36 32  1  0
M  CHG  2  24   1  26  -1
M  END