
  SciTegic12011113542D

337377  0  0  0  0            999 V2000
   13.1232  -15.6671    0.0000 O   0  0
   13.9407  -15.5456    0.0000 C   0  0
   14.2033  -14.7663    0.0000 C   0  0  2  0  0  0
   13.7306  -14.0922    0.0000 C   0  0  1  0  0  0
   12.9042  -14.0798    0.0000 O   0  0
   14.2217  -13.4322    0.0000 C   0  0
   15.0026  -13.6987    0.0000 C   0  0  1  0  0  0
   14.9924  -14.5197    0.0000 O   0  0
   15.6751  -13.2222    0.0000 N   0  0
   15.6875  -12.3958    0.0000 C   0  0
   16.4765  -12.1491    0.0000 N   0  0
   16.9547  -12.8255    0.0000 C   0  0
   17.7714  -12.9235    0.0000 C   0  0
   18.2663  -12.2620    0.0000 O   0  0
   18.0971  -13.6816    0.0000 N   0  0
   17.6060  -14.3415    0.0000 C   0  0
   17.9316  -15.0995    0.0000 N   0  0
   16.7854  -14.2451    0.0000 N   0  0
   16.4598  -13.4870    0.0000 C   0  0
   10.1136  -15.9655    0.0000 O   0  0
   10.2620  -16.7785    0.0000 C   0  0
   11.0495  -17.0154    0.0000 C   0  0  2  0  0  0
   11.7077  -16.5207    0.0000 C   0  0  1  0  0  0
   11.6929  -15.6943    0.0000 O   0  0
   12.3835  -16.9898    0.0000 C   0  0
   12.1429  -17.7790    0.0000 C   0  0  1  0  0  0
   11.3220  -17.7958    0.0000 O   0  0
   12.6413  -18.4354    0.0000 N   0  0
   13.4677  -18.4206    0.0000 C   0  0
   13.7402  -19.2010    0.0000 N   0  0
   13.0800  -19.7013    0.0000 C   0  0
   13.0089  -20.5208    0.0000 C   0  0
   13.6864  -20.9936    0.0000 O   0  0
   12.2620  -20.8712    0.0000 N   0  0
   11.5863  -20.4022    0.0000 C   0  0
   10.8394  -20.7526    0.0000 N   0  0
   11.6556  -19.5789    0.0000 N   0  0
   12.4025  -19.2284    0.0000 C   0  0
    7.0745  -15.5792    0.0000 O   0  0
    7.0796  -16.4040    0.0000 C   0  0
    7.7924  -16.8178    0.0000 C   0  0  2  0  0  0
    8.5450  -16.4797    0.0000 C   0  0  1  0  0  0
    8.7164  -15.6685    0.0000 O   0  0
    9.0994  -17.0862    0.0000 C   0  0
    8.6873  -17.8028    0.0000 C   0  0  1  0  0  0
    7.8816  -17.6334    0.0000 O   0  0
    9.0254  -18.5553    0.0000 N   0  0
    9.8492  -18.6420    0.0000 C   0  0
   10.3314  -17.9685    0.0000 O   0  0
   10.1873  -19.3945    0.0000 N   0  0
    9.7034  -20.0641    0.0000 C   0  0
   10.0416  -20.8167    0.0000 O   0  0
    8.8852  -19.9796    0.0000 C   0  0
    8.4013  -20.6493    0.0000 C   0  0
    8.5470  -19.2271    0.0000 C   0  0
    4.0317  -15.2450    0.0000 O   0  0
    4.0508  -16.0696    0.0000 C   0  0
    4.7706  -16.4712    0.0000 C   0  0  2  0  0  0
    5.5172  -16.1203    0.0000 C   0  0  1  0  0  0
    5.6749  -15.3064    0.0000 O   0  0
    6.0819  -16.7174    0.0000 C   0  0
    5.6820  -17.4409    0.0000 C   0  0  1  0  0  0
    4.8736  -17.2852    0.0000 O   0  0
    6.0329  -18.1875    0.0000 N   0  0
    6.8580  -18.2602    0.0000 C   0  0
    7.3287  -17.5786    0.0000 O   0  0
    7.2089  -19.0068    0.0000 N   0  0
    6.7364  -19.6846    0.0000 C   0  0
    7.0873  -20.4313    0.0000 O   0  0
    5.9169  -19.6140    0.0000 C   0  0
    5.4444  -20.2918    0.0000 C   0  0
    5.5660  -18.8673    0.0000 C   0  0
    1.0581  -14.4915    0.0000 C   0  0
    1.5624  -15.1410    0.0000 C   0  0  2  0  0  0
    2.3855  -15.1195    0.0000 C   0  0  1  0  0  0
    2.8525  -14.4376    0.0000 O   0  0
    2.6642  -15.8935    0.0000 C   0  0
    2.0106  -16.3970    0.0000 C   0  0  1  0  0  0
    1.3320  -15.9349    0.0000 O   0  0
    2.0361  -17.2209    0.0000 N   0  0
    2.7181  -17.6879    0.0000 C   0  0
    2.4876  -18.4818    0.0000 N   0  0
    1.6597  -18.5066    0.0000 C   0  0
    1.1266  -19.1331    0.0000 C   0  0
    1.4045  -19.9112    0.0000 O   0  0
    0.3149  -18.9857    0.0000 N   0  0
    0.0363  -18.2117    0.0000 C   0  0
   -0.7755  -18.0643    0.0000 N   0  0
    0.5701  -17.5811    0.0000 N   0  0
    1.3818  -17.7285    0.0000 C   0  0
    3.6751  -14.5009    0.0000 P   0  0
    3.7309  -13.6699    0.0000 O   0  0
    4.4134  -14.1333    0.0000 N   0  0
    1.3695  -13.7275    0.0000 O   0  0
   -0.7268  -11.5403    0.0000 O   0  0
   -1.3317  -12.1035    0.0000 C   0  0
   -1.1374  -12.8754    0.0000 C   0  0  2  0  0  0
   -0.3613  -13.1504    0.0000 C   0  0  1  0  0  0
    0.3530  -12.7245    0.0000 O   0  0
   -0.3786  -13.9728    0.0000 C   0  0
   -1.1693  -14.2086    0.0000 C   0  0  1  0  0  0
   -1.6371  -13.5340    0.0000 O   0  0
   -1.4407  -14.9869    0.0000 N   0  0
   -0.9715  -15.6673    0.0000 C   0  0
   -1.4711  -16.3259    0.0000 N   0  0
   -2.2530  -16.0523    0.0000 C   0  0
   -2.9752  -16.4461    0.0000 C   0  0
   -2.9946  -17.2721    0.0000 O   0  0
   -3.6801  -16.0175    0.0000 N   0  0
   -3.6628  -15.1951    0.0000 C   0  0
   -4.3678  -14.7664    0.0000 N   0  0
   -2.9385  -14.7977    0.0000 N   0  0
   -2.2335  -15.2263    0.0000 C   0  0
   -1.8576   -8.6904    0.0000 O   0  0
   -2.5773   -9.0934    0.0000 C   0  0
   -2.5951   -9.9175    0.0000 C   0  0  2  0  0  0
   -1.9354  -10.4129    0.0000 C   0  0  1  0  0  0
   -1.1424  -10.1710    0.0000 O   0  0
   -2.1985  -11.1913    0.0000 C   0  0
   -3.0250  -11.1769    0.0000 C   0  0  1  0  0  0
   -3.2660  -10.3897    0.0000 O   0  0
   -3.5204  -11.8366    0.0000 N   0  0
   -3.1982  -12.5996    0.0000 C   0  0
   -2.3756  -12.6963    0.0000 O   0  0
   -3.6936  -13.2593    0.0000 N   0  0
   -4.5137  -13.1593    0.0000 C   0  0
   -5.0091  -13.8190    0.0000 O   0  0
   -4.8351  -12.4021    0.0000 C   0  0
   -5.6552  -12.3020    0.0000 C   0  0
   -4.3397  -11.7424    0.0000 C   0  0
   -1.8488   -7.8698    0.0000 P   0  0
   -1.0250   -7.8667    0.0000 O   0  0
   -0.5394  -10.7341    0.0000 P   0  0
    0.0417  -10.1458    0.0000 N   0  0
    0.1708  -11.1458    0.0000 O   0  0
    1.1516  -12.9316    0.0000 P   0  0
    1.2046  -12.1010    0.0000 O   0  0
    1.8885  -12.5624    0.0000 N   0  0
    6.4548  -15.0373    0.0000 P   0  0
    6.0375  -14.3167    0.0000 O   0  0
    6.8625  -14.3167    0.0000 N   0  0
    9.5008  -15.4127    0.0000 P   0  0
    9.0833  -14.6958    0.0000 N   0  0
    9.9083  -14.6958    0.0000 O   0  0
   12.3998  -15.2690    0.0000 P   0  0
   11.9792  -14.5500    0.0000 N   0  0
   12.8042  -14.5500    0.0000 O   0  0
   -0.5408   -4.9441    0.0000 O   0  0
   -1.3399   -4.7331    0.0000 C   0  0
   -1.8888   -5.3454    0.0000 C   0  0  2  0  0  0
   -1.7206   -6.1514    0.0000 C   0  0  1  0  0  0
   -0.9662   -6.4890    0.0000 O   0  0
   -2.4323   -6.5639    0.0000 C   0  0
   -3.0446   -6.0108    0.0000 C   0  0  1  0  0  0
   -2.7112   -5.2605    0.0000 O   0  0
   -3.8506   -6.1832    0.0000 N   0  0
   -4.1882   -6.9376    0.0000 C   0  0
   -5.0105   -6.8528    0.0000 N   0  0
   -5.1829   -6.0426    0.0000 C   0  0
   -5.8946   -5.6301    0.0000 C   0  0
   -6.6145   -6.0426    0.0000 O   0  0
   -5.8946   -4.8051    0.0000 N   0  0
   -5.1829   -4.3926    0.0000 C   0  0
   -5.1829   -3.5676    0.0000 N   0  0
   -4.4670   -4.8051    0.0000 N   0  0
   -4.4670   -5.6301    0.0000 C   0  0
    0.9039   -2.2333    0.0000 O   0  0
    0.1495   -1.8999    0.0000 C   0  0
   -0.5201   -2.3805    0.0000 C   0  0  2  0  0  0
   -0.5201   -3.2055    0.0000 C   0  0  1  0  0  0
    0.1498   -3.6939    0.0000 O   0  0
   -1.3006   -3.4626    0.0000 C   0  0
   -1.7853   -2.7930    0.0000 C   0  0  1  0  0  0
   -1.3006   -2.1275    0.0000 O   0  0
   -2.6103   -2.7930    0.0000 N   0  0
   -3.0270   -3.5089    0.0000 C   0  0
   -2.6103   -4.2247    0.0000 O   0  0
   -3.8520   -3.5089    0.0000 N   0  0
   -4.2645   -2.7930    0.0000 C   0  0
   -5.0895   -2.7930    0.0000 O   0  0
   -3.8520   -2.0813    0.0000 C   0  0
   -4.2645   -1.3654    0.0000 C   0  0
   -3.0270   -2.0813    0.0000 C   0  0
    0.1663   -4.5187    0.0000 P   0  0
    0.9875   -4.5167    0.0000 N   0  0
    0.5708   -5.2292    0.0000 O   0  0
    4.4592    0.6366    0.0000 O   0  0
    3.7285    1.0229    0.0000 C   0  0
    3.0553    0.5507    0.0000 C   0  0  2  0  0  0
    3.0369   -0.2725    0.0000 C   0  0  1  0  0  0
    3.6954   -0.7720    0.0000 O   0  0
    2.2503   -0.5133    0.0000 C   0  0
    1.7790    0.1639    0.0000 C   0  0  1  0  0  0
    2.2735    0.8193    0.0000 O   0  0
    0.9549    0.1783    0.0000 N   0  0
    0.4554   -0.4802    0.0000 C   0  0
   -0.3264   -0.2116    0.0000 N   0  0
   -0.3110    0.6166    0.0000 C   0  0
   -0.9110    1.1793    0.0000 C   0  0
   -1.7016    0.9395    0.0000 O   0  0
   -0.7244    1.9830    0.0000 N   0  0
    0.0622    2.2238    0.0000 C   0  0
    0.2488    3.0274    0.0000 N   0  0
    0.6662    1.6601    0.0000 N   0  0
    0.4796    0.8565    0.0000 C   0  0
    8.7817   -0.5226    0.0000 O   0  0
    8.7642    0.3036    0.0000 C   0  0
    8.0243    0.6624    0.0000 C   0  0  2  0  0  0
    7.2959    0.2785    0.0000 C   0  0
    6.7032    0.8489    0.0000 C   0  0  1  0  0  0
    5.8894    0.7037    0.0000 O   0  0
    7.0660    1.5899    0.0000 C   0  0  1  0  0  0
    7.8791    1.4763    0.0000 O   0  0
    6.6780    2.3171    0.0000 N   0  0
    5.8598    2.4336    0.0000 C   0  0
    5.7146    3.2474    0.0000 N   0  0
    6.4458    3.6365    0.0000 C   0  0
    6.6461    4.4406    0.0000 C   0  0
    6.0522    5.0162    0.0000 O   0  0
    7.4391    4.6631    0.0000 N   0  0
    8.0318    4.0918    0.0000 C   0  0
    8.8249    4.3227    0.0000 N   0  0
    7.8327    3.2897    0.0000 N   0  0
    7.0397    3.0622    0.0000 C   0  0
   11.0864   -3.0658    0.0000 O   0  0
   10.7954   -2.2882    0.0000 C   0  0
   11.2727   -1.6163    0.0000 C   0  0  2  0  0  0
   11.0048   -0.8360    0.0000 C   0  0  1  0  0  0
   10.2118   -0.5909    0.0000 O   0  0
   11.6595   -0.3394    0.0000 C   0  0
   12.3367   -0.8132    0.0000 C   0  0  1  0  0  0
   12.0930   -1.6021    0.0000 O   0  0
   12.7475   -0.0978    0.0000 N   0  0
   12.3342    0.6200    0.0000 C   0  0
   11.5059    0.6151    0.0000 O   0  0
   12.7450    1.3355    0.0000 N   0  0
   13.5712    1.3367    0.0000 C   0  0
   13.9820    2.0522    0.0000 O   0  0
   13.9830    0.6246    0.0000 C   0  0
   14.8092    0.6259    0.0000 C   0  0
   13.5722   -0.0908    0.0000 C   0  0
   12.3922   -5.3583    0.0000 O   0  0
   13.2125   -5.2725    0.0000 C   0  0
   13.5546   -4.5227    0.0000 C   0  0  2  0  0  0
   13.1444   -3.8069    0.0000 C   0  0
   12.3156   -3.7952    0.0000 O   0  0
   13.6938   -3.1957    0.0000 C   0  0
   14.4473   -3.5357    0.0000 C   0  0  1  0  0  0
   14.3575   -4.3541    0.0000 O   0  0
   15.2706   -3.5119    0.0000 N   0  0
   15.6661   -2.7841    0.0000 C   0  0
   15.2285   -2.0808    0.0000 O   0  0
   16.4907   -2.7598    0.0000 N   0  0
   16.9241   -3.4633    0.0000 C   0  0
   17.7487   -3.4390    0.0000 O   0  0
   16.5327   -4.1868    0.0000 C   0  0
   15.7080   -4.2110    0.0000 C   0  0
    9.5962   -6.8159    0.0000 C   0  0
   10.2532   -7.3104    0.0000 C   0  0  2  0  0  0
   11.0419   -7.0738    0.0000 C   0  0  1  0  0  0
   11.3136   -6.2933    0.0000 O   0  0
   11.5138   -7.7476    0.0000 C   0  0
   11.0151   -8.4050    0.0000 C   0  0  1  0  0  0
   10.2391   -8.1370    0.0000 O   0  0
   11.2558   -9.1933    0.0000 N   0  0
   12.0364   -9.4651    0.0000 C   0  0
   12.0223  -10.2916    0.0000 N   0  0
   11.2298  -10.5327    0.0000 C   0  0
   10.8797  -11.2771    0.0000 C   0  0
   11.3520  -11.9550    0.0000 O   0  0
   10.0577  -11.3477    0.0000 N   0  0
    9.5858  -10.6739    0.0000 C   0  0
    8.7639  -10.7445    0.0000 N   0  0
    9.9356   -9.9254    0.0000 N   0  0
   10.7575   -9.8548    0.0000 C   0  0
    8.8382   -7.1386    0.0000 O   0  0
    6.5478   -7.3381    0.0000 C   0  0
    6.5856   -8.1595    0.0000 C   0  0  2  0  0  0
    7.2707   -8.6163    0.0000 C   0  0  1  0  0  0
    8.0442   -8.3281    0.0000 O   0  0
    7.0524   -9.4094    0.0000 C   0  0
    6.2281   -9.4443    0.0000 C   0  0  1  0  0  0
    5.9398   -8.6756    0.0000 O   0  0
    5.7742  -10.1323    0.0000 N   0  0
    6.0624  -10.9070    0.0000 C   0  0
    5.4166  -11.4230    0.0000 N   0  0
    4.7256  -10.9662    0.0000 C   0  0
    3.9289  -11.1710    0.0000 C   0  0
    3.7077  -11.9670    0.0000 O   0  0
    3.3505  -10.5827    0.0000 N   0  0
    3.5688   -9.7896    0.0000 C   0  0
    2.9904   -9.2013    0.0000 N   0  0
    4.3685   -9.5819    0.0000 N   0  0
    4.9469  -10.1701    0.0000 C   0  0
    8.0961   -7.5048    0.0000 P   0  0
    5.8151   -6.9587    0.0000 O   0  0
    7.2661   -7.5119    0.0000 O   0  0
    7.6750   -6.7954    0.0000 N   0  0
   12.1240   -6.1387    0.0000 P   0  0
   12.3333   -6.9333    0.0000 N   0  0
   12.9458   -6.1375    0.0000 O   0  0
   11.9130   -3.0751    0.0000 P   0  0
   12.6250   -2.6583    0.0000 O   0  0
   11.9083   -2.2500    0.0000 N   0  0
    9.4788   -0.9695    0.0000 P   0  0
    9.0583   -1.6792    0.0000 N   0  0
    9.8833   -1.6792    0.0000 O   0  0
    5.1559    1.0820    0.0000 P   0  0
    4.5667    1.6708    0.0000 N   0  0
    5.5625    1.8000    0.0000 O   0  0
    5.2106   -7.5201    0.0000 C   0  0
    4.4221   -7.2773    0.0000 C   0  0
    5.3945   -8.3243    0.0000 O   0  0
    3.8176   -7.8387    0.0000 C   0  0
    3.0292   -7.5959    0.0000 C   0  0
    2.8452   -6.7917    0.0000 C   0  0
    3.4495   -6.2308    0.0000 C   0  0  2  0  0  0
    4.2178   -6.5209    0.0000 S   0  0
    4.7350   -5.8782    0.0000 C   0  0
    3.4873   -5.4038    0.0000 C   0  0  2  0  0  0
    4.2788   -5.1867    0.0000 C   0  0  1  0  0  0
    4.3170   -4.3669    0.0000 N   0  0
    3.5490   -4.0772    0.0000 C   0  0
    3.0364   -4.7181    0.0000 N   0  0
    2.7047   -5.6773    0.0000 H   0  0
    5.0517   -4.9080    0.0000 H   0  0
    3.3308   -3.2816    0.0000 O   0  0
    3.5923   -1.5905    0.0000 P   0  0
    4.4167   -1.5875    0.0000 N   0  0
    3.8042   -2.3833    0.0000 O   0  0
   -2.4375   -7.2792    0.0000 N   0  0
   13.7040   -2.3710    0.0000 N   0  0
   14.4274   -1.9721    0.0000 C   0  0
   14.4400   -1.1508    0.0000 C   0  0
   13.7328   -0.7253    0.0000 N   0  0
   13.0113   -1.1273    0.0000 C   0  0
   12.9969   -1.9548    0.0000 C   0  0
154155  1  0
150155  1  0
154156  1  6
156157  1  0
157158  2  0
158159  1  0
159160  1  0
160161  2  0
160162  1  0
162163  1  0
163164  1  0
163165  2  0
165166  1  0
159166  2  0
156166  1  0
  3  4  1  0
  4  5  1  1
  4  6  1  0
 74 73  1  6
 74 75  1  0
 75 76  1  1
 75 77  1  0
 77 78  1  0
 78 79  1  0
 74 79  1  0
 78 80  1  6
 80 81  1  0
 81 82  2  0
 82 83  1  0
 83 84  1  0
 84 85  2  0
 84 86  1  0
167168  1  0
169168  1  6
169170  1  0
170171  1  1
170172  1  0
172173  1  0
173174  1  0
169174  1  0
173175  1  6
175176  1  0
176177  2  0
176178  1  0
178179  1  0
179180  2  0
179181  1  0
181182  1  0
181183  2  0
175183  1  0
 86 87  1  0
171184  1  0
184148  1  0
 87 88  1  0
184185  1  0
 87 89  2  0
184186  2  0
 89 90  1  0
 83 90  2  0
 80 90  1  0
  6  7  1  0
 76 91  1  0
 91 56  1  0
  7  8  1  0
 91 92  2  0
  3  8  1  0
 91 93  1  0
  7  9  1  6
 73 94  1  0
  9 10  1  0
 10 11  2  0
 11 12  1  0
 12 13  1  0
 39 40  1  0
 41 40  1  6
 41 42  1  0
187188  1  0
189188  1  6
189190  1  0
190191  1  1
190192  1  0
192193  1  0
193194  1  0
189194  1  0
193195  1  6
195196  1  0
196197  2  0
197198  1  0
198199  1  0
199200  2  0
199201  1  0
201202  1  0
202203  1  0
202204  2  0
204205  1  0
198205  2  0
195205  1  0
 42 43  1  1
 42 44  1  0
 44 45  1  0
 45 46  1  0
 41 46  1  0
 45 47  1  6
 47 48  1  0
 48 49  2  0
 48 50  1  0
 50 51  1  0
 51 52  2  0
 51 53  1  0
 95 96  1  0
 97 96  1  6
 97 98  1  0
 98 99  1  1
 98100  1  0
100101  1  0
101102  1  0
206207  1  0
208207  1  6
208209  1  0
209210  1  0
210211  1  1
210212  1  0
212213  1  0
208213  1  0
212214  1  6
214215  1  0
215216  2  0
216217  1  0
217218  1  0
218219  2  0
218220  1  0
220221  1  0
221222  1  0
221223  2  0
223224  1  0
217224  2  0
214224  1  0
 97102  1  0
101103  1  6
103104  1  0
104105  2  0
105106  1  0
106107  1  0
107108  2  0
107109  1  0
109110  1  0
110111  1  0
110112  2  0
112113  1  0
106113  2  0
103113  1  0
 53 54  1  0
 53 55  2  0
 47 55  1  0
225226  1  0
227226  1  6
227228  1  0
228229  1  1
228230  1  0
230231  1  0
231232  1  0
227232  1  0
231233  1  6
233234  1  0
234235  2  0
234236  1  0
236237  1  0
237238  2  0
237239  1  0
239240  1  0
239241  2  0
233241  1  0
 13 14  2  0
 13 15  1  0
 15 16  1  0
 16 17  1  0
 16 18  2  0
 20 21  1  0
 22 21  1  6
 22 23  1  0
 23 24  1  1
 23 25  1  0
 25 26  1  0
 26 27  1  0
 22 27  1  0
 26 28  1  6
114115  1  0
116115  1  6
242243  1  0
244243  1  6
244245  1  0
245246  1  0
247248  1  0
248249  1  0
244249  1  0
248250  1  6
250251  1  0
251252  2  0
251253  1  0
253254  1  0
254255  2  0
254256  1  0
256257  2  0
250257  1  0
116117  1  0
117118  1  1
117119  1  0
119120  1  0
120121  1  0
116121  1  0
120122  1  6
122123  1  0
123124  2  0
123125  1  0
125126  1  0
126127  2  0
126128  1  0
128129  1  0
128130  2  0
122130  1  0
 28 29  1  0
 29 30  2  0
259258  1  6
259260  1  0
260261  1  1
260262  1  0
262263  1  0
263264  1  0
259264  1  0
263265  1  6
265266  1  0
266267  2  0
267268  1  0
268269  1  0
269270  2  0
269271  1  0
271272  1  0
272273  1  0
272274  2  0
274275  1  0
268275  2  0
265275  1  0
131132  2  0
258276  1  0
131114  1  0
 30 31  1  0
118133  1  0
133 95  1  0
 56 57  1  0
133134  1  0
 58 57  1  6
133135  2  0
 58 59  1  0
 99136  1  0
136 94  1  0
 59 60  1  1
136137  2  0
 59 61  1  0
136138  1  0
 61 62  1  0
 60139  1  0
139 39  1  0
278277  1  6
278279  1  0
279280  1  1
279281  1  0
281282  1  0
282283  1  0
278283  1  0
282284  1  6
284285  1  0
285286  2  0
286287  1  0
287288  1  0
288289  2  0
288290  1  0
290291  1  0
291292  1  0
291293  2  0
293294  1  0
287294  2  0
284294  1  0
 62 63  1  0
280295  1  0
295276  1  0
139140  2  0
277296  1  0
 58 63  1  0
295297  2  0
139141  1  0
295298  1  0
 62 64  1  6
261299  1  0
299242  1  0
 43142  1  0
299300  1  0
142 20  1  0
299301  2  0
 64 65  1  0
246302  1  0
302225  1  0
142143  1  0
302303  2  0
 65 66  2  0
302304  1  0
142144  2  0
229305  1  0
305206  1  0
 65 67  1  0
305306  1  0
 24145  1  0
305307  2  0
145  1  1  0
211308  1  0
308187  1  0
 67 68  1  0
308309  1  0
145146  1  0
308310  2  0
 68 69  2  0
296311  1  0
145147  2  0
311312  1  0
 68 70  1  0
311313  2  0
 70 71  1  0
312314  1  0
 70 72  2  0
314315  1  0
 64 72  1  0
315316  1  0
 31 32  1  0
317316  1  1
317318  1  0
 32 33  2  0
 32 34  1  0
318319  1  0
319321  1  0
320317  1  0
320321  1  0
 34 35  1  0
 35 36  1  0
 35 37  2  0
 37 38  1  0
 31 38  2  0
321322  1  0
322323  1  0
323324  1  0
324320  1  0
 28 38  1  0
320325  1  6
 18 19  1  0
321326  1  6
 12 19  2  0
323327  2  0
  9 19  1  0
191328  1  0
328329  1  0
  1  2  1  0
328330  2  0
167328  1  0
131152  1  0
  3  2  1  6
131331  1  0
148149  1  0
247332  1  0
332333  1  0
150149  1  6
150151  1  0
151152  1  1
151153  1  0
153154  1  0
332337  1  0
333334  1  0
334335  1  0
335336  1  0
336337  1  0
M  END