
          11280715182D 1   1.00000     0.00000     0

 19 20  0     0  0            999 V2000
    8.4167   -8.4167    0.0000 C   0  0  0  0  0  0           0  0  0
    9.1292   -8.8375    0.0000 C   0  0  0  0  0  0           0  0  0
    9.8500   -8.4250    0.0000 C   0  0  3  0  0  0           0  0  0
    8.4167   -7.5917    0.0000 C   0  0  0  0  0  0           0  0  0
   11.2792   -7.6042    0.0000 C   0  0  0  0  0  0           0  0  0
   10.5625   -8.8375    0.0000 N   0  0  3  0  0  0           0  0  0
    7.7042   -8.8375    0.0000 C   0  0  0  0  0  0           0  0  0
   11.9917   -7.1917    0.0000 C   0  0  0  0  0  0           0  0  0
    9.8500   -7.5917    0.0000 C   0  0  0  0  0  0           0  0  0
    9.1292   -7.1792    0.0000 C   0  0  0  0  0  0           0  0  0
    7.7042   -7.1792    0.0000 C   0  0  0  0  0  0           0  0  0
    6.9917   -8.4250    0.0000 C   0  0  0  0  0  0           0  0  0
   12.0000   -6.3667    0.0000 I   0  0  0  0  0  0           0  0  0
    6.9917   -7.6000    0.0000 C   0  0  0  0  0  0           0  0  0
   11.2792   -8.4292    0.0000 C   0  0  0  0  0  0           0  0  0
    6.2750   -8.8375    0.0000 O   0  0  0  0  0  0           0  0  0
   10.5625   -9.6625    0.0000 C   0  0  0  0  0  0           0  0  0
   11.2750  -10.0792    0.0000 C   0  0  0  0  0  0           0  0  0
   11.9917   -9.6667    0.0000 C   0  0  0  0  0  0           0  0  0
  2  1  1  0     0  0
  3  2  1  0     0  0
  4  1  1  0     0  0
  5 15  1  0     0  0
  6  3  1  0     0  0
  7  1  2  0     0  0
  8  5  2  0     0  0
  9 10  1  0     0  0
 10  4  1  0     0  0
 11  4  2  0     0  0
 12  7  1  0     0  0
 13  8  1  0     0  0
 14 12  2  0     0  0
 15  6  1  0     0  0
 16 12  1  0     0  0
 17  6  1  0     0  0
 18 17  1  0     0  0
 19 18  1  0     0  0
 11 14  1  0     0  0
  3  9  1  0     0  0
M  END