
  SciTegic04091415032D

 26 29  0  0  0  0            999 V2000
   10.7400  -23.1516    0.0000 C   0  0
   10.7400  -22.3266    0.0000 C   0  0
   11.4545  -21.9141    0.0000 C   0  0
   11.4545  -23.5641    0.0000 C   0  0
   12.1690  -23.1516    0.0000 C   0  0
   12.8835  -23.5641    0.0000 C   0  0
   13.5980  -23.1516    0.0000 C   0  0
   13.5980  -22.3266    0.0000 C   0  0  1  0  0  0
   14.3124  -21.9141    0.0000 C   0  0  2  0  0  0
   15.0971  -22.1690    0.0000 C   0  0
   15.5820  -21.5016    0.0000 C   0  0
   15.0971  -20.8341    0.0000 C   0  0
   14.3124  -21.0891    0.0000 C   0  0  2  0  0  0
   14.3124  -20.2641    0.0000 C   0  0
   13.5980  -20.6765    0.0000 C   0  0
   12.8835  -21.0891    0.0000 C   0  0
   12.8835  -21.9141    0.0000 C   0  0  2  0  0  0
   12.1690  -22.3266    0.0000 C   0  0
   15.3488  -20.0491    0.0000 C   0  0  1  0  0  0
   10.0255  -23.5641    0.0000 O   0  0
   12.8835  -22.7390    0.0000 H   0  0
   13.5980  -21.5016    0.0000 H   0  0
   14.3124  -22.7390    0.0000 H   0  0
   14.7966  -19.4405    0.0000 C   0  0
   16.1521  -19.8753    0.0000 C   0  0
   16.7044  -20.4840    0.0000 C   0  0
  1  2  1  0
  2  3  2  0
  1  4  2  0
  4  5  1  0
  5  6  1  0
  6  7  1  0
  7  8  1  0
  8  9  1  0
  9 10  1  0
 10 11  1  0
 11 12  2  0
 12 13  1  0
  9 13  1  0
 13 14  1  1
 13 15  1  0
 15 16  1  0
 16 17  1  0
  8 17  1  0
 17 18  1  0
  3 18  1  0
  5 18  2  0
 12 19  1  0
  1 20  1  0
 17 21  1  6
  8 22  1  1
  9 23  1  6
 19 24  1  1
 19 25  1  0
 25 26  1  0
M  END