
  SciTegic12231509382D

 38 41  0  0  1  0            999 V2000
    0.0879  -14.0518    0.0000 C   0  0
    0.2015  -13.2381    0.0000 C   0  0
   -0.5372  -12.8787    0.0000 N   0  0
    0.9297  -12.8501    0.0000 C   0  0
    1.6297  -13.2866    0.0000 C   0  0
    2.3579  -12.8986    0.0000 C   0  0  2  0  0  0
    3.0579  -13.3353    0.0000 C   0  0
    2.3859  -12.0741    0.0000 O   0  0
    3.7861  -12.9472    0.0000 C   0  0  2  0  0  0
    4.4862  -13.3838    0.0000 C   0  0
    3.8141  -12.1226    0.0000 O   0  0
    5.2143  -12.9957    0.0000 C   0  0
    5.9144  -13.4323    0.0000 O   0  0
    5.2423  -12.1712    0.0000 O   0  0
    0.5343  -14.7413    0.0000 C   0  0
    0.1575  -15.4764    0.0000 C   0  0
    0.6055  -16.1683    0.0000 C   0  0
    1.4304  -16.1261    0.0000 C   0  0
    1.8051  -15.3864    0.0000 C   0  0
    1.3549  -14.6975    0.0000 C   0  0
    1.8801  -16.8179    0.0000 F   0  0
   -0.6812  -12.0664    0.0000 C   0  0
   -0.0497  -11.5354    0.0000 C   0  0
   -1.4568  -11.7848    0.0000 C   0  0
   -1.1033  -13.4714    0.0000 C   0  0
   -0.7211  -14.1951    0.0000 C   0  0
   -1.0483  -14.9516    0.0000 C   0  0
   -1.9134  -13.3199    0.0000 C   0  0
   -1.8398  -15.1695    0.0000 C   0  0
   -2.5363  -13.8593    0.0000 N   0  0
   -2.5003  -14.6816    0.0000 C   0  0
   -2.1291  -12.5235    0.0000 O   0  0
   -3.2629  -13.4706    0.0000 C   0  0
   -3.2858  -12.6447    0.0000 C   0  0
   -4.0114  -12.2535    0.0000 C   0  0
   -4.7144  -12.6869    0.0000 C   0  0
   -4.6873  -13.5158    0.0000 C   0  0
   -3.9614  -13.9033    0.0000 C   0  0
 18 19  1  0
  7  9  1  0
 19 20  2  0
 20 15  1  0
  1 15  1  0
  2  4  1  0
 18 21  1  0
  9 10  1  0
  3 22  1  0
 26  1  1  0
 22 23  1  0
  9 11  1  1
 22 24  1  0
  4  5  1  0
 10 12  1  0
 25 26  2  0
  1  2  2  0
 26 27  1  0
 12 13  1  0
 25 28  1  0
  5  6  1  0
 27 29  1  0
 12 14  2  0
 28 30  1  0
  2  3  1  0
 29 31  1  0
 30 31  1  0
  6  7  1  0
 28 32  2  0
 15 16  2  0
  3 25  1  0
 33 34  2  0
 16 17  1  0
 34 35  1  0
  6  8  1  1
 35 36  2  0
 17 18  2  0
 36 37  1  0
 37 38  2  0
 38 33  1  0
 30 33  1  0
M  END