
  SciTegic02271514552D

 33 37  0  0  0  0            999 V2000
    4.5727   -4.6995    0.0000 C   0  0
    4.5709   -3.0621    0.0000 C   0  0
    3.8647   -4.2905    0.0000 C   0  0
    3.8659   -3.4694    0.0000 C   0  0
    3.0854   -3.2145    0.0000 O   0  0
    2.6017   -3.8781    0.0000 C   0  0
    3.0834   -4.5430    0.0000 O   0  0
    5.2795   -3.4674    0.0000 C   0  0
    5.2829   -4.2926    0.0000 C   0  0
    5.9953   -4.7000    0.0000 C   0  0  1  0  0  0
    6.7089   -4.2867    0.0000 N   0  0
    6.7055   -3.4615    0.0000 C   0  0
    5.9885   -3.0496    0.0000 C   0  0
    6.0002   -5.5195    0.0000 C   0  0  1  0  0  0
    6.4123   -6.7759    0.0000 C   0  0
    6.6625   -5.9980    0.0000 O   0  0
    5.5950   -6.7781    0.0000 C   0  0
    5.3433   -6.0033    0.0000 C   0  0
    4.5480   -5.8351    0.0000 C   0  0
    4.0036   -6.4410    0.0000 C   0  0
    4.2600   -7.2176    0.0000 C   0  0
    5.0547   -7.3821    0.0000 C   0  0
    4.5713   -5.5167    0.0000 O   0  0
    3.8628   -5.9240    0.0000 C   0  0
    7.4177   -4.6934    0.0000 C   0  0
    6.8944   -7.4357    0.0000 O   0  0
    5.3106   -8.1582    0.0000 O   0  0
    4.7664   -8.7678    0.0000 C   0  0
    3.7163   -7.8277    0.0000 O   0  0
    2.9161   -7.6618    0.0000 C   0  0
    6.6985   -5.1054    0.0000 H   0  0
    5.2870   -5.1095    0.0000 H   0  0
    4.5691   -2.2449    0.0000 Br  0  0
  3  1  1  0
  1  9  2  0
  8  2  2  0
  2  4  1  0
  3  4  2  0
  4  5  1  0
  5  6  1  0
  6  7  1  0
  7  3  1  0
  8  9  1  0
  8 13  1  0
  9 10  1  0
 10 11  1  0
 11 12  1  0
 12 13  1  0
 14 18  1  0
 17 15  1  0
 15 16  1  0
 16 14  1  0
 10 14  1  0
 17 18  2  0
 18 19  1  0
 19 20  2  0
 20 21  1  0
 21 22  2  0
 22 17  1  0
  1 23  1  0
 23 24  1  0
 11 25  1  0
 15 26  2  0
 22 27  1  0
 27 28  1  0
 21 29  1  0
 29 30  1  0
 10 31  1  6
 14 32  1  6
  2 33  1  0
M  END