
  SciTegic02271514372D

 65 68  0  0  0  0            999 V2000
    9.8677   -7.8279    0.0000 C   0  0  1  0  0  0
    9.8454   -7.0098    0.0000 C   0  0
   10.5420   -6.5803    0.0000 C   0  0
   10.5197   -5.7622    0.0000 C   0  0
   11.2144   -5.3363    0.0000 C   0  0
   11.9333   -5.7249    0.0000 C   0  0
   11.9576   -6.5393    0.0000 C   0  0
   11.2609   -6.9689    0.0000 C   0  0
   12.6299   -5.2953    0.0000 C   0  0
   12.6076   -4.4773    0.0000 C   0  0
   11.8887   -4.0887    0.0000 C   0  0
   11.8644   -3.2743    0.0000 C   0  0
   12.5610   -2.8447    0.0000 C   0  0
   13.2799   -3.2333    0.0000 C   0  0
   13.3022   -4.0514    0.0000 C   0  0
   13.3488   -5.6839    0.0000 O   0  0
   19.1115   -9.0622    0.0000 O   0  0
   20.5298   -5.7822    0.0000 C   0  0
   19.1101   -6.5996    0.0000 C   0  0
   16.9764   -7.8289    0.0000 C   0  0
   19.1115   -8.2414    0.0000 C   0  0
   10.5791   -9.0622    0.0000 O   0  0
   16.2646   -8.2414    0.0000 C   0  0  2  0  0  0
   13.4260   -8.2414    0.0000 N   0  0
    8.4487   -7.8301    0.0000 C   0  0
   12.7143   -7.8289    0.0000 C   0  0
   11.9984   -9.0622    0.0000 C   0  0
   15.5515   -7.0080    0.0000 C   0  0
   15.5529   -7.8289    0.0000 N   0  0
   19.1075   -5.7841    0.0000 C   0  0
   18.3998   -7.8289    0.0000 C   0  0  1  0  0  0
   12.7129  -10.2915    0.0000 C   0  0
   16.9750  -10.2915    0.0000 C   0  0
   14.8453   -9.0622    0.0000 O   0  0
    7.7391   -8.2438    0.0000 O   0  0
   19.8191   -7.8289    0.0000 O   0  0
   16.2646   -9.0622    0.0000 C   0  0
   14.1336   -7.0080    0.0000 C   0  0
   13.4232   -9.0622    0.0000 C   0  0
   20.5294   -6.6040    0.0000 C   0  0
   17.6853   -9.0622    0.0000 C   0  0
   19.8195   -7.0117    0.0000 C   0  0
   11.9984   -8.2414    0.0000 C   0  0  1  0  0  0
   14.8439   -5.7788    0.0000 C   0  0
   12.7143   -7.0080    0.0000 O   0  0
    7.0281   -7.8325    0.0000 C   0  0
   12.7129   -9.4706    0.0000 C   0  0
    8.4473   -7.0092    0.0000 O   0  0
   10.5791   -8.2414    0.0000 C   0  0
   17.6881   -8.2414    0.0000 N   0  0
    6.3143   -8.2462    0.0000 C   0  0
   16.2632   -5.7788    0.0000 C   0  0
   19.8144   -5.3699    0.0000 C   0  0
   14.1336   -7.8289    0.0000 C   0  0  1  0  0  0
   16.9764   -7.0080    0.0000 O   0  0
   14.8453   -8.2414    0.0000 C   0  0
   14.8439   -6.5996    0.0000 C   0  0
    6.3100   -7.4204    0.0000 C   0  0
   11.2867   -7.8289    0.0000 N   0  0
   18.3998   -7.0080    0.0000 C   0  0
    7.0267   -7.0116    0.0000 C   0  0
   16.2632   -6.5996    0.0000 C   0  0
    9.1598   -8.2414    0.0000 N   0  0
   16.9750   -9.4706    0.0000 C   0  0
   15.5515   -5.3663    0.0000 C   0  0
  1  2  1  0
  2  3  1  0
  3  4  1  0
  4  5  2  0
  5  6  1  0
  6  7  2  0
  7  8  1  0
  3  8  2  0
  9 10  1  0
 10 11  1  0
 11 12  2  0
 12 13  1  0
 13 14  2  0
 14 15  1  0
 10 15  2  0
  9 16  2  0
  6  9  1  0
 21 36  1  0
 18 53  1  0
 64 33  1  0
 47 32  1  0
 44 57  2  0
 60 19  1  0
 56 29  1  0
 49 22  2  0
 62 52  1  0
 43 26  1  0
 46 61  1  0
 49 59  1  0
 46 51  1  0
 47 39  1  0
 23 20  1  0
 40 18  2  0
 29 23  1  0
 46 58  1  0
 64 41  1  0
 23 37  1  1
 25 35  1  0
 24 54  1  0
 50 31  1  0
 35 46  1  0
 27 47  1  0
 28 62  2  0
 30 19  1  0
 31 21  1  0
 31 60  1  1
 43 27  1  1
 42 40  1  0
 20 50  1  0
 26 24  1  0
 57 28  1  0
 20 55  2  0
 53 30  2  0
 19 42  2  0
 54 38  1  1
 52 65  2  0
 38 57  1  0
 26 45  2  0
 25 48  2  0
 37 64  1  0
 54 56  1  0
 63  1  1  0
  1 49  1  1
 59 43  1  0
 56 34  2  0
 65 44  1  0
 63 25  1  0
 21 17  2  0
M  END