
  SciTegic02231516502D

 26 29  0  0  0  0            999 V2000
    6.1150   -2.9489    0.0000 N   0  0
    4.6861   -2.9489    0.0000 C   0  0
    5.4006   -2.5364    0.0000 C   0  0
    6.1150   -3.7739    0.0000 C   0  0
    3.9716   -2.5364    0.0000 C   0  0
    5.4006   -4.1864    0.0000 N   0  0
    2.6659   -2.2589    0.0000 N   0  0
    9.7736   -5.0069    0.0000 N   0  0
    4.6861   -3.7739    0.0000 C   0  0
    3.2180   -2.8720    0.0000 N   0  0
    3.0784   -1.5444    0.0000 N   0  0
    6.8295   -2.5364    0.0000 C   0  0
   10.5806   -5.1784    0.0000 C   0  0
    3.8854   -1.7160    0.0000 N   0  0
    9.6874   -4.1864    0.0000 C   0  0
    6.8295   -4.1864    0.0000 C   0  0
   10.4411   -3.8509    0.0000 S   0  0
   10.9931   -4.4640    0.0000 C   0  0
    7.5440   -3.7739    0.0000 C   0  0
    7.5440   -2.9489    0.0000 C   0  0
    8.9729   -3.7739    0.0000 C   0  0
    8.2585   -4.1864    0.0000 C   0  0
    5.4006   -1.7114    0.0000 O   0  0
   10.9162   -5.9321    0.0000 C   0  0
   11.7367   -6.0184    0.0000 C   0  0
   10.4312   -6.5996    0.0000 C   0  0
  2  3  1  0
  3  1  1  0
  4  1  1  0
  5  2  1  0
  6  4  2  0
  7 10  1  0
  8 15  2  0
  9  6  1  0
 10  5  1  0
 11 14  1  0
 12  1  1  0
 13  8  1  0
 14  5  2  0
 15 21  1  0
 16  4  1  0
 17 15  1  0
 18 17  1  0
 19 20  1  0
 20 12  2  0
 21 22  2  0
 22 19  1  0
 23  3  2  0
 24 13  1  0
 25 24  1  0
 26 24  1  0
 19 16  2  0
  2  9  2  0
  7 11  2  0
 18 13  2  0
M  END