
  SciTegic12011113542D

 35 40  0  0  0  0            999 V2000
   13.0631  -12.3257    0.0000 C   0  0  2  0  0  0
   12.3101  -12.6628    0.0000 C   0  0
   12.9786  -13.1463    0.0000 O   0  0
    7.9111   -9.6833    0.0000 C   0  0
    7.9099  -10.5107    0.0000 C   0  0
    8.6247  -10.9235    0.0000 C   0  0
    8.6229   -9.2705    0.0000 C   0  0
    9.3383   -9.6797    0.0000 C   0  0
    9.3391  -10.5065    0.0000 C   0  0
   10.0544  -10.9175    0.0000 N   0  0
   10.0487   -9.2655    0.0000 C   0  0
   10.0444   -8.4405    0.0000 C   0  0
   10.7566   -8.0242    0.0000 N   0  0
   10.7523   -7.1992    0.0000 C   0  0
   11.4651   -6.7885    0.0000 C   0  0
   11.4611   -5.9643    0.0000 C   0  0
   10.7439   -5.5547    0.0000 C   0  0
   10.0292   -5.9755    0.0000 C   0  0
   10.0368   -6.7983    0.0000 C   0  0
    9.3269   -7.2186    0.0000 C   0  0
   10.7646   -9.6727    0.0000 C   0  0
   10.7724  -10.5042    0.0000 C   0  0
   11.5530   -9.4085    0.0000 C   0  0
   12.0481  -10.0765    0.0000 N   0  0
   11.5653  -10.7484    0.0000 C   0  0
   11.9039  -11.4984    0.0000 C   0  0
   12.8696  -10.1546    0.0000 C   0  0
   13.3501   -9.4839    0.0000 O   0  0
   13.2092  -10.9109    0.0000 C   0  0
   12.7275  -11.5787    0.0000 C   0  0
   13.8815  -12.4111    0.0000 C   0  0
   14.3632  -11.7433    0.0000 O   0  0
   14.0265  -10.9900    0.0000 C   0  0
   14.2186  -13.1641    0.0000 O   0  0
   11.6417  -12.1792    0.0000 C   0  0
 16 17  2  0
  8  9  1  0
 17 18  1  0
  1  3  1  1
 18 19  2  0
 19 14  1  0
  9 10  1  0
 19 20  1  0
 21 22  1  0
 10 22  2  0
  5  6  1  0
 21 11  2  0
 22 25  1  0
 24 23  1  0
 23 21  1  0
 24 25  1  0
 11  8  1  0
  6  9  2  0
 11 12  1  0
 24 27  1  0
 25 26  2  0
 26 30  1  0
 29 27  1  0
 12 13  2  0
 27 28  2  0
 29 30  2  0
  8  7  2  0
 13 14  1  0
  7  4  1  0
 14 15  2  0
  2  1  1  0
 29 33  1  0
 30  1  1  0
  1 31  1  0
 31 32  1  0
 32 33  1  0
 15 16  1  0
 31 34  2  0
  4  5  2  0
  2 35  1  0
M  END