
          11280715252D 1   1.00000     0.00000     0

 24 26  0     0  0            999 V2000
   -0.1833   -2.7667    0.0000 N   0  0  3  0  0  0           0  0  0
   -3.8083   -6.6292    0.0000 N   0  0  0  0  0  0           0  0  0
   -3.0958   -6.2167    0.0000 C   0  0  0  0  0  0           0  0  0
   -3.0958   -5.3917    0.0000 C   0  0  0  0  0  0           0  0  0
   -3.0958   -3.7417    0.0000 C   0  0  0  0  0  0           0  0  0
   -2.3833   -4.9792    0.0000 C   0  0  0  0  0  0           0  0  0
   -3.8083   -4.9792    0.0000 C   0  0  0  0  0  0           0  0  0
   -2.3833   -4.1542    0.0000 C   0  0  0  0  0  0           0  0  0
   -3.8083   -4.1542    0.0000 C   0  0  0  0  0  0           0  0  0
   -0.9583   -2.5042    0.0000 C   0  0  0  0  0  0           0  0  0
   -3.8083   -7.4542    0.0000 C   0  0  3  0  0  0           0  0  0
   -1.6708   -2.9125    0.0000 C   0  0  0  0  0  0           0  0  0
   -3.1000   -2.9167    0.0000 O   0  0  0  0  0  0           0  0  0
    0.4417   -2.2292    0.0000 C   0  0  0  0  0  0           0  0  0
   -0.0208   -3.5792    0.0000 C   0  0  0  0  0  0           0  0  0
   -2.3833   -2.5042    0.0000 C   0  0  0  0  0  0           0  0  0
   -4.5208   -7.8750    0.0000 C   0  0  0  0  0  0           0  0  0
   -3.0875   -7.8625    0.0000 C   0  0  0  0  0  0           0  0  0
    1.2250   -2.5000    0.0000 C   0  0  0  0  0  0           0  0  0
    0.7542   -3.8500    0.0000 C   0  0  0  0  0  0           0  0  0
   -3.0833   -8.6875    0.0000 C   0  0  0  0  0  0           0  0  0
   -4.5208   -8.6917    0.0000 C   0  0  0  0  0  0           0  0  0
    1.3792   -3.3125    0.0000 C   0  0  0  0  0  0           0  0  0
   -3.7958   -9.1042    0.0000 C   0  0  0  0  0  0           0  0  0
  2  3  1  0     0  0
  3  4  1  0     0  0
  4  7  1  0     0  0
  5 13  1  0     0  0
  6  8  1  0     0  0
  7  9  2  0     0  0
  8  5  2  0     0  0
  9  5  1  0     0  0
 10  1  1  0     0  0
 11  2  1  0     0  0
 12 10  1  0     0  0
 13 16  1  0     0  0
 14  1  1  0     0  0
 15  1  1  0     0  0
 16 12  1  0     0  0
 17 11  1  0     0  0
 18 11  1  0     0  0
 19 14  1  0     0  0
 20 15  1  0     0  0
 21 18  1  0     0  0
 22 17  1  0     0  0
 23 20  1  0     0  0
 24 21  1  0     0  0
 19 23  1  0     0  0
  4  6  2  0     0  0
 22 24  1  0     0  0
M  END