
  Mrv0541 04051115152D          

 23 24  0  0  0  0            999 V2000
   -0.2274   -1.2494    0.0000 C   0  0  0  0  0  0  0  0  0  0  0  0
   -0.2274   -2.0744    0.0000 C   0  0  0  0  0  0  0  0  0  0  0  0
   -0.9418   -2.4869    0.0000 C   0  0  0  0  0  0  0  0  0  0  0  0
   -1.6563   -2.0744    0.0000 C   0  0  0  0  0  0  0  0  0  0  0  0
   -1.6563   -1.2494    0.0000 C   0  0  0  0  0  0  0  0  0  0  0  0
   -0.9418   -0.8369    0.0000 C   0  0  0  0  0  0  0  0  0  0  0  0
   -0.9418   -0.0119    0.0000 C   0  0  0  0  0  0  0  0  0  0  0  0
   -1.6563    0.4006    0.0000 O   0  0  0  0  0  0  0  0  0  0  0  0
   -0.2274    0.4006    0.0000 N   0  0  0  0  0  0  0  0  0  0  0  0
   -0.2274    1.2256    0.0000 C   0  0  0  0  0  0  0  0  0  0  0  0
   -0.9418   -3.3119    0.0000 S   0  0  0  0  0  0  0  0  0  0  0  0
   -0.9418   -4.1369    0.0000 N   0  0  0  0  0  0  0  0  0  0  0  0
   -0.1168   -3.3119    0.0000 O   0  0  0  0  0  0  0  0  0  0  0  0
   -1.7668   -3.3119    0.0000 O   0  0  0  0  0  0  0  0  0  0  0  0
    0.4871    1.6381    0.0000 C   0  0  0  0  0  0  0  0  0  0  0  0
    0.4871    2.4631    0.0000 C   0  0  0  0  0  0  0  0  0  0  0  0
    1.2016    2.8756    0.0000 C   0  0  0  0  0  0  0  0  0  0  0  0
    1.9161    2.4631    0.0000 C   0  0  0  0  0  0  0  0  0  0  0  0
    1.9161    1.6381    0.0000 C   0  0  0  0  0  0  0  0  0  0  0  0
    1.2016    1.2256    0.0000 C   0  0  0  0  0  0  0  0  0  0  0  0
    2.6305    2.8756    0.0000 F   0  0  0  0  0  0  0  0  0  0  0  0
   -0.2274    2.8756    0.0000 F   0  0  0  0  0  0  0  0  0  0  0  0
    1.2016    3.7006    0.0000 F   0  0  0  0  0  0  0  0  0  0  0  0
  1  2  2  0  0  0  0
  1  6  1  0  0  0  0
  2  3  1  0  0  0  0
  3  4  2  0  0  0  0
  3 11  1  0  0  0  0
  4  5  1  0  0  0  0
  5  6  2  0  0  0  0
  6  7  1  0  0  0  0
  7  8  2  0  0  0  0
  7  9  1  0  0  0  0
 10  9  1  0  0  0  0
 10 15  1  0  0  0  0
 12 11  1  0  0  0  0
 13 11  2  0  0  0  0
 14 11  2  0  0  0  0
 15 16  2  0  0  0  0
 15 20  1  0  0  0  0
 16 17  1  0  0  0  0
 16 22  1  0  0  0  0
 17 18  2  0  0  0  0
 17 23  1  0  0  0  0
 18 19  1  0  0  0  0
 18 21  1  0  0  0  0
 19 20  2  0  0  0  0
M  END