
  SciTegic09081514182D

 48 53  0  0  0  0            999 V2000
    1.5656    2.8889    0.0000 C   0  0
    1.4351    0.3168    0.0000 N   0  0
    0.0186   -1.6401    0.0000 C   0  0  1  0  0  0
   -1.1742    1.6588    0.0000 C   0  0
   -0.4323   -3.0688    0.0000 C   0  0
    1.4351   -1.1556    0.0000 C   0  0
   -1.0251    3.1871    0.0000 C   0  0
    1.3979    1.3979    0.0000 C   0  0
    0.3168    3.8022    0.0000 N   0  0
    0.0186    0.7828    0.0000 C   0  0
    0.3775   -3.9543    0.0000 C   0  0
    2.4114   -1.8534    0.0000 O   0  0
   -0.8574   -0.4287    0.0000 S   0  0
    4.0206    0.5711    0.0000 C   0  0
    5.2405    1.4453    0.0000 C   0  0
    6.6080    0.8267    0.0000 C   0  0
    7.8279    1.7009    0.0000 C   0  0
    9.1954    1.0823    0.0000 C   0  0
   10.4153    1.9564    0.0000 C   0  0
   11.7827    1.3378    0.0000 C   0  0
   13.0027    2.2120    0.0000 O   0  0
   22.9829   -6.6284    0.0000 C   0  0
   24.2220   -5.7603    0.0000 C   0  0
   24.0822   -4.2695    0.0000 C   0  0
   22.7034   -3.6469    0.0000 C   0  0
   21.6222   -6.0040    0.0000 C   0  0
   21.4825   -4.5132    0.0000 C   0  0
   20.1218   -3.8885    0.0000 N   0  0
   18.9010   -4.7552    0.0000 C   0  0
   19.0407   -6.2460    0.0000 C   0  0
   20.4013   -6.8704    0.0000 C   0  0
   20.5133   -8.0651    0.0000 O   0  0
   17.8148   -7.1119    0.0000 C   0  0
   17.9248   -8.3069    0.0000 O   0  0
   16.7249   -6.6100    0.0000 O   0  0
   22.5878   -2.4525    0.0000 F   0  0
   19.9788   -2.3946    0.0000 C   0  0
   18.6139   -1.7707    0.0000 C   0  0
   18.4588   -0.2658    0.0000 C   0  0
   16.0222   -2.0066    0.0000 C   0  0
   17.3956   -2.6411    0.0000 C   0  0
   15.8777   -0.5165    0.0000 C   0  0
   17.0960    0.3539    0.0000 C   0  0
   16.9515    1.8440    0.0000 C   0  0
   15.5887    2.4636    0.0000 C   0  0
   14.3701    1.5934    0.0000 C   0  0
   14.5149    0.1032    0.0000 C   0  0
    2.6532    1.1897    0.0000 C   0  0
  5 11  1  0
  8 10  1  0
  8  1  1  0
 10 13  1  0
  7  4  1  0
  3  6  1  0
  6 12  2  0
  4 10  1  0
  1  9  1  0
  6  2  1  0
 13  3  1  0
  2 10  1  0
  9  7  1  0
  3  5  1  6
 14 15  1  0
 15 16  1  0
 16 17  1  0
 17 18  1  0
 18 19  1  0
 19 20  1  0
 20 21  1  0
 22 23  2  0
 23 24  1  0
 24 25  2  0
 25 27  1  0
 26 22  1  0
 26 27  2  0
 26 31  1  0
 27 28  1  0
 28 29  1  0
 29 30  2  0
 30 31  1  0
 31 32  2  0
 30 33  1  0
 33 34  1  0
 33 35  2  0
 25 36  1  0
 28 37  1  0
 37 38  1  0
 38 39  2  0
 39 43  1  0
 42 40  1  0
 40 41  2  0
 41 38  1  0
 42 43  1  0
 43 44  2  0
 44 45  1  0
 45 46  2  0
 46 47  1  0
 47 42  2  0
 46 21  1  0
 14 48  1  0
 48  2  1  0
M  END