
          11280715352D 1   1.00000     0.00000     0

 33 36  0     0  0            999 V2000
   -0.4833    0.6125    0.0000 S   0  0  3  0  0  0           0  0  0
   -0.4875    1.4375    0.0000 N   0  0  0  0  0  0           0  0  0
   -1.9208    3.0875    0.0000 N   0  0  0  0  0  0           0  0  0
   -1.2083    2.6708    0.0000 N   0  0  3  0  0  0           0  0  0
   -1.2083    1.8458    0.0000 C   0  0  0  0  0  0           0  0  0
   -1.9208    3.9208    0.0000 C   0  0  0  0  0  0           0  0  0
   -0.5000    3.9208    0.0000 C   0  0  3  0  0  0           0  0  0
   -0.4875   -0.2125    0.0000 C   0  0  0  0  0  0           0  0  0
   -0.4958    3.0958    0.0000 C   0  0  0  0  0  0           0  0  0
   -1.2083   -0.6167    0.0000 C   0  0  0  0  0  0           0  0  0
    0.2167   -0.6167    0.0000 C   0  0  0  0  0  0           0  0  0
    0.3125    0.4000    0.0000 O   0  0  0  0  0  0           0  0  0
   -1.2000    0.2083    0.0000 O   0  0  0  0  0  0           0  0  0
   -2.5083    4.4917    0.0000 C   0  0  0  0  0  0           0  0  0
   -1.2125   -1.4375    0.0000 C   0  0  0  0  0  0           0  0  0
    0.2167   -1.4417    0.0000 C   0  0  0  0  0  0           0  0  0
    0.0792    4.5000    0.0000 C   0  0  0  0  0  0           0  0  0
   -1.9208    1.4333    0.0000 N   0  0  0  0  0  0           0  0  0
   -0.5000   -1.8542    0.0000 C   0  0  0  0  0  0           0  0  0
   -2.2875    5.2917    0.0000 C   0  0  0  0  0  0           0  0  0
   -3.2958    4.2792    0.0000 C   0  0  0  0  0  0           0  0  0
   -3.6708    5.6542    0.0000 C   0  0  0  0  0  0           0  0  0
   -3.8833    4.8542    0.0000 C   0  0  0  0  0  0           0  0  0
   -2.8708    5.8750    0.0000 C   0  0  0  0  0  0           0  0  0
   -4.2583    6.2417    0.0000 Cl  0  0  0  0  0  0           0  0  0
    0.9292   -0.2125    0.0000 C   0  0  0  0  0  0           0  0  0
   -1.9208   -0.2000    0.0000 C   0  0  0  0  0  0           0  0  0
    0.8792    4.2792    0.0000 C   0  0  0  0  0  0           0  0  0
   -0.1333    5.2917    0.0000 C   0  0  0  0  0  0           0  0  0
   -0.5083   -2.6792    0.0000 C   0  0  0  0  0  0           0  0  0
    1.4625    4.8667    0.0000 C   0  0  0  0  0  0           0  0  0
    0.4417    5.8750    0.0000 C   0  0  0  0  0  0           0  0  0
    1.2500    5.6542    0.0000 C   0  0  0  0  0  0           0  0  0
  2  1  1  0     0  0
  3  4  1  0     0  0
  4  5  1  0     0  0
  5  2  1  0     0  0
  6  3  2  0     0  0
  7  9  1  0     0  0
  8  1  1  0     0  0
  9  4  1  0     0  0
 10  8  2  0     0  0
 11  8  1  0     0  0
 12  1  2  0     0  0
 13  1  2  0     0  0
 14  6  1  0     0  0
 15 10  1  0     0  0
 16 11  2  0     0  0
 17  7  1  0     0  0
 18  5  2  0     0  0
 19 16  1  0     0  0
 20 14  2  0     0  0
 21 14  1  0     0  0
 22 23  1  0     0  0
 23 21  2  0     0  0
 24 20  1  0     0  0
 25 22  1  0     0  0
 26 11  1  0     0  0
 27 10  1  0     0  0
 28 17  2  0     0  0
 29 17  1  0     0  0
 30 19  1  0     0  0
 31 28  1  0     0  0
 32 29  2  0     0  0
 33 32  1  0     0  0
 19 15  2  0     0  0
  6  7  1  0     0  0
 22 24  2  0     0  0
 33 31  2  0     0  0
M  END