
  SciTegic05061409512D

 23 26  0  0  0  0            999 V2000
   27.7020   -6.2982    0.0000 C   0  0
   26.8848   -6.2982    0.0000 C   0  0
   26.4784   -7.0019    0.0000 C   0  0
   26.8848   -7.7103    0.0000 C   0  0
   27.7020   -7.7103    0.0000 C   0  0
   28.1128   -7.0019    0.0000 N   0  0
   25.6628   -6.9972    0.0000 N   0  0
   25.1834   -6.3354    0.0000 C   0  0
   24.4058   -6.5869    0.0000 C   0  0
   24.4047   -7.4041    0.0000 C   0  0
   25.1816   -7.6576    0.0000 C   0  0
   28.9263   -7.0017    0.0000 C   0  0
   29.3353   -7.7105    0.0000 C   0  0
   30.1517   -7.7097    0.0000 C   0  0
   30.5601   -7.0009    0.0000 C   0  0
   30.1462   -6.2914    0.0000 C   0  0
   29.3311   -6.2957    0.0000 C   0  0
   31.3773   -6.9987    0.0000 C   0  0
   31.7840   -6.2899    0.0000 N   0  0
   32.5957   -6.1978    0.0000 C   0  0
   32.7635   -5.3980    0.0000 C   0  0
   32.0546   -4.9913    0.0000 C   0  0
   31.4489   -5.5398    0.0000 C   0  0
  1  2  1  0
  1  6  1  0
  2  3  1  0
  3  4  1  0
  4  5  1  0
  5  6  1  0
  7  8  1  0
  8  9  1  0
  9 10  1  0
 10 11  1  0
 11  7  1  0
  3  7  1  0
 12 13  2  0
 13 14  1  0
 14 15  2  0
 15 16  1  0
 16 17  2  0
 17 12  1  0
  6 12  1  0
 15 18  1  0
 18 19  1  0
 19 20  1  0
 20 21  1  0
 21 22  1  0
 22 23  1  0
 23 19  1  0
M  END