
  SciTegic01061414252D

 42 47  0  0  0  0            999 V2000
   14.1556   -8.2818    0.0000 O   0  0
   13.9022   -9.0587    0.0000 N   0  0
   13.0850   -9.0578    0.0000 C   0  0
   12.8334   -8.2803    0.0000 C   0  0
   13.4951   -7.8008    0.0000 C   0  0
   12.6040   -9.7184    0.0000 C   0  0
   12.9355  -10.4653    0.0000 O   0  0
   11.7913   -9.6321    0.0000 N   0  0
   10.3481  -11.6138    0.0000 N   0  0
   10.0166  -10.8669    0.0000 C   0  0
   10.4977  -10.2063    0.0000 C   0  0
   11.3103  -10.2927    0.0000 C   0  0
   11.6418  -11.0396    0.0000 C   0  0
   11.1607  -11.7001    0.0000 C   0  0
    9.1566  -14.3730    0.0000 O   0  0
    8.4949  -14.8526    0.0000 C   0  0
    7.8343  -14.3716    0.0000 C   0  0
    8.0877  -13.5946    0.0000 O   0  0
    8.9049  -13.5956    0.0000 C   0  0
    8.5734  -12.8486    0.0000 C   0  0
    9.0544  -12.1881    0.0000 C   0  0
    9.8670  -12.2744    0.0000 C   0  0
   10.1986  -13.0213    0.0000 C   0  0
    9.7175  -13.6819    0.0000 C   0  0
   13.4960   -6.9836    0.0000 C   0  0
   12.7887   -6.5742    0.0000 C   0  0
   12.7896   -5.7570    0.0000 C   0  0
   13.4978   -5.3492    0.0000 C   0  0
   14.2051   -5.7586    0.0000 C   0  0
   14.2041   -6.5758    0.0000 C   0  0
   14.9114   -6.9852    0.0000 O   0  0
   13.4987   -4.5320    0.0000 O   0  0
   12.0806   -6.9820    0.0000 O   0  0
   11.3528   -6.6102    0.0000 C   0  0
   10.6670   -7.0545    0.0000 C   0  0
    9.9393   -6.6826    0.0000 C   0  0
    9.8974   -5.8665    0.0000 C   0  0
   10.5833   -5.4222    0.0000 C   0  0
   11.3110   -5.7940    0.0000 C   0  0
    9.1697   -5.4947    0.0000 N   0  0
    8.4839   -5.9390    0.0000 C   0  0
    9.1279   -4.6786    0.0000 C   0  0
  1  2  1  0
  2  3  2  0
  3  4  1  0
  4  5  2  0
  1  5  1  0
  6  7  2  0
  6  8  1  0
  3  6  1  0
  9 10  1  0
 10 11  1  0
 11 12  1  0
 12 13  1  0
 13 14  1  0
  9 14  1  0
 15 16  1  0
 16 17  1  0
 17 18  1  0
 18 19  1  0
 19 20  1  0
 20 21  1  0
 21 22  1  0
 22 23  1  0
 23 24  1  0
 15 19  1  0
 19 24  1  0
  9 22  1  0
  8 12  1  0
 25 26  1  0
 26 27  2  0
 27 28  1  0
 28 29  2  0
 29 30  1  0
 25 30  2  0
 30 31  1  0
 28 32  1  0
 34 35  1  0
 35 36  2  0
 36 37  1  0
 37 38  2  0
 38 39  1  0
 34 39  2  0
 33 34  1  0
 40 41  1  0
 40 42  1  0
 37 40  1  0
 26 33  1  0
  5 25  1  0
M  END