
          11280714452D 1   1.00000     0.00000     0

 32 35  0     0  0            999 V2000
    7.5625   -1.6417    0.0000 C   0  0  0  0  0  0           0  0  0
    0.4250   -1.6500    0.0000 N   0  0  0  0  0  0           0  0  0
    8.2750   -2.0542    0.0000 C   0  0  0  0  0  0           0  0  0
    9.7042   -0.4000    0.0000 C   0  0  0  0  0  0           0  0  0
    8.9917   -0.8167    0.0000 C   0  0  0  0  0  0           0  0  0
    6.8417   -2.0542    0.0000 C   0  0  0  0  0  0           0  0  0
    6.1292   -1.6417    0.0000 C   0  0  0  0  0  0           0  0  0
    8.9917   -1.6417    0.0000 C   0  0  0  0  0  0           0  0  0
    7.5625   -0.8167    0.0000 C   0  0  0  0  0  0           0  0  0
   -0.2833   -2.0625    0.0000 C   0  0  0  0  0  0           0  0  0
    5.4167   -2.0542    0.0000 C   0  0  0  0  0  0           0  0  0
    8.2750   -0.4042    0.0000 C   0  0  0  0  0  0           0  0  0
    9.7000    0.4333    0.0000 O   0  0  0  0  0  0           0  0  0
    1.1417   -2.0625    0.0000 C   0  0  0  0  0  0           0  0  0
    6.8417   -2.8792    0.0000 O   0  0  0  0  0  0           0  0  0
   -0.2875   -2.8875    0.0000 C   0  0  0  0  0  0           0  0  0
    0.4292   -3.3000    0.0000 C   0  0  0  0  0  0           0  0  0
    2.5667   -2.0542    0.0000 O   0  0  0  0  0  0           0  0  0
    4.7042   -1.6417    0.0000 C   0  0  0  0  0  0           0  0  0
    8.2750   -2.8792    0.0000 O   0  0  0  0  0  0           0  0  0
   10.4167   -0.8042    0.0000 O   0  0  0  0  0  0           0  0  0
    3.2792   -1.6417    0.0000 C   0  0  0  0  0  0           0  0  0
    3.9917   -2.0542    0.0000 C   0  0  0  0  0  0           0  0  0
    1.8542   -1.6500    0.0000 C   0  0  0  0  0  0           0  0  0
    1.1417   -2.8792    0.0000 C   0  0  0  0  0  0           0  0  0
    3.9917   -0.4042    0.0000 C   0  0  0  0  0  0           0  0  0
   -0.9958   -1.6542    0.0000 C   0  0  0  0  0  0           0  0  0
    4.7042   -0.8167    0.0000 C   0  0  0  0  0  0           0  0  0
    3.2792   -0.8167    0.0000 C   0  0  0  0  0  0           0  0  0
   -0.9958   -3.3000    0.0000 C   0  0  0  0  0  0           0  0  0
   -1.7083   -2.0667    0.0000 C   0  0  0  0  0  0           0  0  0
   -1.7083   -2.8917    0.0000 C   0  0  0  0  0  0           0  0  0
  2 14  2  0     0  0
  3  1  1  0     0  0
  4  5  1  0     0  0
  5 12  2  0     0  0
  6  1  1  0     0  0
  7  6  1  0     0  0
  8  3  2  0     0  0
  9  1  2  0     0  0
 10  2  1  0     0  0
 11  7  2  0     0  0
 12  9  1  0     0  0
 13  4  2  0     0  0
 14 24  1  0     0  0
 15  6  2  0     0  0
 16 17  1  0     0  0
 17 25  2  0     0  0
 18 22  1  0     0  0
 19 11  1  0     0  0
 20  3  1  0     0  0
 21  4  1  0     0  0
 22 23  2  0     0  0
 23 19  1  0     0  0
 24 18  1  0     0  0
 25 14  1  0     0  0
 26 28  1  0     0  0
 27 10  2  0     0  0
 28 19  2  0     0  0
 29 26  2  0     0  0
 30 16  2  0     0  0
 31 27  1  0     0  0
 32 30  1  0     0  0
  5  8  1  0     0  0
 29 22  1  0     0  0
 10 16  1  0     0  0
 32 31  2  0     0  0
M  END