
  SciTegic09261414462D

 29 32  0  0  0  0            999 V2000
   14.6021  -19.9098    0.0000 C   0  0
   16.0127  -19.9098    0.0000 C   0  0
   15.3074  -19.4970    0.0000 C   0  0
   16.0127  -20.7269    0.0000 C   0  0
   15.9984  -22.3501    0.0000 C   0  0
   16.7056  -21.9491    0.0000 C   0  0
   16.7136  -21.1344    0.0000 C   0  0
   15.3055  -21.1280    0.0000 C   0  0
   14.6000  -20.7308    0.0000 C   0  0
   14.0166  -21.4235    0.0000 C   0  0
   14.3581  -22.2256    0.0000 N   0  0
   15.2984  -21.9381    0.0000 C   0  0
   13.2403  -21.4233    0.0000 O   0  0
   17.4239  -20.7304    0.0000 S   0  0
   18.1290  -21.1435    0.0000 N   0  0
   17.0083  -20.0171    0.0000 O   0  0
   17.8255  -20.0171    0.0000 O   0  0
   18.8393  -20.7394    0.0000 C   0  0
   14.0131  -22.9664    0.0000 C   0  0
   13.1991  -23.0380    0.0000 C   0  0
   19.5444  -21.1526    0.0000 C   0  0
   19.5350  -21.9701    0.0000 C   0  0
   20.2361  -22.3831    0.0000 C   0  0
   20.9487  -21.9825    0.0000 N   0  0
   20.9559  -21.1644    0.0000 C   0  0
   20.2505  -20.7469    0.0000 C   0  0
   21.6523  -22.3983    0.0000 C   0  0
   21.6439  -23.2155    0.0000 C   0  0
   22.3641  -21.9969    0.0000 O   0  0
  1  9  2  0
  1  3  1  0
  4  2  1  0
  2  3  2  0
  4  8  2  0
  4  7  1  0
 12  5  2  0
  5  6  1  0
  6  7  2  0
  8  9  1  0
  9 10  1  0
 10 11  1  0
 11 12  1  0
 12  8  1  0
 10 13  2  0
  7 14  1  0
 14 15  1  0
 14 16  2  0
 14 17  2  0
 15 18  1  0
 11 19  1  0
 19 20  1  0
 18 21  1  0
 21 22  1  0
 21 26  1  0
 22 23  1  0
 23 24  1  0
 24 25  1  0
 25 26  1  0
 24 27  1  0
 27 28  1  0
 27 29  2  0
M  END