
          08180812482D 1   1.00000     0.00000     0

 43 48  0     0  0            999 V2000
   -4.8548   -4.7140    0.0000 N   0  0  3  0  0  0           0  0  0
   -4.8584   -5.5395    0.0000 C   0  0  0  0  0  0           0  0  0
   -4.1410   -5.9533    0.0000 N   0  0  3  0  0  0           0  0  0
   -4.1402   -4.3007    0.0000 C   0  0  0  0  0  0           0  0  0
   -4.1412   -3.4751    0.0000 O   0  0  0  0  0  0           0  0  0
   -5.5775   -5.9574    0.0000 O   0  0  0  0  0  0           0  0  0
   -3.4275   -4.7144    0.0000 C   0  0  0  0  0  0           0  0  0
   -3.4288   -5.5394    0.0000 C   0  0  0  0  0  0           0  0  0
   -2.6460   -5.7929    0.0000 C   0  0  0  0  0  0           0  0  0
   -2.1632   -5.1384    0.0000 C   0  0  0  0  0  0           0  0  0
   -2.6439   -4.4627    0.0000 N   0  0  0  0  0  0           0  0  0
   -5.5767   -4.2955    0.0000 C   0  0  0  0  0  0           0  0  0
   -4.1423   -6.7782    0.0000 C   0  0  0  0  0  0           0  0  0
   -1.3430   -5.1762    0.0000 C   0  0  0  0  0  0           0  0  0
   -0.9611   -5.9114    0.0000 C   0  0  0  0  0  0           0  0  0
   -0.1362   -5.9541    0.0000 C   0  0  0  0  0  0           0  0  0
    0.3189   -5.2459    0.0000 C   0  0  0  0  0  0           0  0  0
   -0.0669   -4.5222    0.0000 C   0  0  0  0  0  0           0  0  0
   -0.8970   -4.4865    0.0000 C   0  0  0  0  0  0           0  0  0
    1.1445   -5.2586    0.0000 O   0  0  0  0  0  0           0  0  0
    1.5674   -4.5551    0.0000 C   0  0  0  0  0  0           0  0  0
    2.3994   -4.5606    0.0000 C   0  0  0  0  0  0           0  0  0
    2.8111   -5.2755    0.0000 N   0  0  3  0  0  0           0  0  0
    2.8089   -3.8484    0.0000 O   0  0  0  0  0  0           0  0  0
    2.3993   -5.9870    0.0000 C   0  0  0  0  0  0           0  0  0
    2.8087   -6.7024    0.0000 C   0  0  0  0  0  0           0  0  0
    3.6358   -6.6994    0.0000 C   0  0  3  0  0  0           0  0  0
    4.0502   -5.9865    0.0000 C   0  0  0  0  0  0           0  0  0
    3.6338   -5.2718    0.0000 C   0  0  0  0  0  0           0  0  0
   -3.4277   -7.1922    0.0000 C   0  0  0  0  0  0           0  0  0
   -3.4290   -8.0181    0.0000 C   0  0  0  0  0  0           0  0  0
    3.6290   -7.5241    0.0000 C   0  0  0  0  0  0           0  0  0
    2.9083   -7.9289    0.0000 C   0  0  0  0  0  0           0  0  0
    2.9009   -8.7535    0.0000 C   0  0  0  0  0  0           0  0  0
    3.6128   -9.1731    0.0000 C   0  0  0  0  0  0           0  0  0
    4.3336   -8.7622    0.0000 C   0  0  0  0  0  0           0  0  0
    4.3374   -7.9388    0.0000 C   0  0  0  0  0  0           0  0  0
    4.4588   -6.7004    0.0000 C   0  0  0  0  0  0           0  0  0
    4.8679   -7.4191    0.0000 C   0  0  0  0  0  0           0  0  0
    5.6930   -7.4229    0.0000 C   0  0  0  0  0  0           0  0  0
    6.1099   -6.7091    0.0000 C   0  0  0  0  0  0           0  0  0
    5.6956   -5.9897    0.0000 C   0  0  0  0  0  0           0  0  0
    4.8719   -5.9893    0.0000 C   0  0  0  0  0  0           0  0  0
  3 13  1  0     0  0
 10 14  1  0     0  0
 14 15  2  0     0  0
 14 19  1  0     0  0
 15 16  1  0     0  0
 16 17  2  0     0  0
 17 18  1  0     0  0
 18 19  2  0     0  0
 17 20  1  0     0  0
 20 21  1  0     0  0
 21 22  1  0     0  0
 22 23  1  0     0  0
 22 24  2  0     0  0
 23 25  1  0     0  0
 23 29  1  0     0  0
 25 26  1  0     0  0
 26 27  1  0     0  0
 27 28  1  0     0  0
 28 29  1  0     0  0
 13 30  1  0     0  0
  1  2  1  0     0  0
 30 31  1  0     0  0
  1  4  1  0     0  0
 27 32  1  0     0  0
  2  3  1  0     0  0
 32 33  2  0     0  0
  3  8  1  0     0  0
 33 34  1  0     0  0
  7  4  1  0     0  0
 34 35  2  0     0  0
  4  5  2  0     0  0
 35 36  1  0     0  0
  2  6  2  0     0  0
 36 37  2  0     0  0
 37 32  1  0     0  0
  7  8  2  0     0  0
  8  9  1  0     0  0
 38 39  2  0     0  0
  9 10  2  0     0  0
 39 40  1  0     0  0
 10 11  1  0     0  0
 40 41  2  0     0  0
 11  7  1  0     0  0
 41 42  1  0     0  0
  1 12  1  0     0  0
 42 43  2  0     0  0
 43 38  1  0     0  0
 27 38  1  0     0  0
M  END