
  SciTegic01231714232D

 23 27  0  0  0  0            999 V2000
   -1.2785   -2.7396    0.0000 C   0  0
    0.0000   -1.9862    0.0000 N   0  0
    1.2785   -2.7396    0.0000 C   0  0
    0.0000   -0.4566    0.0000 C   0  0
   -1.2785    0.2740    0.0000 C   0  0
   -1.2785    1.7579    0.0000 C   0  0
    0.0000    2.5341    0.0000 C   0  0
    1.2785    1.7579    0.0000 C   0  0
    1.2785    0.2740    0.0000 C   0  0
   -2.5570   -0.4566    0.0000 C   0  0
   -2.5570   -1.9862    0.0000 C   0  0
   -3.9953   -2.3972    0.0000 C   0  0
   -4.9085   -1.2557    0.0000 C   0  0
   -4.0637    0.0000    0.0000 C   0  0
    2.5570   -1.9862    0.0000 C   0  0
    2.5570   -0.4566    0.0000 C   0  0
    4.0181    0.0000    0.0000 C   0  0
    4.9313   -1.1415    0.0000 C   0  0
    4.0637   -2.3972    0.0000 C   0  0
    1.2816   -4.2404    0.0000 C   0  0
    0.2434   -4.8422    0.0000 O   0  0
    2.3217   -4.8389    0.0000 O   0  0
    0.0000    3.7341    0.0000 Br  0  0
 11  1  1  0
 10  5  1  0
  2  1  1  0
  2  4  1  0
  2  3  1  0
  9 16  1  0
 15  3  1  0
  4  5  2  0
  5  6  1  0
  6  7  2  0
  7  8  1  0
  8  9  2  0
  9  4  1  0
 10 11  1  0
 11 12  1  0
 12 13  1  0
 13 14  2  0
 14 10  1  0
 15 16  1  0
 16 17  1  0
 17 18  2  0
 18 19  1  0
 19 15  1  0
  3 20  1  0
 20 21  1  0
 20 22  2  0
  7 23  1  0
M  END