
          11280715492D 1   1.00000     0.00000     0

 25 28  0     0  0            999 V2000
    4.9613  -22.7276    0.0000 C   0  0  0  0  0  0           0  0  0
    5.8535  -23.7244    0.0000 N   0  0  0  0  0  0           0  0  0
    6.2657  -23.0122    0.0000 C   0  0  0  0  0  0           0  0  0
    5.7044  -22.3890    0.0000 N   0  0  0  0  0  0           0  0  0
    5.0456  -23.5459    0.0000 C   0  0  0  0  0  0           0  0  0
    4.4294  -24.0944    0.0000 C   0  0  0  0  0  0           0  0  0
    3.7072  -23.6915    0.0000 C   0  0  0  0  0  0           0  0  0
    2.9994  -24.1155    0.0000 C   0  0  0  0  0  0           0  0  0
    3.0125  -24.9421    0.0000 C   0  0  0  0  0  0           0  0  0
    3.7393  -25.3430    0.0000 C   0  0  0  0  0  0           0  0  0
    4.4442  -24.9168    0.0000 C   0  0  0  0  0  0           0  0  0
    2.3047  -25.3675    0.0000 Cl  0  0  0  0  0  0           0  0  0
    3.7558  -26.1686    0.0000 O   0  0  0  0  0  0           0  0  0
    7.0912  -22.9925    0.0000 C   0  0  0  0  0  0           0  0  0
    7.5168  -23.6978    0.0000 C   0  0  0  0  0  0           0  0  0
    8.3416  -23.6786    0.0000 C   0  0  0  0  0  0           0  0  0
    8.7383  -22.9532    0.0000 C   0  0  0  0  0  0           0  0  0
    8.3040  -22.2458    0.0000 C   0  0  0  0  0  0           0  0  0
    7.4807  -22.2685    0.0000 C   0  0  0  0  0  0           0  0  0
    4.2449  -22.3202    0.0000 C   0  0  0  0  0  0           0  0  0
    2.8175  -21.5069    0.0000 N   0  0  0  0  0  0           0  0  0
    2.8240  -22.3318    0.0000 N   0  0  0  0  0  0           0  0  0
    3.5377  -22.7365    0.0000 C   0  0  0  0  0  0           0  0  0
    4.2431  -21.4956    0.0000 C   0  0  0  0  0  0           0  0  0
    3.5248  -21.0864    0.0000 C   0  0  0  0  0  0           0  0  0
  9 12  1  0     0  0
  2  3  1  0     0  0
 10 13  1  0     0  0
  6  7  2  0     0  0
  3 14  1  0     0  0
  3  4  2  0     0  0
 14 15  2  0     0  0
  7  8  1  0     0  0
 15 16  1  0     0  0
  4  1  1  0     0  0
 16 17  2  0     0  0
  8  9  2  0     0  0
 17 18  1  0     0  0
  1  5  2  0     0  0
 18 19  2  0     0  0
 19 14  1  0     0  0
  9 10  1  0     0  0
  1 20  1  0     0  0
  5  2  1  0     0  0
 10 11  2  0     0  0
 11  6  1  0     0  0
  5  6  1  0     0  0
 21 25  2  0     0  0
 21 22  1  0     0  0
 22 23  2  0     0  0
 23 20  1  0     0  0
 20 24  2  0     0  0
 24 25  1  0     0  0
M  END