
  SciTegic11201309402D

 27 28  0  0  1  0            999 V2000
    5.1167   -5.6875    0.0000 N   0  0
    4.4042   -6.0917    0.0000 C   0  0
    6.5500   -5.6917    0.0000 C   0  0
    7.9792   -4.8667    0.0000 C   0  0
    5.8292   -6.1000    0.0000 C   0  0
    8.6917   -6.1125    0.0000 C   0  0
    7.9792   -4.0417    0.0000 C   0  0
    9.4042   -5.7042    0.0000 C   0  0
    7.2625   -6.1042    0.0000 N   0  0
    0.1250   -6.9125    0.0000 N   0  0
    0.1292   -6.0875    0.0000 C   0  0
    7.9792   -5.6917    0.0000 C   0  0  2  0  0  0
    4.4042   -6.9167    0.0000 O   0  0
    3.7000   -5.6792    0.0000 C   0  0  2  0  0  0
    6.5542   -4.8667    0.0000 O   0  0
    9.4125   -4.8792    0.0000 O   0  0
    2.9792   -6.0917    0.0000 C   0  0
    0.8417   -5.6792    0.0000 C   0  0
   -0.5833   -5.6667    0.0000 N   0  0
    5.1250   -4.8625    0.0000 C   0  0
   10.1167   -6.1167    0.0000 O   0  0
    2.2667   -5.6792    0.0000 C   0  0
    1.5542   -6.0917    0.0000 C   0  0
    0.8417   -7.3292    0.0000 C   0  0
    4.4125   -4.4417    0.0000 C   0  0
    3.6917   -4.8542    0.0000 C   0  0
    1.5542   -6.9167    0.0000 C   0  0
  2  1  1  0
  3  5  1  0
 12  4  1  6
  5  1  1  0
  6 12  1  0
  7  4  3  0
  8  6  1  0
  9  3  1  0
 10 24  1  0
 11 18  1  0
 12  9  1  0
 13  2  2  0
 14  2  1  0
 15  3  2  0
 16  8  2  0
 14 17  1  6
 18 23  2  0
 19 11  1  0
 20  1  1  0
 21  8  1  0
 22 17  1  0
 23 22  1  0
 24 27  2  0
 25 20  1  0
 26 25  1  0
 27 23  1  0
 14 26  1  0
 11 10  2  0
M  END