
          11280715102D 1   1.00000     0.00000     0

 28 31  0     0  0            999 V2000
    2.4250   -2.6167    0.0000 C   0  0  0  0  0  0           0  0  0
    2.4250   -1.7917    0.0000 N   0  0  3  0  0  0           0  0  0
    1.7125   -3.0292    0.0000 C   0  0  0  0  0  0           0  0  0
    4.5625   -0.5542    0.0000 N   0  0  3  0  0  0           0  0  0
    0.9542   -2.6917    0.0000 S   0  0  0  0  0  0           0  0  0
    3.1375   -1.3792    0.0000 C   0  0  3  0  0  0           0  0  0
    1.7125   -1.3792    0.0000 C   0  0  0  0  0  0           0  0  0
    3.1417   -3.0292    0.0000 O   0  0  0  0  0  0           0  0  0
    3.8500   -1.7917    0.0000 C   0  0  0  0  0  0           0  0  0
    3.1375   -0.5542    0.0000 C   0  0  0  0  0  0           0  0  0
    1.6250   -3.8542    0.0000 C   0  0  0  0  0  0           0  0  0
    0.4042   -3.3125    0.0000 C   0  0  0  0  0  0           0  0  0
    0.8292   -4.0292    0.0000 C   0  0  0  0  0  0           0  0  0
    3.8500   -0.1417    0.0000 C   0  0  0  0  0  0           0  0  0
    4.5625   -1.3792    0.0000 C   0  0  0  0  0  0           0  0  0
    5.2792   -0.1417    0.0000 C   0  0  0  0  0  0           0  0  0
    1.7125   -0.5542    0.0000 C   0  0  0  0  0  0           0  0  0
    1.0000   -1.8000    0.0000 C   0  0  0  0  0  0           0  0  0
    0.2792   -0.5625    0.0000 C   0  0  0  0  0  0           0  0  0
    0.2875   -1.3917    0.0000 C   0  0  0  0  0  0           0  0  0
    1.0000   -0.1417    0.0000 C   0  0  0  0  0  0           0  0  0
   -0.4333   -0.1500    0.0000 Cl  0  0  0  0  0  0           0  0  0
    5.9917   -0.5625    0.0000 C   0  0  0  0  0  0           0  0  0
    6.7042   -0.1500    0.0000 C   0  0  0  0  0  0           0  0  0
    5.9875   -1.3875    0.0000 C   0  0  0  0  0  0           0  0  0
    6.7000   -1.8000    0.0000 C   0  0  0  0  0  0           0  0  0
    7.4167   -0.5625    0.0000 C   0  0  0  0  0  0           0  0  0
    7.4167   -1.3917    0.0000 C   0  0  0  0  0  0           0  0  0
  2  1  1  0     0  0
  3  1  1  0     0  0
  4 14  1  0     0  0
  5  3  1  0     0  0
  6  2  1  0     0  0
  7  2  1  0     0  0
  8  1  2  0     0  0
  9  6  1  0     0  0
 10  6  1  0     0  0
 11  3  2  0     0  0
 12  5  1  0     0  0
 13 11  1  0     0  0
 14 10  1  0     0  0
 15  9  1  0     0  0
 16  4  1  0     0  0
 17  7  2  0     0  0
 18  7  1  0     0  0
 19 20  1  0     0  0
 20 18  2  0     0  0
 21 17  1  0     0  0
 22 19  1  0     0  0
 23 16  1  0     0  0
 24 23  1  0     0  0
 25 23  2  0     0  0
 26 25  1  0     0  0
 27 24  2  0     0  0
 28 26  2  0     0  0
 13 12  2  0     0  0
 19 21  2  0     0  0
  4 15  1  0     0  0
 28 27  1  0     0  0
M  END