
  SciTegic02261315432D

 21 24  0  0  0  0            999 V2000
    6.4226   -8.4489    0.0000 C   0  0
    5.7185   -8.0024    0.0000 C   0  0
    8.5691   -9.6568    0.0000 C   0  0
    9.2790   -9.2446    0.0000 O   0  0
    5.7528   -7.1839    0.0000 C   0  0
    6.4569   -7.6246    0.0000 C   0  0
    7.1610   -8.0597    0.0000 C   0  0  1  0  0  0
   10.0002   -9.6568    0.0000 C   0  0
    7.8536   -9.2446    0.0000 C   0  0
    9.2790  -10.8932    0.0000 C   0  0
    7.8536   -8.4203    0.0000 C   0  0
   10.0002  -10.4811    0.0000 C   0  0
    8.5691  -10.4811    0.0000 C   0  0
    6.4798   -6.8003    0.0000 C   0  0
    7.1953   -7.2354    0.0000 C   0  0
   10.7329   -9.2618    0.0000 O   0  0
    4.8942   -7.9681    0.0000 C   0  0
    5.2778   -8.7065    0.0000 C   0  0
    7.1324   -9.6568    0.0000 C   0  0
    7.1324  -10.4811    0.0000 C   0  0
    7.8536  -10.8932    0.0000 C   0  0
  2  1  1  0
  3  9  1  0
  4  3  1  0
  5  6  1  0
  6  1  1  0
  7  1  1  0
  8  4  1  0
  9 11  1  0
 10 13  1  0
  7 11  1  6
 12 10  2  0
 13  3  2  0
 14 15  1  0
 15  7  1  0
 16  8  2  0
 17  2  1  0
 18  2  1  0
 19  9  2  0
 20 19  1  0
 21 20  2  0
  2  5  1  0
  5 14  1  0
 13 21  1  0
  8 12  1  0
M  END