
  SciTegic04091415222D

 29 32  0  0  0  0            999 V2000
   29.3968  -23.1578    0.0000 C   0  0
   30.8106  -23.1542    0.0000 C   0  0
   30.1019  -22.7490    0.0000 C   0  0
   30.8134  -23.9769    0.0000 C   0  0
   30.8096  -25.6120    0.0000 C   0  0
   31.5208  -25.1997    0.0000 C   0  0
   31.5188  -24.3840    0.0000 C   0  0
   30.1029  -24.3842    0.0000 C   0  0
   29.3957  -23.9774    0.0000 C   0  0
   28.6919  -24.3864    0.0000 C   0  0
   28.6941  -25.2020    0.0000 O   0  0
   29.4060  -25.6069    0.0000 C   0  0
   30.1069  -25.1956    0.0000 C   0  0
   31.5137  -22.7443    0.0000 C   0  0
   32.2232  -23.1519    0.0000 N   0  0
   32.9289  -22.7413    0.0000 C   0  0
   32.9263  -21.9233    0.0000 N   0  0
   32.2121  -21.5175    0.0000 C   0  0
   31.5093  -21.9304    0.0000 N   0  0
   30.0995  -21.9318    0.0000 Cl  0  0
   32.2061  -20.7004    0.0000 N   0  0
   33.6380  -23.1476    0.0000 S   0  0
   34.3443  -22.7367    0.0000 C   0  0
   35.0534  -23.1430    0.0000 C   0  0
   35.7597  -22.7320    0.0000 C   0  0
   36.4688  -23.1383    0.0000 N   0  0
   35.7571  -21.9148    0.0000 O   0  0
   36.4715  -23.9555    0.0000 C   0  0
   37.1751  -22.7274    0.0000 C   0  0
  1  9  2  0
  4  2  1  0
  2  3  2  0
  3  1  1  0
  4  8  1  0
 13  5  1  0
  5  6  2  0
  6  7  1  0
  7  4  2  0
  8  9  1  0
  9 10  1  0
 10 11  1  0
 11 12  1  0
 12 13  1  0
 13  8  2  0
 14 15  2  0
 15 16  1  0
 16 17  2  0
 17 18  1  0
 18 19  2  0
 19 14  1  0
  2 14  1  0
  3 20  1  0
 18 21  1  0
 16 22  1  0
 22 23  1  0
 23 24  1  0
 24 25  1  0
 25 26  1  0
 25 27  2  0
 26 28  1  0
 26 29  1  0
M  END