
  SciTegic08011209522D

 34 36  0  0  0  0            999 V2000
    1.0278   -3.4962    0.0000 C   0  0
    1.0354   -2.6712    0.0000 C   0  0
    1.7537   -2.2653    0.0000 C   0  0
    1.7613   -1.4404    0.0000 C   0  0
    1.0507   -1.0213    0.0000 C   0  0
    0.3324   -1.4272    0.0000 N   0  0
    0.3248   -2.2521    0.0000 C   0  0
    0.3095   -3.9021    0.0000 O   0  0
    1.7384   -3.9153    0.0000 O   0  0
    1.0583   -0.1963    0.0000 N   0  0
    0.3477    0.2228    0.0000 C   0  0
    0.3553    1.0477    0.0000 C   0  0
   -0.3553    1.4668    0.0000 C   0  0
   -1.0736    1.0609    0.0000 C   0  0
   -1.0812    0.2360    0.0000 C   0  0
   -0.3706   -0.1831    0.0000 C   0  0
    1.0736    1.4536    0.0000 C   0  0
    1.0812    2.2786    0.0000 C   0  0
    1.7995    2.6844    0.0000 C   0  0
    2.5101    2.2653    0.0000 C   0  0
    3.2283    2.6712    0.0000 C   0  0
    3.2360    3.4962    0.0000 C   0  0
    2.5253    3.9153    0.0000 C   0  0
    1.8071    3.5094    0.0000 C   0  0
   -1.7842    1.4800    0.0000 C   0  0
   -1.7766    2.3050    0.0000 C   0  0
   -2.5024    1.0742    0.0000 C   0  0
   -1.7995   -0.1699    0.0000 O   0  0
   -1.8071   -0.9949    0.0000 C   0  0
   -2.5253   -1.4007    0.0000 C   0  0
   -3.2360   -0.9816    0.0000 C   0  0
   -2.5330   -2.2257    0.0000 C   0  0
    1.7766    0.2095    0.0000 C   0  0
    2.4872   -0.2095    0.0000 C   0  0
  1  2  1  0
  2  3  1  0
  3  4  2  0
  4  5  1  0
  5  6  2  0
  6  7  1  0
  2  7  2  0
  1  8  2  0
  1  9  1  0
 11 12  1  0
 12 13  2  0
 13 14  1  0
 14 15  2  0
 15 16  1  0
 11 16  2  0
 17 18  2  0
 18 19  1  0
 19 20  1  0
 20 21  2  0
 21 22  1  0
 22 23  2  0
 23 24  1  0
 19 24  2  0
 12 17  1  0
 25 26  1  0
 25 27  1  0
 14 25  1  0
 29 30  1  0
 30 31  1  0
 30 32  1  0
 28 29  1  0
 15 28  1  0
 10 11  1  0
 33 34  1  0
 10 33  1  0
  5 10  1  0
M  END