
          11280714492D 1   1.00000     0.00000     0

 27 29  0     0  0            999 V2000
    6.1250   -4.5000    0.0000 C   0  0  0  0  0  0           0  0  0
    6.8375   -4.0875    0.0000 C   0  0  3  0  0  0           0  0  0
    6.1250   -5.3292    0.0000 C   0  0  0  0  0  0           0  0  0
    7.9625   -1.3042    0.0000 N   0  3  0  0  0  0           0  0  0
    7.5542   -4.5000    0.0000 N   0  0  0  0  0  0           0  0  0
    7.9625   -2.1292    0.0000 C   0  0  0  0  0  0           0  0  0
    7.2500   -3.3667    0.0000 C   0  0  0  0  0  0           0  0  0
    7.2500   -2.5417    0.0000 C   0  0  0  0  0  0           0  0  0
    7.5542   -5.3292    0.0000 C   0  0  0  0  0  0           0  0  0
    6.8375   -5.7417    0.0000 N   0  0  0  0  0  0           0  0  0
    5.2917   -4.5000    0.0000 C   0  0  0  0  0  0           0  0  0
    6.8375   -1.8292    0.0000 S   0  0  0  0  0  0           0  0  0
    8.6750   -0.8917    0.0000 O   0  5  0  0  0  0           0  0  0
    7.2417   -0.8917    0.0000 O   0  0  0  0  0  0           0  0  0
    4.5792   -4.0875    0.0000 O   0  0  0  0  0  0           0  0  0
    5.0667   -5.3042    0.0000 O   0  0  0  0  0  0           0  0  0
    8.2750   -5.7500    0.0000 S   0  0  0  0  0  0           0  0  0
    8.6792   -2.5417    0.0000 C   0  0  0  0  0  0           0  0  0
    7.9625   -3.7792    0.0000 C   0  0  0  0  0  0           0  0  0
    5.4042   -5.7542    0.0000 C   0  0  0  0  0  0           0  0  0
    8.6792   -3.3667    0.0000 C   0  0  0  0  0  0           0  0  0
    6.1167   -1.4167    0.0000 C   0  0  0  0  0  0           0  0  0
    4.1667   -3.3667    0.0000 C   0  0  0  0  0  0           0  0  0
    8.2667   -6.5792    0.0000 C   0  0  0  0  0  0           0  0  0
    5.2917   -1.4167    0.0000 C   0  0  0  0  0  0           0  0  0
    4.1667   -2.5417    0.0000 C   0  0  0  0  0  0           0  0  0
    4.5792   -1.8292    0.0000 C   0  0  0  0  0  0           0  0  0
  2  1  1  0     0  0
  3  1  1  0     0  0
  4  6  1  0     0  0
  5  2  1  0     0  0
  6  8  2  0     0  0
  7  2  1  0     0  0
  8  7  1  0     0  0
  9 10  1  0     0  0
 10  3  2  0     0  0
 11  1  2  0     0  0
 12  8  1  0     0  0
 13  4  1  0     0  0
 14  4  2  0     0  0
 15 11  1  0     0  0
 16 11  1  0     0  0
 17  9  1  0     0  0
 18 21  2  0     0  0
 19  7  2  0     0  0
 20  3  1  0     0  0
 21 19  1  0     0  0
 22 12  1  0     0  0
 23 15  1  0     0  0
 24 17  1  0     0  0
 25 27  1  0     0  0
 26 23  1  0     0  0
 27 26  1  0     0  0
  9  5  2  0     0  0
 18  6  1  0     0  0
 25 22  1  0     0  0
M  CHG  2   4   1  13  -1
M  END