
  SciTegic04071410272D

 18 19  0  0  0  0            999 V2000
   -2.8716   -8.4296    0.0000 C   0  0
   -2.8716   -9.2546    0.0000 C   0  0
   -2.1571   -9.6671    0.0000 C   0  0
   -1.4426   -9.2546    0.0000 C   0  0
   -1.4426   -8.4296    0.0000 C   0  0
   -2.1571   -8.0171    0.0000 C   0  0
   -2.1571   -7.1921    0.0000 C   0  0  2  0  0  0
   -1.3321   -7.1921    0.0000 C   0  0
   -2.9821   -7.1921    0.0000 O   0  0
   -2.1571   -6.3671    0.0000 C   0  0
   -2.8716   -5.9546    0.0000 C   0  0
   -2.8716   -5.1296    0.0000 C   0  0
   -2.1571   -4.7171    0.0000 C   0  0
   -1.4426   -5.1296    0.0000 C   0  0
   -1.4426   -5.9546    0.0000 C   0  0
   -0.9196   -7.9065    0.0000 N   0  0
   -2.1571   -3.8921    0.0000 F   0  0
   -3.5860   -6.3671    0.0000 Cl  0  0
  7  9  1  1
  4  5  1  0
  7 10  1  0
  2  3  1  0
 10 11  2  0
  5  6  2  0
 11 12  1  0
  6  1  1  0
 12 13  2  0
  1  2  2  0
 13 14  1  0
  6  7  1  0
 14 15  2  0
 15 10  1  0
  3  4  2  0
  8 16  1  0
  7  8  1  0
 13 17  1  0
 11 18  1  0
M  END