
  SciTegic02011310462D

 35 38  0  0  0  0            999 V2000
   11.4782   -8.3260    0.0000 C   0  0
   11.4737   -9.1534    0.0000 C   0  0
   12.1868   -9.5692    0.0000 N   0  0
   12.9049   -9.1588    0.0000 C   0  0
   12.9055   -8.3283    0.0000 C   0  0
   12.1918   -7.9162    0.0000 C   0  0
   13.6183   -9.5730    0.0000 C   0  0
   14.3339   -9.1623    0.0000 N   0  0
   15.0472   -9.5767    0.0000 O   0  0
   13.6201   -7.9160    0.0000 O   0  0
    4.3235   -8.4547    0.0000 C   0  0
    4.3251   -9.2821    0.0000 C   0  0
    5.0412   -9.6926    0.0000 C   0  0
    5.0339   -8.0396    0.0000 C   0  0
    5.7507   -8.4464    0.0000 C   0  0
    5.7568   -9.2749    0.0000 C   0  0
    6.4733   -9.6815    0.0000 C   0  0
    7.1883   -9.2644    0.0000 N   0  0
    7.1822   -8.4359    0.0000 C   0  0
    6.4611   -8.0247    0.0000 C   0  0
    6.4776  -10.5043    0.0000 C   0  0
    5.7639  -10.9205    0.0000 C   0  0
    5.7685  -11.7446    0.0000 C   0  0
    6.4860  -12.1537    0.0000 C   0  0
    7.2003  -11.7325    0.0000 C   0  0
    7.1922  -10.9096    0.0000 C   0  0
    3.6076   -8.0447    0.0000 O   0  0
    3.6047   -7.2197    0.0000 C   0  0
    3.6116   -9.6963    0.0000 O   0  0
    2.8962   -9.2856    0.0000 C   0  0
    7.9133   -9.6582    0.0000 C   0  0
    8.6169   -9.2274    0.0000 C   0  0
    9.3417   -9.6212    0.0000 C   0  0
   10.0453   -9.1903    0.0000 C   0  0
   10.7701   -9.5842    0.0000 C   0  0
  1  2  2  0
  2  3  1  0
  3  4  2  0
  4  5  1  0
  5  6  2  0
  6  1  1  0
  4  7  1  0
  7  8  2  0
  8  9  1  0
  5 10  1  0
 11 12  2  0
 12 13  1  0
 13 16  2  0
 15 14  2  0
 14 11  1  0
 15 16  1  0
 15 20  1  0
 16 17  1  0
 17 18  1  0
 18 19  1  0
 19 20  1  0
 21 22  2  0
 22 23  1  0
 23 24  2  0
 24 25  1  0
 25 26  2  0
 26 21  1  0
 17 21  1  0
 11 27  1  0
 27 28  1  0
 12 29  1  0
 29 30  1  0
 18 31  1  0
 31 32  1  0
 32 33  1  0
 33 34  1  0
 34 35  1  0
 35  2  1  0
M  END