
          11280715362D 1   1.00000     0.00000     0

 34 37  0     1  0            999 V2000
    4.5500   -4.0417    0.0000 C   0  0  0  0  0  0           0  0  0
    4.5417   -5.2167    0.0000 C   0  0  0  0  0  0           0  0  0
    5.0500   -4.3417    0.0000 C   0  0  2  0  0  0           0  0  0
    4.0375   -4.3417    0.0000 C   0  0  0  0  0  0           0  0  0
    5.5667   -4.0542    0.0000 N   0  0  3  0  0  0           0  0  0
    4.0375   -4.9292    0.0000 C   0  0  0  0  0  0           0  0  0
    5.0500   -4.9292    0.0000 C   0  0  0  0  0  0           0  0  0
    4.5500   -3.4542    0.0000 C   0  0  0  0  0  0           0  0  0
    4.5375   -5.8042    0.0000 C   0  0  0  0  0  0           0  0  0
    3.5250   -5.7917    0.0000 N   0  0  0  0  0  0           0  0  0
    6.1000   -2.5917    0.0000 C   0  0  0  0  0  0           0  0  0
    3.5375   -5.2042    0.0000 C   0  0  0  0  0  0           0  0  0
    5.0667   -3.1667    0.0000 C   0  0  2  0  0  0           0  0  0
    5.5750   -3.4667    0.0000 C   0  0  0  0  0  0           0  0  0
    8.4417   -5.3917    0.0000 C   0  0  0  0  0  0           0  0  0
    7.2375   -5.3792    0.0000 C   0  0  0  0  0  0           0  0  0
    8.1375   -4.8667    0.0000 C   0  0  0  0  0  0           0  0  0
    7.5375   -4.8667    0.0000 C   0  0  0  0  0  0           0  0  0
    5.5875   -2.2917    0.0000 O   0  0  0  0  0  0           0  0  0
    6.0875   -3.1792    0.0000 O   0  0  0  0  0  0           0  0  0
    9.0417   -5.3917    0.0000 O   0  0  0  0  0  0           0  0  0
    7.5375   -5.9042    0.0000 O   0  0  0  0  0  0           0  0  0
    6.6125   -2.3042    0.0000 C   0  0  3  0  0  0           0  0  0
    5.0750   -2.5792    0.0000 C   0  0  0  0  0  0           0  0  0
    3.5292   -4.0417    0.0000 C   0  0  0  0  0  0           0  0  0
    6.0750   -4.3542    0.0000 C   0  0  0  0  0  0           0  0  0
    8.1375   -5.9042    0.0000 O   0  0  0  0  0  0           0  0  0
    6.6375   -5.3792    0.0000 O   0  0  0  0  0  0           0  0  0
    3.0250   -4.3417    0.0000 C   0  0  0  0  0  0           0  0  0
    3.0250   -4.9292    0.0000 C   0  0  0  0  0  0           0  0  0
    7.3375   -1.9042    0.0000 C   0  0  0  0  0  0           0  0  0
    7.1750   -2.4667    0.0000 C   0  0  0  0  0  0           0  0  0
    6.7750   -1.7417    0.0000 C   0  0  0  0  0  0           0  0  0
    5.5625   -4.6417    0.0000 H   0  0  0  0  0  0           0  0  0
  2  6  1  0     0  0
  3  1  1  0     0  0
  4  1  1  0     0  0
  5  3  1  0     0  0
  6  4  2  0     0  0
  7  3  1  0     0  0
  8  1  2  0     0  0
  9  2  2  0     0  0
 10 12  1  0     0  0
 11 19  1  0     0  0
 12  6  1  0     0  0
 13  8  1  0     0  0
 14 13  1  0     0  0
 16 18  1  0     0  0
 17 15  1  0     0  0
 18 17  2  0     0  0
 19 24  1  0     0  0
 20 11  2  0     0  0
 21 15  2  0     0  0
 22 16  2  0     0  0
 23 11  1  0     0  0
 13 24  1  1     0  0
 25  4  1  0     0  0
 26  5  1  0     0  0
 27 15  1  0     0  0
 28 16  1  0     0  0
 29 25  2  0     0  0
 30 12  2  0     0  0
 31 33  1  0     0  0
 32 23  1  0     0  0
 33 23  1  0     0  0
  3 34  1  1     0  0
  7  2  1  0     0  0
 14  5  1  0     0  0
  9 10  1  0     0  0
 29 30  1  0     0  0
 31 32  1  0     0  0
M  END