
          11280715312D 1   1.00000     0.00000     0

 30 33  0     0  0            999 V2000
    1.9167   -2.1792    0.0000 C   0  0  0  0  0  0           0  0  0
    1.2042   -1.7667    0.0000 C   0  0  0  0  0  0           0  0  0
    1.9167   -3.0042    0.0000 C   0  0  0  0  0  0           0  0  0
    0.4917   -2.1792    0.0000 C   0  0  0  0  0  0           0  0  0
    4.0500   -1.7625    0.0000 C   0  0  0  0  0  0           0  0  0
    4.7625   -1.3417    0.0000 C   0  0  0  0  0  0           0  0  0
    1.2042   -3.4167    0.0000 C   0  0  3  0  0  0           0  0  0
    7.6000    0.3333    0.0000 C   0  0  0  0  0  0           0  0  0
    1.2042   -0.9417    0.0000 C   0  0  0  0  0  0           0  0  0
    2.6292   -3.4167    0.0000 C   0  0  0  0  0  0           0  0  0
    2.6250   -1.7667    0.0000 C   0  0  0  0  0  0           0  0  0
    0.4917   -3.0042    0.0000 C   0  0  0  0  0  0           0  0  0
    6.8875   -0.0875    0.0000 C   0  0  0  0  0  0           0  0  0
    3.3375   -2.1792    0.0000 C   0  0  0  0  0  0           0  0  0
    7.5875    1.1583    0.0000 O   0  0  0  0  0  0           0  0  0
    5.4667   -0.9250    0.0000 C   0  0  0  0  0  0           0  0  0
    1.9167   -0.5292    0.0000 C   0  0  0  0  0  0           0  0  0
    0.4917   -0.5292    0.0000 C   0  0  0  0  0  0           0  0  0
    6.8917   -0.9125    0.0000 C   0  0  0  0  0  0           0  0  0
    6.1667    0.3208    0.0000 C   0  0  0  0  0  0           0  0  0
    3.3417   -3.0042    0.0000 C   0  0  0  0  0  0           0  0  0
    8.3167   -0.0667    0.0000 O   0  0  0  0  0  0           0  0  0
    5.4542   -0.1042    0.0000 C   0  0  0  0  0  0           0  0  0
    6.1875   -1.3292    0.0000 C   0  0  0  0  0  0           0  0  0
    1.9167    0.2958    0.0000 C   0  0  0  0  0  0           0  0  0
    0.4917    0.2958    0.0000 C   0  0  0  0  0  0           0  0  0
    1.2042    0.7083    0.0000 C   0  0  0  0  0  0           0  0  0
    1.6125   -4.1292    0.0000 C   0  0  0  0  0  0           0  0  0
    0.7875   -4.1292    0.0000 C   0  0  0  0  0  0           0  0  0
    1.2042    1.5333    0.0000 C   0  0  0  0  0  0           0  0  0
  2  1  1  0     0  0
  3  1  2  0     0  0
  4  2  2  0     0  0
  5 14  1  0     0  0
  6  5  3  0     0  0
  7  3  1  0     0  0
  8 13  1  0     0  0
  9  2  1  0     0  0
 10  3  1  0     0  0
 11  1  1  0     0  0
 12  7  1  0     0  0
 13 19  2  0     0  0
 14 11  2  0     0  0
 15  8  2  0     0  0
 16  6  1  0     0  0
 17  9  2  0     0  0
 18  9  1  0     0  0
 19 24  1  0     0  0
 20 23  2  0     0  0
 21 14  1  0     0  0
 22  8  1  0     0  0
 23 16  1  0     0  0
 24 16  2  0     0  0
 25 17  1  0     0  0
 26 18  2  0     0  0
 27 26  1  0     0  0
 28  7  1  0     0  0
 29  7  1  0     0  0
 30 27  1  0     0  0
 21 10  2  0     0  0
 12  4  1  0     0  0
 27 25  2  0     0  0
 13 20  1  0     0  0
M  END