
  SciTegic02181312462D

 25 27  0  0  0  0            999 V2000
    9.8503   -3.1697    0.0000 C   0  0
    9.8491   -3.9892    0.0000 C   0  0
   10.5572   -4.3982    0.0000 C   0  0
   11.2668   -3.9887    0.0000 C   0  0
   11.2640   -3.1661    0.0000 C   0  0
   10.5554   -2.7608    0.0000 C   0  0
   10.5529   -1.9436    0.0000 N   0  0
   11.2594   -1.5329    0.0000 S   0  0
   11.9684   -1.9394    0.0000 C   0  0
   11.9686   -2.7539    0.0000 C   0  0
   12.6767   -3.1603    0.0000 C   0  0
   13.3842   -2.7496    0.0000 C   0  0
   13.3791   -1.9282    0.0000 C   0  0
   12.6705   -1.5255    0.0000 C   0  0
   10.8464   -0.8213    0.0000 O   0  0
   11.4696   -0.7388    0.0000 O   0  0
   11.9752   -4.3962    0.0000 Cl  0  0
    9.1425   -2.7612    0.0000 C   0  0
    8.4349   -3.1697    0.0000 N   0  0
   14.0841   -1.5150    0.0000 Cl  0  0
   14.0937   -3.1551    0.0000 Cl  0  0
    7.6583   -2.9111    0.0000 C   0  0
    7.1766   -3.5712    0.0000 C   0  0
    7.6555   -4.2334    0.0000 N   0  0
    8.4332   -3.9824    0.0000 N   0  0
  1  2  2  0
  2  3  1  0
  3  4  2  0
  4  5  1  0
  5  6  2  0
  6  1  1  0
  6  7  1  0
  7  8  1  0
  8  9  1  0
  9 10  2  0
 10 11  1  0
 11 12  2  0
 12 13  1  0
 13 14  2  0
 14  9  1  0
  8 15  2  0
  8 16  2  0
  4 17  1  0
  1 18  1  0
 18 19  1  0
 13 20  1  0
 12 21  1  0
 19 22  1  0
 22 23  2  0
 23 24  1  0
 24 25  2  0
 25 19  1  0
M  END