
  SciTegic11111309142D

 51 55  0  0  1  0            999 V2000
   -0.5321  -23.5622    0.0000 C   0  0
   -0.0642  -24.2448    0.0000 S   0  0
    0.7563  -24.1789    0.0000 C   0  0
    1.1139  -23.4372    0.0000 C   0  0
    0.6460  -22.7547    0.0000 C   0  0
   -0.1792  -22.8138    0.0000 C   0  0
   -1.0485  -16.8242    0.0000 C   0  0
   -2.1701  -19.5775    0.0000 O   0  0
   -2.6550  -20.2448    0.0000 C   0  0
   -2.3525  -21.0124    0.0000 C   0  0
   -2.8539  -21.6239    0.0000 C   0  0
   -2.5733  -22.3577    0.0000 C   0  0
   -1.7968  -22.4614    0.0000 C   0  0
   -1.3353  -21.8274    0.0000 C   0  0
   -1.6577  -21.1053    0.0000 C   0  0
   -3.6682  -21.4920    0.0000 Cl  0  0
   -1.1637  -20.4446    0.0000 Cl  0  0
   -0.5148  -21.9136    0.0000 S   0  0
   -0.4285  -21.0933    0.0000 O   0  0
   -0.6010  -22.7341    0.0000 O   0  0
    1.3568  -22.3417    0.0000 C   0  0
    2.0704  -22.7537    0.0000 N   0  0
    1.3568  -21.5159    0.0000 O   0  0
    2.0704  -23.5802    0.0000 C   0  0
    2.7802  -23.9900    0.0000 C   0  0
    3.4904  -23.5799    0.0000 N   0  0
    3.4904  -22.7582    0.0000 C   0  0
    2.7804  -22.3438    0.0000 C   0  0
    4.2014  -23.9904    0.0000 C   0  0
    4.2014  -24.8109    0.0000 O   0  0
    4.9196  -23.5757    0.0000 C   0  0  2  0  0  0
   -2.5066  -18.8215    0.0000 C   0  0
   -3.1777  -17.3142    0.0000 C   0  0
   -3.6643  -17.9887    0.0000 C   0  0
   -3.3257  -18.7414    0.0000 C   0  0
   -2.3539  -17.4012    0.0000 C   0  0
   -2.0219  -18.1578    0.0000 C   0  0
   -1.2026  -18.2474    0.0000 N   0  0
   -0.7142  -17.5812    0.0000 C   0  0
   -1.8695  -16.7376    0.0000 C   0  0
    0.1085  -17.6697    0.0000 C   0  0
   -2.2053  -15.9813    0.0000 C   0  0
    5.6361  -23.9895    0.0000 C   0  0
    6.3527  -23.5757    0.0000 C   0  0
    7.0694  -23.9895    0.0000 C   0  0
    7.7859  -23.5757    0.0000 N   0  3
    8.5025  -23.9895    0.0000 C   0  0
    7.7859  -22.7483    0.0000 C   0  0
    8.4966  -23.1576    0.0000 C   0  0
    4.9195  -22.7483    0.0000 N   0  0
    0.3053  -22.0033    0.0000 N   0  0
  5 21  1  0
 21 22  1  0
 21 23  2  0
 22 24  1  0
 22 28  1  0
 24 25  1  0
 25 26  1  0
 26 27  1  0
 27 28  1  0
 26 29  1  0
 29 30  2  0
 29 31  1  0
  3  4  1  0
  8 32  1  0
 32 37  2  0
  4  5  1  0
 36 33  2  0
  5  6  1  0
 33 34  1  0
 34 35  2  0
 35 32  1  0
  1  2  1  0
  1  6  1  0
 36 37  1  0
  2  3  1  0
 37 38  1  0
  8  9  1  0
 38 39  2  0
 39  7  1  0
  9 10  1  0
  7 40  2  0
 40 36  1  0
 10 11  2  0
 39 41  1  0
 11 12  1  0
 40 42  1  0
 12 13  2  0
 31 43  1  0
 13 14  1  0
 43 44  1  0
 14 15  2  0
 44 45  1  0
 15 10  1  0
 45 46  1  0
 11 16  1  0
 46 47  1  0
 15 17  1  0
 46 48  1  0
 14 18  1  0
 46 49  1  0
 18 19  2  0
 31 50  1  1
 18 20  2  0
 18 51  1  0
 51  5  1  0
M  CHG  1  46   1
M  END