
  SciTegic11201309402D

 31 32  0  0  1  0            999 V2000
    2.2792   -0.0875    0.0000 C   0  0
    1.1167   -0.9542    0.0000 O   0  0
    1.6375   -0.3042    0.0000 C   0  0
    1.6542    0.2875    0.0000 C   0  0  1  0  0  0
    2.2792    0.5083    0.0000 C   0  0
    2.6792   -0.5125    0.0000 C   0  0
    3.5042   -1.1625    0.0000 C   0  0
    4.8167   -2.0500    0.0000 C   0  0
    3.3500   -0.5792    0.0000 N   0  0
    5.9750    0.3875    0.0000 C   0  0
    3.0792   -1.5917    0.0000 S   0  0
    5.2417   -1.6250    0.0000 S   0  0
    4.2417   -1.8917    0.0000 N   0  0
    0.9917    0.0083    0.0000 C   0  0
    0.9917    0.5708    0.0000 C   0  0
    5.9792   -0.2125    0.0000 O   0  0
    3.3667    0.6625    0.0000 C   0  0
    3.8917    0.3708    0.0000 C   0  0
    4.0792   -1.3167    0.0000 C   0  0
    6.4917    0.6958    0.0000 O   0  0
    2.8542    0.3583    0.0000 C   0  0
    4.9792   -2.6292    0.0000 C   0  0
    5.4500    0.6833    0.0000 C   0  0
    4.4125    0.6750    0.0000 C   0  0
    4.9292    0.3833    0.0000 C   0  0
    4.5542   -3.0542    0.0000 C   0  0
    4.4500   -4.6375    0.0000 C   0  0
    4.2917   -4.0542    0.0000 C   0  0
    4.7125   -3.6292    0.0000 C   0  0
    4.0250   -5.0625    0.0000 C   0  0
    1.6864    1.2870    0.0000 H   0  0
  2  3  1  0
  3  1  1  0
  4  5  1  0
  5  1  1  0
  6  1  1  0
  7  9  2  0
  8 13  2  0
  9  6  1  0
 10 23  1  0
 11  7  1  0
 12  8  1  0
 13 19  1  0
 14  3  1  0
 15  4  1  0
 16 10  2  0
 17 21  1  0
 18 17  2  0
 19  7  1  0
 20 10  1  0
 21  5  1  0
 22  8  1  0
 23 25  1  0
 24 18  1  0
 25 24  1  0
 26 22  1  0
 27 28  1  0
 28 29  1  0
 29 26  1  0
 30 27  1  0
  4  2  1  0
 14 15  1  0
  4 31  1  1
M  END