
          11280715122D 1   1.00000     0.00000     0

 32 35  0     0  0            999 V2000
    4.0167   -1.5667    0.0000 C   0  0  0  0  0  0           0  0  0
    4.0167   -0.7375    0.0000 C   0  0  0  0  0  0           0  0  0
    7.0292   -5.8917    0.0000 C   0  0  0  0  0  0           0  0  0
    6.5000   -7.1250    0.0000 N   0  0  0  0  0  0           0  0  0
    7.2042   -6.7042    0.0000 N   0  0  0  0  0  0           0  0  0
    3.3000   -1.9792    0.0000 N   0  0  0  0  0  0           0  0  0
    5.8792   -6.5917    0.0000 N   0  0  0  0  0  0           0  0  0
    6.2125   -5.8167    0.0000 N   0  0  0  0  0  0           0  0  0
    4.7292   -1.9792    0.0000 N   0  0  3  0  0  0           0  0  0
    7.5792   -5.2792    0.0000 C   0  0  0  0  0  0           0  0  0
    4.7375   -0.3167    0.0000 C   0  0  0  0  0  0           0  0  0
    7.5750   -4.4542    0.0000 C   0  0  0  0  0  0           0  0  0
    3.3000   -0.3250    0.0000 C   0  0  0  0  0  0           0  0  0
    2.5875   -1.5667    0.0000 C   0  0  0  0  0  0           0  0  0
    6.8667   -4.0417    0.0000 C   0  0  0  0  0  0           0  0  0
    4.7250   -2.8042    0.0000 C   0  0  0  0  0  0           0  0  0
    4.7292    0.5125    0.0000 O   0  0  0  0  0  0           0  0  0
    6.8625   -3.2125    0.0000 C   0  0  0  0  0  0           0  0  0
    6.1500   -4.4542    0.0000 C   0  0  0  0  0  0           0  0  0
    2.5875   -0.7417    0.0000 C   0  0  0  0  0  0           0  0  0
    5.4417   -3.2167    0.0000 C   0  0  0  0  0  0           0  0  0
    5.4542   -0.7292    0.0000 O   0  0  0  0  0  0           0  0  0
    1.8667   -1.9792    0.0000 F   0  0  0  0  0  0           0  0  0
    6.1417   -2.8000    0.0000 C   0  0  0  0  0  0           0  0  0
    5.4375   -4.0417    0.0000 C   0  0  0  0  0  0           0  0  0
    5.4375   -1.5667    0.0000 C   0  0  0  0  0  0           0  0  0
    8.2875   -5.6917    0.0000 C   0  0  0  0  0  0           0  0  0
    8.2875   -4.0417    0.0000 C   0  0  0  0  0  0           0  0  0
    6.1417   -1.9792    0.0000 C   0  0  0  0  0  0           0  0  0
    9.0042   -5.2792    0.0000 C   0  0  0  0  0  0           0  0  0
    9.0000   -4.4417    0.0000 C   0  0  0  0  0  0           0  0  0
    6.8542   -1.5667    0.0000 C   0  0  0  0  0  0           0  0  0
  2  1  1  0     0  0
  3 10  1  0     0  0
  4  5  2  0     0  0
  5  3  1  0     0  0
  6  1  2  0     0  0
  7  8  1  0     0  0
  8  3  2  0     0  0
  9  1  1  0     0  0
 10 12  2  0     0  0
 11  2  1  0     0  0
 12 15  1  0     0  0
 13  2  2  0     0  0
 14  6  1  0     0  0
 15 19  2  0     0  0
 16  9  1  0     0  0
 17 11  2  0     0  0
 18 24  2  0     0  0
 19 25  1  0     0  0
 20 14  2  0     0  0
 21 16  1  0     0  0
 22 11  1  0     0  0
 23 14  1  0     0  0
 24 21  1  0     0  0
 25 21  2  0     0  0
 26  9  1  0     0  0
 27 10  1  0     0  0
 28 12  1  0     0  0
 29 26  1  0     0  0
 30 31  1  0     0  0
 31 28  2  0     0  0
 32 29  1  0     0  0
 13 20  1  0     0  0
 15 18  1  0     0  0
 27 30  2  0     0  0
  7  4  1  0     0  0
M  END