
  SciTegic09291412002D

 72 74  0  0  0  0            999 V2000
    9.6639   -7.1860    0.0000 S   0  0
    6.8059   -7.1860    0.0000 O   0  0
    8.2351  -12.1351    0.0000 C   0  0
   11.8094   -8.4232    0.0000 C   0  0
    5.3610   -5.2933    0.0000 N   0  0
    7.5184   -5.9486    0.0000 N   0  0
    7.5112  -13.3850    0.0000 N   0  0
    8.9475  -10.8978    0.0000 C   0  0  1  0  0  0
    8.2349   -7.1860    0.0000 C   0  0  1  0  0  0
   11.0958   -7.1822    0.0000 C   0  0
    8.2350  -12.9685    0.0000 C   0  0
    1.8098   -3.9894    0.0000 N   0  0
    6.0477   -6.5403    0.0000 O   0  0
   11.0958   -6.3488    0.0000 C   0  0
   12.5219  -10.4854    0.0000 C   0  0
   10.1616  -12.3412    0.0000 C   0  0
    8.9544  -13.3852    0.0000 O   0  0
    8.9475  -11.7226    0.0000 C   0  0
   14.6674   -9.2480    0.0000 C   0  0
    6.0895   -8.4232    0.0000 O   0  0
   14.6674  -10.8978    0.0000 C   0  0
    6.8495   -5.4617    0.0000 C   0  0  2  0  0  0
   16.0921  -10.8978    0.0000 O   0  0
    5.3753   -4.4685    0.0000 C   0  0  2  0  0  0
    2.5135   -4.4122    0.0000 C   0  0
    6.0895   -9.2480    0.0000 C   0  0
   10.3762  -10.8978    0.0000 C   0  0
    6.8059   -9.6605    0.0000 C   0  0
    7.5184   -6.7735    0.0000 C   0  0
   12.5219   -8.0107    0.0000 O   0  0
    7.5184  -10.8978    0.0000 O   0  0
    7.9308   -4.6752    0.0000 C   0  0
   10.3762  -11.7226    0.0000 O   0  0
   11.0929   -8.0107    0.0000 C   0  0
   15.3797  -10.4854    0.0000 C   0  0
    8.2349  -10.4854    0.0000 C   0  0
    8.2350   -9.6603    0.0000 N   0  0
   11.8094  -12.2209    0.0000 C   0  0
    6.0662   -5.7180    0.0000 C   0  0
   11.8094  -13.0456    0.0000 C   0  0
    5.3771   -9.6605    0.0000 N   0  0
    2.4992   -5.2345    0.0000 O   0  0
   12.5219   -9.6605    0.0000 C   0  0  1  0  0  0
    9.6639  -10.4854    0.0000 N   0  0
    4.6817   -3.2188    0.0000 O   0  0
   11.8093   -9.2483    0.0000 N   0  0
   11.8170   -7.5946    0.0000 C   0  0
    8.1873   -5.4617    0.0000 C   0  0
   15.3797   -9.6605    0.0000 C   0  0
   13.2341   -9.2480    0.0000 C   0  0
    7.1060   -4.6752    0.0000 C   0  0
    4.6675   -4.0412    0.0000 C   0  0
   13.2341  -10.8978    0.0000 O   0  0
    6.0952   -4.0639    0.0000 C   0  0
    8.2350   -8.0110    0.0000 N   0  0
    6.8059   -8.0107    0.0000 O   0  0
    8.9474   -6.7735    0.0000 C   0  0
   10.3762   -6.7735    0.0000 S   0  0
   13.9466  -10.4854    0.0000 C   0  0
    7.5184   -9.2480    0.0000 C   0  0  2  0  0  0
    3.9437   -4.4408    0.0000 N   0  0
    6.8051   -2.8240    0.0000 C   0  0
   13.9465   -9.6605    0.0000 C   0  0
    7.5184   -8.4232    0.0000 C   0  0
    5.3762   -2.8313    0.0000 C   0  0
   11.0929  -11.8041    0.0000 C   0  0  1  0  0  0
   11.0929  -10.4854    0.0000 C   0  0  2  0  0  0
   11.8094  -10.8978    0.0000 N   0  0
    3.2385   -4.0162    0.0000 C   0  0
    6.0898   -3.2414    0.0000 C   0  0
   16.8071  -10.4861    0.0000 C   0  0
   11.5935  -11.3511    0.0000 H   0  0
 33 27  2  0
  1 58  1  0
 23 35  1  0
 46 43  1  0
 70 62  1  0
 55 64  1  0
 56 64  2  0
 53 15  2  0
 54 70  1  0
 61 52  1  0
 45 52  2  0
 10 47  1  0
 43 50  1  1
  1 57  1  0
 66 38  1  0
 66 16  1  6
 70 65  1  0
 28 26  1  0
 46  4  1  0
 51 32  1  0
 63 59  1  0
 55  9  1  0
 34  4  1  0
  9 57  1  0
 18  3  1  0
 68 15  1  0
 50 63  1  0
  5 39  1  0
 24  5  1  6
 19 49  1  0
 11  7  1  0
 21 35  1  0
 32 48  1  0
  6 48  1  0
 12 25  1  0
 66 67  1  0
 64 60  1  0
  8 18  1  1
 22 51  1  0
 30  4  2  0
  8 36  1  0
  9 29  1  6
 63 19  2  0
 24 54  1  0
 49 35  2  0
 61 69  1  0
 42 25  2  0
 14 10  1  0
 59 21  2  0
 69 25  1  0
 31 36  2  0
 43 15  1  0
 67 27  1  0
 20 26  2  0
 58 10  1  0
  2 29  2  0
 24 52  1  0
 37 60  1  0
  6 29  1  0
 13 39  2  0
 67 68  1  0
 38 40  1  0
 60 28  1  1
 11 17  2  0
  6 22  1  0
  3 11  1  0
 10 34  1  0
 44  8  1  0
 37 36  1  0
 44 27  1  0
 41 26  1  0
 22 39  1  6
 23 71  1  0
 67 72  1  6
M  END