
  SciTegic11201309402D

 28 31  0  0  0  0            999 V2000
    1.9288   -0.4166    0.0000 C   0  0
    2.7409   -0.2714    0.0000 C   0  0
    3.0212    0.5046    0.0000 C   0  0
    2.4894    1.1353    0.0000 C   0  0
    1.6773    0.9900    0.0000 C   0  0
    1.1455    1.6208    0.0000 C   0  0
    0.3333    1.4755    0.0000 C   0  0
    0.0530    0.6996    0.0000 C   0  0  2  0  0  0
    0.5849    0.0689    0.0000 C   0  0  1  0  0  0
    1.3970    0.2141    0.0000 C   0  0  1  0  0  0
    0.3046   -0.7070    0.0000 C   0  0  2  0  0  0
   -0.5076   -0.8522    0.0000 C   0  0
   -1.0394   -0.2215    0.0000 C   0  0  1  0  0  0
   -0.7591    0.5544    0.0000 C   0  0  1  0  0  0
   -1.4104    1.0608    0.0000 C   0  0
   -2.0932    0.5978    0.0000 C   0  0
   -1.8639   -0.1947    0.0000 C   0  0  2  0  0  0
   -1.3992   -0.9639    0.0000 C   0  0
    1.1167   -0.5618    0.0000 C   0  0
   -2.3703   -0.8460    0.0000 C   0  0
   -3.1875   -0.7332    0.0000 C   0  0
    3.8333    0.6498    0.0000 O   0  0
    0.8364   -1.3377    0.0000 O   0  0
   -2.0594   -1.6102    0.0000 O   0  0
   -3.6939   -1.3845    0.0000 O   0  0
   -0.5195    1.5253    0.0000 H   0  0
    1.2295   -0.6956    0.0000 H   0  0
   -0.5916    1.4641    0.0000 H   0  0
  1  2  1  0
  1 10  1  0
  2  3  1  0
  3  4  1  0
  3 22  2  0
  4  5  2  0
  5  6  1  0
 10  5  1  0
  6  7  1  0
  8  7  1  0
  8  9  1  0
 14  8  1  0
 10  9  1  0
  9 11  1  0
 10 19  1  1
 11 12  1  0
 11 23  1  1
 12 13  1  0
 13 14  1  0
 13 17  1  0
 13 18  1  1
 14 15  1  0
 15 16  1  0
 16 17  1  0
 17 20  1  1
 20 21  1  0
 20 24  2  0
 21 25  1  0
 14 26  1  6
  9 27  1  6
  8 28  1  1
M  END