
          11280715322D 1   1.00000     0.00000     0

 31 34  0     0  0            999 V2000
    3.1292   -2.7667    0.0000 N   0  0  3  0  0  0           0  0  0
    2.7750   -2.0292    0.0000 C   0  0  0  0  0  0           0  0  0
    3.9542   -2.7667    0.0000 C   0  0  0  0  0  0           0  0  0
    1.3292   -2.3542    0.0000 O   0  0  0  0  0  0           0  0  0
    2.7750   -3.5167    0.0000 C   0  0  0  0  0  0           0  0  0
    1.9750   -1.8500    0.0000 C   0  0  0  0  0  0           0  0  0
    1.9667   -3.7000    0.0000 C   0  0  0  0  0  0           0  0  0
    1.3292   -3.1875    0.0000 C   0  0  0  0  0  0           0  0  0
    4.3667   -2.0500    0.0000 N   0  0  0  0  0  0           0  0  0
    3.3292   -1.4292    0.0000 C   0  0  0  0  0  0           0  0  0
    5.6042   -1.3292    0.0000 C   0  0  0  0  0  0           0  0  0
    5.1917   -2.0500    0.0000 N   0  0  0  0  0  0           0  0  0
    8.9125   -2.7500    0.0000 C   0  0  0  0  0  0           0  0  0
    9.3917   -2.0792    0.0000 O   0  0  0  0  0  0           0  0  0
    4.3750   -3.4792    0.0000 O   0  0  0  0  0  0           0  0  0
    9.3917   -3.4167    0.0000 C   0  0  0  0  0  0           0  0  0
    6.4292   -1.3292    0.0000 C   0  0  0  0  0  0           0  0  0
   10.1750   -2.3292    0.0000 C   0  0  0  0  0  0           0  0  0
    1.7292   -1.0667    0.0000 C   0  0  0  0  0  0           0  0  0
   10.1792   -3.1542    0.0000 C   0  0  0  0  0  0           0  0  0
    5.1917   -0.6167    0.0000 O   0  0  0  0  0  0           0  0  0
    3.0917   -0.6500    0.0000 C   0  0  0  0  0  0           0  0  0
    2.2917   -0.4667    0.0000 C   0  0  0  0  0  0           0  0  0
    7.6667   -2.0375    0.0000 S   0  0  0  0  0  0           0  0  0
    3.6542   -0.0417    0.0000 Cl  0  0  0  0  0  0           0  0  0
    8.0875   -2.7542    0.0000 C   0  0  0  0  0  0           0  0  0
    1.8542   -4.5042    0.0000 C   0  0  0  0  0  0           0  0  0
    6.8417   -2.0417    0.0000 C   0  0  0  0  0  0           0  0  0
    0.5667   -3.4875    0.0000 C   0  0  0  0  0  0           0  0  0
    1.0875   -4.8125    0.0000 C   0  0  0  0  0  0           0  0  0
    0.4417   -4.3000    0.0000 C   0  0  0  0  0  0           0  0  0
  2  1  1  0     0  0
  3  1  1  0     0  0
  4  6  1  0     0  0
  5  1  1  0     0  0
  6  2  1  0     0  0
  7  5  1  0     0  0
  8  7  1  0     0  0
  9  3  1  0     0  0
 10  2  2  0     0  0
 11 12  1  0     0  0
 12  9  1  0     0  0
 13 26  1  0     0  0
 14 13  1  0     0  0
 15  3  2  0     0  0
 16 13  2  0     0  0
 17 11  1  0     0  0
 18 14  1  0     0  0
 19  6  2  0     0  0
 20 16  1  0     0  0
 21 11  2  0     0  0
 22 10  1  0     0  0
 23 22  2  0     0  0
 24 28  1  0     0  0
 25 22  1  0     0  0
 26 24  1  0     0  0
 27  7  2  0     0  0
 28 17  1  0     0  0
 29  8  2  0     0  0
 30 27  1  0     0  0
 31 30  2  0     0  0
  8  4  1  0     0  0
 23 19  1  0     0  0
 31 29  1  0     0  0
 18 20  2  0     0  0
M  END