
          05080814032D 1   1.00000     0.00000     0

 35 39  0     0  0            999 V2000
    3.9111   -5.3250    0.0000 C   0  0  0  0  0  0           0  0  0
    3.9099   -6.1523    0.0000 C   0  0  0  0  0  0           0  0  0
    4.6247   -6.5652    0.0000 C   0  0  0  0  0  0           0  0  0
    4.6229   -4.9122    0.0000 C   0  0  0  0  0  0           0  0  0
    5.3383   -5.3213    0.0000 C   0  0  0  0  0  0           0  0  0
    5.3386   -6.1478    0.0000 C   0  0  0  0  0  0           0  0  0
    6.1247   -6.4029    0.0000 N   0  0  3  0  0  0           0  0  0
    6.6103   -5.7341    0.0000 C   0  0  0  0  0  0           0  0  0
    6.1242   -5.0658    0.0000 N   0  0  0  0  0  0           0  0  0
    4.6266   -7.3924    0.0000 C   0  0  0  0  0  0           0  0  0
    3.9132   -7.8068    0.0000 O   0  0  0  0  0  0           0  0  0
    5.3421   -7.8030    0.0000 O   0  0  0  0  0  0           0  0  0
    6.3798   -7.1875    0.0000 C   0  0  0  0  0  0           0  0  0
    7.1868   -7.3588    0.0000 C   0  0  0  0  0  0           0  0  0
    7.4402   -8.1446    0.0000 C   0  0  0  0  0  0           0  0  0
    8.2464   -8.3161    0.0000 C   0  0  0  0  0  0           0  0  0
    8.7992   -7.7025    0.0000 C   0  0  0  0  0  0           0  0  0
    8.5401   -6.9147    0.0000 C   0  0  0  0  0  0           0  0  0
    7.7346   -6.7469    0.0000 C   0  0  0  0  0  0           0  0  0
    9.6064   -7.8727    0.0000 N   0  0  3  0  0  0           0  0  0
    9.9440   -8.6227    0.0000 C   0  0  0  0  0  0           0  0  0
   10.7644   -8.5351    0.0000 C   0  0  0  0  0  0           0  0  0
   10.9346   -7.7278    0.0000 C   0  0  0  0  0  0           0  0  0
   10.2194   -7.3166    0.0000 C   0  0  0  0  0  0           0  0  0
   10.1322   -6.5007    0.0000 C   0  0  0  0  0  0           0  0  0
   10.7437   -5.9470    0.0000 N   0  0  0  0  0  0           0  0  0
   10.4061   -5.1942    0.0000 N   0  0  0  0  0  0           0  0  0
    9.5858   -5.2827    0.0000 N   0  0  0  0  0  0           0  0  0
    9.4166   -6.0901    0.0000 N   0  0  0  0  0  0           0  0  0
    3.9154   -8.6318    0.0000 C   0  0  0  0  0  0           0  0  0
    7.4353   -5.7338    0.0000 C   0  0  0  0  0  0           0  0  0
    7.8475   -5.0192    0.0000 C   0  0  0  0  0  0           0  0  0
    7.4348   -4.3049    0.0000 C   0  0  0  0  0  0           0  0  0
    7.8470   -3.5903    0.0000 C   0  0  0  0  0  0           0  0  0
    4.6310   -9.0424    0.0000 C   0  0  0  0  0  0           0  0  0
 16 17  2  0     0  0
  7  8  1  0     0  0
 17 18  1  0     0  0
  8  9  2  0     0  0
 18 19  2  0     0  0
 19 14  1  0     0  0
  9  5  1  0     0  0
 17 20  1  0     0  0
 20 21  1  0     0  0
  4  1  1  0     0  0
  5  6  1  0     0  0
 10 11  1  0     0  0
 21 22  2  0     0  0
 22 23  1  0     0  0
 23 24  2  0     0  0
 24 20  1  0     0  0
 25 26  1  0     0  0
 10 12  2  0     0  0
  3 10  1  0     0  0
  2  3  1  0     0  0
  7 13  1  0     0  0
  3  6  2  0     0  0
 26 27  1  0     0  0
 27 28  2  0     0  0
 28 29  1  0     0  0
 29 25  2  0     0  0
 24 25  1  0     0  0
 13 14  1  0     0  0
 11 30  1  0     0  0
  1  2  2  0     0  0
  8 31  1  0     0  0
 14 15  2  0     0  0
 31 32  1  0     0  0
  5  4  2  0     0  0
 32 33  1  0     0  0
 15 16  1  0     0  0
 33 34  1  0     0  0
  6  7  1  0     0  0
 30 35  1  0     0  0
M  END