
  SciTegic01061414252D

 23 25  0  0  0  0            999 V2000
    9.3426  -14.5361    0.0000 C   0  0
    9.3415  -15.3556    0.0000 C   0  0
   10.0495  -15.7646    0.0000 N   0  0
   10.0477  -14.1272    0.0000 C   0  0
   10.7564  -14.5325    0.0000 C   0  0
   10.7571  -15.3515    0.0000 C   0  0
   11.4657  -15.7585    0.0000 C   0  0
   12.1739  -15.3477    0.0000 C   0  0
   12.1692  -14.5256    0.0000 C   0  0
   11.4601  -14.1222    0.0000 C   0  0
   10.0437  -13.3157    0.0000 N   0  0
   10.7520  -12.9062    0.0000 C   0  0
   10.7515  -12.0926    0.0000 C   0  0
   10.0444  -11.6822    0.0000 C   0  0
    9.3361  -12.0917    0.0000 C   0  0
    9.3350  -12.9115    0.0000 C   0  0
    8.6335  -15.7636    0.0000 C   0  0
    7.9261  -15.3545    0.0000 F   0  0
    8.6328  -16.5808    0.0000 F   0  0
    7.8376  -15.9724    0.0000 F   0  0
   12.8744  -14.1127    0.0000 C   0  0
    9.4596  -11.0981    0.0000 F   0  0
   10.4460  -10.9702    0.0000 F   0  0
  1  2  2  0
  2  3  1  0
  3  6  2  0
  5  4  2  0
  4  1  1  0
  5  6  1  0
  6  7  1  0
  7  8  2  0
  8  9  1  0
  9 10  2  0
 10  5  1  0
 11 12  1  0
 11 16  1  0
 12 13  1  0
 13 14  1  0
 14 15  1  0
 15 16  1  0
  4 11  1  0
  2 17  1  0
 17 18  1  0
 17 19  1  0
 17 20  1  0
  9 21  1  0
 14 22  1  0
 14 23  1  0
M  END