
          11280715302D 1   1.00000     0.00000     0

 29 32  0     0  0            999 V2000
    3.0417   -3.2667    0.0000 C   0  0  0  0  0  0           0  0  0
    3.0125   -3.8667    0.0000 C   0  0  0  0  0  0           0  0  0
    3.5667   -3.0000    0.0000 C   0  0  0  0  0  0           0  0  0
    5.0792   -3.9792    0.0000 N   0  0  3  0  0  0           0  0  0
    2.4292   -4.0292    0.0000 O   0  0  0  0  0  0           0  0  0
    6.1500   -3.4375    0.0000 N   0  0  3  0  0  0           0  0  0
    3.5042   -4.1917    0.0000 C   0  0  0  0  0  0           0  0  0
    4.0417   -3.9167    0.0000 C   0  0  3  0  0  0           0  0  0
    2.4792   -3.0542    0.0000 C   0  0  0  0  0  0           0  0  0
    4.0750   -3.3250    0.0000 C   0  0  0  0  0  0           0  0  0
    2.1042   -3.5292    0.0000 C   0  0  0  0  0  0           0  0  0
    8.2250   -3.5542    0.0000 C   0  0  0  0  0  0           0  0  0
    8.7625   -3.2875    0.0000 C   0  0  0  0  0  0           0  0  0
    3.6000   -2.4000    0.0000 O   0  0  0  0  0  0           0  0  0
    4.5417   -4.2500    0.0000 C   0  0  0  0  0  0           0  0  0
    8.1917   -4.1542    0.0000 O   0  0  0  0  0  0           0  0  0
    9.2625   -3.6167    0.0000 C   0  0  0  0  0  0           0  0  0
    8.7917   -2.6917    0.0000 C   0  0  0  0  0  0           0  0  0
    5.1042   -3.3792    0.0000 C   0  0  0  0  0  0           0  0  0
    5.5792   -4.3042    0.0000 C   0  0  0  0  0  0           0  0  0
    6.1167   -4.0375    0.0000 C   0  0  0  0  0  0           0  0  0
    5.6417   -3.1125    0.0000 C   0  0  0  0  0  0           0  0  0
    9.8292   -2.7500    0.0000 C   0  0  0  0  0  0           0  0  0
    9.3250   -2.4167    0.0000 C   0  0  0  0  0  0           0  0  0
    9.7917   -3.3500    0.0000 C   0  0  0  0  0  0           0  0  0
   10.3667   -2.4792    0.0000 F   0  0  0  0  0  0           0  0  0
    6.6792   -3.1667    0.0000 C   0  0  0  0  0  0           0  0  0
    7.1875   -3.5000    0.0000 C   0  0  0  0  0  0           0  0  0
    7.7167   -3.2292    0.0000 C   0  0  0  0  0  0           0  0  0
  2  1  2  0     0  0
  3  1  1  0     0  0
  4 15  1  0     0  0
  5  2  1  0     0  0
  6 21  1  0     0  0
  7  2  1  0     0  0
  8 10  1  0     0  0
  9  1  1  0     0  0
 10  3  1  0     0  0
 11  9  2  0     0  0
 12 29  1  0     0  0
 13 12  1  0     0  0
 14  3  2  0     0  0
 15  8  1  0     0  0
 16 12  2  0     0  0
 17 13  2  0     0  0
 18 13  1  0     0  0
 19  4  1  0     0  0
 20  4  1  0     0  0
 21 20  1  0     0  0
 22 19  1  0     0  0
 23 24  1  0     0  0
 24 18  2  0     0  0
 25 17  1  0     0  0
 26 23  1  0     0  0
 27  6  1  0     0  0
 28 27  1  0     0  0
 29 28  1  0     0  0
  5 11  1  0     0  0
  8  7  1  0     0  0
 22  6  1  0     0  0
 23 25  2  0     0  0
M  END