
  Mrv0541 04051115152D          

 15 15  0  0  0  0            999 V2000
    1.8227    0.3651    0.0000 C   0  0  2  0  0  0  0  0  0  0  0  0
    2.5372   -0.0474    0.0000 O   0  0  0  0  0  0  0  0  0  0  0  0
    1.1083   -0.0474    0.0000 C   0  0  1  0  0  0  0  0  0  0  0  0
    1.1083   -0.8724    0.0000 N   0  0  0  0  0  0  0  0  0  0  0  0
    1.8227   -1.2849    0.0000 C   0  0  0  0  0  0  0  0  0  0  0  0
    1.8227   -2.1099    0.0000 O   0  0  0  0  0  0  0  0  0  0  0  0
    2.5372   -0.8724    0.0000 C   0  0  0  0  0  0  0  0  0  0  0  0
    0.3938    0.3651    0.0000 C   0  0  1  0  0  0  0  0  0  0  0  0
   -0.3207   -0.0474    0.0000 O   0  0  0  0  0  0  0  0  0  0  0  0
    0.3938    1.1901    0.0000 C   0  0  2  0  0  0  0  0  0  0  0  0
   -0.3207    1.6026    0.0000 O   0  0  0  0  0  0  0  0  0  0  0  0
    1.1083    1.6026    0.0000 C   0  0  1  0  0  0  0  0  0  0  0  0
    1.1083    2.4276    0.0000 C   0  0  0  0  0  0  0  0  0  0  0  0
    0.3938    2.8401    0.0000 O   0  0  0  0  0  0  0  0  0  0  0  0
    1.8227    1.1901    0.0000 O   0  0  0  0  0  0  0  0  0  0  0  0
  1  2  1  6  0  0  0
  1  3  1  0  0  0  0
  1 15  1  0  0  0  0
  3  4  1  1  0  0  0
  3  8  1  0  0  0  0
  5  4  1  0  0  0  0
  5  6  2  0  0  0  0
  5  7  1  0  0  0  0
  8  9  1  1  0  0  0
  8 10  1  0  0  0  0
 10 11  1  6  0  0  0
 10 12  1  0  0  0  0
 12 13  1  1  0  0  0
 12 15  1  0  0  0  0
 13 14  1  0  0  0  0
M  END