
  SciTegic11201309402D

 48 50  0  0  1  0            999 V2000
    3.2792   -1.1667    0.0000 N   0  0
    0.3542   -3.5417    0.0000 N   0  0
    0.4250   -4.4750    0.0000 C   0  0
    3.2792   -1.9917    0.0000 C   0  0
    1.5625   -1.8667    0.0000 C   0  0
    1.1292   -0.7542    0.0000 O   0  0
   -0.2875   -4.8875    0.0000 C   0  0
    1.0667   -2.3042    0.0000 C   0  0  1  0  0  0
    3.9917   -0.7542    0.0000 C   0  0
    1.0667   -3.1292    0.0000 C   0  0
    3.9917    0.0708    0.0000 C   0  0
    1.1292    0.0708    0.0000 C   0  0  1  0  0  0
    2.5667   -2.4042    0.0000 C   0  0
    3.9917   -2.4042    0.0000 O   0  0
    1.1375   -4.0542    0.0000 O   0  0
    2.5750   -1.6667    0.0000 O   0  0
   -1.0083   -4.4750    0.0000 O   0  0
    0.4292   -6.1250    0.0000 S   0  0
   -1.7333    1.7125    0.0000 N   0  0
    3.2750    0.4833    0.0000 C   0  0
    4.7042    0.4833    0.0000 O   0  0
    1.8417    0.4833    0.0000 C   0  0  1  0  0  0
    0.4167    0.4750    0.0000 C   0  0
    2.5625    0.0708    0.0000 C   0  0
    2.5667   -3.2292    0.0000 C   0  0  1  0  0  0
   -0.2875   -5.7125    0.0000 C   0  0
   -0.3625   -3.1375    0.0000 C   0  0
    2.5625   -0.7542    0.0000 C   0  0
    1.8542   -3.6417    0.0000 C   0  0
    0.4167    1.3000    0.0000 C   0  0
    0.3500   -1.8917    0.0000 C   0  0
    1.8542   -4.4667    0.0000 C   0  0  1  0  0  0
   -0.3000    1.7125    0.0000 C   0  0
    1.1417   -4.8792    0.0000 C   0  0
    4.7042   -1.1667    0.0000 C   0  0
    1.1417   -5.7042    0.0000 C   0  0
    2.5667   -4.8792    0.0000 O   0  0
   -1.0208    1.3000    0.0000 C   0  0
   -0.3625   -2.3042    0.0000 C   0  0
   -1.7333    2.5458    0.0000 C   0  0
    1.8417    1.3083    0.0000 C   0  0
    3.2792   -3.6417    0.0000 C   0  0
   -0.3000    2.5458    0.0000 C   0  0
    3.2792   -4.4667    0.0000 C   0  0
    4.7042   -1.9917    0.0000 C   0  0
   -1.0208    2.9583    0.0000 C   0  0
    5.4250   -2.4042    0.0000 C   0  0
    0.9665   -1.3092    0.0000 H   0  0
  2 10  1  0
  3  7  1  0
  4  1  1  0
  5  6  1  0
 12  6  1  0
  7 26  1  0
  8  5  1  0
  9  1  1  0
 10  8  1  0
 11  9  1  0
 12 22  1  0
 13  4  1  0
 14  4  2  0
 15  3  2  0
 16  5  2  0
 17  7  2  0
 18 36  1  0
 19 38  1  0
 20 11  1  0
 21 11  2  0
 22 24  1  0
 12 23  1  6
 24 20  1  0
 25 13  1  0
 26 18  1  0
 27 39  1  0
 28  1  1  0
 29 25  1  0
 30 23  1  0
 31  8  1  0
 32 29  1  0
 33 30  1  0
 34 32  1  0
 35  9  1  0
 36 34  1  0
 32 37  1  6
 38 33  2  0
 39 31  1  0
 40 46  1  0
 22 41  1  6
 25 42  1  6
 43 33  1  0
 44 37  1  0
 45 35  1  0
 46 43  2  0
 47 45  1  0
  2  3  1  0
 19 40  2  0
  2 27  1  0
  8 48  1  6
M  END