
  SciTegic02101213012D

 29 32  0  0  0  0            999 V2000
    7.8460   -1.8404    0.0000 S   0  0
    7.7990   -3.5628    0.0000 O   0  0
   11.6520   -1.5502    0.0000 O   0  0
    4.7794   -7.0172    0.0000 O   0  0
    8.5135   -0.5305    0.0000 N   0  0
    7.1786   -0.5305    0.0000 N   0  0
    7.4335    0.2541    0.0000 N   0  0
    6.4641   -3.5628    0.0000 N   0  0
    7.5441   -4.3474    0.0000 N   0  0
    7.8460   -1.0154    0.0000 C   0  0
    9.2981   -0.7854    0.0000 C   0  0
    8.2585    0.2541    0.0000 C   0  0
    6.7191   -4.3474    0.0000 C   0  0
    7.1316   -3.0779    0.0000 C   0  0
    6.2341   -5.0149    0.0000 C   0  0
    9.9112   -0.2334    0.0000 C   0  0
    9.4696   -1.5924    0.0000 C   0  0
    7.1316   -2.2529    0.0000 C   0  0
   10.8673   -1.2953    0.0000 C   0  0
   10.6958   -0.4883    0.0000 C   0  0
   10.2542   -1.8473    0.0000 C   0  0
    8.7435    0.9216    0.0000 C   0  0
    6.5697   -5.7686    0.0000 C   0  0
    5.4137   -4.9286    0.0000 C   0  0
    5.2643   -6.3498    0.0000 C   0  0
    6.0848   -6.4360    0.0000 C   0  0
    4.9287   -5.5961    0.0000 C   0  0
   11.8235   -2.3572    0.0000 C   0  0
    5.1149   -7.7709    0.0000 C   0  0
  1 10  1  0
  1 18  1  0
  2  9  1  0
  2 14  1  0
  3 19  1  0
  3 28  1  0
  4 25  1  0
  4 29  1  0
  5 10  1  0
  5 11  1  0
  5 12  1  0
  6  7  1  0
  6 10  2  0
  7 12  2  0
  8 13  1  0
  8 14  2  0
  9 13  2  0
 11 16  2  0
 11 17  1  0
 12 22  1  0
 13 15  1  0
 14 18  1  0
 15 23  2  0
 15 24  1  0
 16 20  1  0
 17 21  2  0
 19 20  2  0
 19 21  1  0
 23 26  1  0
 24 27  2  0
 25 26  2  0
 25 27  1  0
M  END