
  SciTegic10311316282D

 31 34  0  0  0  0            999 V2000
   21.5014   -7.2020    0.0000 C   0  0
   21.5003   -8.0215    0.0000 C   0  0
   22.2083   -8.4305    0.0000 C   0  0
   22.9180   -8.0210    0.0000 C   0  0
   22.9152   -7.1984    0.0000 C   0  0
   22.2066   -6.7931    0.0000 N   0  0
   20.7923   -8.4295    0.0000 Cl  0  0
   23.6213   -6.7871    0.0000 S   0  0
   24.3306   -7.1930    0.0000 C   0  0
   24.4182   -8.0048    0.0000 N   0  0
   25.2182   -8.1717    0.0000 C   0  0
   25.6241   -7.4624    0.0000 N   0  0
   25.0750   -6.8573    0.0000 C   0  0
   25.2430   -6.0574    0.0000 C   0  0
   26.0205   -5.8024    0.0000 C   0  0
   24.7978   -4.7252    0.0000 C   0  0
   24.6349   -5.5165    0.0000 C   0  0
   25.5771   -4.4650    0.0000 C   0  0
   26.1880   -5.0135    0.0000 C   0  0
   25.7432   -3.6648    0.0000 C   0  0  1  0  0  0
   26.2860   -3.0564    0.0000 C   0  0
   25.4859   -2.8903    0.0000 C   0  0  2  0  0  0
   24.8755   -2.3498    0.0000 C   0  0
   25.0388   -1.5491    0.0000 N   0  0
   24.1004   -2.6088    0.0000 O   0  0
   23.8127   -8.5536    0.0000 C   0  0
   25.8138   -1.2901    0.0000 C   0  0
   24.4270   -1.0073    0.0000 C   0  0
   23.0347   -8.3037    0.0000 T   0  0
   23.9852   -9.3524    0.0000 T   0  0
   23.2280   -9.1294    0.0000 T   0  0
  1  2  2  0
  2  3  1  0
  3  4  2  0
  4  5  1  0
  5  6  2  0
  6  1  1  0
  2  7  1  0
  5  8  1  0
  8  9  1  0
  9 10  1  0
 10 11  1  0
 11 12  2  0
 12 13  1  0
 13  9  2  0
 14 15  2  0
 15 19  1  0
 18 16  1  0
 16 17  2  0
 17 14  1  0
 13 14  1  0
 18 19  2  0
 20 18  1  6
 21 20  1  0
 22 21  1  0
 20 22  1  0
 22 23  1  1
 23 24  1  0
 23 25  2  0
 10 26  1  0
 24 27  1  0
 24 28  1  0
 26 29  1  0
 26 30  1  0
 26 31  1  0
M  END