
  SciTegic01161211222D

 32 35  0  0  0  0            999 V2000
    0.0750   -3.2500    0.0000 O   0  0
   -0.6375   -3.6667    0.0000 S   0  0
    0.0796   -4.0754    0.0000 O   0  0
   -1.3822   -1.6166    0.0000 N   0  0
   -0.7230   -1.1206    0.0000 C   0  0
   -0.9892   -0.3397    0.0000 C   0  0
   -1.8166   -0.3531    0.0000 C   0  0
   -2.0554   -1.1419    0.0000 N   0  0
   -2.3129    0.3064    0.0000 C   0  0
   -1.9894    1.0665    0.0000 C   0  0
   -2.4857    1.7246    0.0000 C   0  0
   -3.3054    1.6238    0.0000 C   0  0
   -3.6264    0.8592    0.0000 C   0  0
   -3.1281    0.2043    0.0000 C   0  0
   -0.5131    0.3314    0.0000 C   0  0
    0.3096    0.2563    0.0000 C   0  0
    0.7841    0.9302    0.0000 C   0  0
    0.4371    1.6797    0.0000 C   0  0
   -0.3891    1.7511    0.0000 C   0  0
   -0.8599    1.0762    0.0000 C   0  0
   -1.3695   -2.4415    0.0000 C   0  0
   -2.0776   -2.8650    0.0000 N   0  0
   -0.6488   -2.8430    0.0000 N   0  0
   -1.3441   -4.0913    0.0000 C   0  0
   -2.0606   -3.6891    0.0000 C   0  0
   -2.7668   -4.1131    0.0000 C   0  0
   -2.7527   -4.9383    0.0000 C   0  0
   -2.0266   -5.3377    0.0000 C   0  0
   -1.3235   -4.9114    0.0000 C   0  0
   -2.7983   -2.4635    0.0000 C   0  0
   -3.4593   -5.3642    0.0000 Cl  0  0
   -3.8032    2.2817    0.0000 Cl  0  0
  2  1  2  0
 16 17  1  0
  3  2  2  0
 17 18  2  0
  9 10  2  0
 18 19  1  0
  4  5  1  0
 19 20  2  0
 20 15  1  0
  6 15  1  0
 10 11  1  0
  4 21  1  0
 21 22  1  0
 11 12  2  0
 21 23  2  0
 23  2  1  0
  5  6  1  0
  2 24  1  0
 12 13  1  0
 24 25  2  0
  6  7  1  0
 25 26  1  0
 13 14  2  0
 26 27  2  0
 14  9  1  0
 27 28  1  0
  7  9  1  0
 28 29  2  0
 29 24  1  0
  7  8  2  0
 22 30  1  0
  8  4  1  0
 27 31  1  0
 15 16  2  0
 12 32  1  0
M  END