
          11280715362D 1   1.00000     0.00000     0

 37 40  0     1  0            999 V2000
    3.1042   -3.4042    0.0000 C   0  0  1  0  0  0           0  0  0
    2.9250   -2.6042    0.0000 C   0  0  2  0  0  0           0  0  0
    3.6917   -3.9917    0.0000 N   0  0  3  0  0  0           0  0  0
    2.4000   -3.8292    0.0000 C   0  0  0  0  0  0           0  0  0
    5.3542   -1.0250    0.0000 C   0  0  0  0  0  0           0  0  0
    2.1042   -2.5292    0.0000 C   0  0  1  0  0  0           0  0  0
    4.5375   -1.0500    0.0000 C   0  0  0  0  0  0           0  0  0
    7.8792   -3.3917    0.0000 C   0  0  0  0  0  0           0  0  0
    1.6792   -1.8167    0.0000 O   0  0  0  0  0  0           0  0  0
    1.7792   -3.2875    0.0000 C   0  0  0  0  0  0           0  0  0
    8.5417   -3.1250    0.0000 O   0  0  0  0  0  0           0  0  0
    5.7542   -0.3042    0.0000 C   0  0  0  0  0  0           0  0  0
    4.1250   -0.3417    0.0000 C   0  0  0  0  0  0           0  0  0
    4.1375   -1.7667    0.0000 C   0  0  0  0  0  0           0  0  0
    5.0167   -2.5542    0.0000 C   0  0  0  0  0  0           0  0  0
    5.8792   -2.6167    0.0000 C   0  0  0  0  0  0           0  0  0
    3.7167   -2.3875    0.0000 O   0  0  0  0  0  0           0  0  0
    2.0792   -1.1042    0.0000 C   0  0  0  0  0  0           0  0  0
    2.9042   -1.0917    0.0000 C   0  0  0  0  0  0           0  0  0
    7.7792   -4.1000    0.0000 O   0  0  0  0  0  0           0  0  0
    3.3042   -0.3667    0.0000 C   0  0  0  0  0  0           0  0  0
    3.3167   -1.7875    0.0000 C   0  0  0  0  0  0           0  0  0
    3.4250   -4.7667    0.0000 C   0  0  0  0  0  0           0  0  0
    4.4625   -3.7167    0.0000 C   0  0  0  0  0  0           0  0  0
    5.7292    1.1250    0.0000 O   0  0  0  0  0  0           0  0  0
    4.3042   -2.9667    0.0000 C   0  0  0  0  0  0           0  0  0
    5.7625   -1.7292    0.0000 C   0  0  0  0  0  0           0  0  0
    5.3292    0.4083    0.0000 C   0  0  0  0  0  0           0  0  0
    7.3167   -2.9542    0.0000 C   0  0  0  0  0  0           0  0  0
    6.3792   -3.2042    0.0000 C   0  0  0  0  0  0           0  0  0
    6.5667   -0.2917    0.0000 C   0  0  0  0  0  0           0  0  0
    3.8625   -5.4625    0.0000 C   0  0  0  0  0  0           0  0  0
    5.1625   -4.1542    0.0000 C   0  0  0  0  0  0           0  0  0
    6.5792   -1.7167    0.0000 C   0  0  0  0  0  0           0  0  0
    6.9792   -0.9917    0.0000 C   0  0  0  0  0  0           0  0  0
    5.2625   -4.9667    0.0000 C   0  0  0  0  0  0           0  0  0
    4.6792   -5.5417    0.0000 C   0  0  0  0  0  0           0  0  0
  2  1  1  0     0  0
  1  3  1  1     0  0
  4  1  1  0     0  0
  5  7  1  0     0  0
  6  2  1  0     0  0
  7 14  1  0     0  0
  8 29  1  0     0  0
  6  9  1  6     0  0
 10  4  1  0     0  0
 11  8  2  0     0  0
 12  5  1  0     0  0
 13 21  1  0     0  0
 14 22  2  0     0  0
 15 26  1  0     0  0
 16 15  2  0     0  0
  2 17  1  6     0  0
 18  9  1  0     0  0
 19 18  1  0     0  0
 20  8  1  0     0  0
 21 19  2  0     0  0
 22 19  1  0     0  0
 23  3  1  0     0  0
 24  3  1  0     0  0
 25 28  1  0     0  0
 26 17  1  0     0  0
 27  5  2  0     0  0
 28 12  1  0     0  0
 29 30  1  0     0  0
 30 16  1  0     0  0
 31 12  2  0     0  0
 32 23  1  0     0  0
 33 24  1  0     0  0
 34 27  1  0     0  0
 35 34  2  0     0  0
 36 33  1  0     0  0
 37 32  1  0     0  0
  6 10  1  0     0  0
 36 37  1  0     0  0
 13  7  2  0     0  0
 35 31  1  0     0  0
M  END