
          11280715282D 1   1.00000     0.00000     0

 32 31  0     0  0            999 V2000
    1.3542   -1.5042    0.0000 C   0  0  0  0  0  0           0  0  0
    5.6917   -3.0542    0.0000 C   0  0  0  0  0  0           0  0  0
    1.8792   -1.8042    0.0000 C   0  0  0  0  0  0           0  0  0
    6.2042   -2.7542    0.0000 C   0  0  0  0  0  0           0  0  0
    1.8750   -0.6042    0.0000 N   0  3  3  0  0  0           0  0  0
    5.1792   -2.1542    0.0000 N   0  3  3  0  0  0           0  0  0
    1.3542   -0.9042    0.0000 C   0  0  0  0  0  0           0  0  0
    5.1750   -2.7542    0.0000 C   0  0  0  0  0  0           0  0  0
    6.7167   -3.0542    0.0000 C   0  0  0  0  0  0           0  0  0
    1.8792   -2.4125    0.0000 C   0  0  0  0  0  0           0  0  0
    0.4042   -0.3750    0.0000 Br  0  5  0  0  0  0           0  0  0
    5.9917   -0.8125    0.0000 Br  0  5  0  0  0  0           0  0  0
    2.4000   -1.5042    0.0000 O   0  0  0  0  0  0           0  0  0
    6.2042   -2.1542    0.0000 O   0  0  0  0  0  0           0  0  0
    2.4042   -2.7125    0.0000 O   0  0  0  0  0  0           0  0  0
    7.2417   -2.7542    0.0000 O   0  0  0  0  0  0           0  0  0
    0.8417   -1.8125    0.0000 C   0  0  0  0  0  0           0  0  0
    5.6875   -3.6542    0.0000 C   0  0  0  0  0  0           0  0  0
    2.4750   -0.6042    0.0000 C   0  0  0  0  0  0           0  0  0
    4.5792   -2.1542    0.0000 C   0  0  0  0  0  0           0  0  0
    0.8417   -2.4125    0.0000 C   0  0  0  0  0  0           0  0  0
    6.2042   -3.9542    0.0000 C   0  0  0  0  0  0           0  0  0
    2.4625    0.0333    0.0000 C   0  0  0  0  0  0           0  0  0
    1.3417    0.0625    0.0000 C   0  0  0  0  0  0           0  0  0
    5.6917   -1.8542    0.0000 C   0  0  0  0  0  0           0  0  0
    5.0167   -1.5750    0.0000 C   0  0  0  0  0  0           0  0  0
    1.3542   -2.7125    0.0000 C   0  0  0  0  0  0           0  0  0
    6.7167   -3.6542    0.0000 C   0  0  0  0  0  0           0  0  0
    4.2750   -1.6417    0.0000 C   0  0  0  0  0  0           0  0  0
    2.7750   -1.1250    0.0000 C   0  0  0  0  0  0           0  0  0
    3.3750   -1.1250    0.0000 C   0  0  0  0  0  0           0  0  0
    3.6750   -1.6417    0.0000 C   0  0  0  0  0  0           0  0  0
  2  8  1  0     0  0
  3  1  2  0     0  0
  4  2  1  0     0  0
  5  7  1  0     0  0
  6 20  1  0     0  0
  7  1  1  0     0  0
  8  6  1  0     0  0
  9  4  2  0     0  0
 10  3  1  0     0  0
 13  3  1  0     0  0
 14  4  1  0     0  0
 15 10  1  0     0  0
 16  9  1  0     0  0
 17  1  1  0     0  0
 18  2  2  0     0  0
 19  5  1  0     0  0
 20 29  1  0     0  0
 21 17  2  0     0  0
 22 18  1  0     0  0
 23  5  1  0     0  0
 24  5  1  0     0  0
 25  6  1  0     0  0
 26  6  1  0     0  0
 27 21  1  0     0  0
 28 22  2  0     0  0
 29 32  1  0     0  0
 30 19  1  0     0  0
 31 30  1  0     0  0
 32 31  1  0     0  0
 10 27  2  0     0  0
 28  9  1  0     0  0
M  CHG  4   5   1   6   1  11  -1  12  -1
M  END