
  SciTegic04301217482D

113114  0  0  0  0            999 V2000
    1.3875   -9.8625    0.0000 Na  0  3
    4.3833   -8.2083    0.0000 Na  0  3
   -1.3238  -17.3519    0.0000 S   0  0
   -0.9213  -18.0721    0.0000 O   0  0
   -0.4989  -17.3634    0.0000 O   0  0
   -1.9816  -13.6287    0.0000 S   0  0
   -2.8065  -13.6158    0.0000 O   0  0
   -2.4052  -14.3366    0.0000 O   0  0
    2.2820  -12.0453    0.0000 S   0  0
    2.2832  -11.2203    0.0000 O   0  0
    1.5681  -11.6317    0.0000 O   0  0
    3.6826   -9.5369    0.0000 S   0  0
    4.0694   -8.8082    0.0000 O   0  0
    3.2450   -8.8376    0.0000 O   0  0
   20.8512  -16.1491    0.0000 N   0  0
   20.9392  -15.3262    0.0000 C   0  0
   20.1857  -14.9926    0.0000 N   0  0
   20.0435  -16.3176    0.0000 C   0  0  2  0  0  0
   19.6320  -15.6025    0.0000 C   0  0  1  0  0  0
   18.8247  -15.7729    0.0000 C   0  0  1  0  0  0
   18.7373  -16.5933    0.0000 S   0  0
   19.4905  -16.9299    0.0000 C   0  0
   21.6536  -14.9137    0.0000 O   0  0
   19.2221  -14.8818    0.0000 H   0  0
   20.4529  -17.0291    0.0000 H   0  0
   18.1104  -15.3611    0.0000 C   0  0
   18.1094  -14.5361    0.0000 C   0  0
   17.3945  -14.1246    0.0000 C   0  0
   17.3934  -13.2996    0.0000 C   0  0
   16.6784  -12.8879    0.0000 C   0  0
   16.6772  -12.0629    0.0000 N   0  0
   15.9644  -13.3014    0.0000 O   0  0
   15.9623  -11.6514    0.0000 C   0  0
   15.2470  -12.0506    0.0000 C   0  0
   15.2298  -12.8754    0.0000 O   0  0
   14.5068  -13.2729    0.0000 C   0  0
   14.4895  -14.0977    0.0000 C   0  0
   13.7666  -14.4952    0.0000 O   0  0
   13.7493  -15.3200    0.0000 C   0  0
   13.0264  -15.7175    0.0000 C   0  0
   12.3108  -15.3146    0.0000 O   0  0
   12.3069  -14.4896    0.0000 C   0  0
   11.5904  -14.0806    0.0000 C   0  0
   11.5864  -13.2556    0.0000 O   0  0
   10.8701  -12.8465    0.0000 C   0  0
   10.8660  -12.0216    0.0000 C   0  0
   10.1496  -11.6124    0.0000 C   0  0
   10.1455  -10.7875    0.0000 N   0  0
    9.4371  -12.0284    0.0000 O   0  0
    9.4291  -10.3784    0.0000 C   0  0
    9.4252   -9.5534    0.0000 C   0  0
    8.7087   -9.1445    0.0000 O   0  0
    0.1022  -17.3742    0.0000 O   0  0
    1.5724  -14.9219    0.0000 O   0  0
    0.8502  -15.3231    0.0000 C   0  0  1  0  0  0
    0.8373  -16.1480    0.0000 C   0  0  2  0  0  0
    1.5466  -16.5717    0.0000 N   0  0
    0.1151  -16.5493    0.0000 C   0  0  2  0  0  0
   -0.5943  -16.1257    0.0000 C   0  0  1  0  0  0
   -1.3123  -16.5270    0.0000 O   0  0
   -0.5814  -15.3008    0.0000 C   0  0  2  0  0  0
    0.1408  -14.8995    0.0000 O   0  0
   -1.2866  -14.8772    0.0000 C   0  0
   -1.2737  -14.0523    0.0000 O   0  0
    1.5344  -17.3966    0.0000 C   0  0
    0.8139  -17.7985    0.0000 C   0  0
    0.8582  -14.4943    0.0000 H   0  0
    2.2427  -17.8196    0.0000 O   0  0
    4.4295  -13.2732    0.0000 O   0  0
    3.7136  -13.6857    0.0000 C   0  0  1  0  0  0
    3.7136  -14.5107    0.0000 C   0  0  2  0  0  0
    4.4295  -14.9232    0.0000 O   0  0
    2.9978  -14.9232    0.0000 C   0  0  1  0  0  0
    2.9978  -15.7482    0.0000 O   0  0
    2.2819  -14.5107    0.0000 C   0  0  1  0  0  0
    2.2819  -13.6857    0.0000 C   0  0  2  0  0  0
    2.9978  -13.2732    0.0000 O   0  0
    1.5702  -13.2732    0.0000 C   0  0
    1.5702  -12.4482    0.0000 O   0  0
    0.8554  -13.6851    0.0000 O   0  0
    5.8516  -10.7927    0.0000 O   0  0
    5.1373  -11.2080    0.0000 C   0  0  1  0  0  0
    5.1405  -12.0329    0.0000 C   0  0  2  0  0  0
    5.8580  -12.4427    0.0000 N   0  0
    4.4263  -12.4482    0.0000 C   0  0  2  0  0  0
    3.7088  -12.0385    0.0000 C   0  0  1  0  0  0
    2.9987  -12.4538    0.0000 O   0  0
    3.7056  -11.2135    0.0000 C   0  0  2  0  0  0
    4.4199  -10.7982    0.0000 O   0  0
    2.9923  -10.8038    0.0000 C   0  0
    2.9833   -9.9746    0.0000 O   0  0
    7.9950   -9.5552    0.0000 C   0  0  1  0  0  0
    7.9950  -10.3802    0.0000 C   0  0  2  0  0  0
    8.7109  -10.7927    0.0000 O   0  0
    7.2791  -10.7927    0.0000 C   0  0  1  0  0  0
    7.2791  -11.6177    0.0000 O   0  0
    6.5633  -10.3802    0.0000 C   0  0  1  0  0  0
    6.5633   -9.5552    0.0000 C   0  0  2  0  0  0
    7.2791   -9.1427    0.0000 O   0  0
    5.8516   -9.1427    0.0000 C   0  0
    5.8516   -8.3177    0.0000 O   0  0
    5.1368   -9.5546    0.0000 O   0  0
    5.8619  -13.2676    0.0000 C   0  0
    6.5783  -13.6768    0.0000 O   0  0
    5.1494  -13.6835    0.0000 C   0  0
    3.7083  -12.8583    0.0000 H   0  0
    5.1291  -10.3791    0.0000 H   0  0
    4.4113   -9.9237    0.0000 O   0  5
    2.2750  -12.8666    0.0000 O   0  5
   -1.9687  -12.8038    0.0000 O   0  5
   -2.0440  -17.7544    0.0000 O   0  5
   -1.2959  -11.8625    0.0000 Na  0  3
   -3.0750  -17.4875    0.0000 Na  0  3
 30 31  1  0
 15 16  1  0
 30 32  2  0
 55 54  1  0
 55 56  1  0
 56 57  1  6
 56 58  1  0
 58 53  1  1
 58 59  1  0
 59 60  1  1
 59 61  1  0
 61 62  1  0
 61 63  1  1
 63 64  1  0
 55 62  1  0
 16 17  1  0
 57 65  1  0
 31 33  1  0
 65 66  1  0
 17 19  1  0
 55 67  1  6
 33 34  1  0
 65 68  2  0
 18 19  1  0
 34 35  1  0
 10  9  2  0
 35 36  1  0
  9 11  2  0
 36 37  1  0
  3  5  2  0
 37 38  1  0
 38 39  1  0
 70 69  1  0
 70 71  1  0
 71 72  1  6
 71 73  1  0
 73 74  1  1
 73 75  1  0
 75 54  1  6
 75 76  1  0
 76 77  1  0
 76 78  1  1
 78 79  2  0
 70 77  1  0
 39 40  1  0
 78 80  1  0
 19 20  1  0
 40 41  1  0
 20 21  1  0
 41 42  1  0
 21 22  1  0
 42 43  1  0
 22 18  1  0
 43 44  1  0
 13 12  2  0
 44 45  1  0
 16 23  2  0
 82 81  1  0
 82 83  1  0
 83 84  1  6
 83 85  1  0
 85 69  1  1
 85 86  1  0
 86 87  1  1
 86 88  1  0
 88 89  1  0
 88 90  1  1
 90 91  1  0
 82 89  1  0
 45 46  1  0
 12 14  2  0
 46 47  1  0
 19 24  1  6
 47 48  1  0
 47 49  2  0
 18 25  1  6
 48 50  1  0
  7  6  2  0
 92 52  1  1
 92 93  1  0
 93 94  1  6
 93 95  1  0
 95 96  1  1
 95 97  1  0
 97 81  1  6
 97 98  1  0
 98 99  1  0
 98100  1  1
100101  1  0
 92 99  1  0
 50 51  1  0
100102  2  0
 20 26  1  1
 84103  1  0
 51 52  1  0
103104  2  0
  6  8  2  0
103105  1  0
 26 27  1  0
 70106  1  6
 82107  1  6
 91 12  1  0
 27 28  1  0
 12108  1  0
 87  9  1  0
  9109  1  0
 64  6  1  0
 28 29  1  0
  6110  1  0
 60  3  1  0
  4  3  2  0
  3111  1  0
 29 30  1  0
 18 15  1  0
M  CHG  8   1   1   2   1 108  -1 109  -1 110  -1 111  -1 112   1 113   1
M  END