
          11280715102D 1   1.00000     0.00000     0

 27 29  0     0  0            999 V2000
   -2.0250    0.2208    0.0000 C   0  0  0  0  0  0           0  0  0
   -2.7833   -0.1125    0.0000 N   0  0  3  0  0  0           0  0  0
   -3.3333    0.5083    0.0000 N   0  0  0  0  0  0           0  0  0
   -2.1125    1.0458    0.0000 C   0  0  0  0  0  0           0  0  0
   -2.9208    1.2208    0.0000 C   0  0  0  0  0  0           0  0  0
   -1.3083   -0.1917    0.0000 N   0  0  0  0  0  0           0  0  0
   -0.5958    0.2208    0.0000 C   0  0  0  0  0  0           0  0  0
    0.1167   -0.1917    0.0000 N   0  0  0  0  0  0           0  0  0
   -3.0125   -0.9000    0.0000 C   0  0  0  0  0  0           0  0  0
   -3.2583    1.9708    0.0000 C   0  0  3  0  0  0           0  0  0
    0.8375    0.2208    0.0000 C   0  0  0  0  0  0           0  0  0
   -0.5958    1.0458    0.0000 O   0  0  0  0  0  0           0  0  0
    1.5417   -0.2000    0.0000 C   0  0  0  0  0  0           0  0  0
   -2.4458   -1.4917    0.0000 C   0  0  0  0  0  0           0  0  0
   -3.8125   -1.0875    0.0000 C   0  0  0  0  0  0           0  0  0
    1.5417   -1.0250    0.0000 F   0  0  0  0  0  0           0  0  0
   -2.6750   -2.2792    0.0000 C   0  0  0  0  0  0           0  0  0
   -4.0500   -1.8792    0.0000 C   0  0  0  0  0  0           0  0  0
   -3.4833   -2.4792    0.0000 C   0  0  0  0  0  0           0  0  0
   -2.7708    2.6458    0.0000 C   0  0  0  0  0  0           0  0  0
   -4.0833    2.0583    0.0000 C   0  0  0  0  0  0           0  0  0
   -3.6708    2.6875    0.0000 C   0  0  0  0  0  0           0  0  0
    0.8292    1.0458    0.0000 C   0  0  0  0  0  0           0  0  0
    2.2542    0.2083    0.0000 C   0  0  0  0  0  0           0  0  0
   -3.7208   -3.2667    0.0000 C   0  0  0  0  0  0           0  0  0
    1.5500    1.4500    0.0000 C   0  0  0  0  0  0           0  0  0
    2.2667    1.0333    0.0000 C   0  0  0  0  0  0           0  0  0
  2  1  1  0     0  0
  3  2  1  0     0  0
  4  1  2  0     0  0
  5  4  1  0     0  0
  6  1  1  0     0  0
  7  6  1  0     0  0
  8  7  1  0     0  0
  9  2  1  0     0  0
 10  5  1  0     0  0
 11  8  1  0     0  0
 12  7  2  0     0  0
 13 11  2  0     0  0
 14  9  1  0     0  0
 15  9  2  0     0  0
 16 13  1  0     0  0
 17 14  2  0     0  0
 18 15  1  0     0  0
 19 18  2  0     0  0
 20 10  1  0     0  0
 21 10  1  0     0  0
 22 10  1  0     0  0
 23 11  1  0     0  0
 24 13  1  0     0  0
 25 19  1  0     0  0
 26 23  2  0     0  0
 27 26  1  0     0  0
  3  5  2  0     0  0
 17 19  1  0     0  0
 27 24  2  0     0  0
M  END