
  CDK    9/16/09,9:46

 32 35  0  0  0  0  0  0  0  0999 V2000
    2.9178   -1.4162    0.0000 C   0  0  0  0  0  0  0  0  0  0  0  0
    2.9166   -2.2437    0.0000 C   0  0  0  0  0  0  0  0  0  0  0  0
    3.6295   -2.6566    0.0000 C   0  0  0  0  0  0  0  0  0  0  0  0
    4.3489   -2.2432    0.0000 C   0  0  0  0  0  0  0  0  0  0  0  0
    4.3457   -1.4121    0.0000 C   0  0  0  0  0  0  0  0  0  0  0  0
    3.6275   -1.0034    0.0000 C   0  0  0  0  0  0  0  0  0  0  0  0
    5.0583   -0.9995    0.0000 C   0  0  0  0  0  0  0  0  0  0  0  0
    5.8137   -1.3314    0.0000 N   0  0  0  0  0  0  0  0  0  0  0  0
    6.3627   -0.7155    0.0000 N   0  0  0  0  0  0  0  0  0  0  0  0
    5.9466   -0.0031    0.0000 C   0  0  0  0  0  0  0  0  0  0  0  0
    5.1406   -0.1787    0.0000 C   0  0  0  0  0  0  0  0  0  0  0  0
    4.5248    0.3702    0.0000 C   0  0  0  0  0  0  0  0  0  0  0  0
    6.2783    0.7523    0.0000 C   0  0  0  0  0  0  0  0  0  0  0  0
    7.0983    0.8426    0.0000 N   0  0  0  0  0  0  0  0  0  0  0  0
    5.7901    1.4172    0.0000 O   0  0  0  0  0  0  0  0  0  0  0  0
    7.4301    1.5979    0.0000 N   0  0  0  0  0  0  0  0  0  0  0  0
    8.2543    1.6859    0.0000 C   0  0  0  0  0  0  0  0  0  0  0  0
    8.5864    2.4301    0.0000 C   0  0  0  0  0  0  0  0  0  0  0  0
    8.1014    3.1007    0.0000 C   0  0  0  0  0  0  0  0  0  0  0  0
    7.2802    3.0150    0.0000 C   0  0  0  0  0  0  0  0  0  0  0  0
    6.9441    2.2601    0.0000 C   0  0  0  0  0  0  0  0  0  0  0  0
    5.9900   -2.1359    0.0000 C   0  0  0  0  0  0  0  0  0  0  0  0
    5.3779   -2.6907    0.0000 C   0  0  0  0  0  0  0  0  0  0  0  0
    5.5530   -3.4961    0.0000 C   0  0  0  0  0  0  0  0  0  0  0  0
    6.3395   -3.7479    0.0000 C   0  0  0  0  0  0  0  0  0  0  0  0
    6.9511   -3.1880    0.0000 C   0  0  0  0  0  0  0  0  0  0  0  0
    6.7731   -2.3847    0.0000 C   0  0  0  0  0  0  0  0  0  0  0  0
    7.3818   -1.8279    0.0000 Cl  0  0  0  0  0  0  0  0  0  0  0  0
    6.5161   -4.5537    0.0000 Cl  0  0  0  0  0  0  0  0  0  0  0  0
    2.2016   -2.6552    0.0000 Cl  0  0  0  0  0  0  0  0  0  0  0  0
    3.6237   -0.1784    0.0000 Cl  0  0  0  0  0  0  0  0  0  0  0  0
    4.5923   -2.4389    0.0000 Cl  0  0  0  0  0  0  0  0  0  0  0  0
  3  4  2  0  0  0  0 
 14 16  1  0  0  0  0 
 16 17  1  0  0  0  0 
  4  5  1  0  0  0  0 
  2  3  1  0  0  0  0 
  8  9  1  0  0  0  0 
  9 10  2  0  0  0  0 
 16 21  1  0  0  0  0 
 17 18  1  0  0  0  0 
 18 19  1  0  0  0  0 
 19 20  1  0  0  0  0 
 20 21  1  0  0  0  0 
 10 11  1  0  0  0  0 
 11  7  2  0  0  0  0 
 22 23  2  0  0  0  0 
  5  7  1  0  0  0  0 
 23 24  1  0  0  0  0 
  5  6  2  0  0  0  0 
 24 25  2  0  0  0  0 
 11 12  1  0  0  0  0 
 25 26  1  0  0  0  0 
  6  1  1  0  0  0  0 
 26 27  2  0  0  0  0 
 27 22  1  0  0  0  0 
  8 22  1  0  0  0  0 
 10 13  1  0  0  0  0 
 27 28  1  0  0  0  0 
  7  8  1  0  0  0  0 
 25 29  1  0  0  0  0 
 13 14  1  0  0  0  0 
  2 30  1  0  0  0  0 
  1  2  2  0  0  0  0 
  6 31  1  0  0  0  0 
 13 15  2  0  0  0  0 
 23 32  1  0  0  0  0 
M  END