
          03140815512D 1   1.00000     0.00000     0

 28 30  0     0  0            999 V2000
   12.1611   -0.3750    0.0000 C   0  0  0  0  0  0           0  0  0
   12.1599   -1.2023    0.0000 C   0  0  0  0  0  0           0  0  0
   12.8747   -1.6152    0.0000 C   0  0  0  0  0  0           0  0  0
   13.5912   -1.2019    0.0000 C   0  0  0  0  0  0           0  0  0
   13.5883   -0.3713    0.0000 C   0  0  0  0  0  0           0  0  0
   12.8729    0.0378    0.0000 C   0  0  0  0  0  0           0  0  0
   14.3012    0.0439    0.0000 O   0  0  0  0  0  0           0  0  0
   14.2981    0.8689    0.0000 C   0  0  0  0  0  0           0  0  0
   15.0128    1.2792    0.0000 C   0  0  0  0  0  0           0  0  0
   15.0100    2.1034    0.0000 C   0  0  0  0  0  0           0  0  0
   14.2935    2.5141    0.0000 C   0  0  0  0  0  0           0  0  0
   13.5782    2.0945    0.0000 C   0  0  0  0  0  0           0  0  0
   13.5845    1.2716    0.0000 C   0  0  0  0  0  0           0  0  0
   14.3063   -1.6132    0.0000 C   0  0  0  0  0  0           0  0  0
   14.3076   -2.4382    0.0000 N   0  0  0  0  0  0           0  0  0
   15.0227   -2.8496    0.0000 C   0  0  0  0  0  0           0  0  0
   11.4451   -1.6143    0.0000 C   0  0  0  0  0  0           0  0  0
   10.7250   -2.0208    0.0000 C   0  0  0  0  0  0           0  0  0
   10.0083   -2.4292    0.0000 C   0  0  0  0  0  0           0  0  0
    9.2962   -2.0126    0.0000 C   0  0  0  0  0  0           0  0  0
    8.5794   -2.4210    0.0000 N   0  0  3  0  0  0           0  0  0
    7.8655   -2.0060    0.0000 C   0  0  0  0  0  0           0  0  0
    7.1508   -2.4110    0.0000 C   0  0  0  0  0  0           0  0  0
    7.1418   -3.2363    0.0000 O   0  0  0  0  0  0           0  0  0
    7.8538   -3.6550    0.0000 C   0  0  0  0  0  0           0  0  0
    8.5747   -3.2485    0.0000 C   0  0  0  0  0  0           0  0  0
   14.2893    3.3391    0.0000 S   0  0  0  0  0  0           0  0  0
   15.0016    3.7552    0.0000 C   0  0  0  0  0  0           0  0  0
  1  2  2  0     0  0
  4 14  1  0     0  0
  5  7  1  0     0  0
 14 15  1  0     0  0
  3  4  2  0     0  0
 15 16  1  0     0  0
  7  8  1  0     0  0
  2 17  1  0     0  0
 17 18  3  0     0  0
  8  9  2  0     0  0
 18 19  1  0     0  0
  4  5  1  0     0  0
 19 20  1  0     0  0
  9 10  1  0     0  0
 20 21  1  0     0  0
 21 22  1  0     0  0
  2  3  1  0     0  0
 10 11  2  0     0  0
  5  6  2  0     0  0
 11 12  1  0     0  0
  6  1  1  0     0  0
 21 26  1  0     0  0
 22 23  1  0     0  0
 23 24  1  0     0  0
 24 25  1  0     0  0
 25 26  1  0     0  0
 12 13  2  0     0  0
 11 27  1  0     0  0
 13  8  1  0     0  0
 27 28  1  0     0  0
M  END