
          11280715332D 1   1.00000     0.00000     0

 44 45  0     1  0            999 V2000
    1.7667   -3.5417    0.0000 C   0  0  0  0  0  0           0  0  0
    5.3375   -3.9542    0.0000 C   0  0  0  0  0  0           0  0  0
    4.6250   -3.5417    0.0000 C   0  0  1  0  0  0           0  0  0
    2.4792   -3.9542    0.0000 C   0  0  1  0  0  0           0  0  0
    1.0542   -3.9542    0.0000 N   0  0  3  0  0  0           0  0  0
    6.0542   -3.5417    0.0000 N   0  0  3  0  0  0           0  0  0
    3.9042   -3.9542    0.0000 C   0  0  2  0  0  0           0  0  0
    3.1917   -3.5417    0.0000 C   0  0  2  0  0  0           0  0  0
    0.3375   -3.5417    0.0000 C   0  0  3  0  0  0           0  0  0
    6.7667   -3.9542    0.0000 C   0  0  3  0  0  0           0  0  0
    4.6250   -2.7167    0.0000 O   0  0  0  0  0  0           0  0  0
    2.4792   -4.7792    0.0000 O   0  0  0  0  0  0           0  0  0
    6.7667   -4.7792    0.0000 C   0  0  0  0  0  0           0  0  0
    0.3375   -2.7167    0.0000 C   0  0  0  0  0  0           0  0  0
    1.7667   -2.7167    0.0000 O   0  0  0  0  0  0           0  0  0
    5.3375   -4.7792    0.0000 O   0  0  0  0  0  0           0  0  0
    6.0542   -5.1917    0.0000 O   0  0  0  0  0  0           0  0  0
    1.0542   -2.3042    0.0000 O   0  0  0  0  0  0           0  0  0
    3.1917   -2.7167    0.0000 O   0  0  0  0  0  0           0  0  0
    3.9042   -4.7792    0.0000 O   0  0  0  0  0  0           0  0  0
    5.4042   -2.2792    0.0000 C   0  0  0  0  0  0           0  0  0
    1.7667   -5.1917    0.0000 C   0  0  0  0  0  0           0  0  0
    7.4792   -3.5417    0.0000 C   0  0  3  0  0  0           0  0  0
   -0.3750   -3.9542    0.0000 C   0  0  3  0  0  0           0  0  0
   -0.3750   -2.3042    0.0000 O   0  0  0  0  0  0           0  0  0
    7.4792   -5.1917    0.0000 O   0  0  0  0  0  0           0  0  0
    6.0542   -2.7167    0.0000 C   0  0  0  0  0  0           0  0  0
    1.0542   -4.7792    0.0000 C   0  0  0  0  0  0           0  0  0
    1.7667   -6.0167    0.0000 C   0  0  0  0  0  0           0  0  0
    5.3792   -1.4542    0.0000 C   0  0  0  0  0  0           0  0  0
    8.1917   -3.9542    0.0000 C   0  0  0  0  0  0           0  0  0
   -0.3750   -4.7792    0.0000 C   0  0  0  0  0  0           0  0  0
    7.4792   -2.7167    0.0000 C   0  0  0  0  0  0           0  0  0
   -1.0958   -3.5417    0.0000 C   0  0  0  0  0  0           0  0  0
    6.0792   -1.0167    0.0000 C   0  0  0  0  0  0           0  0  0
    1.0500   -6.4292    0.0000 C   0  0  0  0  0  0           0  0  0
    2.4792   -6.4292    0.0000 C   0  0  0  0  0  0           0  0  0
    4.6417   -1.0667    0.0000 C   0  0  0  0  0  0           0  0  0
    1.0500   -7.2542    0.0000 C   0  0  0  0  0  0           0  0  0
    2.4792   -7.2542    0.0000 C   0  0  0  0  0  0           0  0  0
    6.0500   -0.1917    0.0000 C   0  0  0  0  0  0           0  0  0
    4.6167   -0.2417    0.0000 C   0  0  0  0  0  0           0  0  0
    1.7667   -7.6667    0.0000 C   0  0  0  0  0  0           0  0  0
    5.3167    0.1958    0.0000 C   0  0  0  0  0  0           0  0  0
  2  3  1  0     0  0
  3  7  1  0     0  0
  4  1  1  0     0  0
  5  1  1  0     0  0
  6  2  1  0     0  0
  7  8  1  0     0  0
  8  4  1  0     0  0
  9  5  1  0     0  0
 10  6  1  0     0  0
  3 11  1  1     0  0
  4 12  1  1     0  0
 13 10  1  0     0  0
 14  9  1  0     0  0
 15  1  2  0     0  0
 16  2  2  0     0  0
 17 13  2  0     0  0
 18 14  2  0     0  0
  8 19  1  1     0  0
  7 20  1  1     0  0
 21 11  1  0     0  0
 22 12  1  0     0  0
 23 10  1  0     0  0
 24  9  1  0     0  0
 25 14  1  0     0  0
 26 13  1  0     0  0
 27  6  1  0     0  0
 28  5  1  0     0  0
 29 22  1  0     0  0
 30 21  1  0     0  0
 31 23  1  0     0  0
 32 24  1  0     0  0
 33 23  1  0     0  0
 34 24  1  0     0  0
 35 30  2  0     0  0
 36 29  2  0     0  0
 37 29  1  0     0  0
 38 30  1  0     0  0
 39 36  1  0     0  0
 40 37  2  0     0  0
 41 35  1  0     0  0
 42 38  2  0     0  0
 43 40  1  0     0  0
 44 42  1  0     0  0
 43 39  2  0     0  0
 41 44  2  0     0  0
M  END