
          11280715352D 1   1.00000     0.00000     0

 35 38  0     1  0            999 V2000
    5.7000   -4.4417    0.0000 C   0  0  2  0  0  0           0  0  0
    4.9125   -4.1917    0.0000 C   0  0  2  0  0  0           0  0  0
    4.2000   -2.9625    0.0000 C   0  0  2  0  0  0           0  0  0
    4.9125   -3.3667    0.0000 C   0  0  1  0  0  0           0  0  0
    6.1792   -3.7792    0.0000 O   0  0  0  0  0  0           0  0  0
    6.1042   -5.1625    0.0000 O   0  0  0  0  0  0           0  0  0
    5.7000   -3.1167    0.0000 C   0  0  1  0  0  0           0  0  0
    4.2000   -2.1375    0.0000 C   0  0  0  0  0  0           0  0  0
    6.9292   -5.1667    0.0000 C   0  0  0  0  0  0           0  0  0
    5.6250   -0.4917    0.0000 N   0  0  3  0  0  0           0  0  0
    4.1917   -4.6042    0.0000 C   0  0  0  0  0  0           0  0  0
    3.4875   -3.3667    0.0000 C   0  0  2  0  0  0           0  0  0
    3.4792   -4.1917    0.0000 C   0  0  2  0  0  0           0  0  0
    4.9125   -1.7250    0.0000 C   0  0  0  0  0  0           0  0  0
    7.3375   -5.8792    0.0000 C   0  0  3  0  0  0           0  0  0
    4.9125   -0.9000    0.0000 C   0  0  1  0  0  0           0  0  0
    7.3417   -4.4542    0.0000 O   0  0  0  0  0  0           0  0  0
    5.6250    0.3333    0.0000 C   0  0  2  0  0  0           0  0  0
    6.3417   -0.9042    0.0000 C   0  0  0  0  0  0           0  0  0
    5.9542   -2.3292    0.0000 C   0  0  0  0  0  0           0  0  0
    2.7792   -2.9625    0.0000 C   0  0  0  0  0  0           0  0  0
    2.7750   -4.6000    0.0000 C   0  0  0  0  0  0           0  0  0
    4.2042    0.3333    0.0000 C   0  0  0  0  0  0           0  0  0
    6.9250   -6.5917    0.0000 C   0  0  0  0  0  0           0  0  0
    8.1625   -5.8875    0.0000 C   0  0  0  0  0  0           0  0  0
    7.7500   -6.5917    0.0000 C   0  0  0  0  0  0           0  0  0
    4.2042   -0.4917    0.0000 C   0  0  0  0  0  0           0  0  0
    4.9125    0.7500    0.0000 C   0  0  0  0  0  0           0  0  0
    6.3417    0.7458    0.0000 C   0  0  0  0  0  0           0  0  0
    2.0667   -3.3667    0.0000 C   0  0  0  0  0  0           0  0  0
    2.0625   -4.1875    0.0000 C   0  0  0  0  0  0           0  0  0
    3.4792   -2.5417    0.0000 H   0  0  0  0  0  0           0  0  0
    3.4750   -5.0167    0.0000 H   0  0  0  0  0  0           0  0  0
    4.9125   -5.0167    0.0000 H   0  0  0  0  0  0           0  0  0
    4.9125   -2.5417    0.0000 H   0  0  0  0  0  0           0  0  0
  2  1  1  0     0  0
  3  4  1  0     0  0
  4  2  1  0     0  0
  5  1  1  0     0  0
  1  6  1  6     0  0
  7  5  1  0     0  0
  3  8  1  1     0  0
  9  6  1  0     0  0
 10 16  1  0     0  0
 11  2  1  0     0  0
 12 13  1  0     0  0
 13 11  1  0     0  0
 14  8  2  0     0  0
 15  9  1  0     0  0
 16 14  1  1     0  0
 17  9  2  0     0  0
 18 10  1  0     0  0
 19 10  1  0     0  0
  7 20  1  6     0  0
 21 12  1  0     0  0
 22 13  1  0     0  0
 23 27  1  0     0  0
 24 15  1  0     0  0
 25 15  1  0     0  0
 26 15  1  0     0  0
 27 16  1  0     0  0
 28 23  1  0     0  0
 18 29  1  6     0  0
 30 31  1  0     0  0
 31 22  1  0     0  0
 12 32  1  1     0  0
 13 33  1  6     0  0
  2 34  1  6     0  0
  4 35  1  6     0  0
  7  4  1  0     0  0
  3 12  1  0     0  0
 21 30  1  0     0  0
 18 28  1  0     0  0
M  END