
          11280714512D 1   1.00000     0.00000     0

 32 34  0     0  0            999 V2000
    0.4625   -2.1125    0.0000 N   0  0  0  0  0  0           0  0  0
    0.4667   -2.9417    0.0000 C   0  0  0  0  0  0           0  0  0
   -0.9625   -2.1167    0.0000 C   0  0  0  0  0  0           0  0  0
   -0.2583   -1.7042    0.0000 C   0  0  0  0  0  0           0  0  0
   -0.2458   -3.3542    0.0000 N   0  0  0  0  0  0           0  0  0
   -0.9625   -2.9417    0.0000 C   0  0  0  0  0  0           0  0  0
    6.9042   -3.3500    0.0000 C   0  0  0  0  0  0           0  0  0
   -1.6833   -1.7042    0.0000 C   0  0  0  0  0  0           0  0  0
    7.6167   -2.9375    0.0000 C   0  0  0  0  0  0           0  0  0
   -1.6833   -3.3625    0.0000 C   0  0  0  0  0  0           0  0  0
   -2.3958   -2.1250    0.0000 C   0  0  0  0  0  0           0  0  0
   -2.3958   -2.9500    0.0000 C   0  0  0  0  0  0           0  0  0
    1.1875   -3.3500    0.0000 N   0  0  3  0  0  0           0  0  0
    8.3667   -3.2667    0.0000 O   0  0  0  0  0  0           0  0  0
    6.1875   -2.9375    0.0000 N   0  0  3  0  0  0           0  0  0
    6.9042   -4.1750    0.0000 O   0  0  0  0  0  0           0  0  0
    7.7000   -2.1125    0.0000 C   0  0  0  0  0  0           0  0  0
    8.9167   -2.6542    0.0000 C   0  0  0  0  0  0           0  0  0
    8.5042   -1.9417    0.0000 C   0  0  0  0  0  0           0  0  0
   -0.2583   -0.8792    0.0000 N   0  0  0  0  0  0           0  0  0
    4.0417   -3.3500    0.0000 S   0  0  0  0  0  0           0  0  0
    3.3292   -2.9375    0.0000 S   0  0  0  0  0  0           0  0  0
   -3.1083   -1.7125    0.0000 O   0  0  0  0  0  0           0  0  0
   -3.1083   -3.3625    0.0000 O   0  0  0  0  0  0           0  0  0
    4.7542   -2.9375    0.0000 C   0  0  0  0  0  0           0  0  0
    2.6167   -3.3500    0.0000 C   0  0  0  0  0  0           0  0  0
    1.9000   -2.9375    0.0000 C   0  0  0  0  0  0           0  0  0
    5.4750   -3.3500    0.0000 C   0  0  0  0  0  0           0  0  0
    1.1875   -4.1750    0.0000 C   0  0  0  0  0  0           0  0  0
    6.1875   -2.1125    0.0000 C   0  0  0  0  0  0           0  0  0
   -3.1083   -0.8875    0.0000 C   0  0  0  0  0  0           0  0  0
   -3.8208   -2.9500    0.0000 C   0  0  0  0  0  0           0  0  0
  2  1  1  0     0  0
  3  4  1  0     0  0
  4  1  2  0     0  0
  5  2  2  0     0  0
  6  3  1  0     0  0
  7 15  1  0     0  0
  8  3  2  0     0  0
  9  7  1  0     0  0
 10  6  2  0     0  0
 11  8  1  0     0  0
 12 11  2  0     0  0
 13  2  1  0     0  0
 14  9  1  0     0  0
 15 28  1  0     0  0
 16  7  2  0     0  0
 17  9  2  0     0  0
 18 14  1  0     0  0
 19 17  1  0     0  0
 20  4  1  0     0  0
 21 22  1  0     0  0
 22 26  1  0     0  0
 23 11  1  0     0  0
 24 12  1  0     0  0
 25 21  1  0     0  0
 26 27  1  0     0  0
 27 13  1  0     0  0
 28 25  1  0     0  0
 29 13  1  0     0  0
 30 15  1  0     0  0
 31 23  1  0     0  0
 32 24  1  0     0  0
  6  5  1  0     0  0
 12 10  1  0     0  0
 18 19  2  0     0  0
M  END