
  SciTegic06051315212D

  9  8  0  0  0  0            999 V2000
   14.9777  -21.8124    0.0000 C   0  0
   15.6895  -21.4038    0.0000 C   0  0
   14.2700  -21.4038    0.0000 C   0  0
   15.6895  -20.5825    0.0000 O   0  0
   16.4014  -21.8124    0.0000 N   0  0
   13.5602  -20.9923    0.0000 N   0  0
   17.1132  -21.4038    0.0000 C   0  0
   17.8251  -21.8124    0.0000 C   0  0
   18.5369  -21.4038    0.0000 C   0  0
  1  2  1  0
  1  3  1  0
  2  4  2  0
  2  5  1  0
  3  6  3  0
  5  7  1  0
  7  8  1  0
  8  9  1  0
M  END