
  SciTegic01161211272D

 44 46  0  0  0  0            999 V2000
   -0.9458    0.1208    0.0000 C   0  0  1  0  0  0
   -1.5958    0.4875    0.0000 C   0  0
    1.0042    0.4875    0.0000 C   0  0  1  0  0  0
    1.6417    0.1208    0.0000 C   0  0
   -0.2958    0.4875    0.0000 C   0  0  1  0  0  0
    0.3500    0.1208    0.0000 C   0  0  1  0  0  0
   -2.2333    0.1208    0.0000 N   0  0
    2.3000    0.4875    0.0000 N   0  0
   -2.8833    0.4958    0.0000 C   0  0
    2.9417    0.1208    0.0000 C   0  0
   -0.9458   -0.6292    0.0000 O   0  0
    1.0042    1.2458    0.0000 O   0  0
   -3.5208    0.1208    0.0000 C   0  0  2  0  0  0
    3.5875    0.4875    0.0000 C   0  0  2  0  0  0
   -1.5958    1.2458    0.0000 O   0  0
    1.6417   -0.6292    0.0000 O   0  0
   -2.8833    1.2458    0.0000 O   0  0
    2.9417   -0.6292    0.0000 O   0  0
   -3.5333   -0.6167    0.0000 C   0  0
    3.5875    1.2333    0.0000 C   0  0
   -0.2958    1.2458    0.0000 O   0  0
    0.3500   -0.6292    0.0000 O   0  0
   -4.1750   -0.9917    0.0000 C   0  0
    4.2375    1.6083    0.0000 C   0  0
   -0.5750   -1.2750    0.0000 C   0  0
   -5.4708   -1.7375    0.0000 C   0  0
    5.5250    2.3458    0.0000 C   0  0
   -4.1750   -1.7375    0.0000 C   0  0
    4.8750    1.2333    0.0000 C   0  0
    4.2292    2.3458    0.0000 C   0  0
   -4.8208   -0.6167    0.0000 C   0  0
   -5.4708   -0.9917    0.0000 C   0  0
    5.5250    1.6000    0.0000 C   0  0
    4.8750    2.7208    0.0000 C   0  0
   -4.8083   -2.1125    0.0000 C   0  0
   -6.0917   -2.1125    0.0000 O   0  0
    6.1750    2.7208    0.0000 O   0  0
    4.2292    0.1208    0.0000 C   0  0
   -4.1750    0.4958    0.0000 C   0  0
    0.1542   -1.2750    0.0000 C   0  0
   -0.9458   -1.9042    0.0000 C   0  0
   -0.5833   -2.5375    0.0000 C   0  0
    0.5250   -1.9042    0.0000 C   0  0
    0.1542   -2.5417    0.0000 C   0  0
  2  1  1  0
  3  6  1  0
  4  3  1  0
  5  1  1  0
  6  5  1  0
  7  2  1  0
  8  4  1  0
  9  7  1  0
 10  8  1  0
  1 11  1  1
  3 12  1  1
 13  9  1  0
 14 10  1  0
 15  2  2  0
 16  4  2  0
 17  9  2  0
 18 10  2  0
 13 19  1  6
 14 20  1  6
  5 21  1  6
  6 22  1  6
 23 19  1  0
 24 20  1  0
 25 11  1  0
 26 32  2  0
 27 34  1  0
 28 23  1  0
 29 24  2  0
 30 24  1  0
 31 23  2  0
 32 31  1  0
 33 29  1  0
 34 30  2  0
 35 28  2  0
 36 26  1  0
 37 27  1  0
 38 14  1  0
 39 13  1  0
 40 25  1  0
 41 25  2  0
 42 41  1  0
 43 40  2  0
 44 42  2  0
 43 44  1  0
 35 26  1  0
 33 27  2  0
M  END