
  SciTegic01161211252D

 41 43  0  0  0  0            999 V2000
    2.6542   -2.4292    0.0000 S   0  0
   -0.2083   -4.0917    0.0000 S   0  0
    1.9042    1.2833    0.0000 S   0  0
    4.0625    0.8833    0.0000 S   0  0
   -3.0583   -1.6125    0.0000 S   0  0
    0.5042   -1.1917    0.0000 O   0  0
   -0.2083   -2.4375    0.0000 C   0  0
   -0.2083   -1.6125    0.0000 C   0  0
    1.2250   -2.4292    0.0000 C   0  0  2  0  0  0
   -0.9208   -2.8542    0.0000 C   0  0
    1.2167   -1.6042    0.0000 C   0  0  2  0  0  0
    2.6375    0.0500    0.0000 C   0  0
    0.5125   -2.8500    0.0000 C   0  0
    3.3542   -0.3542    0.0000 C   0  0
    1.9417   -2.8417    0.0000 O   0  0
   -0.9208   -3.6792    0.0000 O   0  0
    2.6292    0.8750    0.0000 O   0  0
    1.9292   -1.1917    0.0000 C   0  0
    4.0667    0.0583    0.0000 O   0  0
   -0.9208   -1.2000    0.0000 C   0  0
   -1.6333   -1.6125    0.0000 C   0  0
   -1.6333   -2.4417    0.0000 C   0  0
    1.9292   -0.3667    0.0000 C   0  0
   -2.3458   -1.2000    0.0000 O   0  0
   -0.6125   -4.8042    0.0000 O   0  0
    3.0667   -3.1417    0.0000 O   0  0
    2.3042    1.9958    0.0000 O   0  0
    4.8875    0.8958    0.0000 O   0  0
   -3.4750   -0.9000    0.0000 O   0  0
    4.0500    1.7083    0.0000 O   0  0
    3.2292    0.8750    0.0000 O   0  0
    2.2375   -1.7167    0.0000 O   0  0
   -0.0458   -3.3167    0.0000 O   0  0
    0.5125   -4.4917    0.0000 O   0  0
    1.1792    1.6833    0.0000 O   0  0
    1.5042    0.5583    0.0000 O   0  0
    3.3625   -2.0042    0.0000 O   0  0
   -2.6458   -2.3250    0.0000 O   0  0
   -3.7708   -2.0292    0.0000 O   0  0
    3.3625   -1.1792    0.0000 C   0  0
    2.6500   -1.6000    0.0000 C   0  0
  2 16  1  0
  3 17  1  0
  4 19  1  0
  5 24  1  0
  6 11  1  0
  7 13  1  0
  8  7  1  0
  9 15  1  1
 10  7  2  0
 11  9  1  0
 12 23  2  0
 13  9  1  0
 14 40  2  0
 15  1  1  0
 16 10  1  0
 17 12  1  0
 11 18  1  1
 19 14  1  0
 20  8  2  0
 21 22  2  0
 22 10  1  0
 23 18  1  0
 24 21  1  0
 25  2  1  0
 26  1  1  0
 27  3  1  0
 28  4  1  0
 29  5  1  0
 30  4  2  0
 31  4  2  0
 32  1  2  0
 33  2  2  0
 34  2  2  0
 35  3  2  0
 36  3  2  0
 37  1  2  0
 38  5  2  0
 39  5  2  0
 40 41  1  0
 41 18  2  0
  6  8  1  0
 21 20  1  0
 12 14  1  0
M  END