
  SciTegic06231514502D

 27 29  0  0  0  0            999 V2000
    7.3541   -3.2482    0.0000 N   0  0
    6.5671   -3.5022    0.0000 C   0  0  1  0  0  0
    8.0205   -3.7312    0.0000 C   0  0
    8.6868   -3.2482    0.0000 C   0  0
    8.4369   -2.4653    0.0000 N   0  0
    6.3089   -4.2893    0.0000 C   0  0  1  0  0  0
    5.8967   -3.0150    0.0000 O   0  0
    7.6124   -2.4611    0.0000 C   0  0
    5.2345   -3.5022    0.0000 C   0  0  1  0  0  0
    5.4844   -4.2893    0.0000 C   0  0  1  0  0  0
    9.4364   -3.5813    0.0000 C   0  0
    8.1037   -4.5474    0.0000 N   0  0
    9.5238   -4.3975    0.0000 N   0  0
    0.8703   -3.6022    0.0000 C   0  0
    3.7271   -3.6479    0.0000 S   0  3
    4.4475   -3.2482    0.0000 C   0  0
    8.8575   -4.8847    0.0000 C   0  0
    1.5949   -3.2024    0.0000 C   0  0  1  0  0  0
    1.6074   -2.3779    0.0000 N   0  0
    2.2987   -3.6271    0.0000 C   0  0
    0.1666   -3.1815    0.0000 O   0  5
    0.8578   -4.4308    0.0000 O   0  0
    6.5671   -5.0721    0.0000 O   0  0
    3.0191   -3.2232    0.0000 C   0  0
   10.1026   -3.0940    0.0000 N   0  0
    5.2303   -5.0721    0.0000 O   0  0
    3.7146   -4.4725    0.0000 C   0  0
  2  1  1  1
  3  1  1  0
  4  3  2  0
  5  8  2  0
  6  2  1  0
  7  2  1  0
  8  1  1  0
  9  7  1  0
 10  6  1  0
 11  4  1  0
 12  3  1  0
 13 17  1  0
 14 18  1  0
 15 16  1  0
  9 16  1  1
 17 12  2  0
 18 20  1  0
 18 19  1  1
 20 24  1  0
 21 14  1  0
 22 14  2  0
  6 23  1  6
 24 15  1  0
 25 11  1  0
 10 26  1  6
 27 15  1  0
  5  4  1  0
 10  9  1  0
 11 13  2  0
M  CHG  2  15   1  21  -1
M  END