
  SciTegic10191216002D

 29 32  0  0  0  0            999 V2000
   11.1480    1.9048    0.0000 C   0  0
   11.1468    1.0771    0.0000 C   0  0
   11.8619    0.6642    0.0000 C   0  0
   12.5786    1.0776    0.0000 C   0  0
   12.5757    1.9084    0.0000 C   0  0
   11.8601    2.3177    0.0000 C   0  0
   11.8645   -0.1601    0.0000 C   0  0
   11.8585   -1.8096    0.0000 C   0  0
   12.5751   -1.3984    0.0000 N   0  0
   12.5790   -0.5705    0.0000 C   0  0
   11.1457   -1.3930    0.0000 C   0  0
   11.1489   -0.5734    0.0000 C   0  0
   10.4419   -0.1627    0.0000 C   0  0
    9.7311   -0.5703    0.0000 N   0  0
    9.7319   -1.3931    0.0000 C   0  0
   10.4396   -1.8001    0.0000 C   0  0
    8.3025   -1.3949    0.0000 C   0  0
    7.5884   -1.8084    0.0000 C   0  0
    6.8731   -1.3967    0.0000 C   0  0
    6.1617   -1.8102    0.0000 N   0  0
    5.4477   -1.4020    0.0000 C   0  0
    4.7384   -1.8120    0.0000 C   0  0
    4.7366   -2.6352    0.0000 C   0  0
    5.4503   -3.0467    0.0000 C   0  0
    6.1658   -2.6350    0.0000 C   0  0
   13.2889    2.3238    0.0000 Cl  0  0
   11.8576    3.1430    0.0000 Cl  0  0
   13.2883   -1.8137    0.0000 C   0  0
    9.0177   -1.8066    0.0000 O   0  0
 13 14  2  0
  1  2  2  0
 14 15  1  0
  3  4  2  0
 15 16  2  0
 16 11  1  0
 15 29  1  0
  4  5  1  0
 29 17  1  0
  7 10  1  0
 17 18  1  0
 11  8  1  0
 18 19  1  0
  8  9  1  0
 19 20  1  0
 20 21  1  0
  9 10  1  0
  7  3  1  0
  2  3  1  0
  5  6  2  0
 11 12  2  0
 20 25  1  0
 21 22  1  0
 22 23  1  0
 23 24  1  0
 24 25  1  0
  6  1  1  0
  5 26  1  0
 12 13  1  0
  6 27  1  0
  7 12  1  0
  9 28  1  0
M  END