
  SciTegic02011310442D

 16 18  0  0  0  0            999 V2000
   12.2854  -13.7901    0.0000 C   0  0
   13.0190  -13.4770    0.0000 C   0  0
   14.2469  -13.6255    0.0000 C   0  0
   14.9520  -12.3781    0.0000 N   0  0
   15.6722  -12.7853    0.0000 C   0  0
   13.5402  -14.8563    0.0000 C   0  0
   11.9373  -14.9327    0.0000 C   0  0
   13.5363  -14.0445    0.0000 C   0  0
   14.2394  -12.7983    0.0000 N   0  0
   12.7810  -15.1691    0.0000 C   0  0
   12.7081  -13.7872    0.0000 C   0  0
   15.6798  -13.6125    0.0000 N   0  0
   12.3189  -14.5498    0.0000 C   0  0
   16.3849  -12.3652    0.0000 N   0  0
   11.4043  -13.4629    0.0000 C   0  0
   11.9248  -14.1192    0.0000 C   0  0
  5 12  2  0
  8  2  1  0
 13 10  1  0
  8  3  1  0
 16  7  1  0
  1  2  1  0
  4  5  1  0
  5 14  1  0
 10  6  1  0
 11  8  1  0
  6  8  1  0
  9  4  1  0
  1 13  1  0
 15  1  1  0
 15 16  1  0
 16 11  1  0
  3  9  2  0
  7 10  1  0
M  END