
  SciTegic12231509382D

 24 26  0  0  0  0            999 V2000
    6.4190  -28.6118    0.0000 C   0  0
    6.4187  -29.4371    0.0000 C   0  0
    7.1356  -29.8458    0.0000 C   0  0
    7.1336  -28.1999    0.0000 C   0  0
    7.8463  -28.6128    0.0000 C   0  0
    7.8465  -29.4353    0.0000 C   0  0
    8.6305  -29.6904    0.0000 C   0  0
    8.6309  -28.3570    0.0000 C   0  0
    9.1114  -29.0287    0.0000 C   0  0
    9.9377  -28.9437    0.0000 C   0  0
   10.2800  -28.1914    0.0000 C   0  0
    9.7972  -27.5173    0.0000 C   0  0
    8.9715  -27.5980    0.0000 C   0  0
    8.8820  -30.4779    0.0000 N   0  0
    9.6885  -30.6527    0.0000 O   0  0
    9.9403  -31.4390    0.0000 C   0  0
   10.7440  -31.6127    0.0000 C   0  0
   10.9972  -32.4021    0.0000 C   0  0
   11.2979  -31.0039    0.0000 O   0  0
   11.8027  -32.5753    0.0000 N   0  0
   12.0559  -33.3605    0.0000 C   0  0
   11.5020  -33.9693    0.0000 C   0  0
   12.8560  -33.5358    0.0000 C   0  0
   12.4620  -34.0718    0.0000 C   0  0
  1  2  2  0
  2  3  1  0
  3  6  2  0
  5  4  2  0
  4  1  1  0
  5  6  1  0
  6  7  1  0
  7  9  1  0
  8  9  2  0
  9 10  1  0
 10 11  2  0
 11 12  1  0
 12 13  2  0
 13  8  1  0
  7 14  2  0
 14 15  1  0
 15 16  1  0
 16 17  1  0
 17 18  1  0
 17 19  1  0
 18 20  1  0
 20 21  1  0
 21 22  1  0
 21 23  1  0
  5  8  1  0
 21 24  1  0
M  END