
  SciTegic04301217482D

 35 38  0  0  0  0            999 V2000
    8.5787  -17.6958    0.0000 C   0  0
    8.5787  -18.5208    0.0000 C   0  0  2  0  0  0
    7.8642  -18.9333    0.0000 N   0  0
    9.2932  -18.9333    0.0000 C   0  0
    9.2932  -19.7583    0.0000 O   0  0
   10.0076  -18.5208    0.0000 N   0  0
    7.1497  -18.5208    0.0000 C   0  0
    6.4353  -18.9333    0.0000 C   0  0  1  0  0  0
    7.1497  -17.6958    0.0000 O   0  0
    5.7208  -18.5208    0.0000 N   0  0
    5.0063  -18.9333    0.0000 C   0  0
    6.4353  -19.7583    0.0000 C   0  0
   10.7221  -18.9333    0.0000 C   0  0  2  0  0  0
   10.7187  -19.7593    0.0000 C   0  0  2  0  0  0
   11.4291  -20.1717    0.0000 N   0  0
   12.1460  -19.7627    0.0000 C   0  0
   12.1480  -18.9368    0.0000 C   0  0  2  0  0  0
   11.4331  -18.5198    0.0000 C   0  0
   11.4260  -20.9967    0.0000 C   0  0
   10.7100  -21.4065    0.0000 C   0  0
   10.7068  -22.2315    0.0000 C   0  0
    9.9892  -22.6359    0.0000 C   0  0
    9.9857  -23.4602    0.0000 C   0  0
   10.6991  -23.8762    0.0000 C   0  0
   11.4176  -23.4620    0.0000 C   0  0
   11.4175  -22.6391    0.0000 C   0  0
    9.2970  -17.2881    0.0000 C   0  0
    9.2990  -16.4667    0.0000 C   0  0
    8.5863  -16.0503    0.0000 C   0  0
    7.8700  -16.4616    0.0000 C   0  0
    7.8664  -17.2892    0.0000 C   0  0
   11.1250  -19.0417    0.0000 C   0  0
   11.7292  -19.6458    0.0000 C   0  0
   12.8583  -18.5167    0.0000 H   0  0
   10.0000  -20.1667    0.0000 H   0  0
 16 17  1  0
 17 18  1  0
  4  5  2  0
 15 19  1  0
  8 10  1  0
 19 20  1  0
  2  3  1  0
 20 21  1  0
 10 11  1  0
 21 22  2  0
  4  6  1  0
 22 23  1  0
  8 12  1  6
 23 24  2  0
  2  1  1  1
 24 25  1  0
 13  6  1  1
 25 26  2  0
 26 21  1  0
  1 27  1  0
 13 14  1  0
  3  7  1  0
  2  4  1  0
  7  8  1  0
  1 31  1  0
 27 28  1  0
 28 29  1  0
 29 30  1  0
 30 31  1  0
  7  9  2  0
 14 32  1  0
 13 18  1  0
 17 33  1  0
 32 33  1  0
 14 15  1  0
 17 34  1  6
 15 16  1  0
 14 35  1  6
M  END