
  SciTegic09261414532D

 31 35  0  0  0  0            999 V2000
    1.5766  -11.4531    0.0000 C   0  0
    1.5766  -12.2703    0.0000 C   0  0
    2.2901  -12.6788    0.0000 C   0  0
    2.2901  -11.0445    0.0000 C   0  0
    2.9954  -11.4531    0.0000 C   0  0
    2.9938  -12.2726    0.0000 C   0  0
    3.6980  -12.6799    0.0000 C   0  0
    4.4085  -12.2729    0.0000 N   0  0
    4.4102  -11.4544    0.0000 C   0  0
    3.7013  -11.0467    0.0000 C   0  0
    2.2872  -13.5002    0.0000 C   0  0
    1.5842  -13.9057    0.0000 N   0  0
    1.5843  -14.7291    0.0000 C   0  0
    2.1943  -15.2820    0.0000 S   0  0
    0.8763  -15.1363    0.0000 N   0  0
    1.0487  -15.9369    0.0000 C   0  0
    1.8647  -16.0166    0.0000 C   0  0
    2.2048  -16.7603    0.0000 C   0  0
    1.7301  -17.4238    0.0000 C   0  0
    0.9192  -17.3481    0.0000 C   0  0
    0.5745  -16.6050    0.0000 C   0  0
    2.9996  -13.9077    0.0000 O   0  0
    5.1167  -12.6804    0.0000 C   0  0
    5.1162  -13.4970    0.0000 C   0  0
    5.8236  -13.9044    0.0000 C   0  0
    6.5316  -13.4947    0.0000 C   0  0
    6.5277  -12.6734    0.0000 C   0  0
    5.8198  -12.2697    0.0000 N   0  0
    7.2334  -12.2613    0.0000 C   0  0
    7.9431  -12.6663    0.0000 O   0  0
    7.2292  -11.4441    0.0000 O   0  0
  1  2  2  0
  1  4  1  0
  2  3  1  0
  3  6  2  0
  5  4  2  0
  5  6  1  0
  6  7  1  0
  7  8  1  0
  8  9  1  0
  9 10  1  0
 10  5  1  0
  3 11  1  0
 11 12  1  0
 12 13  1  0
 13 14  1  0
 14 17  1  0
 16 15  1  0
 15 13  2  0
 16 17  2  0
 17 18  1  0
 18 19  2  0
 19 20  1  0
 20 21  2  0
 21 16  1  0
  8 23  1  0
 11 22  2  0
 23 24  2  0
 24 25  1  0
 25 26  2  0
 26 27  1  0
 27 28  2  0
 28 23  1  0
 27 29  1  0
 29 30  1  0
 29 31  2  0
M  END