
  SciTegic11161115462D

 48 53  0  0  0  0            999 V2000
   12.1081   -7.4902    0.0000 C   0  0
   12.1063   -5.8372    0.0000 C   0  0
   11.3932   -7.0773    0.0000 C   0  0
   11.3945   -6.2484    0.0000 C   0  0
   10.6065   -5.9911    0.0000 N   0  0
   10.1182   -6.6610    0.0000 C   0  0
   10.6045   -7.3322    0.0000 N   0  0
   12.8216   -6.2463    0.0000 C   0  0
   12.8204   -7.0794    0.0000 C   0  0
   13.5373   -7.4947    0.0000 C   0  0
   14.2600   -7.0815    0.0000 C   0  0
   14.2612   -6.2484    0.0000 C   0  0
   13.5397   -5.8285    0.0000 O   0  0
   13.5350   -8.3197    0.0000 O   0  0
   14.9767   -5.8376    0.0000 C   0  0
    9.2917   -6.6583    0.0000 N   0  0
   15.6887   -6.2562    0.0000 C   0  0
   16.4037   -5.8462    0.0000 C   0  0
   16.4062   -5.0203    0.0000 C   0  0
   15.6877   -4.6062    0.0000 C   0  0
   14.9756   -5.0186    0.0000 C   0  0
   17.1211   -4.6086    0.0000 C   0  0
   17.8351   -5.0219    0.0000 N   0  0
   17.1220   -3.7836    0.0000 O   0  0
   18.5500   -4.6102    0.0000 C   0  0  2  0  0  0
   19.2640   -5.0235    0.0000 C   0  0
   19.9790   -4.6118    0.0000 N   0  0
   19.2631   -5.8485    0.0000 O   0  0
    8.8769   -7.3715    0.0000 C   0  0
   18.5510   -3.7852    0.0000 C   0  0
   19.2659   -3.3735    0.0000 C   0  0
   19.9799   -3.7868    0.0000 C   0  0
   19.2668   -2.5485    0.0000 C   0  0
   10.3528   -5.2060    0.0000 C   0  0  1  0  0  0
   10.9057   -4.5938    0.0000 C   0  0
    9.5461   -5.0333    0.0000 C   0  0
   11.7103   -4.7699    0.0000 C   0  0
   12.2624   -4.1616    0.0000 C   0  0
   12.0126   -3.3750    0.0000 C   0  0
   11.2053   -3.2001    0.0000 C   0  0
   10.6479   -3.8118    0.0000 C   0  0
    8.0515   -7.3642    0.0000 C   0  0
    7.6368   -8.0765    0.0000 C   0  0
    8.0471   -8.7933    0.0000 C   0  0
    8.8763   -8.7933    0.0000 C   0  0
    9.2873   -8.0804    0.0000 C   0  0
    7.6332   -9.5070    0.0000 O   0  0
    6.8082   -9.5054    0.0000 C   0  0
  8  2  2  0
 22 23  1  0
  2  4  1  0
 22 24  2  0
  8 13  1  0
 25 23  1  1
  9 10  1  0
 25 26  1  0
 10 11  1  0
 26 27  1  0
 11 12  2  0
 26 28  2  0
 12 13  1  0
 16 29  1  0
  4  5  1  0
 25 30  1  0
 10 14  2  0
 30 31  1  0
  5  6  1  0
 31 32  1  0
 12 15  1  0
 31 33  1  0
  6  7  2  0
 34  5  1  6
  6 16  1  0
 34 35  1  0
  7  3  1  0
 34 36  1  0
 35 37  1  0
 15 17  2  0
  8  9  1  0
 17 18  1  0
  3  4  2  0
 18 19  2  0
 35 41  1  0
 37 38  1  0
 38 39  1  0
 39 40  1  0
 40 41  1  0
  3  1  1  0
 29 42  2  0
 19 20  1  0
 42 43  1  0
  1  9  2  0
 43 44  2  0
 20 21  2  0
 44 45  1  0
 21 15  1  0
 45 46  2  0
 46 29  1  0
 44 47  1  0
 22 19  1  0
 47 48  1  0
M  END