
  SciTegic04191617032D

 25 28  0  0  0  0            999 V2000
   -3.3307   10.1361    0.0000 C   0  0
   -1.8356   10.1417    0.0000 C   0  0
   -1.0650    8.8319    0.0000 C   0  0
   -4.0914    8.8205    0.0000 C   0  0
   -3.3208    7.5289    0.0000 C   0  0
   -1.8258    7.5345    0.0000 C   0  0
   -1.3647    6.1142    0.0000 C   0  0
   -2.5812    5.2552    0.0000 N   0  0
   -3.7713    6.1051    0.0000 C   0  0
   -4.9096    5.7252    0.0000 O   0  0
   -5.5919    8.8092    0.0000 C   0  0
   -6.1837    7.7653    0.0000 N   0  0
   -6.2004    9.8435    0.0000 O   0  0
   -2.5870    3.7544    0.0000 C   0  0
   -1.2907    2.9981    0.0000 C   0  0
   -1.2964    1.4973    0.0000 N   0  0
   -2.6111    0.7486    0.0000 C   0  0
   -2.6111   -0.7486    0.0000 C   0  0
   -1.2964   -1.4973    0.0000 C   0  0
    0.0000    0.7486    0.0000 C   0  0
    0.0000   -0.7486    0.0000 C   0  0
    1.2964   -1.4973    0.0000 C   0  0
    2.5929   -0.7486    0.0000 C   0  0
    2.5929    0.7486    0.0000 C   0  0
    1.2964    1.4973    0.0000 C   0  0
  1  2  2  0
  2  3  1  0
  3  6  2  0
  5  4  2  0
  4  1  1  0
  5  6  1  0
  6  7  1  0
  7  8  1  0
  8  9  1  0
  9  5  1  0
  9 10  2  0
 11 12  1  0
 11 13  2  0
  4 11  1  0
  8 14  1  0
 14 15  1  0
 15 16  1  0
 16 17  1  0
 16 20  1  0
 17 18  1  0
 18 19  1  0
 19 21  1  0
 20 21  2  0
 21 22  1  0
 22 23  2  0
 23 24  1  0
 24 25  2  0
 25 20  1  0
M  END