
  SciTegic01161211262D

 41 46  0  0  0  0            999 V2000
    5.6966   -9.4588    0.0000 C   0  0
    6.3825   -9.0008    0.0000 C   0  0
    7.1541   -9.2898    0.0000 N   0  0
    6.4129   -8.1797    0.0000 C   0  0
    7.2070   -7.9559    0.0000 N   0  0
    7.6598   -8.6415    0.0000 C   0  0
    8.4518   -8.4228    0.0000 S   0  0
    7.7192   -7.3135    0.0000 C   0  0
    8.4892   -7.6062    0.0000 C   0  0
    9.1256   -7.0861    0.0000 C   0  0
    8.9926   -6.2735    0.0000 C   0  0
    8.2188   -5.9832    0.0000 C   0  0
    7.5857   -6.5051    0.0000 C   0  0
    4.2694   -9.4625    0.0000 C   0  0
    4.2682  -10.2898    0.0000 C   0  0
    4.9830  -10.7027    0.0000 C   0  0
    5.6995  -10.2894    0.0000 C   0  0
    4.9812   -9.0497    0.0000 C   0  0
    3.5534  -10.7018    0.0000 N   0  0
    2.8393  -10.2887    0.0000 C   0  0
    2.1245  -10.7006    0.0000 N   0  0
    2.8399   -9.4637    0.0000 O   0  0
    1.4103  -10.2876    0.0000 C   0  0
    1.3290   -9.4643    0.0000 C   0  0
    0.5221   -9.2921    0.0000 C   0  0
    0.1091  -10.0063    0.0000 O   0  0
    0.6607  -10.6197    0.0000 N   0  0
    0.1872   -8.5382    0.0000 C   0  0
    0.6726   -7.8711    0.0000 C   0  0
   -0.6417   -8.5375    0.0000 C   0  0
   -0.2334   -7.8208    0.0000 C   0  0
    9.6941   -5.8393    0.0000 C   0  0
   10.4209   -6.2297    0.0000 N   0  0
    9.6687   -5.0147    0.0000 O   0  0
   10.4419   -7.0551    0.0000 C   0  0
   11.1646   -7.4455    0.0000 C   0  0
   11.8686   -7.0147    0.0000 N   0  0
   11.8452   -6.1890    0.0000 C   0  0
   11.1179   -5.7942    0.0000 C   0  0
   12.5939   -7.4078    0.0000 C   0  0
   12.6161   -8.2325    0.0000 C   0  0
  5  4  1  0
 15 19  1  0
  8  9  2  0
 19 20  1  0
  4  2  2  0
 20 21  1  0
  9 10  1  0
 20 22  2  0
  5  6  1  0
 21 23  1  0
 23 24  1  0
 10 11  2  0
  2  3  1  0
 11 12  1  0
 24 25  2  0
 25 26  1  0
 26 27  1  0
 27 23  2  0
 12 13  2  0
 25 28  1  0
 13  8  1  0
 28 29  1  0
  1  2  1  0
 28 30  1  0
  6  7  1  0
 28 31  1  0
 14 15  2  0
 11 32  1  0
  7  9  1  0
 32 33  1  0
 15 16  1  0
 32 34  2  0
 33 35  1  0
  8  5  1  0
 16 17  2  0
 17  1  1  0
  3  6  2  0
  1 18  2  0
 33 39  1  0
 35 36  1  0
 36 37  1  0
 37 38  1  0
 38 39  1  0
 18 14  1  0
 37 40  1  0
 40 41  1  0
M  END