
  SciTegic01181116592D

 22 25  0  0  0  0            999 V2000
   -5.6560  -14.7761    0.0000 C   0  0
   -5.6572  -15.6035    0.0000 C   0  0
   -4.9423  -16.0164    0.0000 C   0  0
   -4.9441  -14.3633    0.0000 C   0  0
   -4.2287  -14.7724    0.0000 C   0  0
   -4.2279  -15.5994    0.0000 C   0  0
   -3.5126  -16.0103    0.0000 N   0  0
   -2.7975  -15.5956    0.0000 C   0  0
   -2.8022  -14.7655    0.0000 C   0  0
   -3.5182  -14.3583    0.0000 N   0  0
   -2.0903  -14.3487    0.0000 C   0  0
   -1.3732  -14.7568    0.0000 N   0  0
   -2.0953  -13.5236    0.0000 O   0  0
   -0.6612  -14.3400    0.0000 C   0  0
    0.0937  -14.6690    0.0000 N   0  0
   -0.5807  -13.5170    0.0000 S   0  0
    0.2252  -13.3404    0.0000 C   0  0
    0.6379  -14.0511    0.0000 C   0  0
    1.4579  -14.0480    0.0000 C   0  0
    1.8662  -13.3350    0.0000 C   0  0
    1.4484  -12.6235    0.0000 C   0  0
    0.6297  -12.6301    0.0000 C   0  0
  9 11  1  0
  2  3  1  0
 11 12  1  0
  5  6  1  0
 11 13  2  0
  3  6  2  0
 12 14  1  0
 14 15  2  0
  6  7  1  0
  1  2  2  0
 15 18  1  0
 17 16  1  0
 16 14  1  0
  7  8  2  0
  5  4  2  0
 17 18  2  0
  8  9  1  0
 18 19  1  0
  4  1  1  0
 19 20  2  0
  9 10  2  0
 20 21  1  0
 10  5  1  0
 21 22  2  0
 22 17  1  0
M  END