
          11280714582D 1   1.00000     0.00000     0

 31 34  0     0  0            999 V2000
    4.3500   -4.3667    0.0000 C   0  0  0  0  0  0           0  0  0
    7.3542   -8.6917    0.0000 C   0  0  0  0  0  0           0  0  0
    4.3500   -3.5375    0.0000 C   0  0  0  0  0  0           0  0  0
    6.8292   -9.9250    0.0000 N   0  0  0  0  0  0           0  0  0
    7.5375   -9.5042    0.0000 N   0  0  0  0  0  0           0  0  0
    6.2125   -9.3917    0.0000 N   0  0  0  0  0  0           0  0  0
    6.5417   -8.6167    0.0000 N   0  0  0  0  0  0           0  0  0
    7.9042   -8.0792    0.0000 C   0  0  0  0  0  0           0  0  0
    5.0625   -4.7792    0.0000 N   0  0  3  0  0  0           0  0  0
    5.0625   -3.1167    0.0000 C   0  0  0  0  0  0           0  0  0
    3.6292   -4.7792    0.0000 N   0  0  0  0  0  0           0  0  0
    7.9042   -7.2500    0.0000 C   0  0  0  0  0  0           0  0  0
    7.2000   -6.8417    0.0000 C   0  0  0  0  0  0           0  0  0
    5.0542   -5.6042    0.0000 C   0  0  0  0  0  0           0  0  0
    2.9167   -3.5375    0.0000 N   0  0  0  0  0  0           0  0  0
    5.0542   -2.2917    0.0000 O   0  0  0  0  0  0           0  0  0
    2.9167   -4.3667    0.0000 C   0  0  0  0  0  0           0  0  0
    7.1917   -6.0125    0.0000 C   0  0  0  0  0  0           0  0  0
    6.4792   -7.2542    0.0000 C   0  0  0  0  0  0           0  0  0
    3.6292   -3.1250    0.0000 C   0  0  0  0  0  0           0  0  0
    5.7750   -6.0167    0.0000 C   0  0  0  0  0  0           0  0  0
    5.7792   -3.5292    0.0000 O   0  0  0  0  0  0           0  0  0
    5.7667   -6.8417    0.0000 C   0  0  0  0  0  0           0  0  0
    6.4792   -5.6000    0.0000 C   0  0  0  0  0  0           0  0  0
    5.7667   -4.3667    0.0000 C   0  0  0  0  0  0           0  0  0
    8.6167   -8.4917    0.0000 C   0  0  0  0  0  0           0  0  0
    8.6167   -6.8417    0.0000 C   0  0  0  0  0  0           0  0  0
    6.4792   -4.7792    0.0000 C   0  0  0  0  0  0           0  0  0
    9.3375   -8.0792    0.0000 C   0  0  0  0  0  0           0  0  0
    9.3292   -7.2500    0.0000 C   0  0  0  0  0  0           0  0  0
    7.1875   -4.3667    0.0000 C   0  0  0  0  0  0           0  0  0
  2  8  1  0     0  0
  3  1  1  0     0  0
  4  5  2  0     0  0
  5  2  1  0     0  0
  6  7  1  0     0  0
  7  2  2  0     0  0
  8 12  2  0     0  0
  9  1  1  0     0  0
 10  3  1  0     0  0
 11  1  2  0     0  0
 12 13  1  0     0  0
 13 18  2  0     0  0
 14  9  1  0     0  0
 15 17  2  0     0  0
 16 10  2  0     0  0
 17 11  1  0     0  0
 18 24  1  0     0  0
 19 23  2  0     0  0
 20  3  2  0     0  0
 21 14  1  0     0  0
 22 10  1  0     0  0
 23 21  1  0     0  0
 24 21  2  0     0  0
 25  9  1  0     0  0
 26  8  1  0     0  0
 27 12  1  0     0  0
 28 25  1  0     0  0
 29 30  1  0     0  0
 30 27  2  0     0  0
 31 28  1  0     0  0
 20 15  1  0     0  0
 19 13  1  0     0  0
 26 29  2  0     0  0
  6  4  1  0     0  0
M  END