
  SciTegic02271514372D

 67 70  0  0  0  0            999 V2000
   15.2154   -7.5228    0.0000 O   0  0
   16.6337   -4.2428    0.0000 C   0  0
   15.2140   -5.0602    0.0000 C   0  0
   13.0803   -6.2894    0.0000 C   0  0
   15.2154   -6.7019    0.0000 C   0  0
    6.6830   -7.5228    0.0000 O   0  0
   12.3685   -6.7019    0.0000 C   0  0  2  0  0  0
    9.5299   -6.7019    0.0000 N   0  0
    4.5526   -6.2906    0.0000 C   0  0
    8.8182   -6.2894    0.0000 C   0  0
    8.1023   -7.5228    0.0000 C   0  0
   11.6554   -5.4685    0.0000 C   0  0
   11.6568   -6.2894    0.0000 N   0  0
   15.2114   -4.2446    0.0000 C   0  0
   14.5037   -6.2894    0.0000 C   0  0  1  0  0  0
    8.8168   -8.7520    0.0000 C   0  0
   13.0789   -8.7520    0.0000 C   0  0
   10.9492   -7.5228    0.0000 O   0  0
    3.8430   -6.7043    0.0000 O   0  0
   15.9230   -6.2894    0.0000 O   0  0
   12.3685   -7.5228    0.0000 C   0  0
   10.2375   -5.4685    0.0000 C   0  0
    9.5271   -7.5228    0.0000 C   0  0
   16.6333   -5.0645    0.0000 C   0  0
   13.7892   -7.5228    0.0000 C   0  0
   15.9234   -5.4722    0.0000 C   0  0
    8.1023   -6.7019    0.0000 C   0  0  1  0  0  0
   10.9478   -4.2393    0.0000 C   0  0
    8.8182   -5.4685    0.0000 O   0  0
    3.1320   -6.2930    0.0000 C   0  0
    8.8168   -7.9312    0.0000 C   0  0
    4.5512   -5.4697    0.0000 O   0  0
    6.6830   -6.7019    0.0000 C   0  0
   13.7920   -6.7019    0.0000 N   0  0
    2.4182   -6.7067    0.0000 C   0  0
   12.3671   -4.2393    0.0000 C   0  0
   15.9183   -3.8304    0.0000 C   0  0
   10.2375   -6.2894    0.0000 C   0  0  1  0  0  0
   13.0803   -5.4685    0.0000 O   0  0
   10.9492   -6.7019    0.0000 C   0  0
   10.9478   -5.0602    0.0000 C   0  0
    2.4139   -5.8810    0.0000 C   0  0
    7.3906   -6.2894    0.0000 N   0  0
   14.5037   -5.4685    0.0000 C   0  0
    3.1306   -5.4722    0.0000 C   0  0
   12.3671   -5.0602    0.0000 C   0  0
    5.2637   -6.7019    0.0000 N   0  0
    5.9712   -6.2894    0.0000 C   0  0  1  0  0  0
    5.9712   -5.4685    0.0000 C   0  0
   13.0789   -7.9312    0.0000 C   0  0
   11.6554   -3.8268    0.0000 C   0  0
    6.6790   -5.0599    0.0000 C   0  0
    7.4197   -5.3930    0.0000 C   0  0
    7.9673   -4.7851    0.0000 N   0  0
    6.7572   -4.2498    0.0000 C   0  0
    7.5563   -4.0798    0.0000 C   0  0
    7.8072   -3.3043    0.0000 C   0  0
    7.2599   -2.6981    0.0000 C   0  0
    6.4586   -2.8725    0.0000 C   0  0
    6.2115   -3.6478    0.0000 C   0  0
    8.7801   -4.8690    0.0000 C   0  0
    9.1139   -5.6150    0.0000 O   0  0
    9.2592   -4.2070    0.0000 O   0  0
    9.2532   -3.3885    0.0000 C   0  0
    9.9580   -2.9747    0.0000 C   0  0
    8.5426   -2.9850    0.0000 C   0  0
    9.2491   -2.5713    0.0000 C   0  0
  5 20  1  0
  2 37  1  0
 50 17  1  0
 31 16  1  0
 28 41  2  0
 44  3  1  0
 40 13  1  0
 33  6  2  0
 46 36  1  0
 27 10  1  0
 30 45  1  0
 33 43  1  0
 30 35  1  0
 31 23  1  0
  7  4  1  0
 24  2  2  0
 13  7  1  0
 30 42  1  0
 50 25  1  0
  7 21  1  1
  9 19  1  0
  8 38  1  0
 34 15  1  0
 19 30  1  0
 11 31  1  0
 12 46  2  0
 14  3  1  0
 15  5  1  0
 15 44  1  1
 27 11  1  1
 26 24  1  0
  4 34  1  0
 10  8  1  0
 41 12  1  0
  4 39  2  0
 37 14  2  0
  3 26  2  0
 38 22  1  1
 36 51  2  0
 22 41  1  0
 10 29  2  0
  9 32  2  0
 21 50  1  0
 48 49  1  0
 38 40  1  0
 47 48  1  0
 48 33  1  1
 43 27  1  0
 40 18  2  0
 51 28  1  0
 47  9  1  0
  5  1  2  0
 49 52  1  0
 53 54  1  0
 52 53  2  0
 54 56  1  0
 55 52  1  0
 55 56  2  0
 56 57  1  0
 57 58  2  0
 58 59  1  0
 59 60  2  0
 60 55  1  0
 54 61  1  0
 61 62  2  0
 61 63  1  0
 63 64  1  0
 64 65  1  0
 64 66  1  0
 64 67  1  0
M  END