
  CDK    9/16/09,9:58

 18 20  0  0  0  0  0  0  0  0999 V2000
   10.6822   -5.0095    0.0000 C   0  0  0  0  0  0  0  0  0  0  0  0
   10.6809   -5.8371    0.0000 C   0  0  0  0  0  0  0  0  0  0  0  0
   11.3939   -6.2501    0.0000 C   0  0  0  0  0  0  0  0  0  0  0  0
   11.3919   -4.5968    0.0000 C   0  0  0  0  0  0  0  0  0  0  0  0
   12.1100   -5.0055    0.0000 C   0  0  0  0  0  0  0  0  0  0  0  0
   12.1105   -5.8325    0.0000 C   0  0  0  0  0  0  0  0  0  0  0  0
   12.8973   -6.0876    0.0000 N   0  0  0  0  0  0  0  0  0  0  0  0
   13.3830   -5.4181    0.0000 C   0  0  0  0  0  0  0  0  0  0  0  0
   12.8964   -4.7496    0.0000 N   0  0  0  0  0  0  0  0  0  0  0  0
   14.2080   -5.4176    0.0000 N   0  0  0  0  0  0  0  0  0  0  0  0
   14.6210   -6.1318    0.0000 C   0  0  0  0  0  0  0  0  0  0  0  0
   15.4459   -6.1312    0.0000 C   0  0  0  0  0  0  0  0  0  0  0  0
   15.8555   -6.8452    0.0000 C   0  0  0  0  0  0  0  0  0  0  0  0
   16.6797   -6.8450    0.0000 C   0  0  0  0  0  0  0  0  0  0  0  0
   17.0925   -6.1296    0.0000 C   0  0  0  0  0  0  0  0  0  0  0  0
   16.6751   -5.4131    0.0000 C   0  0  0  0  0  0  0  0  0  0  0  0
   15.8523   -5.4168    0.0000 C   0  0  0  0  0  0  0  0  0  0  0  0
   17.9175   -6.1280    0.0000 Cl  0  0  0  0  0  0  0  0  0  0  0  0
  8  9  2  0  0  0  0 
  9  5  1  0  0  0  0 
  4  1  1  0  0  0  0 
  8 10  1  0  0  0  0 
  5  6  1  0  0  0  0 
 10 11  1  0  0  0  0 
 11 12  1  0  0  0  0 
  2  3  1  0  0  0  0 
 12 13  2  0  0  0  0 
  3  6  2  0  0  0  0 
 13 14  1  0  0  0  0 
  1  2  2  0  0  0  0 
 14 15  2  0  0  0  0 
  5  4  2  0  0  0  0 
 15 16  1  0  0  0  0 
  6  7  1  0  0  0  0 
 16 17  2  0  0  0  0 
 17 12  1  0  0  0  0 
  7  8  1  0  0  0  0 
 15 18  1  0  0  0  0 
M  END