
  SciTegic05071317022D

 13 14  0  0  0  0            999 V2000
   11.7054  -11.1372    0.0000 S   0  0
   12.4145  -10.7286    0.0000 C   0  0
   12.4145   -9.9114    0.0000 C   0  0
   11.7054   -9.5028    0.0000 N   0  0
   10.9963   -9.9114    0.0000 C   0  0
   10.9963  -10.7286    0.0000 C   0  0
   13.1194   -9.5028    0.0000 C   0  0
   13.8285   -9.9114    0.0000 C   0  0
   13.8285  -10.7286    0.0000 C   0  0
   13.1194  -11.1372    0.0000 C   0  0
   10.2872   -9.5028    0.0000 N   0  0
   14.5335  -11.1372    0.0000 O   0  0
   15.2426  -10.7286    0.0000 C   0  0
  1  2  1  0
  2  3  1  0
  3  4  1  0
  4  5  2  0
  5  6  1  0
  1  6  1  0
  7  8  1  0
  8  9  2  0
  9 10  1  0
  2 10  2  0
  3  7  2  0
  5 11  1  0
 12 13  1  0
  9 12  1  0
M  END