
          11280715352D 1   1.00000     0.00000     0

 36 39  0     1  0            999 V2000
    4.5292   -4.2042    0.0000 C   0  0  0  0  0  0           0  0  0
    4.5167   -5.3792    0.0000 C   0  0  0  0  0  0           0  0  0
    5.0292   -4.5042    0.0000 C   0  0  2  0  0  0           0  0  0
    4.0167   -4.4917    0.0000 C   0  0  0  0  0  0           0  0  0
    5.5417   -4.2167    0.0000 N   0  0  3  0  0  0           0  0  0
    4.0167   -5.0792    0.0000 C   0  0  0  0  0  0           0  0  0
    5.0292   -5.0875    0.0000 C   0  0  0  0  0  0           0  0  0
    4.5292   -3.6125    0.0000 C   0  0  0  0  0  0           0  0  0
    4.5167   -5.9667    0.0000 C   0  0  0  0  0  0           0  0  0
    3.5042   -5.9542    0.0000 N   0  0  0  0  0  0           0  0  0
    6.0792   -2.7500    0.0000 C   0  0  0  0  0  0           0  0  0
    3.5167   -5.3667    0.0000 C   0  0  0  0  0  0           0  0  0
    5.0417   -3.3250    0.0000 C   0  0  2  0  0  0           0  0  0
    5.5542   -3.6292    0.0000 C   0  0  0  0  0  0           0  0  0
    8.4667   -5.4792    0.0000 C   0  0  0  0  0  0           0  0  0
    7.2542   -5.4667    0.0000 C   0  0  0  0  0  0           0  0  0
    8.1667   -4.9542    0.0000 C   0  0  0  0  0  0           0  0  0
    7.5667   -4.9542    0.0000 C   0  0  0  0  0  0           0  0  0
    5.5667   -2.4417    0.0000 O   0  0  0  0  0  0           0  0  0
    6.0667   -3.3417    0.0000 O   0  0  0  0  0  0           0  0  0
    9.0667   -5.4792    0.0000 O   0  0  0  0  0  0           0  0  0
    7.5667   -5.9917    0.0000 O   0  0  0  0  0  0           0  0  0
    6.5917   -2.4625    0.0000 C   0  0  3  0  0  0           0  0  0
    5.0542   -2.7292    0.0000 C   0  0  0  0  0  0           0  0  0
    3.5042   -4.1917    0.0000 C   0  0  0  0  0  0           0  0  0
    6.0542   -4.5167    0.0000 C   0  0  0  0  0  0           0  0  0
    8.1667   -5.9917    0.0000 O   0  0  0  0  0  0           0  0  0
    6.6542   -5.4667    0.0000 O   0  0  0  0  0  0           0  0  0
    3.0042   -4.4917    0.0000 C   0  0  0  0  0  0           0  0  0
    3.0042   -5.0792    0.0000 C   0  0  0  0  0  0           0  0  0
    7.0917   -2.7667    0.0000 C   0  0  0  0  0  0           0  0  0
    6.6042   -1.8750    0.0000 C   0  0  0  0  0  0           0  0  0
    7.1167   -1.5917    0.0000 C   0  0  0  0  0  0           0  0  0
    7.6042   -2.4875    0.0000 C   0  0  0  0  0  0           0  0  0
    7.6167   -1.8917    0.0000 C   0  0  0  0  0  0           0  0  0
    5.5417   -4.7917    0.0000 H   0  0  0  0  0  0           0  0  0
  2  6  1  0     0  0
  3  1  1  0     0  0
  4  1  1  0     0  0
  5  3  1  0     0  0
  6  4  2  0     0  0
  7  3  1  0     0  0
  8  1  2  0     0  0
  9  2  2  0     0  0
 10 12  1  0     0  0
 11 19  1  0     0  0
 12  6  1  0     0  0
 13  8  1  0     0  0
 14 13  1  0     0  0
 16 18  1  0     0  0
 17 15  1  0     0  0
 18 17  2  0     0  0
 19 24  1  0     0  0
 20 11  2  0     0  0
 21 15  2  0     0  0
 22 16  2  0     0  0
 23 11  1  0     0  0
 13 24  1  1     0  0
 25  4  1  0     0  0
 26  5  1  0     0  0
 27 15  1  0     0  0
 28 16  1  0     0  0
 29 25  2  0     0  0
 30 12  2  0     0  0
 31 23  1  0     0  0
 32 23  1  0     0  0
 33 32  1  0     0  0
 34 31  1  0     0  0
 35 33  1  0     0  0
  3 36  1  1     0  0
  7  2  1  0     0  0
 14  5  1  0     0  0
  9 10  1  0     0  0
 29 30  1  0     0  0
 35 34  1  0     0  0
M  END