
  Mrv0541 05211314572D          

 23 24  0  0  0  0            999 V2000
   -1.9064    0.1490    0.0000 C   0  0  0  0  0  0  0  0  0  0  0  0
   -2.6209    0.5615    0.0000 C   0  0  0  0  0  0  0  0  0  0  0  0
   -2.6209    1.3865    0.0000 C   0  0  0  0  0  0  0  0  0  0  0  0
   -1.9064    1.7990    0.0000 C   0  0  0  0  0  0  0  0  0  0  0  0
   -1.1919    1.3865    0.0000 C   0  0  0  0  0  0  0  0  0  0  0  0
   -1.1919    0.5615    0.0000 C   0  0  0  0  0  0  0  0  0  0  0  0
   -0.4775    1.7990    0.0000 N   0  3  0  0  0  0  0  0  0  0  0  0
   -0.4775    2.6240    0.0000 O   0  0  0  0  0  0  0  0  0  0  0  0
    0.2370    1.3865    0.0000 O   0  5  0  0  0  0  0  0  0  0  0  0
   -1.9064   -0.6760    0.0000 C   0  0  0  0  0  0  0  0  0  0  0  0
   -2.5738   -1.1610    0.0000 C   0  0  0  0  0  0  0  0  0  0  0  0
   -2.3189   -1.9456    0.0000 C   0  0  0  0  0  0  0  0  0  0  0  0
   -1.4939   -1.9456    0.0000 C   0  0  0  0  0  0  0  0  0  0  0  0
   -1.2390   -1.1610    0.0000 O   0  0  0  0  0  0  0  0  0  0  0  0
   -1.0090   -2.6130    0.0000 C   0  0  0  0  0  0  0  0  0  0  0  0
   -0.1885   -2.5268    0.0000 N   0  0  0  0  0  0  0  0  0  0  0  0
    0.1471   -1.7731    0.0000 N   0  0  0  0  0  0  0  0  0  0  0  0
    0.9675   -1.6869    0.0000 C   0  0  0  0  0  0  0  0  0  0  0  0
    1.3031   -0.9332    0.0000 N   0  0  0  0  0  0  0  0  0  0  0  0
    1.4525   -2.3543    0.0000 N   0  0  0  0  0  0  0  0  0  0  0  0
    2.1236   -0.8470    0.0000 N   0  3  0  0  0  0  0  0  0  0  0  0
    2.4591   -0.0933    0.0000 O   0  0  0  0  0  0  0  0  0  0  0  0
    2.6085   -1.5144    0.0000 O   0  5  0  0  0  0  0  0  0  0  0  0
  6  1  1  0  0  0  0
  1  2  2  0  0  0  0
 11 12  1  0  0  0  0
 12 13  2  0  0  0  0
 13 14  1  0  0  0  0
 14 10  1  0  0  0  0
  1 10  1  0  0  0  0
  3  4  2  0  0  0  0
 13 15  1  0  0  0  0
 15 16  2  0  0  0  0
  7  8  2  0  0  0  0
 16 17  1  0  0  0  0
  7  9  1  0  0  0  0
 17 18  1  0  0  0  0
  5  7  1  0  0  0  0
 18 19  2  0  0  0  0
 10 11  2  0  0  0  0
 18 20  1  0  0  0  0
  4  5  1  0  0  0  0
 19 21  1  0  0  0  0
  2  3  1  0  0  0  0
  5  6  2  0  0  0  0
 21 22  2  0  0  0  0
 21 23  1  0  0  0  0
M  CHG  4   7   1   9  -1  21   1  23  -1
M  END