
  SciTegic01181116592D

 48 53  0  0  0  0            999 V2000
   -5.1191  -10.3528    0.0000 C   0  0
   -5.1191  -11.1823    0.0000 C   0  0
   -4.4046  -11.5948    0.0000 C   0  0
   -4.4046   -9.9357    0.0000 C   0  0
   -3.6858  -10.3528    0.0000 C   0  0
   -3.6847  -11.1823    0.0000 C   0  0
   -2.9697  -11.5938    0.0000 C   0  0
   -2.2513  -11.1805    0.0000 C   0  0
   -2.2524  -10.3509    0.0000 C   0  0
   -2.9718   -9.9348    0.0000 C   0  0
   -1.5372   -9.9409    0.0000 C   0  0
   -0.8228  -10.3553    0.0000 C   0  0
   -0.8210   -8.7065    0.0000 C   0  0
   -1.5394   -9.1173    0.0000 C   0  0
   -0.1067   -9.1209    0.0000 C   0  0
   -0.1146   -9.9495    0.0000 C   0  0
    0.5950  -10.3683    0.0000 C   0  0
    1.3170   -9.9632    0.0000 C   0  0
    1.3250   -9.1346    0.0000 C   0  0
    0.6109   -8.7113    0.0000 C   0  0
   -1.5369  -11.5930    0.0000 C   0  0
   -5.8345   -9.9421    0.0000 O   0  0
   -5.8335  -11.5948    0.0000 O   0  0
   -2.9740   -9.1099    0.0000 O   0  0
   -2.9698  -12.4187    0.0000 O   0  0
   -2.2535   -8.7043    0.0000 C   0  0
   -0.8184   -7.8815    0.0000 O   0  0
   -0.8250  -11.1802    0.0000 O   0  0
    2.0437   -8.7298    0.0000 O   0  0
    2.0269  -10.3835    0.0000 O   0  0
   -4.4061  -12.4197    0.0000 C   0  0
   -5.1219  -12.8313    0.0000 C   0  0
    0.6177   -7.8864    0.0000 C   0  0
    1.3353   -7.4801    0.0000 C   0  0
    1.3423   -6.6553    0.0000 C   0  0
   -5.1233  -13.6562    0.0000 C   0  0
   -5.8379  -14.0636    0.0000 C   0  0
   -5.8397  -14.8878    0.0000 C   0  0
   -5.1254  -15.3022    0.0000 C   0  0
   -4.4079  -14.8866    0.0000 C   0  0
   -4.4097  -14.0637    0.0000 C   0  0
    2.0616   -6.2507    0.0000 C   0  0
    2.0690   -5.4267    0.0000 C   0  0
    1.3576   -5.0073    0.0000 C   0  0
    0.6373   -5.4181    0.0000 C   0  0
    0.6334   -6.2408    0.0000 C   0  0
    1.3635   -4.1824    0.0000 C   0  0
   -5.1257  -16.1271    0.0000 C   0  0
 11 12  1  0
  2 23  1  0
  5  6  2  0
 10 24  2  0
  7 25  2  0
  1  2  1  0
 14 26  1  0
  1  4  2  0
 13 27  2  0
 11 14  2  0
 12 28  2  0
 12 16  1  0
 19 29  1  0
 15 13  1  0
 18 30  1  0
 13 14  1  0
  3 31  1  0
  9 11  1  0
 31 32  1  0
 15 16  1  0
 20 33  1  0
  2  3  2  0
 33 34  1  0
  3  6  1  0
 34 35  1  0
  5  4  1  0
 32 36  1  0
  5 10  1  0
 36 37  2  0
  6  7  1  0
 37 38  1  0
  7  8  1  0
 38 39  2  0
 15 20  2  0
 39 40  1  0
 16 17  2  0
 40 41  2  0
 41 36  1  0
 17 18  1  0
 35 42  2  0
 18 19  2  0
 42 43  1  0
 19 20  1  0
 43 44  2  0
  8  9  2  0
 44 45  1  0
  8 21  1  0
 45 46  2  0
 46 35  1  0
  9 10  1  0
 44 47  1  0
  1 22  1  0
 39 48  1  0
M  END