
  SciTegic11201309402D

 66 71  0  0  1  0            999 V2000
    3.8917  -13.0917    0.0000 C   0  0
    8.2875   -5.8542    0.0000 N   0  0
    2.6875  -12.2375    0.0000 C   0  0  1  0  0  0
    3.5917   -7.1792    0.0000 N   0  0
    8.3292   -7.4417    0.0000 C   0  0
    4.2917   -4.9625    0.0000 N   0  0
    7.9625   -8.1625    0.0000 N   0  0
    6.5292   -4.3292    0.0000 N   0  0
    8.4375   -6.6500    0.0000 C   0  0  2  0  0  0
    3.8167   -5.6125    0.0000 C   0  0
    3.8792   -7.9375    0.0000 C   0  0
    7.8792   -5.1625    0.0000 C   0  0
    5.7292   -4.2875    0.0000 C   0  0
    3.8042   -3.7125    0.0000 C   0  0
    5.2250  -12.2375    0.0000 O   0  0
    5.1667  -13.1542    0.0000 C   0  0  1  0  0  0
    2.6875  -11.3917    0.0000 C   0  0  2  0  0  0
    3.5750   -6.3792    0.0000 C   0  0  2  0  0  0
    4.0167  -11.3792    0.0000 C   0  0
    4.9542   -4.5042    0.0000 C   0  0  2  0  0  0
    6.6625   -9.0667    0.0000 C   0  0
    7.2750   -4.6292    0.0000 C   0  0  2  0  0  0
    7.3875   -8.7250    0.0000 C   0  0  2  0  0  0
    5.8625   -9.1542    0.0000 N   0  0
    2.5417   -4.0042    0.0000 N   0  0
    3.2792   -4.3167    0.0000 C   0  0
    4.5167   -6.9917    0.0000 C   0  0
    5.5167   -6.4875    0.0000 C   0  0
    4.3917   -8.5542    0.0000 C   0  0  1  0  0  0
    6.4625   -7.1042    0.0000 N   0  0
    4.6042   -3.7792    0.0000 C   0  0
    3.3917   -3.0250    0.0000 C   0  0
    2.6042   -3.2042    0.0000 C   0  0
    7.4667   -6.5917    0.0000 C   0  0
    5.0750   -8.9792    0.0000 C   0  0
    9.0917   -7.6792    0.0000 O   0  0
    3.1792   -8.3417    0.0000 O   0  0
    3.0917   -5.2500    0.0000 O   0  0
    5.6417   -3.4875    0.0000 O   0  0
    8.5000   -4.6500    0.0000 O   0  0
    7.6917   -3.9500    0.0000 C   0  0
    6.8792   -9.8375    0.0000 O   0  0
    7.8417   -9.3792    0.0000 C   0  0
    5.5500   -5.7750    0.0000 O   0  0
    3.4875  -13.8625    0.0000 O   0  0
    3.4250  -11.8292    0.0000 O   0  0
    4.1417   -9.9542    0.0000 S   0  0
    3.1417  -10.7042    0.0000 O   0  0
    5.8000  -12.3292    0.0000 O   0  0
    4.4917  -10.7000    0.0000 C   0  0
    3.8625   -9.1667    0.0000 C   0  0
    8.5000   -3.9667    0.0000 C   0  0
    3.6167   -2.2542    0.0000 C   0  0
    7.5042  -10.1125    0.0000 C   0  0
    2.0542   -2.6250    0.0000 C   0  0
    8.8792   -4.6750    0.0000 C   0  0
    8.9167   -3.2792    0.0000 C   0  0
    7.9625  -10.7750    0.0000 C   0  0
    6.7000  -10.1792    0.0000 C   0  0
    3.0667   -1.6667    0.0000 C   0  0
    2.2875   -1.8542    0.0000 C   0  0
    9.7250   -3.3042    0.0000 C   0  0
    9.6875   -4.7000    0.0000 C   0  0
   10.1042   -4.0167    0.0000 C   0  0
    4.5649   -6.5210    0.0000 H   0  0
    7.4378   -6.6752    0.0000 H   0  0
  2  9  1  0
  3  1  1  0
  4 11  1  0
  5  7  1  0
  6 10  1  0
  7 23  1  0
  8 13  1  0
  9  5  1  0
 10 18  1  0
 11 29  1  0
 12  2  1  0
 13 20  1  0
 14 31  1  0
 15 16  1  0
 16  1  1  0
 17  3  1  0
 18  4  1  0
 19 15  1  0
 20  6  1  0
 21 24  1  0
 22  8  1  0
 23 21  1  0
 24 35  1  0
 25 26  1  0
 26 14  2  0
 18 27  1  0
 28 27  1  0
 29 51  1  1
 30 28  1  0
 20 31  1  1
 32 14  1  0
 33 32  1  0
 34 30  1  0
 35 29  1  0
 36  5  2  0
 37 11  2  0
 38 10  2  0
 39 13  2  0
 40 12  2  0
 22 41  1  1
 42 21  2  0
 23 43  1  1
 44 28  2  0
 45  1  1  0
  3 46  1  6
 47 50  1  0
 17 48  1  1
 16 49  1  1
 50 19  1  0
 51 47  1  0
 52 41  1  0
 53 32  2  0
 54 43  1  0
 55 33  2  0
 56 52  1  0
 57 52  2  0
 58 54  1  0
 59 54  1  0
 60 53  1  0
 61 60  2  0
 62 57  1  0
 63 56  2  0
 64 62  2  0
 17 19  1  0
  9 34  1  0
 22 12  1  0
 33 25  1  0
 61 55  1  0
 63 64  1  0
 18 65  1  1
  9 66  1  1
M  END