
          11280715152D 1   1.00000     0.00000     0

 42 43  0     0  0            999 V2000
    3.3042   -5.8417    0.0000 C   0  0  0  0  0  0           0  0  0
    3.2917   -6.6750    0.0000 C   0  0  0  0  0  0           0  0  0
    4.0250   -5.4375    0.0000 C   0  0  0  0  0  0           0  0  0
    1.1542   -5.4292    0.0000 C   0  0  0  0  0  0           0  0  0
    1.8667   -5.8417    0.0000 C   0  0  0  0  0  0           0  0  0
    0.4417   -5.8417    0.0000 C   0  0  0  0  0  0           0  0  0
    2.5917   -5.4292    0.0000 C   0  0  3  0  0  0           0  0  0
    6.1542    1.6083    0.0000 C   0  0  0  0  0  0           0  0  0
    4.0042   -7.0875    0.0000 C   0  0  0  0  0  0           0  0  0
    4.7417   -5.8542    0.0000 C   0  0  0  0  0  0           0  0  0
    6.1667   -8.3500    0.0000 C   0  0  0  0  0  0           0  0  0
    0.4417   -6.6667    0.0000 C   0  0  0  0  0  0           0  0  0
    5.4417    2.0208    0.0000 N   0  0  3  0  0  0           0  0  0
    4.7375   -6.6792    0.0000 C   0  0  0  0  0  0           0  0  0
    1.8667   -6.6667    0.0000 C   0  0  0  0  0  0           0  0  0
    6.8667    2.0208    0.0000 O   0  0  0  0  0  0           0  0  0
    6.8792   -7.9375    0.0000 O   0  0  0  0  0  0           0  0  0
    1.1542   -7.0792    0.0000 C   0  0  0  0  0  0           0  0  0
    5.4625   -7.1042    0.0000 O   0  0  0  0  0  0           0  0  0
   -0.2833   -5.4250    0.0000 C   0  0  3  0  0  0           0  0  0
    5.4625   -7.9375    0.0000 C   0  0  0  0  0  0           0  0  0
    6.1667   -9.1792    0.0000 O   0  0  0  0  0  0           0  0  0
   -0.2833   -7.0917    0.0000 O   0  0  0  0  0  0           0  0  0
    4.0292   -4.6125    0.0000 C   0  0  0  0  0  0           0  0  0
    2.5750   -7.0917    0.0000 C   0  0  0  0  0  0           0  0  0
    6.1542    0.7750    0.0000 C   0  0  0  0  0  0           0  0  0
    2.5917   -4.6042    0.0000 C   0  0  0  0  0  0           0  0  0
    4.7292    1.6083    0.0000 C   0  0  0  0  0  0           0  0  0
    5.4417    2.8458    0.0000 C   0  0  0  0  0  0           0  0  0
   -0.9958   -5.8375    0.0000 C   0  0  0  0  0  0           0  0  0
   -0.2833   -4.5917    0.0000 C   0  0  0  0  0  0           0  0  0
    5.4417    0.3625    0.0000 C   0  0  0  0  0  0           0  0  0
    3.3042   -4.1917    0.0000 C   0  0  0  0  0  0           0  0  0
    4.0125    2.0208    0.0000 C   0  0  0  0  0  0           0  0  0
    3.2917    1.6083    0.0000 C   0  0  0  0  0  0           0  0  0
    4.7292   -1.7042    0.0000 C   0  0  0  0  0  0           0  0  0
    4.7292   -0.8792    0.0000 C   0  0  0  0  0  0           0  0  0
    5.4417   -0.4667    0.0000 C   0  0  0  0  0  0           0  0  0
    3.3042   -3.3625    0.0000 C   0  0  0  0  0  0           0  0  0
    4.0250   -2.9500    0.0000 C   0  0  0  0  0  0           0  0  0
    4.0167   -2.1167    0.0000 C   0  0  0  0  0  0           0  0  0
    2.5792    2.0208    0.0000 C   0  0  0  0  0  0           0  0  0
  2  1  2  0     0  0
  3  1  1  0     0  0
  4  5  2  0     0  0
  5  7  1  0     0  0
  6  4  1  0     0  0
  7  1  1  0     0  0
  8 26  1  0     0  0
  9  2  1  0     0  0
 10  3  2  0     0  0
 11 21  1  0     0  0
 12 18  1  0     0  0
 13  8  1  0     0  0
 14 10  1  0     0  0
 15  5  1  0     0  0
 16  8  2  0     0  0
 17 11  2  0     0  0
 18 15  2  0     0  0
 19 14  1  0     0  0
 20  6  1  0     0  0
 21 19  1  0     0  0
 22 11  1  0     0  0
 23 12  1  0     0  0
 24  3  1  0     0  0
 25  2  1  0     0  0
 26 32  1  0     0  0
 27  7  1  0     0  0
 28 13  1  0     0  0
 29 13  1  0     0  0
 30 20  1  0     0  0
 31 20  1  0     0  0
 32 38  1  0     0  0
 33 27  1  0     0  0
 34 28  1  0     0  0
 35 34  1  0     0  0
 36 41  1  0     0  0
 37 36  1  0     0  0
 38 37  1  0     0  0
 39 33  1  0     0  0
 40 39  1  0     0  0
 41 40  1  0     0  0
 42 35  1  0     0  0
 14  9  2  0     0  0
 12  6  2  0     0  0
M  END