
  CDK    9/16/09,10:8

 32 34  0  0  0  0  0  0  0  0999 V2000
    2.9875   -3.3000    0.0000 C   0  0  0  0  0  0  0  0  0  0  0  0
    2.9875   -4.1250    0.0000 C   0  0  0  0  0  0  0  0  0  0  0  0
    3.6995   -4.5333    0.0000 C   0  0  0  0  0  0  0  0  0  0  0  0
    3.6995   -2.8833    0.0000 C   0  0  0  0  0  0  0  0  0  0  0  0
    4.4115   -3.3000    0.0000 C   0  0  0  0  0  0  0  0  0  0  0  0
    4.4080   -4.1250    0.0000 C   0  0  0  0  0  0  0  0  0  0  0  0
    5.1168   -4.5382    0.0000 C   0  0  0  0  0  0  0  0  0  0  0  0
    5.8336   -4.1310    0.0000 C   0  0  0  0  0  0  0  0  0  0  0  0
    5.1122   -5.3632    0.0000 O   0  0  0  0  0  0  0  0  0  0  0  0
    5.1238   -2.8882    0.0000 C   0  0  0  0  0  0  0  0  0  0  0  0
    5.8395   -3.3070    0.0000 C   0  0  0  0  0  0  0  0  0  0  0  0
    6.5533   -0.3997    0.0000 C   0  0  0  0  0  0  0  0  0  0  0  0
    5.8385   -0.8188    0.0000 C   0  0  0  0  0  0  0  0  0  0  0  0
    5.8473   -1.6515    0.0000 C   0  0  0  0  0  0  0  0  0  0  0  0
    5.1246   -2.0614    0.0000 C   0  0  0  0  0  0  0  0  0  0  0  0
    5.1167   -3.7125    0.0000 H   0  0  0  0  0  0  0  0  0  0  0  0
    5.1207   -0.4121    0.0000 C   0  0  0  0  0  0  0  0  0  0  0  0
    5.1140    0.4129    0.0000 C   0  0  0  0  0  0  0  0  0  0  0  0
    4.3962    0.8196    0.0000 C   0  0  0  0  0  0  0  0  0  0  0  0
    4.3056    1.6366    0.0000 O   0  0  0  0  0  0  0  0  0  0  0  0
    3.4972    1.7966    0.0000 C   0  0  0  0  0  0  0  0  0  0  0  0
    3.0905    1.0811    0.0000 C   0  0  0  0  0  0  0  0  0  0  0  0
    3.6476    0.4771    0.0000 C   0  0  0  0  0  0  0  0  0  0  0  0
    3.1556    2.5540    0.0000 O   0  0  0  0  0  0  0  0  0  0  0  0
    4.4042   -2.4750    0.0000 C   0  0  0  0  0  0  0  0  0  0  0  0
    3.4850   -0.3317    0.0000 C   0  0  0  0  0  0  0  0  0  0  0  0
    4.4000   -4.9458    0.0000 H   0  0  0  0  0  0  0  0  0  0  0  0
    3.9083   -5.3292    0.0000 C   0  0  0  0  0  0  0  0  0  0  0  0
    2.9792   -4.9417    0.0000 C   0  0  0  0  0  0  0  0  0  0  0  0
    6.2458   -2.5875    0.0000 C   0  0  0  0  0  0  0  0  0  0  0  0
    6.5500   -3.7167    0.0000 O   0  0  0  0  0  0  0  0  0  0  0  0
    2.2680   -4.5235    0.0000 O   0  0  0  0  0  0  0  0  0  0  0  0
  5 10  1  0  0  0  0 
 10 16  1  6  0  0  0 
  6  7  1  0  0  0  0 
 13 17  2  0  0  0  0 
  7  8  1  0  0  0  0 
 17 18  1  0  0  0  0 
  8 11  1  0  0  0  0 
 19 18  1  6  0  0  0 
 19 20  1  0  0  0  0 
  3  6  1  0  0  0  0 
  7  9  1  6  0  0  0 
 10 11  1  0  0  0  0 
  5  4  1  0  0  0  0 
 20 21  1  0  0  0  0 
 21 22  1  0  0  0  0 
 22 23  2  0  0  0  0 
 23 19  1  0  0  0  0 
  5  6  1  0  0  0  0 
 21 24  2  0  0  0  0 
  5 25  1  1  0  0  0 
  1  2  1  0  0  0  0 
 23 26  1  0  0  0  0 
  1  4  1  0  0  0  0 
  6 27  1  6  0  0  0 
  2  3  1  0  0  0  0 
  3 28  1  1  0  0  0 
 10 15  1  0  0  0  0 
  3 29  1  0  0  0  0 
 12 13  1  0  0  0  0 
 11 30  1  0  0  0  0 
 13 14  1  0  0  0  0 
 11 31  1  6  0  0  0 
 14 15  1  0  0  0  0 
 29 32  1  0  0  0  0 
M  END