
  SciTegic01161211242D

 46 47  0  0  0  0            999 V2000
    8.3873    6.6926    0.0000 C   0  0
    9.5633    7.6238    0.0000 C   0  0
   10.9578    7.0710    0.0000 C   0  0
    6.9910    7.2429    0.0000 C   0  0
   12.1343    8.0026    0.0000 C   0  0
    2.2987    3.5009    0.0000 C   0  0
    3.5900   -2.1568    0.0000 C   0  0
    3.1497   -0.7220    0.0000 N   0  0
    2.5244    2.0171    0.0000 N   0  0
    1.6852   -0.3846    0.0000 C   0  0  1  0  0  0
   11.1762    5.5870    0.0000 C   0  0
   11.9183    9.4871    0.0000 C   0  0
    8.6058    5.2086    0.0000 C   0  0
    1.3514    1.0778    0.0000 C   0  0  1  0  0  0
   13.5279    7.4477    0.0000 N   0  0
    5.8157    6.3096    0.0000 C   0  0
    3.4701    4.4390    0.0000 C   0  0
    6.8142    8.4298    0.0000 O   0  0
    1.1809    3.9373    0.0000 O   0  0
    2.7723   -3.0350    0.0000 O   0  0
   -0.7500   -1.5574    0.0000 N   0  0
    5.0525   -2.4938    0.0000 C   0  0
   10.0002    4.6558    0.0000 C   0  0
    7.9774   -3.1613    0.0000 N   0  0
    9.3886    8.8110    0.0000 F   0  0
    3.2466    5.9223    0.0000 C   0  0
    4.8665    3.8911    0.0000 C   0  0
    4.4194    6.8576    0.0000 C   0  0
    6.0393    4.8263    0.0000 C   0  0
    0.7500   -1.5574    0.0000 C   0  0
    7.6651    4.4636    0.0000 O   0  0
   22.2054    3.3480    0.0000 Cl  0  0
   19.7054    3.3480    0.0000 Cl  0  0
   17.2054    3.3480    0.0000 Cl  0  0
   10.9941    8.7216    0.0000 C   0  0
   11.7734   10.6783    0.0000 C   0  0
   13.0957   10.4164    0.0000 C   0  0
   14.7054    8.3770    0.0000 C   0  0
   -1.6852   -0.3847    0.0000 C   0  0
    6.9571   -4.2609    0.0000 C   0  0
    7.5353   -1.7280    0.0000 C   0  0
    0.0000    1.7286    0.0000 C   0  0
    5.4947   -3.9271    0.0000 C   0  0
    6.0729   -1.3942    0.0000 C   0  0
   14.4893    9.8613    0.0000 C   0  0
   -1.3515    1.0777    0.0000 C   0  0
  1  2  1  0
  2  3  2  0
  1  4  1  0
  3  5  1  0
  7  8  1  0
  6  9  1  0
 10  8  1  6
  3 11  1  0
  5 12  1  0
  1 13  2  0
 14  9  1  1
 10 14  1  0
  5 15  1  0
  4 16  1  0
  6 17  1  0
  4 18  2  0
  6 19  2  0
  7 20  2  0
  7 22  1  0
 11 23  2  0
 13 23  1  0
  2 25  1  0
 17 26  1  0
 17 27  2  0
 16 28  1  0
 26 28  2  0
 16 29  2  0
 27 29  1  0
 10 30  1  0
 21 30  1  0
 13 31  1  0
 12 35  1  0
 12 36  1  0
 12 37  1  0
 15 38  1  0
 21 39  1  0
 24 40  1  0
 24 41  2  0
 14 42  1  0
 22 43  1  0
 40 43  2  0
 22 44  2  0
 41 44  1  0
 37 45  1  0
 38 45  1  0
 39 46  1  0
 42 46  1  0
M  END