
          11280715422D 1   1.00000     0.00000     0

 25 27  0     0  0            999 V2000
    6.5917   -3.1792    0.0000 C   0  0  3  0  0  0           0  0  0
    7.3042   -2.7667    0.0000 C   0  0  3  0  0  0           0  0  0
    5.8792   -3.5875    0.0000 N   0  0  0  0  0  0           0  0  0
    5.8792   -2.7667    0.0000 C   0  0  3  0  0  0           0  0  0
    8.0167   -3.1792    0.0000 C   0  0  3  0  0  0           0  0  0
    7.5250   -2.1375    0.0000 O   0  0  0  0  0  0           0  0  0
    5.1667   -3.1667    0.0000 C   0  0  0  0  0  0           0  0  0
    6.7042   -2.7667    0.0000 C   0  0  3  0  0  0           0  0  0
    4.4542   -3.5750    0.0000 C   0  0  0  0  0  0           0  0  0
    3.7292   -3.1667    0.0000 C   0  0  0  0  0  0           0  0  0
    3.0292   -3.5792    0.0000 C   0  0  0  0  0  0           0  0  0
    5.1667   -2.3417    0.0000 O   0  0  0  0  0  0           0  0  0
    4.4542   -4.4042    0.0000 C   0  0  0  0  0  0           0  0  0
    8.6417   -3.7292    0.0000 S   0  0  0  0  0  0           0  0  0
    7.3042   -3.5875    0.0000 O   0  0  0  0  0  0           0  0  0
    3.0292   -4.4042    0.0000 C   0  0  0  0  0  0           0  0  0
    3.7417   -4.8167    0.0000 C   0  0  0  0  0  0           0  0  0
    5.6792   -2.0750    0.0000 O   0  0  0  0  0  0           0  0  0
    6.4917   -1.9667    0.0000 C   0  0  0  0  0  0           0  0  0
    7.0667   -1.3792    0.0000 O   0  0  0  0  0  0           0  0  0
    2.3042   -3.1667    0.0000 C   0  0  0  0  0  0           0  0  0
    8.4667   -4.5292    0.0000 C   0  0  0  0  0  0           0  0  0
    2.3042   -4.8250    0.0000 C   0  0  0  0  0  0           0  0  0
    1.5917   -3.5875    0.0000 C   0  0  0  0  0  0           0  0  0
    1.5917   -4.4125    0.0000 C   0  0  0  0  0  0           0  0  0
  2  1  1  0     0  0
  3  1  1  0     0  0
  4  1  1  0     0  0
  5  2  1  0     0  0
  6  8  1  0     0  0
  7  3  1  0     0  0
  8  4  1  0     0  0
  9  7  1  0     0  0
 10  9  2  0     0  0
 11 10  1  0     0  0
 12  7  2  0     0  0
 13  9  1  0     0  0
 14  5  1  0     0  0
 15  2  1  0     0  0
 16 17  1  0     0  0
 17 13  2  0     0  0
 18  4  1  0     0  0
 19  8  1  0     0  0
 20 19  1  0     0  0
 21 11  2  0     0  0
 22 14  1  0     0  0
 23 16  2  0     0  0
 24 21  1  0     0  0
 25 23  1  0     0  0
  5  6  1  0     0  0
 16 11  1  0     0  0
 25 24  2  0     0  0
M  END