
          11280714472D 1   1.00000     0.00000     0

 34 36  0     1  0            999 V2000
    4.3500   -1.4542    0.0000 C   0  0  0  0  0  0           0  0  0
   -0.3458    0.2000    0.0000 N   0  3  0  0  0  0           0  0  0
   -0.5125   -0.6125    0.0000 C   0  0  0  0  0  0           0  0  0
    2.9167   -1.4500    0.0000 O   0  0  0  0  0  0           0  0  0
    3.6292   -1.0417    0.0000 C   0  0  1  0  0  0           0  0  0
    2.2042   -1.0417    0.0000 C   0  0  1  0  0  0           0  0  0
    5.1667   -1.3917    0.0000 N   0  0  3  0  0  0           0  0  0
    0.1000   -1.1625    0.0000 C   0  0  0  0  0  0           0  0  0
    4.8417   -2.6875    0.0000 N   0  0  0  0  0  0           0  0  0
    1.4917   -1.4542    0.0000 C   0  0  3  0  0  0           0  0  0
    2.2042   -0.2167    0.0000 O   0  0  0  0  0  0           0  0  0
    0.8792   -0.9042    0.0000 O   0  0  0  0  0  0           0  0  0
    5.4792   -2.1625    0.0000 C   0  0  0  0  0  0           0  0  0
    4.1417   -2.2500    0.0000 C   0  0  0  0  0  0           0  0  0
    3.6292   -0.2167    0.0000 C   0  0  1  0  0  0           0  0  0
    0.4375    0.4583    0.0000 O   0  5  0  0  0  0           0  0  0
   -1.3000   -0.8667    0.0000 C   0  0  0  0  0  0           0  0  0
   -0.9583    0.7500    0.0000 O   0  0  0  0  0  0           0  0  0
    8.0250    0.2000    0.0000 C   0  0  0  0  0  0           0  0  0
    2.9167    0.2000    0.0000 C   0  0  0  0  0  0           0  0  0
   -0.0708   -1.9667    0.0000 C   0  0  0  0  0  0           0  0  0
    8.0167    1.0250    0.0000 O   0  0  0  0  0  0           0  0  0
    5.0625   -0.2167    0.0000 C   0  0  0  0  0  0           0  0  0
    5.8792   -0.2167    0.0000 C   0  0  0  0  0  0           0  0  0
   -1.4708   -1.6750    0.0000 C   0  0  0  0  0  0           0  0  0
    8.7375   -0.2042    0.0000 O   0  0  0  0  0  0           0  0  0
   -0.8500   -2.2292    0.0000 C   0  0  0  0  0  0           0  0  0
    5.8792   -0.9750    0.0000 C   0  0  0  0  0  0           0  0  0
    4.3500    0.1958    0.0000 C   0  0  0  0  0  0           0  0  0
    2.0667   -2.0417    0.0000 C   0  0  0  0  0  0           0  0  0
    1.2750   -2.2542    0.0000 C   0  0  0  0  0  0           0  0  0
    7.3125   -0.2167    0.0000 C   0  0  0  0  0  0           0  0  0
    6.5917    0.1958    0.0000 C   0  0  0  0  0  0           0  0  0
   -2.2500   -1.9292    0.0000 C   0  0  0  0  0  0           0  0  0
  2  3  1  0     0  0
  3  8  2  0     0  0
  4  5  1  0     0  0
  5  1  1  1     0  0
  6  4  1  0     0  0
  7  1  1  0     0  0
  8 12  1  0     0  0
  9 14  1  0     0  0
  6 10  1  1     0  0
 11 20  1  0     0  0
 12 10  1  0     0  0
 13  7  1  0     0  0
 14  1  2  0     0  0
 15  5  1  0     0  0
 16  2  1  0     0  0
 17  3  1  0     0  0
 18  2  2  0     0  0
 19 32  1  0     0  0
 20 15  1  0     0  0
 21  8  1  0     0  0
 22 19  2  0     0  0
 23 29  1  0     0  0
 24 23  2  0     0  0
 25 27  1  0     0  0
 26 19  1  0     0  0
 27 21  2  0     0  0
 28  7  1  0     0  0
 15 29  1  1     0  0
 30 10  1  0     0  0
 31 10  1  0     0  0
 32 33  1  0     0  0
 33 24  1  0     0  0
 34 25  1  0     0  0
 13  9  2  0     0  0
  6 11  1  0     0  0
 25 17  2  0     0  0
M  CHG  2   2   1  16  -1
M  END