
  SciTegic04091415222D

 51 55  0  0  0  0            999 V2000
   11.6338  -10.9467    0.0000 O   0  0
   11.6372  -11.7642    0.0000 C   0  0  2  0  0  0
    4.4317   -9.1790    0.0000 O   0  0
   13.4444   -9.6643    0.0000 C   0  0
    5.9639  -12.1128    0.0000 C   0  0
    2.8353  -10.9693    0.0000 H   0  0
    6.6807  -12.5083    0.0000 C   0  0
    9.2265  -13.1552    0.0000 O   0  0
    9.5627  -12.4051    0.0000 S   0  0
   12.4140  -10.6974    0.0000 C   0  0  2  0  0  0
   12.1829   -9.2587    0.0000 C   0  0
   12.8986  -11.3596    0.0000 C   0  0  1  0  0  0
   10.9750  -12.2528    0.0000 C   0  0
   12.4160  -12.0232    0.0000 C   0  0  2  0  0  0
   15.5700  -10.0749    0.0000 C   0  0
   14.8639  -11.3006    0.0000 C   0  0
   14.1559  -10.0777    0.0000 C   0  0
    3.6322  -11.1522    0.0000 C   0  0  1  0  0  0
    3.7943  -12.4783    0.0000 S   0  0
   14.8647   -9.6650    0.0000 C   0  0
    4.2759   -9.9853    0.0000 C   0  0
   12.6692   -9.9163    0.0000 N   0  0
    8.1002  -12.4943    0.0000 C   0  0
    5.2446  -11.4758    0.0000 H   0  0
    8.1129  -13.3155    0.0000 O   0  0
    5.2605  -12.5303    0.0000 C   0  0
   14.1559  -10.8951    0.0000 C   0  0
    4.5437  -12.1349    0.0000 C   0  0  1  0  0  0
    7.3841  -12.0907    0.0000 C   0  0
   15.5735  -10.8909    0.0000 C   0  0
   10.2249  -11.9165    0.0000 O   0  0
   14.1511   -7.6151    0.0000 N   0  0
    8.8085  -12.0689    0.0000 N   0  5
   12.6715  -12.8042    0.0000 O   0  0
   13.7199  -11.3584    0.0000 O   0  0
   13.4463   -8.8420    0.0000 C   0  0
   14.8625   -8.8394    0.0000 N   0  0
   14.1530   -8.4364    0.0000 C   0  0
   10.0431  -13.0672    0.0000 O   0  0
    4.8416  -10.5841    0.0000 N   0  0
    3.2254  -11.8734    0.0000 C   0  0
    4.4437  -11.3134    0.0000 C   0  0  1  0  0  0
    3.5306  -10.3394    0.0000 N   0  0
   12.6651   -8.5868    0.0000 N   0  0
    6.8545   -8.3815    0.0000 C   0  0
    8.9767   -7.1579    0.0000 C   0  0
    8.2707   -8.3857    0.0000 N   0  3
    8.9809   -9.6135    0.0000 C   0  0
    8.9809   -8.7963    0.0000 C   0  0
    8.2707   -7.5644    0.0000 C   0  0
    7.5606   -8.7922    0.0000 C   0  0
 20 37  1  0
 23 25  2  0
 27 16  1  0
 10  1  1  0
 42 24  1  1
 19 28  1  0
 20 17  1  0
  7 29  1  0
 15 20  2  0
 21 43  1  0
 41 19  1  0
 18 41  1  0
 14 12  1  0
 12 35  1  6
 44 11  2  0
 18  6  1  1
 10 22  1  1
 11 22  1  0
  1  2  1  0
  2 13  1  1
 12 10  1  0
 30 15  1  0
 29 23  1  0
 42 40  1  0
 40 21  1  0
  9 39  2  0
 22  4  1  0
  8  9  2  0
 36 44  1  0
 28 26  1  6
 38 32  1  0
 26  5  1  0
 16 30  2  0
 31 13  1  0
 37 38  2  0
  5  7  1  0
  4 17  1  0
 42 18  1  0
 33  9  1  0
 38 36  1  0
  9 31  1  0
 23 33  1  0
  2 14  1  0
 17 27  2  0
 36  4  2  0
 43 18  1  0
 14 34  1  6
 21  3  2  0
 28 42  1  0
 47 49  1  0
 47 50  1  0
 51 45  1  0
 51 47  1  0
 49 48  1  0
 50 46  1  0
M  CHG  2  33  -1  47   1
M  END