
  SciTegic12231509382D

 25 27  0  0  0  0            999 V2000
   16.6425   -5.3463    0.0000 C   0  0
   16.6474   -6.1774    0.0000 C   0  0
   17.4392   -6.4296    0.0000 N   0  0
   17.9238   -5.7543    0.0000 N   0  0
   17.4313   -5.0850    0.0000 C   0  0
   17.8375   -4.3667    0.0000 C   0  0
   17.4186   -3.6559    0.0000 O   0  0
   18.6625   -4.3593    0.0000 N   0  0
   19.0814   -5.0700    0.0000 C   0  0
   15.9722   -4.8653    0.0000 N   0  0
   15.1458   -4.8625    0.0000 C   0  0
   14.7358   -4.1466    0.0000 O   0  0
   14.7309   -5.5756    0.0000 C   0  0
   13.9054   -5.5682    0.0000 C   0  0
   13.4906   -6.2805    0.0000 C   0  0
   13.9007   -6.9973    0.0000 C   0  0
   14.7300   -6.9975    0.0000 C   0  0
   15.1411   -6.2847    0.0000 C   0  0
   15.9661   -6.2841    0.0000 Cl  0  0
   13.4975   -4.8512    0.0000 Cl  0  0
   18.6728   -5.7836    0.0000 C   0  0
   19.0882   -6.4923    0.0000 C   0  0
   19.9135   -6.4891    0.0000 N   0  0
   20.3218   -5.7711    0.0000 C   0  0
   19.9047   -5.0563    0.0000 C   0  0
 11 13  1  0
  5  6  1  0
 13 14  2  0
 14 15  1  0
  6  7  2  0
 15 16  2  0
 16 17  1  0
  6  8  1  0
 17 18  2  0
 18 13  1  0
  2  3  1  0
 18 19  1  0
  9  8  1  0
 14 20  1  0
  9 21  1  0
  3  4  1  0
  1 10  1  0
  4  5  2  0
 10 11  1  0
  5  1  1  0
  9 25  1  0
 21 22  1  0
 22 23  1  0
 23 24  1  0
 24 25  1  0
 11 12  2  0
  1  2  2  0
M  END