
          11280715122D 1   1.00000     0.00000     0

 37 40  0     0  0            999 V2000
    7.2167   -3.0917    0.0000 C   0  0  0  0  0  0           0  0  0
    7.9292   -3.5042    0.0000 C   0  0  0  0  0  0           0  0  0
    6.9417   -4.4000    0.0000 N   0  0  0  0  0  0           0  0  0
    7.7625   -4.3125    0.0000 N   0  0  3  0  0  0           0  0  0
    7.2167   -2.2667    0.0000 C   0  0  0  0  0  0           0  0  0
    7.9292   -1.8542    0.0000 C   0  0  0  0  0  0           0  0  0
    6.6042   -3.6500    0.0000 C   0  0  0  0  0  0           0  0  0
    8.6500   -3.0917    0.0000 N   0  0  0  0  0  0           0  0  0
    3.0542   -2.4917    0.0000 N   0  0  3  0  0  0           0  0  0
    7.9292   -1.0292    0.0000 C   0  0  0  0  0  0           0  0  0
    8.6500   -2.2667    0.0000 C   0  0  0  0  0  0           0  0  0
    4.4792   -0.8375    0.0000 C   0  0  3  0  0  0           0  0  0
    2.3417   -2.0875    0.0000 C   0  0  0  0  0  0           0  0  0
    4.4917   -3.2875    0.0000 N   0  0  3  0  0  0           0  0  0
    2.3417   -1.2542    0.0000 C   0  0  0  0  0  0           0  0  0
    3.0542   -0.8417    0.0000 O   0  0  0  0  0  0           0  0  0
    3.0667   -3.3167    0.0000 C   0  0  0  0  0  0           0  0  0
    3.7625   -2.0667    0.0000 C   0  0  0  0  0  0           0  0  0
    6.5042   -1.8542    0.0000 N   0  0  0  0  0  0           0  0  0
    7.2167   -0.6167    0.0000 O   0  0  0  0  0  0           0  0  0
    3.7667   -1.2500    0.0000 C   0  0  0  0  0  0           0  0  0
    8.6417   -0.6167    0.0000 N   0  0  0  0  0  0           0  0  0
    5.1917   -0.4167    0.0000 F   0  0  0  0  0  0           0  0  0
    5.2000   -1.2417    0.0000 F   0  0  0  0  0  0           0  0  0
    4.4792   -0.0125    0.0000 F   0  0  0  0  0  0           0  0  0
    4.4792   -2.4667    0.0000 C   0  0  0  0  0  0           0  0  0
    3.7917   -3.7167    0.0000 C   0  0  0  0  0  0           0  0  0
    8.3167   -4.9167    0.0000 C   0  0  0  0  0  0           0  0  0
    5.8000   -3.4792    0.0000 C   0  0  0  0  0  0           0  0  0
    5.2167   -3.6875    0.0000 C   0  0  0  0  0  0           0  0  0
    5.8042   -3.0917    0.0000 C   0  0  0  0  0  0           0  0  0
    1.6250   -2.5000    0.0000 C   0  0  0  0  0  0           0  0  0
    5.7917   -2.2667    0.0000 C   0  0  0  0  0  0           0  0  0
    1.6250   -0.8417    0.0000 C   0  0  0  0  0  0           0  0  0
    9.3542   -1.0250    0.0000 C   0  0  0  0  0  0           0  0  0
    0.9125   -2.0875    0.0000 C   0  0  0  0  0  0           0  0  0
    0.9125   -1.2542    0.0000 C   0  0  0  0  0  0           0  0  0
  2  1  1  0     0  0
  3  7  2  0     0  0
  4  2  1  0     0  0
  5  1  2  0     0  0
  6  5  1  0     0  0
  7  1  1  0     0  0
  8  2  2  0     0  0
  9 17  1  0     0  0
 10  6  1  0     0  0
 11  6  2  0     0  0
 12 21  1  0     0  0
 13  9  1  0     0  0
 14 30  1  0     0  0
 15 13  1  0     0  0
 16 15  1  0     0  0
 17 27  1  0     0  0
 18 26  1  0     0  0
 19  5  1  0     0  0
 20 10  2  0     0  0
 21 16  1  0     0  0
 22 10  1  0     0  0
 23 12  1  0     0  0
 24 12  1  0     0  0
 25 12  1  0     0  0
 26 14  1  0     0  0
 27 14  1  0     0  0
 28  4  1  0     0  0
 29  7  1  0     0  0
 30 31  1  0     0  0
 31 33  1  0     0  0
 32 13  2  0     0  0
 33 19  1  0     0  0
 34 15  2  0     0  0
 35 22  1  0     0  0
 36 32  1  0     0  0
 37 36  2  0     0  0
  3  4  1  0     0  0
 11  8  1  0     0  0
 18  9  1  0     0  0
 37 34  1  0     0  0
M  END