
          08180812472D 1   1.00000     0.00000     0

 28 31  0     1  0            999 V2000
   11.5500   -3.7875    0.0000 C   0  0  3  0  0  0           0  0  0
   10.8333   -3.3750    0.0000 C   0  0  0  0  0  0           0  0  0
   10.1217   -3.7871    0.0000 C   0  0  0  0  0  0           0  0  0
   10.1205   -4.6134    0.0000 C   0  0  0  0  0  0           0  0  0
   10.8372   -5.0259    0.0000 C   0  0  0  0  0  0           0  0  0
   11.5551   -4.6121    0.0000 C   0  0  0  0  0  0           0  0  0
   13.6958   -2.1083    0.0000 O   0  0  0  0  0  0           0  0  0
   12.8708   -2.1042    0.0000 C   0  0  0  0  0  0           0  0  0
   14.1070   -2.8210    0.0000 C   0  0  2  0  0  0           0  0  0
   13.6835   -3.5348    0.0000 C   0  0  1  0  0  0           0  0  0
   14.2315   -4.1582    0.0000 O   0  0  0  0  0  0           0  0  0
   14.9938   -3.8296    0.0000 C   0  0  3  0  0  0           0  0  0
   14.9167   -3.0032    0.0000 O   0  0  0  0  0  0           0  0  0
   14.9875   -4.6542    0.0000 C   0  0  0  0  0  0           0  0  0
   15.8167   -3.8292    0.0000 C   0  0  0  0  0  0           0  0  0
   14.5125   -2.1042    0.0000 C   0  0  0  0  0  0           0  0  0
   15.3375   -2.0969    0.0000 O   0  0  0  0  0  0           0  0  0
   15.7437   -1.3788    0.0000 S   0  0  3  0  0  0           0  0  0
   16.1500   -0.6583    0.0000 N   0  0  0  0  0  0           0  0  0
   16.4620   -1.7846    0.0000 O   0  0  0  0  0  0           0  0  0
   15.0243   -0.9750    0.0000 O   0  0  0  0  0  0           0  0  0
   13.2667   -4.2458    0.0000 H   0  0  0  0  0  0           0  0  0
   12.8636   -3.5298    0.0000 C   0  0  1  0  0  0           0  0  0
   12.4603   -2.8092    0.0000 C   0  0  2  0  0  0           0  0  0
   11.6503   -2.9701    0.0000 O   0  0  0  0  0  0           0  0  0
   12.3029   -4.1360    0.0000 O   0  0  0  0  0  0           0  0  0
   12.2417   -2.0083    0.0000 H   0  0  0  0  0  0           0  0  0
   13.2708   -2.8125    0.0000 H   0  0  0  0  0  0           0  0  0
 13  9  1  0     0  0
  7  8  1  0     0  0
 12 14  1  0     0  0
 12 15  1  0     0  0
  1  2  1  0     0  0
  9 16  1  6     0  0
  7  9  1  0     0  0
 16 17  1  0     0  0
  8 24  1  0     0  0
 17 18  1  0     0  0
 23 10  1  0     0  0
 18 19  1  0     0  0
  9 10  1  0     0  0
 18 20  2  0     0  0
  1  6  1  0     0  0
 18 21  2  0     0  0
  2  3  1  0     0  0
 10 22  1  6     0  0
 23 24  1  0     0  0
  3  4  1  0     0  0
  4  5  1  0     0  0
  5  6  1  0     0  0
 10 11  1  0     0  0
 24 25  1  0     0  0
 25  1  1  0     0  0
  1 26  1  0     0  0
 26 23  1  0     0  0
 11 12  1  0     0  0
 24 27  1  1     0  0
 12 13  1  0     0  0
 23 28  1  1     0  0
M  END