
          11280715362D 1   1.00000     0.00000     0

 32 34  0     1  0            999 V2000
    3.8750   -5.1042    0.0000 N   0  0  3  0  0  0           0  0  0
    4.8917   -4.5292    0.0000 C   0  0  0  0  0  0           0  0  0
    4.3875   -4.2292    0.0000 C   0  0  0  0  0  0           0  0  0
    4.8875   -5.1167    0.0000 C   0  0  0  0  0  0           0  0  0
    3.8792   -4.5167    0.0000 C   0  0  0  0  0  0           0  0  0
    4.9000   -3.3542    0.0000 C   0  0  2  0  0  0           0  0  0
    4.3875   -3.6417    0.0000 C   0  0  0  0  0  0           0  0  0
    5.4000   -3.6542    0.0000 C   0  0  2  0  0  0           0  0  0
    5.9167   -3.3667    0.0000 N   0  0  3  0  0  0           0  0  0
    5.4000   -4.2292    0.0000 C   0  0  0  0  0  0           0  0  0
    8.8375   -4.6292    0.0000 C   0  0  0  0  0  0           0  0  0
    7.6292   -4.6167    0.0000 C   0  0  0  0  0  0           0  0  0
    8.5375   -4.1042    0.0000 C   0  0  0  0  0  0           0  0  0
    7.9375   -4.1042    0.0000 C   0  0  0  0  0  0           0  0  0
    5.9250   -2.7792    0.0000 C   0  0  0  0  0  0           0  0  0
    4.9000   -2.7667    0.0000 C   0  0  0  0  0  0           0  0  0
    3.2875   -5.6792    0.0000 C   0  0  3  0  0  0           0  0  0
    7.9375   -5.1417    0.0000 O   0  0  0  0  0  0           0  0  0
    9.4375   -4.6292    0.0000 O   0  0  0  0  0  0           0  0  0
    5.4125   -2.4792    0.0000 C   0  0  1  0  0  0           0  0  0
    3.3750   -4.2292    0.0000 C   0  0  0  0  0  0           0  0  0
    3.8792   -3.3542    0.0000 C   0  0  0  0  0  0           0  0  0
    6.4250   -3.6667    0.0000 C   0  0  0  0  0  0           0  0  0
    7.0292   -4.6167    0.0000 O   0  0  0  0  0  0           0  0  0
    8.5375   -5.1417    0.0000 O   0  0  0  0  0  0           0  0  0
    3.3750   -3.6417    0.0000 C   0  0  0  0  0  0           0  0  0
    5.4250   -1.8792    0.0000 C   0  0  0  0  0  0           0  0  0
    2.4875   -5.4542    0.0000 C   0  0  0  0  0  0           0  0  0
    3.4875   -6.4792    0.0000 C   0  0  0  0  0  0           0  0  0
    4.3792   -3.0542    0.0000 H   0  0  0  0  0  0           0  0  0
    5.9125   -3.9417    0.0000 H   0  0  0  0  0  0           0  0  0
    4.9000   -2.1792    0.0000 H   0  0  0  0  0  0           0  0  0
  2  4  2  0     0  0
  3  5  1  0     0  0
  4  1  1  0     0  0
  5  1  1  0     0  0
  6  7  1  0     0  0
  7  3  2  0     0  0
  8 10  1  0     0  0
  9  8  1  0     0  0
 10  2  1  0     0  0
 12 14  1  0     0  0
 13 11  1  0     0  0
 14 13  2  0     0  0
 15  9  1  0     0  0
 16  6  1  0     0  0
 17  1  1  0     0  0
 18 12  2  0     0  0
 19 11  2  0     0  0
 20 16  1  0     0  0
 21  5  2  0     0  0
 22  7  1  0     0  0
 23  9  1  0     0  0
 24 12  1  0     0  0
 25 11  1  0     0  0
 26 21  1  0     0  0
 27 20  1  0     0  0
 28 17  1  0     0  0
 29 17  1  0     0  0
  6 30  1  6     0  0
  8 31  1  1     0  0
 20 32  1  6     0  0
  3  2  1  0     0  0
 26 22  2  0     0  0
  8  6  1  0     0  0
 15 20  1  0     0  0
M  END