
  -OEChem-11071500192D

 32 36  0     1  0  0  0  0  0999 V2000
    9.3762    2.3878    0.0000 S   0  0  0  0  0  0  0  0  0  0  0  0
   11.2019    1.5712    0.0000 F   0  0  0  0  0  0  0  0  0  0  0  0
    7.6516    1.2098    0.0000 O   0  0  0  0  0  0  0  0  0  0  0  0
    5.1137    1.7142    0.0000 O   0  0  0  0  0  0  0  0  0  0  0  0
    2.5897   -1.9680    0.0000 O   0  0  0  0  0  0  0  0  0  0  0  0
    6.3955    3.4720    0.0000 O   0  0  0  0  0  0  0  0  0  0  0  0
    6.3894   -0.0481    0.0000 N   0  0  0  0  0  0  0  0  0  0  0  0
    4.5771   -2.8529    0.0000 N   0  0  0  0  0  0  0  0  0  0  0  0
    6.3894   -1.6576    0.0000 N   0  0  0  0  0  0  0  0  0  0  0  0
    4.5771    0.1471    0.0000 N   0  0  0  0  0  0  0  0  0  0  0  0
    3.7111   -1.3529    0.0000 N   0  0  0  0  0  0  0  0  0  0  0  0
    3.7111   -3.3529    0.0000 C   0  0  1  0  0  0  0  0  0  0  0  0
    6.7000    0.9024    0.0000 C   0  0  1  0  0  0  0  0  0  0  0  0
    2.7976   -2.9461    0.0000 C   0  0  1  0  0  0  0  0  0  0  0  0
    6.1137    1.7124    0.0000 C   0  0  1  0  0  0  0  0  0  0  0  0
    6.7028    2.5204    0.0000 C   0  0  1  0  0  0  0  0  0  0  0  0
    3.6066   -4.3474    0.0000 C   0  0  0  0  0  0  0  0  0  0  0  0
    7.6534    2.2098    0.0000 C   0  0  1  0  0  0  0  0  0  0  0  0
    2.1284   -3.6893    0.0000 C   0  0  0  0  0  0  0  0  0  0  0  0
    2.6284   -4.5553    0.0000 C   0  0  0  0  0  0  0  0  0  0  0  0
    8.4634    2.7961    0.0000 C   0  0  0  0  0  0  0  0  0  0  0  0
    5.4432   -0.3529    0.0000 C   0  0  0  0  0  0  0  0  0  0  0  0
    4.5771   -1.8529    0.0000 C   0  0  0  0  0  0  0  0  0  0  0  0
    5.4432   -1.3529    0.0000 C   0  0  0  0  0  0  0  0  0  0  0  0
    6.9730   -0.8529    0.0000 C   0  0  0  0  0  0  0  0  0  0  0  0
    3.7111   -0.3529    0.0000 C   0  0  0  0  0  0  0  0  0  0  0  0
   10.1863    2.9742    0.0000 C   0  0  0  0  0  0  0  0  0  0  0  0
   11.0991    2.5659    0.0000 C   0  0  0  0  0  0  0  0  0  0  0  0
   10.0835    3.9689    0.0000 C   0  0  0  0  0  0  0  0  0  0  0  0
   11.9091    3.1523    0.0000 C   0  0  0  0  0  0  0  0  0  0  0  0
   10.8935    4.5553    0.0000 C   0  0  0  0  0  0  0  0  0  0  0  0
   11.8063    4.1470    0.0000 C   0  0  0  0  0  0  0  0  0  0  0  0
  1 21  1  0  0  0  0
  1 27  1  0  0  0  0
  2 28  1  0  0  0  0
  3 13  1  0  0  0  0
  3 18  1  0  0  0  0
 15  4  1  6  0  0  0
 14  5  1  1  0  0  0
 16  6  1  6  0  0  0
 13  7  1  1  0  0  0
  7 22  1  0  0  0  0
  7 25  1  0  0  0  0
 12  8  1  6  0  0  0
  8 23  1  0  0  0  0
  9 24  1  0  0  0  0
  9 25  2  0  0  0  0
 10 22  2  0  0  0  0
 10 26  1  0  0  0  0
 11 23  1  0  0  0  0
 11 26  2  0  0  0  0
 12 14  1  0  0  0  0
 12 17  1  0  0  0  0
 13 15  1  0  0  0  0
 14 19  1  0  0  0  0
 15 16  1  0  0  0  0
 16 18  1  0  0  0  0
 17 20  1  0  0  0  0
 18 21  1  1  0  0  0
 19 20  1  0  0  0  0
 22 24  1  0  0  0  0
 23 24  2  0  0  0  0
 27 28  1  0  0  0  0
 27 29  2  0  0  0  0
 28 30  2  0  0  0  0
 29 31  1  0  0  0  0
 30 32  1  0  0  0  0
 31 32  2  0  0  0  0
M  END
