
  SciTegic04021211102D

 18 20  0  0  0  0            999 V2000
    5.9777   -0.0541    0.0000 N   0  0
    5.9766   -0.8815    0.0000 C   0  0
    6.6914   -1.2944    0.0000 N   0  0
    6.6896    0.3586    0.0000 C   0  0
    7.4050   -0.0505    0.0000 C   0  0
    7.4052   -0.8769    0.0000 C   0  0
    8.1913   -1.1321    0.0000 N   0  0
    8.6770   -0.4633    0.0000 C   0  0
    8.1909    0.2051    0.0000 N   0  0
    6.6871    1.1836    0.0000 N   0  0
    7.4004    1.5983    0.0000 C   0  0
    8.1139    1.1855    0.0000 C   0  0
    8.8267    1.5994    0.0000 C   0  0
    8.8247    2.4253    0.0000 C   0  0
    8.1039    2.8355    0.0000 C   0  0
    7.3941    2.4192    0.0000 C   0  0
    5.2618   -1.2934    0.0000 N   0  0
    8.0986    3.6605    0.0000 Br  0  0
  8  9  2  0
  9  5  1  0
  4  1  1  0
  4 10  1  0
  5  6  1  0
 10 11  1  0
 11 12  2  0
  2  3  1  0
 12 13  1  0
  3  6  2  0
 13 14  2  0
  1  2  2  0
 14 15  1  0
  5  4  2  0
 15 16  2  0
 16 11  1  0
  6  7  1  0
  2 17  1  0
  7  8  1  0
 15 18  1  0
M  END