
  Mrv0541 05211314572D          

 28 29  0  0  0  0            999 V2000
    0.8690   -0.8914    0.0000 C   0  0  0  0  0  0  0  0  0  0  0  0
    0.0440   -0.8906    0.0000 N   0  0  0  0  0  0  0  0  0  0  0  0
   -3.2321    1.7818    0.0000 N   0  0  0  0  0  0  0  0  0  0  0  0
   -0.3678   -0.1757    0.0000 C   0  0  0  0  0  0  0  0  0  0  0  0
    1.2808   -1.6063    0.0000 C   0  0  0  0  0  0  0  0  0  0  0  0
   -2.6715    1.3419    0.0000 C   0  0  0  0  0  0  0  0  0  0  0  0
   -3.0924    0.9687    0.0000 C   0  0  0  0  0  0  0  0  0  0  0  0
   -1.6045    0.5400    0.0000 C   0  0  0  0  0  0  0  0  0  0  0  0
   -1.7427    1.3574    0.0000 C   0  0  0  0  0  0  0  0  0  0  0  0
   -2.1207    0.9687    0.0000 C   0  0  0  0  0  0  0  0  0  0  0  0
   -1.1928   -0.1749    0.0000 N   0  0  0  0  0  0  0  0  0  0  0  0
    1.2822   -0.1773    0.0000 O   0  0  0  0  0  0  0  0  0  0  0  0
    2.1058   -1.6071    0.0000 C   0  0  0  0  0  0  0  0  0  0  0  0
    0.0454    0.5384    0.0000 O   0  0  0  0  0  0  0  0  0  0  0  0
   -2.9920    0.6333    0.0000 C   0  0  0  0  0  0  0  0  0  0  0  0
   -3.6123    0.2564    0.0000 C   0  0  0  0  0  0  0  0  0  0  0  0
   -3.6548    2.4903    0.0000 C   0  0  0  0  0  0  0  0  0  0  0  0
    4.7611    0.0000    0.0000 Cl  0  0  0  0  0  0  0  0  0  0  0  0
    0.8676   -2.3203    0.0000 C   0  0  0  0  0  0  0  0  0  0  0  0
    2.5190   -0.8930    0.0000 O   0  0  0  0  0  0  0  0  0  0  0  0
    2.5176   -2.3220    0.0000 C   0  0  0  0  0  0  0  0  0  0  0  0
    2.1072   -0.1781    0.0000 C   0  0  0  0  0  0  0  0  0  0  0  0
    2.5204    0.5359    0.0000 C   0  0  0  0  0  0  0  0  0  0  0  0
    2.5219    1.9649    0.0000 C   0  0  0  0  0  0  0  0  0  0  0  0
    2.1087    1.2508    0.0000 C   0  0  0  0  0  0  0  0  0  0  0  0
    1.2794   -3.0352    0.0000 C   0  0  0  0  0  0  0  0  0  0  0  0
    2.1101    2.6797    0.0000 C   0  0  0  0  0  0  0  0  0  0  0  0
    2.1044   -3.0360    0.0000 C   0  0  0  0  0  0  0  0  0  0  0  0
  1  2  1  0  0  0  0
  2  4  1  0  0  0  0
  1  5  1  0  0  0  0
  3  6  1  0  0  0  0
  3  7  1  0  0  0  0
  6  9  1  0  0  0  0
  8  9  1  0  0  0  0
  7 10  1  0  0  0  0
  8 10  1  0  0  0  0
  4 11  1  0  0  0  0
  8 11  1  0  0  0  0
  1 12  2  0  0  0  0
  5 13  2  0  0  0  0
  4 14  2  0  0  0  0
  6 15  1  0  0  0  0
  7 16  1  0  0  0  0
 15 16  1  0  0  0  0
  3 17  1  0  0  0  0
  5 19  1  0  0  0  0
 13 20  1  0  0  0  0
 13 21  1  0  0  0  0
 20 22  1  0  0  0  0
 22 23  1  0  0  0  0
 23 25  1  0  0  0  0
 24 25  1  0  0  0  0
 19 26  2  0  0  0  0
 24 27  1  0  0  0  0
 21 28  2  0  0  0  0
 26 28  1  0  0  0  0
M  END