
  SciTegic12171312592D

 53 60  0  0  0  0            999 V2000
   10.5006   -4.8133    0.0000 N   0  0
   13.7385   -5.7494    0.0000 C   0  0
   12.1308  -12.9692    0.0000 C   0  0
   12.2258  -15.3829    0.0000 C   0  0
   13.7340   -4.3255    0.0000 C   0  0
   11.3919  -10.8752    0.0000 N   0  0
    9.7908   -6.0546    0.0000 N   0  0
   10.5049   -7.2945    0.0000 N   0  0
   12.0099   -7.1385    0.0000 N   0  0
   11.4545  -13.3476    0.0000 C   0  0
   11.4133  -11.7009    0.0000 C   0  0
    9.3744  -15.4688    0.0000 C   0  0
   15.7864   -4.8682    0.0000 O   0  0
   14.5649   -5.7523    0.0000 C   0  0
   12.2007  -14.5610    0.0000 C   0  0
   11.5207  -15.8235    0.0000 O   0  0
   14.5642   -4.3225    0.0000 C   0  0
   12.5017   -6.4647    0.0000 C   0  0
    9.7897   -6.8832    0.0000 C   0  0
   13.6465  -15.3368    0.0000 C   0  0
   10.7076  -12.1253    0.0000 C   0  0
   13.3279   -6.4644    0.0000 S   0  0
   12.1360  -12.0858    0.0000 C   0  0
   13.3271   -5.0402    0.0000 C   0  0
   11.3275   -8.3978    0.0000 C   0  0
   14.9777   -5.0388    0.0000 C   0  0
   13.6171  -14.5119    0.0000 C   0  0
   10.5030   -5.6394    0.0000 C   0  0
   11.2187   -6.0510    0.0000 C   0  0
   10.0534  -14.2169    0.0000 C   0  0
    9.3495  -14.6442    0.0000 C   0  0
   12.9485  -15.7724    0.0000 C   0  0
   10.7735  -14.6058    0.0000 C   0  0
   15.8713   -4.0466    0.0000 C   0  0
   10.7287  -12.9504    0.0000 C   0  0
   12.5010   -5.0437    0.0000 I   0  0
   11.2190   -6.8832    0.0000 C   0  0
   12.0099   -5.7925    0.0000 N   0  0
   12.0314   -7.9642    0.0000 C   0  0
    9.9627  -10.9123    0.0000 S   0  0
   10.7943  -15.4273    0.0000 C   0  0
   15.1176   -3.7068    0.0000 O   0  0
   11.4771  -14.1733    0.0000 C   0  0
    8.6724  -15.9055    0.0000 O   0  0
   10.0950  -15.8580    0.0000 C   0  0
   12.8318  -14.2182    0.0000 C   0  0
   10.6451   -9.6529    0.0000 N   0  0
   11.3489   -9.2235    0.0000 C   0  0
   14.3748  -15.7275    0.0000 O   0  0
   10.6665  -10.4787    0.0000 C   0  0
   12.9522  -12.9688    0.0000 C   0  0
   13.3633  -13.6802    0.0000 O   0  0
   13.3626  -12.2570    0.0000 O   0  0
  9 39  1  0
 17  5  1  0
 18 38  2  0
 24  2  1  0
  9 18  1  0
 12 44  1  0
 39 25  1  0
 21 35  1  0
  8 37  2  0
  4 32  2  0
 20 49  2  0
 42 17  1  0
 30 31  1  0
 14 26  1  0
 16  4  1  0
  2 14  2  0
 12 45  1  0
 10 43  1  0
 41 16  1  0
 48 47  1  0
 13 34  1  0
  5 24  2  0
 31 12  2  0
 50 40  2  0
 23 11  1  0
 11 21  2  0
 18 22  1  0
 33 30  2  0
 24 36  1  0
 26 13  1  0
 15 43  2  0
 17 26  2  0
 19  8  1  0
 35 10  2  0
 22  2  1  0
 28  7  1  0
 29 37  1  0
 32 20  1  0
 47 50  1  0
 10  3  1  0
 28  1  1  0
  3 23  2  0
 15  4  1  0
  6 11  1  0
 38 29  1  0
 29 28  2  0
 43 33  1  0
 27 46  2  0
 45 41  2  0
  7 19  2  0
 46 15  1  0
 37  9  1  0
 20 27  1  0
 41 33  1  0
 34 42  1  0
 50  6  1  0
 25 48  1  0
  3 51  1  0
 51 52  2  0
 51 53  1  0
M  END