
  SciTegic05061116452D

 29 32  0  0  0  0            999 V2000
   15.0402    2.1042    0.0000 C   0  0
   15.0391    1.2768    0.0000 C   0  0
   15.7539    0.8640    0.0000 C   0  0
   15.7521    2.5170    0.0000 C   0  0
   16.4675    2.1078    0.0000 C   0  0
   16.4682    1.2810    0.0000 C   0  0
   17.1835    0.8700    0.0000 N   0  0
   17.8986    1.2848    0.0000 C   0  0
   17.8938    2.1148    0.0000 C   0  0
   17.1779    2.5220    0.0000 N   0  0
   18.6146    0.8751    0.0000 O   0  0
   18.6179    0.0501    0.0000 C   0  0
   19.3339   -0.3596    0.0000 C   0  0
   18.6057    2.5316    0.0000 C   0  0
   19.3227    2.1235    0.0000 N   0  0
   19.3237    1.2946    0.0000 C   0  0
   20.0366    0.8865    0.0000 C   0  0
   20.7510    1.2999    0.0000 N   0  0
   20.7479    2.1258    0.0000 C   0  0
   20.0305    2.5385    0.0000 C   0  0
   18.6007    3.3566    0.0000 O   0  0
   21.4664    0.8890    0.0000 C   0  0
   21.4658    0.0656    0.0000 C   0  0
   22.1804   -0.3452    0.0000 C   0  0
   22.8949    0.0690    0.0000 C   0  0
   22.8903    0.8983    0.0000 C   0  0
   22.1752    1.3053    0.0000 C   0  0
   23.6108   -0.3409    0.0000 O   0  0
   23.6138   -1.1659    0.0000 C   0  0
  9 14  1  0
  6  7  1  0
 14 15  1  0
 15 16  1  0
  1  2  2  0
  7  8  2  0
  5  4  2  0
  8  9  1  0
  4  1  1  0
 15 20  1  0
 16 17  1  0
 17 18  1  0
 18 19  1  0
 19 20  1  0
  9 10  2  0
 14 21  2  0
 10  5  1  0
 18 22  1  0
 22 23  2  0
  8 11  1  0
 23 24  1  0
  2  3  1  0
 24 25  2  0
 11 12  1  0
 25 26  1  0
  5  6  1  0
 26 27  2  0
 27 22  1  0
 12 13  1  0
 25 28  1  0
  3  6  2  0
 28 29  1  0
M  END