
          11280715052D 1   1.00000     0.00000     0

 22 23  0     0  0            999 V2000
   -0.5250   -2.7167    0.0000 N   0  0  0  0  0  0           0  0  0
    5.1875   -2.7167    0.0000 C   0  0  0  0  0  0           0  0  0
   -0.8083   -1.4125    0.0000 N   0  0  0  0  0  0           0  0  0
   -1.1458   -2.1667    0.0000 C   0  0  0  0  0  0           0  0  0
    0.1875   -2.3042    0.0000 C   0  0  0  0  0  0           0  0  0
    5.1875   -3.5417    0.0000 S   0  0  0  0  0  0           0  0  0
    0.0167   -1.5000    0.0000 C   0  0  0  0  0  0           0  0  0
    5.9042   -2.3042    0.0000 N   0  0  0  0  0  0           0  0  0
    4.4750   -2.3042    0.0000 N   0  0  0  0  0  0           0  0  0
    6.6167   -2.7167    0.0000 C   0  0  0  0  0  0           0  0  0
    8.0417   -2.7042    0.0000 C   0  0  0  0  0  0           0  0  0
    0.9042   -2.7167    0.0000 C   0  0  0  0  0  0           0  0  0
    7.3250   -2.3000    0.0000 C   0  0  0  0  0  0           0  0  0
    3.7542   -2.7167    0.0000 C   0  0  0  0  0  0           0  0  0
    8.0500   -3.5292    0.0000 C   0  0  0  0  0  0           0  0  0
    8.7500   -2.2875    0.0000 C   0  0  0  0  0  0           0  0  0
    1.6167   -2.3042    0.0000 C   0  0  0  0  0  0           0  0  0
    3.0417   -2.3042    0.0000 C   0  0  0  0  0  0           0  0  0
    2.3292   -2.7167    0.0000 C   0  0  0  0  0  0           0  0  0
    9.4667   -2.6875    0.0000 C   0  0  0  0  0  0           0  0  0
    8.7667   -3.9375    0.0000 C   0  0  0  0  0  0           0  0  0
    9.4792   -3.5167    0.0000 C   0  0  0  0  0  0           0  0  0
  2  9  1  0     0  0
  3  4  1  0     0  0
  4  1  2  0     0  0
  5  1  1  0     0  0
  6  2  2  0     0  0
  7  5  2  0     0  0
  8  2  1  0     0  0
  9 14  1  0     0  0
 10  8  1  0     0  0
 11 13  1  0     0  0
 12  5  1  0     0  0
 13 10  1  0     0  0
 14 18  1  0     0  0
 15 11  2  0     0  0
 16 11  1  0     0  0
 17 12  1  0     0  0
 18 19  1  0     0  0
 19 17  1  0     0  0
 20 16  2  0     0  0
 21 15  1  0     0  0
 22 20  1  0     0  0
  7  3  1  0     0  0
 21 22  2  0     0  0
M  END