
  SciTegic12011114592D

 41 46  0  0  0  0            999 V2000
   -5.8133  -25.3973    0.0000 N   0  0
   -5.0981  -24.9876    0.0000 C   0  0
   -5.0953  -24.1616    0.0000 N   0  0
   -5.8135  -23.7472    0.0000 C   0  0
   -5.8140  -22.9221    0.0000 N   0  0
   -5.0994  -22.5090    0.0000 C   0  0
   -4.3850  -25.4025    0.0000 S   0  0
   -3.6691  -24.9925    0.0000 C   0  0
   -2.9601  -25.4105    0.0000 C   0  0
   -2.2448  -25.0011    0.0000 C   0  0
   -2.2415  -24.1752    0.0000 C   0  0
   -2.9596  -23.7604    0.0000 C   0  0
   -3.6721  -24.1721    0.0000 C   0  0
   -1.5261  -23.7642    0.0000 N   0  0
   -4.3136  -22.7572    0.0000 C   0  0
   -3.8345  -22.0855    0.0000 C   0  0
   -4.3253  -21.4222    0.0000 N   0  0
   -5.1077  -21.6840    0.0000 N   0  0
   -3.0095  -22.0783    0.0000 C   0  0
   -7.3008  -23.9080    0.0000 C   0  0
   -7.7864  -24.5692    0.0000 C   0  0
   -7.3083  -25.2310    0.0000 C   0  0
   -6.5277  -24.9789    0.0000 N   0  0
   -6.5283  -24.1611    0.0000 C   0  0
   -0.8125  -24.1781    0.0000 C   0  0
   -0.0970  -23.7671    0.0000 C   0  0
    0.6165  -24.1816    0.0000 N   0  0
   -0.8142  -25.0032    0.0000 O   0  0
    0.6079  -25.0021    0.0000 C   0  0
    1.3898  -25.2655    0.0000 C   0  0  1  0  0  0
    1.8820  -24.6032    0.0000 C   0  0  2  0  0  0
    1.4042  -23.9307    0.0000 C   0  0
    2.7070  -24.6121    0.0000 O   0  0
    1.6362  -26.0529    0.0000 O   0  0
    2.4615  -26.0513    0.0000 C   0  0
    2.8722  -26.7656    0.0000 C   0  0
    3.6966  -26.7651    0.0000 C   0  0
    4.1091  -26.0495    0.0000 C   0  0
    3.6914  -25.3331    0.0000 C   0  0
    2.8684  -25.3372    0.0000 C   0  0
    4.9341  -26.0475    0.0000 F   0  0
 16 19  1  0
 23 24  1  0
  8  9  2  0
  4 24  1  0
 21 22  2  0
  9 10  1  0
  1  2  2  0
 10 11  2  0
 20 21  1  0
 22 23  1  0
 24 20  2  0
  4  5  1  0
 14 25  1  0
 11 12  1  0
 25 26  1  0
 23  1  1  0
 26 27  1  0
 12 13  2  0
 25 28  2  0
 27 29  1  0
 13  8  1  0
  5  6  1  0
 11 14  1  0
 17 18  1  0
 29 30  1  0
 30 31  1  0
 31 32  1  0
 32 27  1  0
  2  3  1  0
 31 33  1  6
 15 16  2  0
 30 34  1  1
  2  7  1  0
 34 35  1  0
 35 36  2  0
  7  8  1  0
 36 37  1  0
  6 15  1  0
 37 38  2  0
 16 17  1  0
 38 39  1  0
 18  6  2  0
 39 40  2  0
 40 35  1  0
  3  4  2  0
 38 41  1  0
M  END