
  SciTegic05171617292D

 52 59  0  0  0  0            999 V2000
   -3.6486    1.3517    0.0000 C   0  0
   -2.6111    0.7486    0.0000 C   0  0
   -1.2964    1.4973    0.0000 C   0  0
    0.0000    0.7486    0.0000 C   0  0
    1.2964    1.4973    0.0000 C   0  0
    1.2995    2.9981    0.0000 C   0  0
    0.2613    3.5999    0.0000 O   0  0
    2.6003    3.7467    0.0000 C   0  0
    3.9070    2.9854    0.0000 C   0  0
    5.2026    3.7360    0.0000 C   0  0
    5.1913    5.2488    0.0000 C   0  0
    3.8936    5.9953    0.0000 C   0  0
    3.8915    7.4923    0.0000 C   0  0
    2.5938    8.2388    0.0000 C   0  0
    1.2982    7.4882    0.0000 C   0  0
    1.3003    5.9911    0.0000 C   0  0
    2.5980    5.2447    0.0000 C   0  0
    2.5929    0.7486    0.0000 C   0  0
    3.6321    1.3486    0.0000 O   0  0
    2.5929   -0.7486    0.0000 C   0  0
    3.6321   -1.3486    0.0000 O   0  0
    1.2964   -1.4973    0.0000 C   0  0
    0.0000   -0.7486    0.0000 C   0  0
   -1.2964   -1.4973    0.0000 C   0  0
   -1.2928   -2.6973    0.0000 O   0  0
   -2.6111   -0.7486    0.0000 C   0  0
   -3.9086   -1.5029    0.0000 C   0  0
   -5.2105   -0.7631    0.0000 C   0  0
   -5.2229    0.4368    0.0000 C   0  0
   -6.5102   -1.5375    0.0000 C   0  0
   -6.4984   -3.0345    0.0000 C   0  0
   -7.7892   -3.7930    0.0000 C   0  0
   -9.0962   -3.0553    0.0000 C   0  0
   -9.1077   -1.8554    0.0000 O   0  0
  -10.3890   -3.8177    0.0000 C   0  0
  -10.3713   -5.3299    0.0000 C   0  0
  -11.6633   -6.0866    0.0000 C   0  0
  -12.9737   -5.3306    0.0000 C   0  0
  -12.9829   -3.8335    0.0000 C   0  0
  -14.2842   -3.0932    0.0000 C   0  0
  -14.2934   -1.5962    0.0000 C   0  0
  -13.0014   -0.8395    0.0000 C   0  0
  -11.7002   -1.5798    0.0000 C   0  0
  -11.6910   -3.0768    0.0000 C   0  0
   -7.7774   -5.2900    0.0000 C   0  0
   -8.8119   -5.8981    0.0000 O   0  0
   -6.4749   -6.0285    0.0000 C   0  0
   -6.4657   -7.2285    0.0000 O   0  0
   -5.1842   -5.2700    0.0000 C   0  0
   -5.1960   -3.7730    0.0000 C   0  0
   -3.9053   -3.0146    0.0000 C   0  0
   -2.8631   -3.6094    0.0000 O   0  0
  1  2  1  0
  2  3  1  0
  3  4  2  0
  4  5  1  0
  5  6  1  0
  6  7  2  0
  6  8  1  0
  8  9  1  0
  9 10  2  0
 10 11  1  0
 11 12  2  0
 12 13  1  0
 13 14  2  0
 14 15  1  0
 15 16  2  0
 16 17  1  0
  8 17  2  0
 12 17  1  0
  5 18  2  0
 18 19  1  0
 18 20  1  0
 20 21  1  0
 20 22  2  0
 22 23  1  0
  4 23  1  0
 23 24  2  0
 24 25  1  0
 24 26  1  0
  2 26  2  0
 26 27  1  0
 27 28  2  0
 28 29  1  0
 28 30  1  0
 30 31  2  0
 31 32  1  0
 32 33  1  0
 33 34  2  0
 33 35  1  0
 35 36  1  0
 36 37  2  0
 37 38  1  0
 38 39  2  0
 39 40  1  0
 40 41  2  0
 41 42  1  0
 42 43  2  0
 43 44  1  0
 35 44  2  0
 39 44  1  0
 32 45  2  0
 45 46  1  0
 45 47  1  0
 47 48  1  0
 47 49  2  0
 49 50  1  0
 31 50  1  0
 50 51  2  0
 27 51  1  0
 51 52  1  0
M  END