
  SciTegic01161211252D

 29 32  0  0  0  0            999 V2000
    3.3047  -21.9155    0.0000 N   0  0
    4.1058  -21.7374    0.0000 C   0  0
    4.7517  -22.2537    0.0000 C   0  0
    2.9440  -22.6608    0.0000 C   0  0
    4.7534  -23.0773    0.0000 N   0  0
    3.3018  -23.4057    0.0000 C   0  0
    4.1074  -23.5881    0.0000 C   0  0
    5.4673  -23.4908    0.0000 C   0  0
    5.4653  -24.3158    0.0000 O   0  0
    6.1826  -23.0807    0.0000 C   0  0  2  0  0  0
    6.8530  -23.5558    0.0000 N   0  0
    7.5133  -23.0611    0.0000 C   0  0
    7.2468  -22.2802    0.0000 C   0  0  2  0  0  0
    6.4219  -22.2925    0.0000 C   0  0
    7.7220  -21.6056    0.0000 O   0  0
    7.3167  -20.8871    0.0000 C   0  0
    7.7379  -20.1799    0.0000 C   0  0
    7.3333  -19.4618    0.0000 C   0  0
    6.5075  -19.4531    0.0000 C   0  0
    6.0879  -20.1684    0.0000 C   0  0
    6.4950  -20.8836    0.0000 C   0  0
    6.8639  -24.3807    0.0000 C   0  0
    6.1550  -24.8026    0.0000 O   0  0
    7.5838  -24.7837    0.0000 C   0  0
    7.7533  -18.7517    0.0000 F   0  0
    2.7378  -21.3164    0.0000 C   0  0
    2.7599  -20.4922    0.0000 C   0  0
    1.9350  -20.4702    0.0000 C   0  0
    1.9129  -21.2951    0.0000 C   0  0
 14 10  1  0
  6  7  1  0
 13 15  1  6
  1  4  1  0
 15 16  1  0
  5  8  1  0
 16 17  2  0
 17 18  1  0
  8  9  2  0
 18 19  2  0
  3  5  1  0
 19 20  1  0
 10  8  1  1
 20 21  2  0
 21 16  1  0
 10 11  1  0
 11 22  1  0
  2  3  1  0
 22 23  2  0
  4  6  1  0
 22 24  1  0
  1  2  1  0
 18 25  1  0
  5  7  1  0
  1 26  1  0
 26 27  1  0
 11 12  1  0
 12 13  1  0
 13 14  1  0
 27 28  1  0
 28 29  1  0
 29 26  1  0
M  END