
  SciTegic05161214222D

 55 58  0  0  0  0            999 V2000
   23.3319  -19.7457    0.0000 C   0  0
   19.7667  -19.3417    0.0000 C   0  0
   19.7667  -20.1667    0.0000 C   0  0
   20.4787  -20.5750    0.0000 O   0  0
   21.1907  -20.1667    0.0000 C   0  0
   21.1907  -19.3417    0.0000 C   0  0
   20.4787  -18.9250    0.0000 C   0  0
   19.0490  -18.9364    0.0000 S   0  0
   18.6407  -19.6533    0.0000 O   0  0
   19.4656  -19.6485    0.0000 O   0  0
   16.1819  -14.0000    0.0000 C   0  0
   16.1807  -14.8273    0.0000 C   0  0
   16.8956  -15.2402    0.0000 C   0  0
   16.8938  -13.5872    0.0000 C   0  0
   17.6091  -13.9963    0.0000 C   0  0
   17.6099  -14.8232    0.0000 C   0  0
   18.3252  -15.2341    0.0000 N   0  0
   19.0402  -14.8194    0.0000 C   0  0
   19.0355  -13.9894    0.0000 C   0  0
   18.3196  -13.5822    0.0000 C   0  0
   19.7563  -15.2291    0.0000 C   0  0
   18.3152  -12.7572    0.0000 C   0  0
   16.8975  -16.0652    0.0000 O   0  0
   17.6129  -16.4760    0.0000 C   0  0
   17.6148  -17.3010    0.0000 C   0  0
   16.8987  -17.7108    0.0000 C   0  0
   16.9003  -18.5351    0.0000 C   0  0
   17.6162  -18.9467    0.0000 C   0  0
   18.3321  -18.5281    0.0000 C   0  0
   18.3270  -17.7053    0.0000 C   0  0
   16.1846  -17.2976    0.0000 Cl  0  0
   19.0387  -17.2879    0.0000 Cl  0  0
   19.7610  -18.5198    0.0000 N   0  0
   21.1899  -18.5114    0.0000 C   0  0
   21.9057  -18.9217    0.0000 N   0  0
   21.1874  -17.6864    0.0000 O   0  0
   21.9046  -19.7467    0.0000 C   0  0
   22.6162  -20.1569    0.0000 C   0  0
   23.3313  -18.9198    0.0000 C   0  0
   22.6151  -18.5050    0.0000 C   0  0
   24.0460  -20.1587    0.0000 C   0  0
   24.7608  -19.7467    0.0000 N   0  0
   25.4750  -20.1597    0.0000 C   0  0
   26.1897  -19.7477    0.0000 C   0  0
   26.9039  -20.1607    0.0000 N   0  3
   27.6187  -19.7487    0.0000 C   0  0
   26.9033  -20.9857    0.0000 C   0  0
   26.8958  -19.3333    0.0000 C   0  0
   25.4722  -18.5863    0.0000 F   0  0
   26.1866  -18.1738    0.0000 C   0  0
   26.9011  -18.5863    0.0000 F   0  0
   26.1805  -18.9946    0.0000 F   0  0
   26.1897  -17.3488    0.0000 C   0  0
   26.9057  -16.9390    0.0000 O   0  5
   25.4768  -16.9336    0.0000 O   0  0
 13 16  2  0
 24 25  1  0
  6  7  1  0
 25 26  2  0
 15 14  2  0
 26 27  1  0
 14 11  1  0
 27 28  2  0
  9  8  2  0
 28 29  1  0
  8 10  2  0
 29 30  2  0
 30 25  1  0
 15 16  1  0
 26 31  1  0
 30 32  1  0
 29  8  1  0
 16 17  1  0
  8 33  1  0
 33  7  1  0
  2  3  1  0
  7 34  1  0
 17 18  2  0
 34 35  1  0
  2  7  1  0
 34 36  2  0
 35 37  1  0
 18 19  1  0
  3  4  1  0
 19 20  2  0
 20 15  1  0
 35 40  1  0
 37 38  1  0
 38  1  1  0
  1 39  1  0
 39 40  1  0
  4  5  1  0
  1 41  1  0
 18 21  1  0
 41 42  1  0
 11 12  2  0
 42 43  1  0
 20 22  1  0
 43 44  1  0
  5  6  1  0
 44 45  1  0
 13 23  1  0
 45 46  1  0
 12 13  1  0
 45 47  1  0
 23 24  1  0
 45 48  1  0
 49 50  1  0
 50 52  1  0
 50 53  1  0
 50 51  1  0
 53 54  1  0
 53 55  2  0
M  CHG  2  45   1  54  -1
M  END