
  SciTegic12231509382D

 26 30  0  0  1  0            999 V2000
    3.2542   -2.3542    0.0000 N   0  0
    4.6792   -2.3417    0.0000 C   0  0
    3.2417   -1.5292    0.0000 C   0  0
    4.6792   -1.5125    0.0000 C   0  0
    3.9750   -2.7667    0.0000 C   0  0
    1.8042   -1.5417    0.0000 C   0  0
    3.9542   -1.1042    0.0000 C   0  0
    5.3917   -1.0875    0.0000 C   0  0  1  0  0  0
    1.8125   -2.3792    0.0000 C   0  0
    1.0875   -1.1375    0.0000 N   0  0
    2.5417   -2.7917    0.0000 C   0  0
    6.1167   -1.5000    0.0000 C   0  0
    5.4042   -2.7500    0.0000 C   0  0
    6.1167   -2.3292    0.0000 O   0  0
    1.0917   -2.7917    0.0000 C   0  0
    0.3792   -1.5542    0.0000 C   0  0
    3.9792   -3.5917    0.0000 O   0  0
    6.1042   -0.6667    0.0000 O   0  0
    0.3792   -2.3792    0.0000 C   0  0
    6.8167   -1.0792    0.0000 O   0  0
    5.3792   -0.2625    0.0000 C   0  0
   -0.3375   -1.1417    0.0000 C   0  0
   -0.3375   -2.7917    0.0000 C   0  0
    6.0917    0.1583    0.0000 C   0  0
   -1.0500   -2.3792    0.0000 C   0  0
   -1.0500   -1.5542    0.0000 C   0  0
  2  5  1  0
  3  1  1  0
  4  2  2  0
  5  1  1  0
  6  3  1  0
  7  3  2  0
  8  4  1  0
  9 11  1  0
 10  6  2  0
 11  1  1  0
 12 14  1  0
 13  2  1  0
 14 13  1  0
 15  9  2  0
 16 10  1  0
 17  5  2  0
  8 18  1  6
 19 15  1  0
 20 12  2  0
 21  8  1  0
 22 16  2  0
 23 19  2  0
 24 21  1  0
 25 23  1  0
 26 22  1  0
  9  6  1  0
  7  4  1  0
 19 16  1  0
  8 12  1  0
 25 26  2  0
M  END