
          11280715182D 1   1.00000     0.00000     0

 15 15  0     0  0            999 V2000
    3.8667   -5.4292    0.0000 C   0  0  3  0  0  0           0  0  0
    4.4667   -5.4542    0.0000 C   0  0  0  0  0  0           0  0  0
    6.5250   -7.0667    0.0000 C   0  0  0  0  0  0           0  0  0
    6.2417   -6.5417    0.0000 C   0  0  0  0  0  0           0  0  0
    5.6417   -6.5292    0.0000 C   0  0  0  0  0  0           0  0  0
    4.7542   -5.9792    0.0000 C   0  0  0  0  0  0           0  0  0
    6.2042   -7.5792    0.0000 O   0  0  0  0  0  0           0  0  0
    3.5542   -5.9417    0.0000 F   0  0  0  0  0  0           0  0  0
    3.2667   -5.4292    0.0000 F   0  0  0  0  0  0           0  0  0
    3.5875   -4.9042    0.0000 F   0  0  0  0  0  0           0  0  0
    5.3542   -6.0000    0.0000 C   0  0  0  0  0  0           0  0  0
    7.1250   -7.0875    0.0000 N   0  0  0  0  0  0           0  0  0
    4.7875   -4.9417    0.0000 C   0  0  0  0  0  0           0  0  0
    5.3792   -4.9542    0.0000 C   0  0  0  0  0  0           0  0  0
    5.6667   -5.4875    0.0000 C   0  0  0  0  0  0           0  0  0
  2  1  1  0     0  0
  3  4  1  0     0  0
  4  5  2  0     0  0
  5 11  1  0     0  0
  6  2  1  0     0  0
  7  3  2  0     0  0
  8  1  1  0     0  0
  9  1  1  0     0  0
 10  1  1  0     0  0
 11  6  2  0     0  0
 12  3  1  0     0  0
 13  2  2  0     0  0
 14 13  1  0     0  0
 15 14  2  0     0  0
 15 11  1  0     0  0
M  END