
          11280715502D 1   1.00000     0.00000     0

 20 22  0     0  0            999 V2000
    2.3219  -11.8633    0.0000 C   0  0  0  0  0  0           0  0  0
    0.1785  -13.1008    0.0000 C   0  0  3  0  0  0           0  0  0
    0.8944  -13.5133    0.0000 C   0  0  0  0  0  0           0  0  0
    1.6061  -13.1008    0.0000 C   0  0  0  0  0  0           0  0  0
    1.6061  -12.2758    0.0000 N   0  0  3  0  0  0           0  0  0
    0.8944  -11.8633    0.0000 C   0  0  0  0  0  0           0  0  0
    0.1785  -12.2758    0.0000 C   0  0  0  0  0  0           0  0  0
   -0.5374  -13.5133    0.0000 C   0  0  0  0  0  0           0  0  0
   -1.2491  -13.1008    0.0000 C   0  0  0  0  0  0           0  0  0
   -1.3381  -12.2826    0.0000 C   0  0  0  0  0  0           0  0  0
   -2.1441  -12.1102    0.0000 N   0  0  0  0  0  0           0  0  0
   -2.5566  -12.8219    0.0000 C   0  0  0  0  0  0           0  0  0
   -2.0035  -13.4383    0.0000 N   0  0  0  0  0  0           0  0  0
    3.0361  -12.2764    0.0000 N   0  0  0  0  0  0           0  0  0
    2.3226  -11.0383    0.0000 O   0  0  0  0  0  0           0  0  0
    3.7509  -11.8645    0.0000 C   0  0  0  0  0  0           0  0  0
    4.5042  -12.1983    0.0000 S   0  0  0  0  0  0           0  0  0
    5.0568  -11.5856    0.0000 C   0  0  0  0  0  0           0  0  0
    4.6448  -10.8708    0.0000 C   0  0  0  0  0  0           0  0  0
    3.8378  -11.0417    0.0000 N   0  0  0  0  0  0           0  0  0
  2  3  1  0     0  0
 10 11  1  0     0  0
 11 12  1  0     0  0
 12 13  2  0     0  0
 13  9  1  0     0  0
  5  1  1  0     0  0
  2  7  1  0     0  0
  3  4  1  0     0  0
  1 14  1  0     0  0
  4  5  1  0     0  0
  1 15  2  0     0  0
  5  6  1  0     0  0
 14 16  1  0     0  0
 16 17  1  0     0  0
  6  7  1  0     0  0
  2  8  1  0     0  0
  8  9  1  0     0  0
  9 10  2  0     0  0
 17 18  1  0     0  0
 18 19  2  0     0  0
 19 20  1  0     0  0
 20 16  2  0     0  0
M  END