
          11280714492D 1   1.00000     0.00000     0

 17 18  0     0  0            999 V2000
    5.4667   -7.5667    0.0000 C   0  0  3  0  0  0           0  0  0
    4.4292   -7.5667    0.0000 C   0  0  3  0  0  0           0  0  0
    4.9542   -7.2667    0.0000 C   0  0  3  0  0  0           0  0  0
    6.0500   -7.7167    0.0000 C   0  0  0  0  0  0           0  0  0
    5.6250   -8.1417    0.0000 C   0  0  0  0  0  0           0  0  0
    3.8292   -7.5667    0.0000 C   0  0  0  0  0  0           0  0  0
    4.1292   -8.0875    0.0000 C   0  0  0  0  0  0           0  0  0
    4.9500   -6.6667    0.0000 O   0  0  0  0  0  0           0  0  0
    7.0292   -6.6667    0.0000 N   0  0  0  0  0  0           0  0  0
    7.5500   -6.3667    0.0000 C   0  0  3  0  0  0           0  0  0
    5.4667   -6.3667    0.0000 C   0  0  0  0  0  0           0  0  0
    5.9875   -6.6667    0.0000 C   0  0  3  0  0  0           0  0  0
    6.5042   -6.3667    0.0000 C   0  0  0  0  0  0           0  0  0
    5.9875   -7.2667    0.0000 O   0  0  0  0  0  0           0  0  0
    7.5500   -5.7667    0.0000 C   0  0  0  0  0  0           0  0  0
    8.0625   -6.0667    0.0000 C   0  0  0  0  0  0           0  0  0
    8.0667   -6.6667    0.0000 C   0  0  0  0  0  0           0  0  0
  2  3  1  0     0  0
  3  1  1  0     0  0
  4  1  1  0     0  0
  5  1  1  0     0  0
  6  2  1  0     0  0
  7  2  1  0     0  0
  8  3  1  0     0  0
  9 13  1  0     0  0
 10  9  1  0     0  0
 11  8  1  0     0  0
 12 11  1  0     0  0
 13 12  1  0     0  0
 14 12  1  0     0  0
 15 10  1  0     0  0
 16 10  1  0     0  0
 17 10  1  0     0  0
  5  4  1  0     0  0
  6  7  1  0     0  0
M  END