
  SciTegic05071316162D

 19 20  0  0  0  0            999 V2000
   19.2397  -18.6179    0.0000 C   0  0
   19.2386  -19.4374    0.0000 C   0  0
   19.9466  -19.8464    0.0000 C   0  0
   20.6563  -19.4370    0.0000 C   0  0
   20.6535  -18.6143    0.0000 C   0  0
   19.9448  -18.2090    0.0000 C   0  0
   18.5319  -18.2095    0.0000 C   0  0  1  0  0  0
   17.8243  -18.6182    0.0000 C   0  0
   17.1165  -18.2098    0.0000 C   0  0
   16.4089  -18.6186    0.0000 N   0  0
   15.6629  -18.2824    0.0000 N   0  0
   15.1162  -18.8899    0.0000 C   0  0
   15.5250  -19.5975    0.0000 N   0  0
   16.3243  -19.4273    0.0000 C   0  0
   18.5317  -17.3923    0.0000 C   0  0
   19.2393  -16.9835    0.0000 C   0  0
   19.9471  -17.3919    0.0000 C   0  0
   20.6547  -16.9832    0.0000 C   0  0
   21.3646  -19.8444    0.0000 Cl  0  0
  1  2  2  0
  2  3  1  0
  3  4  2  0
  4  5  1  0
  5  6  2  0
  6  1  1  0
  1  7  1  0
  7  8  1  0
  8  9  1  0
  9 10  1  0
 10 11  1  0
 11 12  2  0
 12 13  1  0
 13 14  2  0
 14 10  1  0
  7 15  1  1
 15 16  1  0
 16 17  1  0
 17 18  1  0
  4 19  1  0
M  END