
  SciTegic08261113352D

 18 19  0  0  0  0            999 V2000
    5.9736   -4.2841    0.0000 N   0  0
    6.7703   -4.0296    0.0000 C   0  0
    7.1499   -6.1446    0.0000 C   0  0
    6.4992   -5.6232    0.0000 C   0  0
    5.8484   -5.1101    0.0000 C   0  0  1  0  0  0
    7.6755   -7.4753    0.0000 N   0  0
    7.3835   -4.5845    0.0000 O   0  0
    7.8007   -6.6576    0.0000 C   0  0
    5.4062   -3.6834    0.0000 C   0  0
    6.9455   -3.2287    0.0000 C   0  0
    8.2595   -8.0509    0.0000 C   0  0
    6.9497   -7.8507    0.0000 C   0  0
    5.1351   -5.5230    0.0000 C   0  0
    4.5928   -3.7543    0.0000 C   0  0
    7.0873   -8.6642    0.0000 C   0  0
    7.8841   -8.7768    0.0000 C   0  0
    4.3592   -5.2227    0.0000 C   0  0
    4.1172   -4.4426    0.0000 C   0  0
  2  1  1  0
  3  4  3  0
  5  4  1  1
  5  1  1  0
  6  8  1  0
  7  2  2  0
  8  3  1  0
  9  1  1  0
 10  2  1  0
 11  6  1  0
 12  6  1  0
 13  5  1  0
 14  9  1  0
 15 12  1  0
 16 11  1  0
 17 13  1  0
 18 14  1  0
 17 18  1  0
 15 16  1  0
M  END