
  SciTegic01161211262D

 23 24  0  0  0  0            999 V2000
    3.6337   -3.6044    0.0000 O   0  0
    2.5952   -3.0030    0.0000 C   0  0
    1.2947   -3.7520    0.0000 N   0  0
    1.2922   -5.2528    0.0000 C   0  0
   -0.0083   -6.0019    0.0000 C   0  0
   -0.1508   -7.4823    0.0000 N   0  0
   -1.6189   -7.7897    0.0000 C   0  0
   -2.3649   -6.4883    0.0000 C   0  0
   -1.3578   -5.3767    0.0000 N   0  0
    2.5977   -1.5021    0.0000 C   0  0
    1.2990   -0.7500    0.0000 C   0  0
    1.2990    0.7500    0.0000 C   0  0
    0.0000    1.5000    0.0000 C   0  0
   -1.2990    0.7500    0.0000 C   0  0
   -1.2990   -0.7500    0.0000 C   0  0
    0.0000   -1.5000    0.0000 C   0  0
    3.8983   -0.7531    0.0000 C   0  0
    3.9029    0.7470    0.0000 C   0  0
    5.2043    1.4930    0.0000 C   0  0
    6.5010    0.7390    0.0000 C   0  0
    6.4964   -0.7610    0.0000 C   0  0
    5.1951   -1.5070    0.0000 C   0  0
    9.0010   -3.1448    0.0000 Cl  0  0
  1  2  2  0
  2  3  1  0
  3  4  1  0
  4  5  1  0
  5  6  2  0
  6  7  1  0
  7  8  1  0
  8  9  1  0
  9  5  1  0
  2 10  1  0
 10 11  1  0
 11 12  1  0
 12 13  1  0
 13 14  1  0
 14 15  1  0
 15 16  1  0
 16 11  1  0
 10 17  1  0
 17 18  2  0
 18 19  1  0
 19 20  2  0
 20 21  1  0
 21 22  2  0
 22 17  1  0
M  END