
  Mrv0541 05211314572D          

 19 19  0  0  0  0            999 V2000
    0.8138    0.9129    0.0000 C   0  0  0  0  0  0  0  0  0  0  0  0
    0.0994    0.5004    0.0000 N   0  0  0  0  0  0  0  0  0  0  0  0
   -0.6151    0.9129    0.0000 C   0  0  0  0  0  0  0  0  0  0  0  0
   -0.6151    1.7379    0.0000 C   0  0  0  0  0  0  0  0  0  0  0  0
    0.0994    2.1504    0.0000 N   0  0  0  0  0  0  0  0  0  0  0  0
    0.8138    1.7379    0.0000 C   0  0  0  0  0  0  0  0  0  0  0  0
    0.0994   -0.3246    0.0000 C   0  0  0  0  0  0  0  0  0  0  0  0
   -0.5681   -0.8096    0.0000 S   0  0  0  0  0  0  0  0  0  0  0  0
   -0.3131   -1.5942    0.0000 C   0  0  0  0  0  0  0  0  0  0  0  0
    0.5119   -1.5942    0.0000 C   0  0  0  0  0  0  0  0  0  0  0  0
    0.7668   -0.8096    0.0000 N   0  0  0  0  0  0  0  0  0  0  0  0
   -0.7981   -2.2616    0.0000 C   0  0  0  0  0  0  0  0  0  0  0  0
   -0.4625   -3.0153    0.0000 C   0  0  0  0  0  0  0  0  0  0  0  0
   -0.9474   -3.6827    0.0000 N   0  0  0  0  0  0  0  0  0  0  0  0
   -0.6119   -4.4364    0.0000 C   0  0  0  0  0  0  0  0  0  0  0  0
    0.0994    2.9754    0.0000 C   0  0  0  0  0  0  0  0  0  0  0  0
    0.8138    3.3879    0.0000 C   0  0  0  0  0  0  0  0  0  0  0  0
    0.8138    4.2129    0.0000 C   0  0  0  0  0  0  0  0  0  0  0  0
    3.0531    0.0000    0.0000 Br  0  0  0  0  0  0  0  0  0  0  0  0
  2  3  1  0  0  0  0
  3  4  1  0  0  0  0
  8  9  1  0  0  0  0
  9 10  2  0  0  0  0
 10 11  1  0  0  0  0
 11  7  2  0  0  0  0
  4  5  1  0  0  0  0
  9 12  1  0  0  0  0
  5  6  1  0  0  0  0
 12 13  1  0  0  0  0
 13 14  1  0  0  0  0
  2  7  1  0  0  0  0
 14 15  1  0  0  0  0
  7  8  1  0  0  0  0
  5 16  1  0  0  0  0
  1  2  1  0  0  0  0
 16 17  1  0  0  0  0
  1  6  1  0  0  0  0
 17 18  1  0  0  0  0
M  END