
  SciTegic01161211262D

 24 24  0  0  0  0            999 V2000
    6.4855   -9.4648    0.0000 C   0  0
    6.4868   -8.2648    0.0000 C   0  0
    5.1884   -7.5121    0.0000 N   0  0
    3.8860   -8.2579    0.0000 C   0  0
    2.8485   -7.6550    0.0000 C   0  0
    5.1901   -6.0113    0.0000 C   0  0
    3.8917   -5.2586    0.0000 C   0  0
    3.8934   -3.7577    0.0000 N   0  0
    2.5949   -3.0050    0.0000 C   0  0
    1.5548   -3.6035    0.0000 O   0  0
    2.5966   -1.5042    0.0000 C   0  0
    1.2990   -0.7500    0.0000 C   0  0
    1.2990    0.7500    0.0000 C   0  0
    0.0000    1.5000    0.0000 C   0  0
   -1.2990    0.7500    0.0000 C   0  0
   -1.2990   -0.7500    0.0000 C   0  0
    0.0000   -1.5000    0.0000 C   0  0
    3.8990   -0.7582    0.0000 C   0  0
    3.9042    0.7419    0.0000 C   0  0
    5.2058    1.4875    0.0000 C   0  0
    6.5023    0.7331    0.0000 C   0  0
    6.4972   -0.7669    0.0000 C   0  0
    5.1956   -1.5125    0.0000 C   0  0
    9.0023   -4.1328    0.0000 Cl  0  0
  1  2  1  0
  2  3  1  0
  3  4  1  0
  4  5  1  0
  3  6  1  0
  6  7  1  0
  7  8  1  0
  8  9  1  0
  9 10  2  0
  9 11  1  0
 11 12  1  0
 12 13  1  0
 13 14  1  0
 14 15  1  0
 15 16  1  0
 16 17  1  0
 17 12  1  0
 11 18  1  0
 18 19  2  0
 19 20  1  0
 20 21  2  0
 21 22  1  0
 22 23  2  0
 23 18  1  0
M  END