
  SciTegic09081514192D

 20 20  0  0  0  0            999 V2000
    2.5951   -3.0039    0.0000 C   0  0  2  0  0  0
    3.8933   -3.7570    0.0000 C   0  0  2  0  0  0
    2.5973   -1.5031    0.0000 C   0  0
    1.5548   -3.6021    0.0000 N   0  0
    4.9336   -3.1588    0.0000 O   0  0
    3.8912   -5.2578    0.0000 C   0  0
    5.1894   -6.0109    0.0000 C   0  0
    5.1873   -7.5117    0.0000 C   0  0
    6.4855   -8.2648    0.0000 C   0  0
    6.4833   -9.7656    0.0000 C   0  0
    7.7815  -10.5187    0.0000 C   0  0
    7.7794  -12.0195    0.0000 C   0  0
    9.0776  -12.7726    0.0000 C   0  0
    9.0759  -13.9726    0.0000 C   0  0
    1.2990   -0.7500    0.0000 C   0  0
    1.2990    0.7500    0.0000 C   0  0
    0.0000    1.5000    0.0000 C   0  0
   -1.2990    0.7500    0.0000 C   0  0
   -1.2990   -0.7500    0.0000 C   0  0
    0.0000   -1.5000    0.0000 C   0  0
  1  2  1  0
  1  3  1  0
  1  4  1  1
  2  5  1  6
  2  6  1  0
  6  7  1  0
  7  8  1  0
  8  9  1  0
  9 10  1  0
 10 11  1  0
 11 12  1  0
 12 13  1  0
 13 14  1  0
  3 15  1  0
 15 16  2  0
 16 17  1  0
 17 18  2  0
 18 19  1  0
 19 20  2  0
 20 15  1  0
M  END