
          11280714452D 1   1.00000     0.00000     0

 32 35  0     0  0            999 V2000
    8.9792   -2.8667    0.0000 C   0  0  0  0  0  0           0  0  0
    8.2667   -3.2792    0.0000 C   0  0  0  0  0  0           0  0  0
    7.5542   -2.8667    0.0000 C   0  0  0  0  0  0           0  0  0
    9.7000   -3.2792    0.0000 C   0  0  0  0  0  0           0  0  0
    0.4250   -2.0542    0.0000 N   0  0  0  0  0  0           0  0  0
    6.8375   -3.2792    0.0000 C   0  0  0  0  0  0           0  0  0
    6.1250   -2.8667    0.0000 C   0  0  0  0  0  0           0  0  0
   -0.2958   -1.6417    0.0000 C   0  0  0  0  0  0           0  0  0
    5.4042   -3.2792    0.0000 C   0  0  0  0  0  0           0  0  0
    1.8417   -2.0500    0.0000 C   0  0  0  0  0  0           0  0  0
    2.5542   -1.6292    0.0000 C   0  0  0  0  0  0           0  0  0
    1.1292   -1.6375    0.0000 C   0  0  0  0  0  0           0  0  0
   10.4125   -2.8667    0.0000 O   0  0  0  0  0  0           0  0  0
    6.8375   -4.1042    0.0000 O   0  0  0  0  0  0           0  0  0
   -0.2958   -0.8167    0.0000 C   0  0  0  0  0  0           0  0  0
    8.2667   -4.1042    0.0000 O   0  0  0  0  0  0           0  0  0
    0.4167   -0.4042    0.0000 C   0  0  0  0  0  0           0  0  0
    4.6917   -2.8667    0.0000 C   0  0  0  0  0  0           0  0  0
    3.2750   -2.0417    0.0000 C   0  0  0  0  0  0           0  0  0
    9.7000   -4.1042    0.0000 O   0  0  0  0  0  0           0  0  0
    8.9792   -2.0417    0.0000 C   0  0  0  0  0  0           0  0  0
    1.1292   -0.8125    0.0000 C   0  0  0  0  0  0           0  0  0
    7.5542   -2.0417    0.0000 C   0  0  0  0  0  0           0  0  0
    3.9875   -3.2792    0.0000 C   0  0  0  0  0  0           0  0  0
    4.7000   -2.0417    0.0000 C   0  0  0  0  0  0           0  0  0
    3.2750   -2.8667    0.0000 C   0  0  0  0  0  0           0  0  0
    3.9875   -1.6292    0.0000 C   0  0  0  0  0  0           0  0  0
    8.2667   -1.6292    0.0000 C   0  0  0  0  0  0           0  0  0
   -1.0000   -2.0625    0.0000 C   0  0  0  0  0  0           0  0  0
   -1.0125   -0.4042    0.0000 C   0  0  0  0  0  0           0  0  0
   -1.7208   -1.6542    0.0000 C   0  0  0  0  0  0           0  0  0
   -1.7333   -0.8250    0.0000 C   0  0  0  0  0  0           0  0  0
  2  1  2  0     0  0
  3  2  1  0     0  0
  4  1  1  0     0  0
  5 12  1  0     0  0
  6  3  1  0     0  0
  7  6  1  0     0  0
  8  5  2  0     0  0
  9  7  2  0     0  0
 10 11  2  0     0  0
 11 19  1  0     0  0
 12 10  1  0     0  0
 13  4  2  0     0  0
 14  6  2  0     0  0
 15 17  2  0     0  0
 16  2  1  0     0  0
 17 22  1  0     0  0
 18  9  1  0     0  0
 19 27  2  0     0  0
 20  4  1  0     0  0
 21  1  1  0     0  0
 22 12  2  0     0  0
 23 28  1  0     0  0
 24 18  1  0     0  0
 25 18  2  0     0  0
 26 24  2  0     0  0
 27 25  1  0     0  0
 28 21  2  0     0  0
 29  8  1  0     0  0
 30 15  1  0     0  0
 31 29  2  0     0  0
 32 30  2  0     0  0
 23  3  2  0     0  0
 19 26  1  0     0  0
 15  8  1  0     0  0
 32 31  1  0     0  0
M  END