
  Symyx   11300911332D 1   1.00000     0.00000     0

136141  0     0  0            999 V2000
   -4.3021   -0.3873    0.0000 C   0  0  2  0  0  0           0  0  0
   -3.5852   -1.6225    0.0000 O   0  0  0  0  0  0           0  0  0
   -3.5852   -0.8005    0.0000 C   0  0  0  0  0  0           0  0  0
   -4.3021    0.4389    0.0000 C   0  0  0  0  0  0           0  0  0
   -3.5812    0.8568    0.0000 C   0  0  0  0  0  0           0  0  0
   -3.5812    1.6743    0.0000 C   0  0  0  0  0  0           0  0  0
   -2.8646    2.0911    0.0000 O   0  0  0  0  0  0           0  0  0
   -0.7162   -4.0729    0.0000 C   0  0  0  0  0  0           0  0  0
   -2.1560   -0.8031    0.0000 C   0  0  2  0  0  0           0  0  0
   -1.4454    0.4260    0.0000 O   0  0  0  0  0  0           0  0  0
   -1.4454   -0.3931    0.0000 C   0  0  0  0  0  0           0  0  0
   -2.1560   -1.6335    0.0000 C   0  0  0  0  0  0           0  0  0
   -1.4481   -2.0442    0.0000 C   0  0  0  0  0  0           0  0  0
   -1.4481   -2.8750    0.0000 C   0  0  0  0  0  0           0  0  0
    0.0178   -0.3968    0.0000 C   0  0  2  0  0  0           0  0  0
    0.7344   -1.6436    0.0000 O   0  0  0  0  0  0           0  0  0
    0.7344   -0.8116    0.0000 C   0  0  0  0  0  0           0  0  0
    0.0178    0.4242    0.0000 C   0  0  0  0  0  0           0  0  0
    0.7432    1.6516    0.0000 C   0  0  0  0  0  0           0  0  0
    0.7347    0.8371    0.0000 C   0  0  0  0  0  0           0  0  0
    1.4534    0.4147    0.0000 C   0  0  0  0  0  0           0  0  0
    2.1722    0.8250    0.0000 C   0  0  0  0  0  0           0  0  0
    2.1713    1.6497    0.0000 C   0  0  0  0  0  0           0  0  0
    1.4621    2.0641    0.0000 C   0  0  0  0  0  0           0  0  0
    2.1385   -0.8079    0.0000 C   0  0  1  0  0  0           0  0  0
    2.8479    0.4214    0.0000 O   0  0  0  0  0  0           0  0  0
    2.1385   -1.6402    0.0000 C   0  0  3  0  0  0           0  0  0
    2.8479   -0.3987    0.0000 C   0  0  0  0  0  0           0  0  0
    4.2867   -0.3986    0.0000 C   0  0  2  0  0  0           0  0  0
    5.0061   -1.6503    0.0000 O   0  0  0  0  0  0           0  0  0
    5.0061   -0.8179    0.0000 C   0  0  0  0  0  0           0  0  0
    4.2867    0.4174    0.0000 C   0  0  1  0  0  0           0  0  0
    3.5749    0.8245    0.0000 C   0  0  0  0  0  0           0  0  0
    6.4271   -0.8097    0.0000 C   0  0  0  0  0  0           0  0  0
    7.1324    0.4174    0.0000 O   0  0  0  0  0  0           0  0  0
    7.1324   -0.4028    0.0000 C   0  0  0  0  0  0           0  0  0
    8.5645   -0.4048    0.0000 C   0  0  2  0  0  0           0  0  0
    9.2839   -1.6503    0.0000 O   0  0  0  0  0  0           0  0  0
    9.2839   -0.8179    0.0000 C   0  0  0  0  0  0           0  0  0
    8.5645    0.4112    0.0000 C   0  0  0  0  0  0           0  0  0
   10.1851    1.8115    0.0000 C   0  0  0  0  0  0           0  0  0
   10.5976    1.0927    0.0000 N   0  0  0  0  0  0           0  0  0
   10.0388    0.4832    0.0000 C   0  0  0  0  0  0           0  0  0
    9.2839    0.8305    0.0000 C   0  0  0  0  0  0           0  0  0
   10.7035   -0.8239    0.0000 C   0  0  2  0  0  0           0  0  0
   11.4150    0.3991    0.0000 O   0  0  0  0  0  0           0  0  0
   11.4150   -0.4169    0.0000 C   0  0  0  0  0  0           0  0  0
   10.7035   -1.6625    0.0000 C   0  0  0  0  0  0           0  0  0
   12.8528   -0.4094    0.0000 C   0  0  0  0  0  0           0  0  0
   13.5722   -1.6570    0.0000 O   0  0  0  0  0  0           0  0  0
   13.5722   -0.8246    0.0000 C   0  0  0  0  0  0           0  0  0
   14.9951   -0.8270    0.0000 C   0  0  0  0  0  0           0  0  0
   15.7005    0.4022    0.0000 O   0  0  0  0  0  0           0  0  0
   15.7005   -0.4180    0.0000 C   0  0  0  0  0  0           0  0  0
   17.1303   -0.4056    0.0000 C   0  0  2  0  0  0           0  0  0
   17.8538   -1.6574    0.0000 O   0  0  0  0  0  0           0  0  0
   17.8538   -0.8250    0.0000 C   0  0  0  0  0  0           0  0  0
   17.1303    0.4082    0.0000 C   0  0  0  0  0  0           0  0  0
   17.8538    0.8276    0.0000 C   0  0  3  0  0  0           0  0  0
   17.8538    1.6436    0.0000 C   0  0  0  0  0  0           0  0  0
   18.5732    0.4082    0.0000 C   0  0  0  0  0  0           0  0  0
   19.2848   -0.8254    0.0000 C   0  0  2  0  0  0           0  0  0
   18.5694   -2.0689    0.0000 O   0  0  0  0  0  0           0  0  0
   19.2848   -1.6578    0.0000 C   0  0  0  0  0  0           0  0  0
   19.9901   -0.4122    0.0000 C   0  0  0  0  0  0           0  0  0
   20.7175    0.8099    0.0000 C   0  0  0  0  0  0           0  0  0
   19.9901    0.4038    0.0000 C   0  0  0  0  0  0           0  0  0
   19.2894    0.8160    0.0000 C   0  0  0  0  0  0           0  0  0
   19.2947    1.6407    0.0000 C   0  0  0  0  0  0           0  0  0
   20.0122    2.0531    0.0000 C   0  0  0  0  0  0           0  0  0
   20.7208    1.6346    0.0000 C   0  0  0  0  0  0           0  0  0
   20.0003   -2.0689    0.0000 N   0  0  3  0  0  0           0  0  0
   20.0889   -2.8898    0.0000 C   0  0  2  0  0  0           0  0  0
   18.6902   -3.1918    0.0000 O   0  0  0  0  0  0           0  0  0
   19.4768   -3.4394    0.0000 C   0  0  0  0  0  0           0  0  0
   20.8979   -3.0586    0.0000 C   0  0  0  0  0  0           0  0  0
   20.7577   -1.7349    0.0000 C   0  0  0  0  0  0           0  0  0
   21.3081   -2.3509    0.0000 C   0  0  0  0  0  0           0  0  0
   19.0592   -4.8243    0.0000 C   0  0  2  0  0  0           0  0  0
   20.0717   -5.8346    0.0000 O   0  0  0  0  0  0           0  0  0
   19.2763   -5.6239    0.0000 C   0  0  0  0  0  0           0  0  0
   18.2660   -4.6137    0.0000 C   0  0  0  0  0  0           0  0  0
   18.9109   -7.0060    0.0000 C   0  0  2  0  0  0           0  0  0
   17.5245   -7.3822    0.0000 O   0  0  0  0  0  0           0  0  0
   18.3283   -7.5928    0.0000 C   0  0  0  0  0  0           0  0  0
   19.7043   -7.2230    0.0000 C   0  0  0  0  0  0           0  0  0
   19.9212   -8.0163    0.0000 C   0  0  0  0  0  0           0  0  0
   20.7146   -8.2333    0.0000 O   0  0  0  0  0  0           0  0  0
   17.9499   -8.9735    0.0000 C   0  0  0  0  0  0           0  0  0
   18.9602   -9.9901    0.0000 O   0  0  0  0  0  0           0  0  0
   18.1605   -9.7731    0.0000 C   0  0  0  0  0  0           0  0  0
   17.5779  -10.3599    0.0000 N   0  0  3  0  0  0           0  0  0
   16.7630  -10.2295    0.0000 C   0  0  2  0  0  0           0  0  0
   16.7962   -8.7792    0.0000 O   0  0  0  0  0  0           0  0  0
   16.3851   -9.4948    0.0000 C   0  0  0  0  0  0           0  0  0
   16.3859  -10.9685    0.0000 C   0  0  0  0  0  0           0  0  0
   17.7051  -11.1765    0.0000 C   0  0  0  0  0  0           0  0  0
   16.9671  -11.5496    0.0000 C   0  0  0  0  0  0           0  0  0
    2.9648   -1.6458    0.0000 C   0  0  0  0  0  0           0  0  0
    1.3121   -1.6456    0.0000 C   0  0  0  0  0  0           0  0  0
   11.4157   -2.0737    0.0000 C   0  0  0  0  0  0           0  0  0
   11.4110   -2.8961    0.0000 C   0  0  0  0  0  0           0  0  0
   12.1192   -3.3072    0.0000 C   0  0  0  0  0  0           0  0  0
   12.8337   -2.8996    0.0000 C   0  0  0  0  0  0           0  0  0
   12.8357   -2.0762    0.0000 C   0  0  0  0  0  0           0  0  0
   12.1231   -1.6605    0.0000 C   0  0  0  0  0  0           0  0  0
   13.5444   -3.3135    0.0000 N   0  0  0  0  0  0           0  0  0
   13.5413   -4.1359    0.0000 C   0  0  0  0  0  0           0  0  0
   14.2519   -4.5497    0.0000 C   0  0  0  0  0  0           0  0  0
   12.8275   -4.5443    0.0000 O   0  0  0  0  0  0           0  0  0
   -5.0197   -0.7928    0.0000 N   0  0  0  0  0  0           0  0  0
   -4.2911    2.0955    0.0000 N   0  0  0  0  0  0           0  0  0
   -0.7122   -3.2479    0.0000 N   0  0  0  0  0  0           0  0  0
   -1.4356   -4.4623    0.0000 N   0  0  0  0  0  0           0  0  0
   -0.0083   -4.4695    0.0000 N   0  0  0  0  0  0           0  0  0
   -2.8698   -0.3895    0.0000 N   0  0  0  0  0  0           0  0  0
   -0.7148   -0.7763    0.0000 N   0  0  0  0  0  0           0  0  0
    1.4353   -0.3765    0.0000 N   0  0  0  0  0  0           0  0  0
    3.5673   -0.8026    0.0000 N   0  0  0  0  0  0           0  0  0
    5.0085    0.8451    0.0000 O   0  0  0  0  0  0           0  0  0
    5.7142   -0.3945    0.0000 N   0  0  0  0  0  0           0  0  0
    7.8478   -0.8135    0.0000 N   0  0  0  0  0  0           0  0  0
    9.3760    1.6504    0.0000 N   0  0  0  0  0  0           0  0  0
    9.9955   -0.4004    0.0000 N   0  0  0  0  0  0           0  0  0
   12.1361   -0.8178    0.0000 N   0  0  0  0  0  0           0  0  0
   14.2844   -0.4081    0.0000 N   0  0  0  0  0  0           0  0  0
   16.4190   -0.8235    0.0000 N   0  0  0  0  0  0           0  0  0
   18.5694   -0.4144    0.0000 N   0  0  0  0  0  0           0  0  0
   20.0162    2.8753    0.0000 O   0  0  0  0  0  0           0  0  0
   19.6481   -4.2465    0.0000 N   0  0  0  0  0  0           0  0  0
   17.6841   -5.2003    0.0000 S   0  0  0  0  0  0           0  0  0
   18.6953   -6.2097    0.0000 N   0  0  0  0  0  0           0  0  0
   19.3323   -8.6028    0.0000 N   0  0  0  0  0  0           0  0  0
   18.5347   -8.3916    0.0000 N   0  0  0  0  0  0           0  0  0
   15.5579   -9.4942    0.0000 O   0  0  0  0  0  0           0  0  0
    2.1316   -2.4659    0.0000 S   0  0  0  0  0  0           0  0  0
 15 17  1  0     0  0
 17 16  2  0     0  0
 15 18  1  1     0  0
 18 20  1  0     0  0
 19 20  2  0     0  0
 20 21  1  0     0  0
 21 22  2  0     0  0
 22 23  1  0     0  0
 23 24  2  0     0  0
 24 19  1  0     0  0
 25 28  1  0     0  0
 28 26  2  0     0  0
 25 27  1  6     0  0
 29 31  1  0     0  0
 31 30  2  0     0  0
 29 32  1  0     0  0
 32 33  1  0     0  0
 34 36  1  0     0  0
 36 35  2  0     0  0
 37 39  1  0     0  0
 39 38  2  0     0  0
 37 40  1  1     0  0
 40 44  1  0     0  0
 41 42  2  0     0  0
 42 43  1  0     0  0
 43 44  2  0     0  0
 45 47  1  0     0  0
 47 46  2  0     0  0
 45 48  1  6     0  0
 49 51  1  0     0  0
 51 50  2  0     0  0
 52 54  1  0     0  0
 54 53  2  0     0  0
 55 57  1  0     0  0
 57 56  2  0     0  0
 55 58  1  1     0  0
 58 59  1  0     0  0
 59 60  1  0     0  0
 59 61  1  0     0  0
 62 64  1  0     0  0
 64 63  2  0     0  0
 62 65  1  1     0  0
 65 67  1  0     0  0
 66 67  2  0     0  0
 67 68  1  0     0  0
 68 69  2  0     0  0
 69 70  1  0     0  0
 70 71  2  0     0  0
 71 66  1  0     0  0
 72 73  1  0     0  0
 73 75  1  1     0  0
 75 74  2  0     0  0
 73 76  1  0     0  0
 77 78  1  0     0  0
 78 76  1  0     0  0
 77 72  1  0     0  0
 79 81  1  0     0  0
 81 80  2  0     0  0
 79 82  1  6     0  0
 83 85  1  0     0  0
 85 84  2  0     0  0
 83 86  1  1     0  0
 86 87  1  0     0  0
 87 88  2  0     0  0
 89 91  1  0     0  0
 91 90  2  0     0  0
 92 93  1  0     0  0
 93 95  1  1     0  0
 95 94  2  0     0  0
 93 96  1  0     0  0
 97 98  1  0     0  0
 98 96  1  0     0  0
 97 92  1  0     0  0
 27 99  1  0     0  0
 27100  1  0     0  0
 48101  1  0     0  0
101102  1  0     0  0
101106  2  0     0  0
102103  2  0     0  0
103104  1  0     0  0
104105  2  0     0  0
105106  1  0     0  0
104107  1  0     0  0
107108  1  0     0  0
108109  1  0     0  0
108110  2  0     0  0
 64 72  1  0     0  0
 91 92  1  0     0  0
  1  3  1  0     0  0
  3  2  2  0     0  0
  1  4  1  1     0  0
  4  5  1  0     0  0
  5  6  1  0     0  0
  6  7  2  0     0  0
  9 11  1  0     0  0
 11 10  2  0     0  0
  9 12  1  6     0  0
 12 13  1  0     0  0
 13 14  1  0     0  0
123 41  1  0     0  0
 44123  1  0     0  0
113  8  1  0     0  0
 14113  1  0     0  0
124 45  1  0     0  0
 39124  1  0     0  0
117 15  1  0     0  0
 11117  1  0     0  0
125 49  1  0     0  0
 47125  1  0     0  0
126 52  1  0     0  0
 51126  1  0     0  0
118 25  1  0     0  0
 17118  1  0     0  0
127 55  1  0     0  0
 54127  1  0     0  0
  8114  1  0     0  0
128 62  1  0     0  0
 57128  1  0     0  0
 29119  1  1     0  0
 28119  1  0     0  0
 70129  1  0     0  0
  6112  1  0     0  0
130 79  1  0     0  0
 75130  1  0     0  0
 32120  1  1     0  0
 82131  1  0     0  0
  8115  2  0     0  0
132 83  1  0     0  0
 81132  1  0     0  0
121 34  1  0     0  0
 31121  1  0     0  0
 87133  1  0     0  0
111  1  1  0     0  0
134 89  1  0     0  0
 85134  1  0     0  0
122 37  1  0     0  0
 36122  1  0     0  0
 95135  1  0     0  0
  3116  1  0     0  0
116  9  1  0     0  0
 27136  1  0     0  0
M  END