
  SciTegic12191611322D

 26 29  0  0  0  0            999 V2000
   -1.2832   -0.5719    0.0000 C   0  0
   -0.3208    0.5719    0.0000 C   0  0
    1.0601    0.0139    0.0000 C   0  0
    0.9903   -1.4367    0.0000 C   0  0
   -0.4742   -1.8412    0.0000 C   0  0
   -7.7846   -2.1538    0.0000 O   0  0
   -6.8949   -2.9591    0.0000 S   0  0
   -6.6425   -1.7859    0.0000 O   0  0
   -3.2500    0.8648    0.0000 N   0  0
   -3.7242   -0.5719    0.0000 N   0  0
   -2.5107   -1.4646    0.0000 C   0  0
   -1.7435    0.8508    0.0000 C   0  0
   -5.1501   -1.0315    0.0000 C   0  0
   -5.4665   -2.4986    0.0000 N   0  0
   -7.2113   -4.4262    0.0000 C   0  0
   -6.0871   -5.4468    0.0000 C   0  0
   -8.9730   -6.3584    0.0000 C   0  0
   -8.6382   -4.8760    0.0000 C   0  0
   -6.2649   -0.0266    0.0000 N   0  0
   -7.6928   -0.4886    0.0000 C   0  0
   -8.5841    0.3148    0.0000 C   0  0
   -7.8530   -7.3621    0.0000 C   0  0
   -6.4274   -6.9118    0.0000 C   0  0
   -5.5644   -8.1306    0.0000 C   0  0
   -6.4309   -9.3220    0.0000 C   0  0
   -7.8593   -8.8555    0.0000 N   0  0
  1  2  1  0
  2  3  1  0
  3  4  1  0
  4  5  1  0
  5  1  1  0
  7  6  2  0
  8  7  2  0
  9 10  1  0
 10 11  1  0
 11  1  1  0
  1 12  1  0
 12  9  2  0
 10 13  1  0
 13 14  2  0
 14  7  1  0
  7 15  1  0
 15 16  2  0
 16 23  1  0
 22 17  1  0
 17 18  2  0
 18 15  1  0
 13 19  1  0
 19 20  1  0
 20 21  1  0
 22 23  2  0
 23 24  1  0
 24 25  2  0
 25 26  1  0
 26 22  1  0
M  END