
          11280715322D 1   1.00000     0.00000     0

 33 36  0     0  0            999 V2000
    3.8792   -3.0542    0.0000 N   0  0  3  0  0  0           0  0  0
    3.5250   -2.3167    0.0000 C   0  0  0  0  0  0           0  0  0
    8.4167   -2.3167    0.0000 S   0  0  3  0  0  0           0  0  0
    4.7042   -3.0500    0.0000 C   0  0  0  0  0  0           0  0  0
    2.0792   -2.6417    0.0000 O   0  0  0  0  0  0           0  0  0
    3.5250   -3.8000    0.0000 C   0  0  0  0  0  0           0  0  0
    2.7250   -2.1292    0.0000 C   0  0  0  0  0  0           0  0  0
    2.7167   -3.9792    0.0000 C   0  0  0  0  0  0           0  0  0
    8.8375   -3.0375    0.0000 C   0  0  0  0  0  0           0  0  0
    2.0792   -3.4667    0.0000 C   0  0  0  0  0  0           0  0  0
    5.1167   -2.3292    0.0000 N   0  0  0  0  0  0           0  0  0
    4.0792   -1.7167    0.0000 C   0  0  0  0  0  0           0  0  0
    9.6625   -3.0292    0.0000 C   0  0  0  0  0  0           0  0  0
    6.3542   -1.6167    0.0000 C   0  0  0  0  0  0           0  0  0
    7.1792   -1.6125    0.0000 C   0  0  0  0  0  0           0  0  0
    5.9417   -2.3292    0.0000 N   0  0  0  0  0  0           0  0  0
   10.1417   -2.3667    0.0000 O   0  0  0  0  0  0           0  0  0
    8.2042   -1.5167    0.0000 O   0  0  0  0  0  0           0  0  0
    9.1292   -1.9042    0.0000 O   0  0  0  0  0  0           0  0  0
    5.1250   -3.7625    0.0000 O   0  0  0  0  0  0           0  0  0
    7.5917   -2.3250    0.0000 C   0  0  0  0  0  0           0  0  0
   10.1417   -3.7000    0.0000 C   0  0  0  0  0  0           0  0  0
   10.9250   -2.6167    0.0000 C   0  0  0  0  0  0           0  0  0
    2.4792   -1.3500    0.0000 C   0  0  0  0  0  0           0  0  0
   10.9292   -3.4417    0.0000 C   0  0  0  0  0  0           0  0  0
    5.9417   -0.9000    0.0000 O   0  0  0  0  0  0           0  0  0
    3.8417   -0.9292    0.0000 C   0  0  0  0  0  0           0  0  0
    3.0417   -0.7500    0.0000 C   0  0  0  0  0  0           0  0  0
    4.4042   -0.3292    0.0000 Cl  0  0  0  0  0  0           0  0  0
    2.6042   -4.7917    0.0000 C   0  0  0  0  0  0           0  0  0
    1.3167   -3.7667    0.0000 C   0  0  0  0  0  0           0  0  0
    1.8375   -5.0917    0.0000 C   0  0  0  0  0  0           0  0  0
    1.1917   -4.5792    0.0000 C   0  0  0  0  0  0           0  0  0
  2  1  1  0     0  0
  3 21  1  0     0  0
  4  1  1  0     0  0
  5  7  1  0     0  0
  6  1  1  0     0  0
  7  2  1  0     0  0
  8  6  1  0     0  0
  9  3  1  0     0  0
 10  8  1  0     0  0
 11  4  1  0     0  0
 12  2  2  0     0  0
 13  9  1  0     0  0
 14 16  1  0     0  0
 15 14  1  0     0  0
 16 11  1  0     0  0
 17 13  1  0     0  0
 18  3  2  0     0  0
 19  3  2  0     0  0
 20  4  2  0     0  0
 21 15  1  0     0  0
 22 13  2  0     0  0
 23 17  1  0     0  0
 24  7  2  0     0  0
 25 22  1  0     0  0
 26 14  2  0     0  0
 27 12  1  0     0  0
 28 27  2  0     0  0
 29 27  1  0     0  0
 30  8  2  0     0  0
 31 10  2  0     0  0
 32 30  1  0     0  0
 33 32  2  0     0  0
 10  5  1  0     0  0
 28 24  1  0     0  0
 33 31  1  0     0  0
 23 25  2  0     0  0
M  END