
  SciTegic01111613442D

  9  9  0  0  0  0            999 V2000
    1.2990   -0.7500    0.0000 N   0  0
    1.2990    0.7500    0.0000 C   0  0
    2.3383    1.3500    0.0000 O   0  0
    0.0000    1.5000    0.0000 N   0  0
   -1.2990    0.7500    0.0000 C   0  0
   -2.3383    1.3500    0.0000 O   0  0
   -1.2990   -0.7500    0.0000 C   0  0
   -2.3383   -1.3500    0.0000 C   0  0
    0.0000   -1.5000    0.0000 C   0  0
  2  1  1  0
  9  1  1  0
  2  3  2  0
  2  4  1  0
  5  4  1  0
  5  6  2  0
  5  7  1  0
  7  8  1  0
  7  9  2  0
M  END