
  SciTegic12171313032D

 24 26  0  0  0  0            999 V2000
   35.5010   -7.5569    0.0000 C   0  0
   35.4999   -8.3765    0.0000 C   0  0
   36.2079   -8.7854    0.0000 N   0  0
   36.9176   -8.3760    0.0000 C   0  0
   36.9147   -7.5533    0.0000 C   0  0
   36.2061   -7.1481    0.0000 N   0  0
   37.6259   -8.7835    0.0000 N   0  0
   37.6209   -7.1421    0.0000 N   0  0
   37.6178   -6.3249    0.0000 C   0  0  1  0  0  0
   38.3240   -5.9136    0.0000 C   0  0
   36.9086   -5.9189    0.0000 C   0  0
   39.0285   -6.3231    0.0000 C   0  0
   39.7342   -5.9125    0.0000 C   0  0
   39.7315   -5.0944    0.0000 C   0  0
   39.0173   -4.6887    0.0000 C   0  0
   38.3146   -5.1016    0.0000 C   0  0
   34.7953   -7.1487    0.0000 C   0  0
   34.7107   -6.3408    0.0000 C   0  0
   33.9134   -6.1706    0.0000 S   0  0
   33.5051   -6.8764    0.0000 C   0  0
   34.0502   -7.4827    0.0000 C   0  0
   32.6892   -6.9630    0.0000 C   0  0
   32.2094   -6.3015    0.0000 O   0  0
   32.3562   -7.7093    0.0000 O   0  0
  1  2  2  0
  2  3  1  0
  3  4  2  0
  4  5  1  0
  5  6  2  0
  6  1  1  0
  4  7  1  0
  5  8  1  0
  8  9  1  0
  9 10  1  0
  9 11  1  6
 10 12  2  0
 12 13  1  0
 13 14  2  0
 14 15  1  0
 15 16  2  0
 16 10  1  0
  1 17  1  0
 17 18  2  0
 18 19  1  0
 19 20  1  0
 20 21  2  0
 21 17  1  0
 22 23  1  0
 22 24  2  0
 20 22  1  0
M  END