
  SciTegic10191216002D

 29 32  0  0  0  0            999 V2000
   14.5367  -25.6207    0.0000 C   0  0
   14.5355  -26.4484    0.0000 C   0  0
   15.2484  -26.8613    0.0000 C   0  0
   15.2464  -25.2080    0.0000 C   0  0
   15.9646  -25.6168    0.0000 C   0  0
   15.9637  -26.4503    0.0000 C   0  0
   16.6813  -26.8657    0.0000 C   0  0
   17.4042  -26.4520    0.0000 N   0  0
   17.4052  -25.6183    0.0000 C   0  0
   16.6830  -25.1984    0.0000 C   0  0
   16.6828  -24.3734    0.0000 C   0  0
   17.3961  -23.9639    0.0000 C   0  0
   17.3963  -23.1397    0.0000 C   0  0
   16.6811  -22.7266    0.0000 C   0  0
   15.9644  -23.1437    0.0000 C   0  0
   15.9678  -23.9667    0.0000 C   0  0
   18.1176  -26.8662    0.0000 C   0  0
   13.8204  -26.8599    0.0000 O   0  0
   13.1065  -26.4463    0.0000 C   0  0
   13.1077  -25.6213    0.0000 C   0  0
   12.3938  -25.2078    0.0000 C   0  0
   12.3950  -24.3828    0.0000 N   0  0
   13.1132  -23.9738    0.0000 C   0  0
   13.1164  -23.1523    0.0000 C   0  0
   12.4044  -22.7350    0.0000 O   0  0
   11.6875  -23.1452    0.0000 C   0  0
   11.6826  -23.9728    0.0000 C   0  0
   16.6798  -21.9016    0.0000 S   0  0
   17.3936  -21.4879    0.0000 C   0  0
 13 14  2  0
  1  2  2  0
 14 15  1  0
  5  4  2  0
 15 16  2  0
 16 11  1  0
  4  1  1  0
  8 17  1  0
  5 10  1  0
  2 18  1  0
  6  7  1  0
 18 19  1  0
  7  8  1  0
 19 20  1  0
  8  9  1  0
 20 21  1  0
  9 10  1  0
 21 22  1  0
 22 23  1  0
  5  6  1  0
 10 11  1  0
 11 12  2  0
  2  3  1  0
 22 27  1  0
 23 24  1  0
 24 25  1  0
 25 26  1  0
 26 27  1  0
 12 13  1  0
 14 28  1  0
  3  6  2  0
 28 29  1  0
M  END