
          11280715162D 1   1.00000     0.00000     0

 35 38  0     0  0            999 V2000
    7.2292   -1.6792    0.0000 C   0  0  0  0  0  0           0  0  0
    0.0917   -4.1542    0.0000 N   0  0  3  0  0  0           0  0  0
    7.9417   -2.0917    0.0000 N   0  0  0  0  0  0           0  0  0
   -0.6208   -4.5667    0.0000 C   0  0  0  0  0  0           0  0  0
    1.5167   -3.3292    0.0000 N   0  0  3  0  0  0           0  0  0
    8.6542   -1.6792    0.0000 C   0  0  0  0  0  0           0  0  0
    6.5167   -2.0917    0.0000 C   0  0  0  0  0  0           0  0  0
    7.2292   -0.8542    0.0000 O   0  0  0  0  0  0           0  0  0
    0.0792   -3.3292    0.0000 C   0  0  0  0  0  0           0  0  0
    0.8042   -4.5667    0.0000 C   0  0  0  0  0  0           0  0  0
   -0.6208   -5.4000    0.0000 C   0  0  0  0  0  0           0  0  0
    9.3667   -2.0917    0.0000 C   0  0  0  0  0  0           0  0  0
    6.5167   -2.9167    0.0000 C   0  0  0  0  0  0           0  0  0
    5.7917   -1.6792    0.0000 C   0  0  0  0  0  0           0  0  0
    0.8000   -2.9167    0.0000 C   0  0  0  0  0  0           0  0  0
    1.5167   -4.1542    0.0000 C   0  0  0  0  0  0           0  0  0
    5.0875   -2.9167    0.0000 C   0  0  0  0  0  0           0  0  0
    5.8000   -3.3292    0.0000 C   0  0  0  0  0  0           0  0  0
    5.0792   -2.0917    0.0000 C   0  0  0  0  0  0           0  0  0
    0.0875   -5.8125    0.0000 O   0  0  0  0  0  0           0  0  0
    9.3667   -2.9167    0.0000 O   0  0  0  0  0  0           0  0  0
    2.2292   -2.9167    0.0000 C   0  0  0  0  0  0           0  0  0
    2.9417   -3.3292    0.0000 C   0  0  0  0  0  0           0  0  0
    4.3750   -3.3292    0.0000 O   0  0  0  0  0  0           0  0  0
   -1.3375   -4.1542    0.0000 C   0  0  0  0  0  0           0  0  0
    8.6542   -0.8542    0.0000 C   0  0  0  0  0  0           0  0  0
    3.6542   -2.9167    0.0000 C   0  0  0  0  0  0           0  0  0
   -1.3375   -5.8125    0.0000 C   0  0  0  0  0  0           0  0  0
   10.0792   -1.6792    0.0000 C   0  0  0  0  0  0           0  0  0
    8.6542   -3.3292    0.0000 C   0  0  0  0  0  0           0  0  0
    0.8042   -5.4000    0.0000 C   0  0  0  0  0  0           0  0  0
   -2.0500   -4.5750    0.0000 C   0  0  0  0  0  0           0  0  0
    9.3667   -0.4417    0.0000 C   0  0  0  0  0  0           0  0  0
   -2.0500   -5.4000    0.0000 C   0  0  0  0  0  0           0  0  0
   10.0792   -0.8542    0.0000 C   0  0  0  0  0  0           0  0  0
  2 10  1  0     0  0
  3  1  1  0     0  0
  4  2  1  0     0  0
  5 22  1  0     0  0
  6  3  1  0     0  0
  7  1  1  0     0  0
  8  1  2  0     0  0
  9 15  1  0     0  0
 10 16  1  0     0  0
 11  4  1  0     0  0
 12  6  2  0     0  0
 13  7  2  0     0  0
 14  7  1  0     0  0
 15  5  1  0     0  0
 16  5  1  0     0  0
 17 19  1  0     0  0
 18 13  1  0     0  0
 19 14  2  0     0  0
 20 11  1  0     0  0
 21 12  1  0     0  0
 22 23  1  0     0  0
 23 27  1  0     0  0
 24 17  1  0     0  0
 25  4  2  0     0  0
 26  6  1  0     0  0
 27 24  1  0     0  0
 28 11  2  0     0  0
 29 12  1  0     0  0
 30 21  1  0     0  0
 31 20  1  0     0  0
 32 25  1  0     0  0
 33 26  2  0     0  0
 34 32  2  0     0  0
 35 33  1  0     0  0
 17 18  2  0     0  0
 29 35  2  0     0  0
  2  9  1  0     0  0
 34 28  1  0     0  0
M  END