
          11290713132D 1   1.00000     0.00000     0

 42 47  0     1  0            999 V2000
    2.7743   -5.7040    0.0000 C   0  0  0  0  0  0           0  0  0
    2.7731   -6.5321    0.0000 C   0  0  0  0  0  0           0  0  0
    4.2027   -5.7004    0.0000 C   0  0  0  0  0  0           0  0  0
    3.4867   -5.2909    0.0000 C   0  0  0  0  0  0           0  0  0
    4.2056   -6.5316    0.0000 C   0  0  0  0  0  0           0  0  0
    3.4877   -6.9431    0.0000 C   0  0  0  0  0  0           0  0  0
    3.4861   -7.7687    0.0000 C   0  0  0  0  0  0           0  0  0
    4.2017   -8.1837    0.0000 C   0  0  0  0  0  0           0  0  0
    4.9203   -7.7672    0.0000 C   0  0  0  0  0  0           0  0  0
    4.9183   -6.9429    0.0000 C   0  0  0  0  0  0           0  0  0
    4.2016   -9.0094    0.0000 S   0  0  3  0  0  0           0  0  0
    4.1936   -9.8325    0.0000 N   0  0  0  0  0  0           0  0  0
    5.0273   -9.0135    0.0000 O   0  0  0  0  0  0           0  0  0
    3.3759   -9.0079    0.0000 O   0  0  0  0  0  0           0  0  0
    4.9046  -10.2523    0.0000 C   0  0  1  0  0  0           0  0  0
    4.8965  -11.0780    0.0000 C   0  0  0  0  0  0           0  0  0
    5.6236   -9.8464    0.0000 C   0  0  0  0  0  0           0  0  0
    6.3347  -10.2663    0.0000 C   0  0  0  0  0  0           0  0  0
    7.0537   -9.8605    0.0000 N   0  0  0  0  0  0           0  0  0
    6.3266  -11.0920    0.0000 O   0  0  0  0  0  0           0  0  0
    7.7647  -10.2803    0.0000 C   0  0  1  0  0  0           0  0  0
    4.1764  -11.4785    0.0000 C   0  0  0  0  0  0           0  0  0
    4.1680  -12.3034    0.0000 C   0  0  0  0  0  0           0  0  0
    4.8795  -12.7240    0.0000 C   0  0  0  0  0  0           0  0  0
    5.6010  -12.3138    0.0000 C   0  0  0  0  0  0           0  0  0
    5.6059  -11.4902    0.0000 C   0  0  0  0  0  0           0  0  0
    7.4553  -11.6693    0.0000 C   0  0  0  0  0  0           0  0  0
    7.7025  -12.4547    0.0000 C   0  0  0  0  0  0           0  0  0
    8.5103  -12.6311    0.0000 C   0  0  0  0  0  0           0  0  0
    9.0624  -12.0241    0.0000 C   0  0  0  0  0  0           0  0  0
    8.7614  -13.4177    0.0000 C   0  0  0  0  0  0           0  0  0
    8.2058  -14.0284    0.0000 N   0  0  3  0  0  0           0  0  0
    7.3992  -13.8472    0.0000 C   0  0  0  0  0  0           0  0  0
    6.8445  -14.4539    0.0000 C   0  0  0  0  0  0           0  0  0
    7.0916  -15.2422    0.0000 C   0  0  0  0  0  0           0  0  0
    7.8989  -15.4201    0.0000 C   0  0  0  0  0  0           0  0  0
    8.4591  -14.8099    0.0000 C   0  0  0  0  0  0           0  0  0
    8.0108  -11.0636    0.0000 C   0  0  0  0  0  0           0  0  0
    8.8135  -11.2464    0.0000 C   0  0  0  0  0  0           0  0  0
    9.3701  -10.6460    0.0000 O   0  0  0  0  0  0           0  0  0
    9.1295   -9.8594    0.0000 C   0  0  0  0  0  0           0  0  0
    8.3268   -9.6764    0.0000 C   0  0  0  0  0  0           0  0  0
  9 10  1  0     0  0
 21 19  1  6     0  0
 10  5  2  0     0  0
 16 22  2  0     0  0
  2  6  1  0     0  0
 22 23  1  0     0  0
  8 11  1  0     0  0
 23 24  2  0     0  0
 24 25  1  0     0  0
 11 12  1  0     0  0
 25 26  2  0     0  0
 26 16  1  0     0  0
  5  6  1  0     0  0
 38 27  1  0     0  0
 11 13  2  0     0  0
 27 28  2  0     0  0
  5  3  1  0     0  0
 28 29  1  0     0  0
 11 14  2  0     0  0
 29 30  2  0     0  0
 30 39  1  0     0  0
  6  7  2  0     0  0
 29 31  1  0     0  0
 12 15  1  0     0  0
 31 32  1  0     0  0
 32 33  1  0     0  0
  1  2  2  0     0  0
 15 16  1  6     0  0
  7  8  1  0     0  0
 15 17  1  0     0  0
  3  4  2  0     0  0
 32 37  1  0     0  0
 33 34  1  0     0  0
 34 35  1  0     0  0
 35 36  1  0     0  0
 36 37  1  0     0  0
 38 39  2  0     0  0
 17 18  1  0     0  0
  8  9  2  0     0  0
 18 19  1  0     0  0
  4  1  1  0     0  0
 18 20  2  0     0  0
 38 21  1  0     0  0
 39 40  1  0     0  0
 40 41  1  0     0  0
 41 42  1  0     0  0
 42 21  1  0     0  0
M  END