
  SciTegic01161211242D

 33 36  0  0  0  0            999 V2000
   15.2538   -5.0423    0.0000 O   0  0
   14.5252   -5.4291    0.0000 S   0  0
   15.2265   -5.8673    0.0000 O   0  0
   15.2712   -3.4122    0.0000 N   0  0
   15.9313   -2.9145    0.0000 C   0  0
   15.6664   -2.1332    0.0000 C   0  0
   14.8388   -2.1466    0.0000 C   0  0
   14.5971   -2.9356    0.0000 N   0  0
   14.4115   -1.4385    0.0000 C   0  0
   14.8144   -0.7196    0.0000 C   0  0
   14.3873   -0.0128    0.0000 C   0  0
   13.5614   -0.0278    0.0000 C   0  0
   13.1646   -0.7554    0.0000 C   0  0
   13.5899   -1.4593    0.0000 C   0  0
   16.1032   -1.4365    0.0000 C   0  0
   16.9289   -1.4709    0.0000 C   0  0
   17.3682   -0.7715    0.0000 C   0  0
   16.9787   -0.0414    0.0000 C   0  0
   16.1498   -0.0150    0.0000 C   0  0
   15.7184   -0.7151    0.0000 C   0  0
   15.2783   -4.2320    0.0000 C   0  0
   14.5457   -4.6055    0.0000 N   0  0
   13.8020   -5.8283    0.0000 N   0  0
   13.1010   -5.3974    0.0000 C   0  0
   12.3800   -5.7930    0.0000 C   0  0
   12.3584   -6.6176    0.0000 C   0  0
   13.0640   -7.0449    0.0000 C   0  0
   13.7911   -6.6519    0.0000 C   0  0
   13.1359    0.6743    0.0000 Cl  0  0
   11.6583   -6.1774    0.0000 F   0  0
   12.3192   -7.4352    0.0000 F   0  0
   15.9802   -4.6577    0.0000 N   0  0
   16.7000   -4.2627    0.0000 C   0  0
 16 17  1  0
  3  2  2  0
 17 18  2  0
  9 10  2  0
 18 19  1  0
  4  5  1  0
 19 20  2  0
 20 15  1  0
  6 15  1  0
 10 11  1  0
  4 21  1  0
 21 22  2  0
 22  2  1  0
 11 12  2  0
  2 23  1  0
 23 24  1  0
  5  6  1  0
 12 13  1  0
  6  7  1  0
 13 14  2  0
 14  9  1  0
 23 28  1  0
 24 25  1  0
 25 26  1  0
 26 27  1  0
 27 28  1  0
  7  9  1  0
 12 29  1  0
  7  8  2  0
 26 30  1  0
  8  4  1  0
 26 31  1  0
 15 16  2  0
 21 32  1  0
  2  1  2  0
 32 33  1  0
M  END