
  SciTegic01161211262D

 40 46  0  0  0  0            999 V2000
   19.9895   -9.2600    0.0000 C   0  0
   15.0326   -7.8714    0.0000 N   0  0
   16.4589   -7.8785    0.0000 C   0  0
   15.7476   -7.4611    0.0000 C   0  0
   13.6588   -6.1783    0.0000 C   0  0
   14.3595   -6.6142    0.0000 C   0  0
   14.3358   -7.4409    0.0000 C   0  0
   17.1938   -7.5227    0.0000 C   0  0
   17.8945   -7.9545    0.0000 N   0  0
   17.2132   -6.6959    0.0000 O   0  0
   17.8665   -8.7776    0.0000 C   0  0
   18.5631   -9.2132    0.0000 C   0  0
   19.2896   -8.8218    0.0000 N   0  0
   19.3193   -7.9941    0.0000 C   0  0
   18.6143   -7.5579    0.0000 C   0  0
   15.0837   -6.2192    0.0000 C   0  0
   12.9346   -6.5733    0.0000 C   0  0
   12.2333   -6.1352    0.0000 C   0  0
   12.1912   -7.7889    0.0000 C   0  0
   12.9162   -7.3963    0.0000 C   0  0
   15.0284   -8.6985    0.0000 C   0  0
   16.4547   -8.7057    0.0000 C   0  0
   15.7366   -9.1168    0.0000 C   0  0
   15.7321   -9.9383    0.0000 C   0  0
   16.4440  -10.3547    0.0000 C   0  0
   17.1623   -9.9478    0.0000 C   0  0
   17.1684   -9.1201    0.0000 C   0  0
   11.4885   -7.3632    0.0000 C   0  0
   11.5088   -6.5314    0.0000 C   0  0
   10.7240   -6.2548    0.0000 O   0  0
   10.2185   -6.9159    0.0000 C   0  0
   10.6910   -7.6009    0.0000 O   0  0
   19.9565  -10.0829    0.0000 C   0  0
   20.6554  -10.5211    0.0000 C   0  0
   21.3859  -10.1341    0.0000 C   0  0
   20.7134   -8.8700    0.0000 N   0  0
   21.4090   -9.3047    0.0000 C   0  0
   22.0373   -8.7776    0.0000 N   0  0
   21.7301   -8.0170    0.0000 N   0  0
   20.9119   -8.0742    0.0000 C   0  0
  9 15  1  0
 23 21  1  0
 11 12  1  0
 12 13  1  0
 22 23  1  0
 13 14  1  0
 14 15  1  0
 22  3  1  0
  3  8  1  0
  3  4  1  0
 22 27  1  0
 23 24  1  0
 24 25  1  0
 25 26  1  0
 26 27  1  0
  8  9  1  0
  2 21  1  0
  8 10  2  0
 28 29  2  0
  9 11  1  0
  6 16  1  0
  5 17  1  0
  5  6  1  0
 29 30  1  0
 30 31  1  0
 31 32  1  0
 32 28  1  0
 13  1  1  0
 17 18  2  0
  1 33  2  0
 18 29  1  0
 33 34  1  0
  2  4  1  0
 34 35  2  0
 35 37  1  0
 36  1  1  0
 36 37  1  0
 28 19  1  0
  6  7  1  0
 19 20  2  0
 20 17  1  0
  7  2  1  0
 37 38  2  0
 38 39  1  0
 39 40  2  0
 40 36  1  0
M  END