
  SciTegic01161211252D

 27 30  0  0  0  0            999 V2000
    7.9051  -27.1411    0.0000 C   0  0
   10.5045  -27.6920    0.0000 N   0  0
   11.2190  -28.1059    0.0000 C   0  0
   11.2178  -28.9316    0.0000 O   0  0
   11.9347  -27.6940    0.0000 C   0  0
   12.6476  -28.1089    0.0000 C   0  0
   13.3628  -27.6977    0.0000 N   0  0
   13.3644  -26.8711    0.0000 C   0  0
   12.6450  -26.4573    0.0000 C   0  0
   11.9326  -26.8709    0.0000 C   0  0
   14.0797  -26.4583    0.0000 O   0  0
   14.7947  -26.8713    0.0000 C   0  0
   14.7898  -27.6972    0.0000 C   0  0
   15.5041  -28.1101    0.0000 C   0  0
   16.2202  -27.6973    0.0000 C   0  0
   16.2176  -26.8673    0.0000 C   0  0
   15.5029  -26.4581    0.0000 C   0  0
    9.8209  -28.1552    0.0000 C   0  0
    9.0299  -27.9119    0.0000 C   0  0
   10.5634  -26.8687    0.0000 C   0  0
    8.7252  -27.1457    0.0000 N   0  0
    9.9565  -26.3066    0.0000 C   0  0
    9.1395  -26.4328    0.0000 C   0  0
   16.9314  -26.4520    0.0000 F   0  0
    7.3285  -26.5580    0.0000 C   0  0
    6.7454  -27.1346    0.0000 C   0  0
    7.3220  -27.7177    0.0000 C   0  0
 13 14  1  0
  7  8  2  0
 14 15  2  0
  3  5  1  0
 15 16  1  0
  8  9  1  0
 16 17  2  0
 17 12  1  0
  2 18  1  0
  9 10  2  0
 18 19  1  0
 10  5  1  0
  2 20  1  0
  5  6  2  0
 19 21  1  0
  8 11  1  0
 20 22  1  0
  3  4  2  0
 21 23  1  0
 22 23  1  0
 11 12  1  0
 16 24  1  0
 21  1  1  0
  1 25  1  0
  6  7  1  0
 12 13  2  0
  2  3  1  0
 25 26  1  0
 26 27  1  0
 27  1  1  0
M  END