
  SciTegic12171313022D

 33 37  0  0  0  0            999 V2000
    5.9088   -7.9036    0.0000 C   0  0
    5.9076   -8.7231    0.0000 C   0  0
    6.6157   -9.1321    0.0000 C   0  0
    7.3253   -8.7227    0.0000 C   0  0
    7.3225   -7.9000    0.0000 C   0  0
    6.6139   -7.4947    0.0000 C   0  0
    8.0287   -7.4887    0.0000 C   0  0
    8.7379   -7.8947    0.0000 N   0  0
    8.0256   -6.6716    0.0000 O   0  0
    9.4413   -7.4786    0.0000 C   0  0
   10.1517   -7.8847    0.0000 C   0  0
   10.1295   -6.2504    0.0000 C   0  0
    9.4295   -6.6680    0.0000 C   0  0
   10.8465   -6.6513    0.0000 C   0  0
   10.8582   -7.4693    0.0000 C   0  0
   11.6397   -7.7110    0.0000 C   0  0
   12.1111   -7.0423    0.0000 N   0  0
   11.6208   -6.3875    0.0000 C   0  0
   12.9282   -7.0306    0.0000 C   0  0
   13.3469   -7.7324    0.0000 C   0  0
    5.1996   -9.1312    0.0000 C   0  0
    4.4922   -8.7220    0.0000 N   0  0
    5.1990   -9.9484    0.0000 O   0  0
    4.4968   -7.9052    0.0000 C   0  0
    3.7935   -7.4961    0.0000 C   0  0
    3.0830   -7.9007    0.0000 C   0  0
    3.0804   -8.7188    0.0000 C   0  0
    3.7882   -9.1324    0.0000 C   0  0
    2.3750   -7.4890    0.0000 C   0  0
    2.2932   -6.6759    0.0000 N   0  0
    1.4947   -6.5024    0.0000 C   0  0
    1.0828   -7.2083    0.0000 C   0  0
    1.6269   -7.8179    0.0000 C   0  0
  1  2  2  0
  2  3  1  0
  3  4  2  0
  4  5  1  0
  5  6  2  0
  6  1  1  0
  5  7  1  0
  7  8  1  0
  7  9  2  0
  8 10  1  0
 10 11  2  0
 11 15  1  0
 14 12  1  0
 12 13  2  0
 13 10  1  0
 14 15  2  0
 15 16  1  0
 16 17  1  0
 17 18  1  0
 18 14  1  0
 17 19  1  0
 19 20  1  0
  2 21  1  0
 21 22  1  0
 21 23  2  0
 22 24  1  0
 22 28  1  0
 24 25  1  0
 25 26  1  0
 26 27  1  0
 27 28  1  0
 29 30  1  0
 30 31  1  0
 31 32  1  0
 32 33  1  0
 33 29  1  0
 26 29  1  0
M  END