
  SciTegic05161214222D

 56 59  0  0  0  0            999 V2000
   12.3669  -12.3754    0.0000 C   0  0
   13.0816  -11.9634    0.0000 C   0  0
    8.0875  -11.5583    0.0000 C   0  0
    8.0875  -12.3833    0.0000 C   0  0
    8.7995  -12.7917    0.0000 O   0  0
    9.5115  -12.3833    0.0000 C   0  0
    9.5115  -11.5583    0.0000 C   0  0
    8.7995  -11.1417    0.0000 C   0  0
    7.3698  -11.1531    0.0000 S   0  0
    6.9615  -11.8700    0.0000 O   0  0
    7.7865  -11.8652    0.0000 O   0  0
    4.5027   -6.2166    0.0000 C   0  0
    4.5016   -7.0440    0.0000 C   0  0
    5.2164   -7.4569    0.0000 C   0  0
    5.2146   -5.8039    0.0000 C   0  0
    5.9300   -6.2130    0.0000 C   0  0
    5.9307   -7.0398    0.0000 C   0  0
    6.6460   -7.4508    0.0000 N   0  0
    7.3611   -7.0360    0.0000 C   0  0
    7.3563   -6.2061    0.0000 C   0  0
    6.6404   -5.7988    0.0000 C   0  0
    8.0771   -7.4458    0.0000 C   0  0
    6.6360   -4.9739    0.0000 C   0  0
    5.2183   -8.2819    0.0000 O   0  0
    5.9337   -8.6927    0.0000 C   0  0
    5.9356   -9.5177    0.0000 C   0  0
    5.2195   -9.9275    0.0000 C   0  0
    5.2211  -10.7517    0.0000 C   0  0
    5.9371  -11.1634    0.0000 C   0  0
    6.6529  -10.7448    0.0000 C   0  0
    6.6479   -9.9219    0.0000 C   0  0
    4.5055   -9.5143    0.0000 Cl  0  0
    7.3595   -9.5046    0.0000 Cl  0  0
    8.0819  -10.7364    0.0000 N   0  0
    9.5108  -10.7281    0.0000 C   0  0
   10.2265  -11.1384    0.0000 N   0  0
    9.5082   -9.9031    0.0000 O   0  0
   10.2254  -11.9634    0.0000 C   0  0
   10.9371  -12.3736    0.0000 C   0  0
   11.6527  -11.9624    0.0000 N   0  0
   11.6521  -11.1364    0.0000 C   0  0
   10.9359  -10.7217    0.0000 C   0  0
   12.3663  -13.2004    0.0000 O   0  0
   13.7958  -12.3764    0.0000 C   0  0
   14.5106  -11.9644    0.0000 C   0  0
   15.2248  -12.3774    0.0000 N   0  3
   15.9395  -11.9654    0.0000 C   0  0
   15.2242  -13.2024    0.0000 C   0  0
   15.2167  -11.5500    0.0000 C   0  0
   13.9409  -10.0551    0.0000 F   0  0
   14.6553   -9.6426    0.0000 C   0  0
   15.3698  -10.0551    0.0000 F   0  0
   14.6492  -10.4634    0.0000 F   0  0
   14.6584   -8.8176    0.0000 C   0  0
   15.3744   -8.4078    0.0000 O   0  5
   13.9455   -8.4024    0.0000 O   0  0
 24 25  1  0
 13 14  1  0
 25 26  1  0
 14 17  2  0
 26 27  2  0
  6  7  1  0
 27 28  1  0
 16 15  2  0
 28 29  2  0
 15 12  1  0
 29 30  1  0
  7  8  1  0
 30 31  2  0
 31 26  1  0
 10  9  2  0
 27 32  1  0
 16 17  1  0
 31 33  1  0
 30  9  1  0
  9 11  2  0
  9 34  1  0
 34  8  1  0
 17 18  1  0
  8 35  1  0
 35 36  1  0
 18 19  2  0
 35 37  2  0
 36 38  1  0
  1  2  1  0
 19 20  1  0
  3  4  1  0
 20 21  2  0
 21 16  1  0
 36 42  1  0
 38 39  1  0
 39 40  1  0
 40 41  1  0
 41 42  1  0
 40  1  1  0
  3  8  1  0
  1 43  2  0
 19 22  1  0
  2 44  1  0
  4  5  1  0
 44 45  1  0
 21 23  1  0
 45 46  1  0
 12 13  2  0
 46 47  1  0
 14 24  1  0
 46 48  1  0
  5  6  1  0
 46 49  1  0
 50 51  1  0
 51 53  1  0
 51 54  1  0
 51 52  1  0
 54 55  1  0
 54 56  2  0
M  CHG  2  46   1  55  -1
M  END