
  SciTegic01181116592D

 16 17  0  0  0  0            999 V2000
   -5.5134  -19.7398    0.0000 C   0  0
   -5.5146  -20.5671    0.0000 C   0  0
   -4.7999  -20.9800    0.0000 C   0  0
   -4.8017  -19.3271    0.0000 C   0  0
   -4.0863  -19.7362    0.0000 C   0  0
   -4.0855  -20.5629    0.0000 C   0  0
   -3.3703  -20.9739    0.0000 N   0  0
   -2.6554  -20.5591    0.0000 C   0  0
   -2.6602  -19.7293    0.0000 C   0  0
   -3.3760  -19.3220    0.0000 N   0  0
   -1.9482  -19.3124    0.0000 C   0  0
   -1.2314  -19.7206    0.0000 N   0  0
   -1.9532  -18.4875    0.0000 O   0  0
   -0.5195  -19.3037    0.0000 C   0  0
    0.1975  -19.7119    0.0000 C   0  0
    0.9093  -19.2950    0.0000 C   0  0
  7  8  2  0
  5  4  2  0
  8  9  1  0
  4  1  1  0
  9 10  2  0
 10  5  1  0
  9 11  1  0
  2  3  1  0
 11 12  1  0
  5  6  1  0
 11 13  2  0
  3  6  2  0
 12 14  1  0
  6  7  1  0
 14 15  1  0
  1  2  2  0
 15 16  1  0
M  END