
          11280715452D 1   1.00000     0.00000     0

 26 29  0     1  0            999 V2000
   -0.2750    0.7583    0.0000 N   0  0  3  0  0  0           0  0  0
   -0.9458    0.2708    0.0000 C   0  0  0  0  0  0           0  0  0
    0.3917    0.2708    0.0000 C   0  0  0  0  0  0           0  0  0
   -0.6833   -0.5167    0.0000 N   0  0  3  0  0  0           0  0  0
    0.1375   -0.5167    0.0000 C   0  0  2  0  0  0           0  0  0
   -0.2750    1.5833    0.0000 C   0  0  0  0  0  0           0  0  0
   -1.7708    0.2708    0.0000 N   0  0  0  0  0  0           0  0  0
   -0.9833    1.9958    0.0000 C   0  0  0  0  0  0           0  0  0
    0.4417    1.9958    0.0000 C   0  0  0  0  0  0           0  0  0
   -1.3583   -1.0000    0.0000 C   0  0  0  0  0  0           0  0  0
    0.9292   -0.7292    0.0000 C   0  0  0  0  0  0           0  0  0
   -2.0333   -0.5167    0.0000 C   0  0  0  0  0  0           0  0  0
    1.1792    0.5208    0.0000 O   0  0  0  0  0  0           0  0  0
   -0.9958    2.8208    0.0000 C   0  0  0  0  0  0           0  0  0
    0.4417    2.8208    0.0000 C   0  0  0  0  0  0           0  0  0
   -0.2750    3.2333    0.0000 C   0  0  0  0  0  0           0  0  0
    0.1292   -1.3417    0.0000 C   0  0  0  0  0  0           0  0  0
    0.9250   -1.5542    0.0000 C   0  0  0  0  0  0           0  0  0
    0.9167   -3.2000    0.0000 C   0  0  0  0  0  0           0  0  0
    1.1542    3.2333    0.0000 Cl  0  0  0  0  0  0           0  0  0
   -1.7083    3.2208    0.0000 Cl  0  0  0  0  0  0           0  0  0
    0.9042   -4.0292    0.0000 Br  0  0  0  0  0  0           0  0  0
    0.2042   -1.9542    0.0000 C   0  0  0  0  0  0           0  0  0
    1.6292   -1.9625    0.0000 C   0  0  0  0  0  0           0  0  0
    0.1917   -2.7792    0.0000 C   0  0  0  0  0  0           0  0  0
    1.6292   -2.7917    0.0000 C   0  0  0  0  0  0           0  0  0
  2  1  1  0     0  0
  3  1  1  0     0  0
  4  2  1  0     0  0
  5  3  1  0     0  0
  6  1  1  0     0  0
  7  2  2  0     0  0
  8  6  1  0     0  0
  9  6  2  0     0  0
 10  4  1  0     0  0
  5 11  1  1     0  0
 12  7  1  0     0  0
 13  3  2  0     0  0
 14  8  2  0     0  0
 15  9  1  0     0  0
 16 15  2  0     0  0
  5 17  1  6     0  0
 18 11  1  0     0  0
 19 26  1  0     0  0
 20 15  1  0     0  0
 21 14  1  0     0  0
 22 19  1  0     0  0
 23 18  2  0     0  0
 24 18  1  0     0  0
 25 23  1  0     0  0
 26 24  2  0     0  0
  4  5  1  0     0  0
 10 12  2  0     0  0
 14 16  1  0     0  0
 25 19  2  0     0  0
M  END