
  Mrv0541 04051115152D          

 20 19  0  0  0  0            999 V2000
   -4.1729   -1.2377    0.0000 C   0  0  0  0  0  0  0  0  0  0  0  0
   -4.8874   -0.8252    0.0000 C   0  0  0  0  0  0  0  0  0  0  0  0
   -5.6019   -1.2377    0.0000 O   0  0  0  0  0  0  0  0  0  0  0  0
   -3.4584   -0.8252    0.0000 C   0  0  0  0  0  0  0  0  0  0  0  0
   -2.7440   -1.2377    0.0000 C   0  0  0  0  0  0  0  0  0  0  0  0
   -2.0295   -0.8252    0.0000 C   0  0  0  0  0  0  0  0  0  0  0  0
   -1.3150   -1.2377    0.0000 C   0  0  0  0  0  0  0  0  0  0  0  0
   -0.6006   -0.8252    0.0000 C   0  0  0  0  0  0  0  0  0  0  0  0
    0.1139   -1.2377    0.0000 C   0  0  0  0  0  0  0  0  0  0  0  0
    0.8284   -0.8252    0.0000 C   0  0  0  0  0  0  0  0  0  0  0  0
    1.5429   -1.2377    0.0000 C   0  0  0  0  0  0  0  0  0  0  0  0
    2.2573   -0.8252    0.0000 C   0  0  0  0  0  0  0  0  0  0  0  0
    2.2573   -0.0002    0.0000 C   0  0  0  0  0  0  0  0  0  0  0  0
    2.9718    0.4123    0.0000 C   0  0  0  0  0  0  0  0  0  0  0  0
    2.9718    1.2373    0.0000 C   0  0  0  0  0  0  0  0  0  0  0  0
    3.6863    1.6498    0.0000 C   0  0  0  0  0  0  0  0  0  0  0  0
    3.6863    2.4748    0.0000 C   0  0  0  0  0  0  0  0  0  0  0  0
    4.4007    2.8873    0.0000 C   0  0  0  0  0  0  0  0  0  0  0  0
    4.4007    3.7123    0.0000 C   0  0  0  0  0  0  0  0  0  0  0  0
   -4.8874   -0.0002    0.0000 O   0  0  0  0  0  0  0  0  0  0  0  0
  2  1  1  0  0  0  0
  4  1  1  0  0  0  0
  2  3  2  0  0  0  0
  2 20  1  0  0  0  0
  4  5  1  0  0  0  0
  5  6  1  0  0  0  0
  6  7  1  0  0  0  0
  7  8  1  0  0  0  0
  8  9  1  0  0  0  0
  9 10  1  0  0  0  0
 11 10  2  0  0  0  0
 11 12  1  0  0  0  0
 12 13  1  0  0  0  0
 13 14  1  0  0  0  0
 14 15  1  0  0  0  0
 15 16  1  0  0  0  0
 16 17  1  0  0  0  0
 17 18  1  0  0  0  0
 18 19  1  0  0  0  0
M  END