
  CDK    9/16/09,9:54

 48 53  0  0  0  0  0  0  0  0999 V2000
   -1.9163    0.1991    0.0000 C   0  0  0  0  0  0  0  0  0  0  0  0
   -1.9163   -0.6264    0.0000 C   0  0  0  0  0  0  0  0  0  0  0  0
   -1.2033   -1.0328    0.0000 C   0  0  0  0  0  0  0  0  0  0  0  0
   -0.4904   -0.6264    0.0000 C   0  0  0  0  0  0  0  0  0  0  0  0
   -0.4904    0.1991    0.0000 O   0  0  0  0  0  0  0  0  0  0  0  0
   -1.2033    0.6180    0.0000 C   0  0  0  0  0  0  0  0  0  0  0  0
   -1.2033    1.4435    0.0000 C   0  0  0  0  0  0  0  0  0  0  0  0
   -0.4880    1.8541    0.0000 O   0  0  0  0  0  0  0  0  0  0  0  0
   -2.6329    0.6118    0.0000 O   0  0  0  0  0  0  0  0  0  0  0  0
   -2.6311   -1.0380    0.0000 N   0  0  0  0  0  0  0  0  0  0  0  0
   -3.3471   -0.6284    0.0000 C   0  0  0  0  0  0  0  0  0  0  0  0
   -4.0577   -1.0401    0.0000 C   0  0  0  0  0  0  0  0  0  0  0  0
   -3.3483    0.1970    0.0000 O   0  0  0  0  0  0  0  0  0  0  0  0
   -4.7712   -0.6300    0.0000 C   0  0  0  0  0  0  0  0  0  0  0  0
   -5.4855   -1.0411    0.0000 C   0  0  0  0  0  0  0  0  0  0  0  0
   -4.0523   -1.8635    0.0000 C   0  0  0  0  0  0  0  0  0  0  0  0
   -1.2033   -1.8583    0.0000 O   0  0  0  0  0  0  0  0  0  0  0  0
    0.2244   -1.0380    0.0000 S   0  0  0  0  0  0  0  0  0  0  0  0
    0.9403   -0.6284    0.0000 C   0  0  0  0  0  0  0  0  0  0  0  0
    1.6472   -1.0439    0.0000 O   0  0  0  0  0  0  0  0  0  0  0  0
    2.3611   -0.6378    0.0000 C   0  0  0  0  0  0  0  0  0  0  0  0
    2.3666    0.1879    0.0000 C   0  0  0  0  0  0  0  0  0  0  0  0
    1.6519    0.6060    0.0000 C   0  0  0  0  0  0  0  0  0  0  0  0
    0.9361    0.1940    0.0000 C   0  0  0  0  0  0  0  0  0  0  0  0
    3.0744   -1.0563    0.0000 C   0  0  0  0  0  0  0  0  0  0  0  0
    3.0701   -1.8817    0.0000 O   0  0  0  0  0  0  0  0  0  0  0  0
    0.9333   -1.4517    0.0000 H   0  0  0  0  0  0  0  0  0  0  0  0
    0.2207    0.6090    0.0000 O   0  0  0  0  0  0  0  0  0  0  0  0
    1.6559    1.4314    0.0000 N   0  0  0  0  0  0  0  0  0  0  0  0
    2.3733    1.8386    0.0000 C   0  0  0  0  0  0  0  0  0  0  0  0
    3.0846    1.4269    0.0000 O   0  0  0  0  0  0  0  0  0  0  0  0
    3.0816    0.6015    0.0000 O   0  0  0  0  0  0  0  0  0  0  0  0
    2.3767    2.6639    0.0000 C   0  0  0  0  0  0  0  0  0  0  0  0
    3.0936    3.0723    0.0000 C   0  0  0  0  0  0  0  0  0  0  0  0
    1.6637    3.8994    0.0000 C   0  0  0  0  0  0  0  0  0  0  0  0
    1.6634    3.0761    0.0000 C   0  0  0  0  0  0  0  0  0  0  0  0
   -4.7637   -2.2810    0.0000 C   0  0  0  0  0  0  0  0  0  0  0  0
   -5.4819   -1.8716    0.0000 C   0  0  0  0  0  0  0  0  0  0  0  0
   -6.1986   -2.2852    0.0000 C   0  0  0  0  0  0  0  0  0  0  0  0
   -6.1937   -3.1120    0.0000 C   0  0  0  0  0  0  0  0  0  0  0  0
   -5.4690   -3.5235    0.0000 C   0  0  0  0  0  0  0  0  0  0  0  0
   -4.7585   -3.1034    0.0000 C   0  0  0  0  0  0  0  0  0  0  0  0
    2.3832    4.3161    0.0000 C   0  0  0  0  0  0  0  0  0  0  0  0
    3.0933    3.8976    0.0000 C   0  0  0  0  0  0  0  0  0  0  0  0
    3.8066    4.3089    0.0000 C   0  0  0  0  0  0  0  0  0  0  0  0
    3.8111    5.1293    0.0000 C   0  0  0  0  0  0  0  0  0  0  0  0
    3.0963    5.5427    0.0000 C   0  0  0  0  0  0  0  0  0  0  0  0
    2.3858    5.1324    0.0000 C   0  0  0  0  0  0  0  0  0  0  0  0
 20 21  1  0  0  0  0 
 21 22  1  0  0  0  0 
 22 23  1  0  0  0  0 
 23 24  1  0  0  0  0 
 11 12  1  0  0  0  0 
 21 25  1  1  0  0  0 
  5  6  1  0  0  0  0 
 25 26  1  0  0  0  0 
 11 13  2  0  0  0  0 
 19 27  1  6  0  0  0 
 24 28  1  6  0  0  0 
 12 14  2  0  0  0  0 
 23 29  1  1  0  0  0 
  6  7  1  1  0  0  0 
 29 30  1  0  0  0  0 
 14 15  1  0  0  0  0 
 30 31  2  0  0  0  0 
 22 32  1  1  0  0  0 
 15 38  2  0  0  0  0 
  1  2  1  0  0  0  0 
 30 33  1  0  0  0  0 
 37 16  2  0  0  0  0 
 33 34  2  0  0  0  0 
 34 44  1  0  0  0  0 
 16 12  1  0  0  0  0 
 43 35  1  0  0  0  0 
  7  8  1  0  0  0  0 
 35 36  2  0  0  0  0 
 36 33  1  0  0  0  0 
  3 17  1  6  0  0  0 
  1  6  1  0  0  0  0 
 37 38  1  0  0  0  0 
  4 18  1  1  0  0  0 
 38 39  1  0  0  0  0 
  1  9  1  1  0  0  0 
 39 40  2  0  0  0  0 
 18 19  1  0  0  0  0 
 40 41  1  0  0  0  0 
 19 20  1  0  0  0  0 
 41 42  2  0  0  0  0 
 42 37  1  0  0  0  0 
  2  3  1  0  0  0  0 
  2 10  1  1  0  0  0 
 43 44  1  0  0  0  0 
  3  4  1  0  0  0  0 
 44 45  2  0  0  0  0 
 10 11  1  0  0  0  0 
 45 46  1  0  0  0  0 
  4  5  1  0  0  0  0 
 46 47  2  0  0  0  0 
 19 24  1  0  0  0  0 
 47 48  1  0  0  0  0 
 48 43  2  0  0  0  0 
M  END