
  SciTegic07061118172D

 47 52  0  0  0  0            999 V2000
    8.2074  -16.0245    0.0000 C   0  0
    8.9175  -16.4422    0.0000 C   0  0
    9.6337  -16.0327    0.0000 C   0  0
    9.6374  -15.2060    0.0000 C   0  0
    8.9189  -14.7904    0.0000 C   0  0
    8.2055  -15.2022    0.0000 C   0  0
   10.3538  -14.7950    0.0000 O   0  0
   10.3559  -13.9691    0.0000 C   0  0
   11.0722  -13.5580    0.0000 C   0  0
   11.0743  -12.7321    0.0000 C   0  0
   11.7907  -12.3211    0.0000 N   0  0
   12.4999  -12.8004    0.0000 C   0  0
   13.2664  -12.5462    0.0000 C   0  0
   11.7399  -11.4940    0.0000 C   0  0
   12.3585  -10.9496    0.0000 C   0  0
   13.2050  -11.1003    0.0000 C   0  0
   13.5808  -11.7971    0.0000 C   0  0
    6.7793  -16.0345    0.0000 C   0  0
    4.2252  -18.5525    0.0000 C   0  0
    5.0510  -18.5525    0.0000 C   0  0
    5.3081  -17.7675    0.0000 C   0  0
    4.6381  -17.2803    0.0000 N   0  0
    3.9724  -17.7675    0.0000 C   0  0  1  0  0  0
   -0.4050  -20.2375    0.0000 C   0  0
   -0.4127  -21.0656    0.0000 C   0  0
    0.2996  -21.4846    0.0000 C   0  0
    1.0201  -21.0763    0.0000 C   0  0
    1.0237  -20.2450    0.0000 C   0  0
    0.3107  -19.8299    0.0000 C   0  0
    1.7370  -19.8331    0.0000 C   0  0
    1.7374  -19.0091    0.0000 C   0  0
    2.4528  -18.5983    0.0000 N   0  0
    2.4500  -17.7732    0.0000 N   0  0
    1.7328  -17.3622    0.0000 C   0  0
    1.7286  -16.5364    0.0000 O   0  0
    1.0231  -18.6059    0.0000 C   0  0
    1.0184  -17.7855    0.0000 C   0  0
    0.3066  -17.3809    0.0000 C   0  0
   -0.4010  -17.7959    0.0000 C   0  0
   -0.3923  -18.6195    0.0000 C   0  0
    0.3199  -19.0202    0.0000 C   0  0
    3.1638  -17.3581    0.0000 C   0  0
   -1.1314  -21.4725    0.0000 Cl  0  0
    4.6368  -16.4545    0.0000 C   0  0
    5.3514  -16.0404    0.0000 C   0  0
    6.0673  -16.4523    0.0000 C   0  0
    7.4973  -16.4424    0.0000 C   0  0
  5  6  2  0
  6  1  1  0
 24 25  2  0
  1  2  2  0
 25 26  1  0
  4  7  1  0
 26 27  2  0
  3  4  2  0
 27 28  1  0
  7  8  1  0
 28 29  2  0
 29 24  1  0
 11 12  1  0
 28 30  1  0
 12 13  1  0
 30 31  1  0
 11 14  1  0
 31 32  2  0
 15 16  1  0
 32 33  1  0
 16 17  1  0
 33 34  1  0
 34 37  1  0
 36 31  1  0
 17 13  1  0
 34 35  2  0
 14 15  1  0
 36 37  2  0
 19 20  1  0
 37 38  1  0
  8  9  1  0
 38 39  2  0
  4  5  1  0
 39 40  1  0
  9 10  1  0
 40 41  2  0
 41 36  1  0
  2  3  1  0
 33 42  1  0
 10 11  1  0
 25 43  1  0
 23 42  1  6
 20 21  1  0
 22 44  1  0
 21 22  1  0
 44 45  1  0
 22 23  1  0
 45 46  1  0
 46 18  1  0
 23 19  1  0
 18 47  1  0
 47  1  1  0
M  END