
  SciTegic04021211102D

 21 23  0  0  0  0            999 V2000
   10.1236   -0.6166    0.0000 N   0  0
   10.1224   -1.4440    0.0000 C   0  0
   10.8372   -1.8569    0.0000 N   0  0
   10.8354   -0.2039    0.0000 C   0  0
   11.5508   -0.6130    0.0000 C   0  0
   11.5511   -1.4394    0.0000 C   0  0
   12.3372   -1.6946    0.0000 N   0  0
   12.8228   -1.0258    0.0000 C   0  0
   12.3367   -0.3574    0.0000 N   0  0
   10.8330    0.6211    0.0000 N   0  0
   11.5462    1.0358    0.0000 C   0  0
   12.2598    0.6230    0.0000 C   0  0
   12.9725    1.0369    0.0000 C   0  0
   12.9705    1.8628    0.0000 C   0  0
   12.2498    2.2730    0.0000 C   0  0
   11.5400    1.8567    0.0000 C   0  0
    9.4076   -1.8559    0.0000 N   0  0
   12.2444    3.0980    0.0000 C   0  0
   12.9562    3.5151    0.0000 C   0  0
   13.6733    3.1073    0.0000 C   0  0
   11.5273    3.5058    0.0000 O   0  0
  4 10  1  0
  5  6  1  0
 10 11  1  0
 11 12  2  0
  2  3  1  0
 12 13  1  0
  3  6  2  0
 13 14  2  0
  1  2  2  0
 14 15  1  0
  5  4  2  0
 15 16  2  0
 16 11  1  0
  6  7  1  0
  2 17  1  0
  7  8  1  0
 15 18  1  0
  8  9  2  0
 18 19  1  0
  9  5  1  0
 19 20  1  0
  4  1  1  0
 18 21  2  0
M  END