
  SciTegic07221113202D

 39 40  0  0  0  0            999 V2000
    7.9121   -0.1458    0.0000 C   0  0
    8.1641   -0.9362    0.0000 N   0  0
   16.6701   -0.8503    0.0000 N   0  0
    7.0873   -0.1458    0.0000 C   0  0
   12.2023   -0.1114    0.0000 C   0  0
    7.4939   -1.4174    0.0000 C   0  0
   16.5154   -0.0427    0.0000 C   0  0
    6.8238   -0.9190    0.0000 N   0  0
   17.2429    0.3698    0.0000 S   0  0
   12.2252   -0.9362    0.0000 N   0  0
   17.4949   -0.9534    0.0000 C   0  0
   17.8443   -0.1973    0.0000 C   0  0
   12.9126    0.3010    0.0000 N   0  0
   11.4806    0.3010    0.0000 N   0  0
    8.6281    0.2666    0.0000 C   0  0
    9.3498   -0.1286    0.0000 S   0  0
   15.0606   -0.0942    0.0000 S   0  0
   15.7765    0.3182    0.0000 C   0  0
    6.6061    0.5244    0.0000 C   0  0
   10.7646   -0.1286    0.0000 C   0  0
   13.6285   -0.1114    0.0000 C   0  0
   10.0543    0.2838    0.0000 C   0  0
   14.3503    0.3010    0.0000 C   0  0
    3.5946    3.9482    0.0000 C   0  0
    2.8801    3.5357    0.0000 C   0  0
    2.8801    2.7107    0.0000 C   0  0
    3.5946    2.2982    0.0000 C   0  0
    4.3091    2.7107    0.0000 C   0  0
    4.3091    3.5357    0.0000 C   0  0
    3.5946    4.7732    0.0000 O   0  0
    2.1657    3.9482    0.0000 N   0  3
    1.4512    3.5357    0.0000 O   0  5
    2.1657    4.7732    0.0000 O   0  0
    5.0236    3.9482    0.0000 N   0  3
    5.7381    3.5357    0.0000 O   0  5
    5.0236    4.7732    0.0000 O   0  0
    3.5946    1.4732    0.0000 N   0  3
    4.3091    1.0607    0.0000 O   0  0
    2.8802    1.0607    0.0000 O   0  5
  2  1  1  0
  3  7  2  0
  4  1  2  0
  5 14  2  0
  6  2  2  0
  7 18  1  0
  8  4  1  0
  9  7  1  0
 10  5  1  0
 11  3  1  0
 12  9  1  0
 13  5  1  0
 14 20  1  0
 15  1  1  0
 16 15  1  0
 17 23  1  0
 18 17  1  0
 19  4  1  0
 20 22  1  0
 21 13  1  0
 22 16  1  0
 23 21  1  0
  8  6  1  0
 11 12  2  0
 24 25  1  0
 24 29  2  0
 25 26  2  0
 26 27  1  0
 27 28  2  0
 28 29  1  0
 24 30  1  0
 25 31  1  0
 31 32  1  0
 31 33  2  0
 29 34  1  0
 34 35  1  0
 34 36  2  0
 27 37  1  0
 37 38  2  0
 37 39  1  0
M  CHG  6  31   1  32  -1  34   1  35  -1  37   1  39  -1
M  END