
  SciTegic09261414482D

 16 17  0  0  0  0            999 V2000
    3.2359   -3.3214    0.0000 C   0  0
    3.2359   -4.1476    0.0000 C   0  0
    3.9512   -4.5586    0.0000 C   0  0
    4.6644   -4.1476    0.0000 C   0  0
    4.6644   -3.3214    0.0000 C   0  0
    3.9512   -2.9104    0.0000 C   0  0
    5.3798   -4.5586    0.0000 O   0  0
    6.0993   -4.1476    0.0000 C   0  0  2  0  0  0
    6.0993   -3.3214    0.0000 C   0  0
    5.3798   -2.9104    0.0000 O   0  0
    6.8147   -4.5586    0.0000 C   0  0
    7.5237   -4.1476    0.0000 N   0  0
    8.2391   -4.5586    0.0000 C   0  0
    7.5237   -3.3214    0.0000 C   0  0
    6.8147   -2.9104    0.0000 C   0  0
    8.9523   -4.1476    0.0000 C   0  0
  1  2  2  0
  2  3  1  0
  3  4  2  0
  4  5  1  0
  5  6  2  0
  6  1  1  0
  4  7  1  0
  7  8  1  0
  8  9  1  0
  9 10  1  0
 10  5  1  0
  8 11  1  6
 11 12  1  0
 12 13  1  0
 12 14  1  0
 14 15  1  0
 13 16  1  0
M  END