
  SciTegic06051313522D

 37 40  0  0  0  0            999 V2000
    8.4708  -26.7343    0.0000 O   0  0
    8.8874  -27.4509    0.0000 S   0  0
    9.2997  -26.7318    0.0000 O   0  0
    2.4693  -27.9009    0.0000 C   0  0
    2.4682  -28.7283    0.0000 C   0  0
    3.1830  -29.1411    0.0000 C   0  0
    3.8994  -28.7278    0.0000 C   0  0
    3.8966  -27.8973    0.0000 C   0  0
    3.1812  -27.4881    0.0000 C   0  0
    4.6095  -27.4821    0.0000 C   0  0
    5.3255  -27.8919    0.0000 C   0  0
    5.3252  -28.7145    0.0000 C   0  0
    6.0404  -29.1243    0.0000 C   0  0
    6.7543  -28.7090    0.0000 C   0  0
    6.7485  -27.8798    0.0000 C   0  0
    6.0328  -27.4738    0.0000 N   0  0
    4.6145  -29.1392    0.0000 O   0  0
    4.6158  -29.9642    0.0000 C   0  0
    5.3309  -30.3755    0.0000 C   0  0
    5.3276  -31.1979    0.0000 C   0  0
    6.0419  -31.6092    0.0000 C   0  0
    6.7567  -31.1955    0.0000 C   0  0
    6.7527  -30.3662    0.0000 C   0  0
    6.0379  -29.9587    0.0000 C   0  0
    4.6125  -31.6093    0.0000 F   0  0
    7.4724  -31.6059    0.0000 Cl  0  0
    1.7548  -27.4886    0.0000 Cl  0  0
    7.4622  -27.4614    0.0000 C   0  0
    8.1796  -27.8687    0.0000 N   0  0
    7.4561  -26.6364    0.0000 O   0  0
    9.6085  -27.8582    0.0000 C   0  0
    9.6115  -28.6812    0.0000 C   0  0
   10.3281  -29.0884    0.0000 C   0  0
   11.0405  -28.6706    0.0000 C   0  0
   11.0318  -27.8414    0.0000 C   0  0
   10.3146  -27.4379    0.0000 C   0  0
   11.7585  -29.0769    0.0000 C   0  0
  2  1  2  0
  3  2  2  0
  4  5  2  0
  5  6  1  0
  6  7  2  0
  7  8  1  0
  8  9  2  0
  9  4  1  0
  8 10  1  0
 10 11  1  0
 11 12  2  0
 12 13  1  0
 13 14  2  0
 14 15  1  0
 15 16  2  0
 16 11  1  0
  7 17  1  0
 17 18  1  0
 18 19  1  0
 19 20  2  0
 20 21  1  0
 21 22  2  0
 22 23  1  0
 23 24  2  0
 24 19  1  0
 20 25  1  0
 22 26  1  0
  4 27  1  0
 28 29  1  0
 28 30  2  0
 15 28  1  0
 29  2  1  0
  2 31  1  0
 31 32  2  0
 32 33  1  0
 33 34  2  0
 34 35  1  0
 35 36  2  0
 36 31  1  0
 34 37  1  0
M  END