
  SciTegic12231509382D

 45 51  0  0  0  0            999 V2000
    0.8167   -0.1042    0.0000 N   0  0
    0.8167    0.6208    0.0000 C   0  0  1  0  0  0
   -0.2583    0.2333    0.0000 C   0  0  1  0  0  0
    0.1917   -0.3042    0.0000 C   0  0
    0.1542    0.8083    0.0000 O   0  0
   -2.1583   -1.8292    0.0000 C   0  0
   -2.1583   -3.2542    0.0000 C   0  0
    1.4292   -0.4792    0.0000 C   0  0  2  0  0  0
    2.0542   -0.1042    0.0000 C   0  0
    2.0542    0.6208    0.0000 N   0  0
   -2.3083   -3.9417    0.0000 C   0  0
   -0.9458    0.2458    0.0000 N   0  0
   -2.7583   -2.8917    0.0000 C   0  0
    1.4292    0.9708    0.0000 C   0  0  1  0  0  0
   -2.7583   -2.1792    0.0000 C   0  0
   -1.5333   -2.1792    0.0000 C   0  0  2  0  0  0
   -2.1583   -1.1167    0.0000 C   0  0
   -3.2208   -3.9417    0.0000 N   0  0
   -1.5458   -0.7667    0.0000 C   0  0  1  0  0  0
   -0.9333   -1.8292    0.0000 N   0  0
   -1.5458   -0.0667    0.0000 C   0  0
   -3.3708   -3.2542    0.0000 C   0  0
   -1.5333   -2.8917    0.0000 C   0  0
   -0.9458   -1.1167    0.0000 C   0  0
    0.0167   -0.9792    0.0000 O   0  0
    2.6667   -0.4667    0.0000 O   0  0
    0.7917    1.3958    0.0000 O   0  0
    1.4292   -1.1792    0.0000 C   0  0
   -0.5833    0.8708    0.0000 C   0  0
   -2.1583    0.2833    0.0000 O   0  0
   -1.8083   -4.4167    0.0000 Br  0  0
    2.5792    1.0833    0.0000 C   0  0
   -3.3708   -1.8292    0.0000 C   0  0
   -0.3333   -2.1792    0.0000 C   0  0
    1.5792    1.6458    0.0000 C   0  0
   -3.9833   -2.8917    0.0000 C   0  0
    2.2792    1.7458    0.0000 C   0  0
   -3.9833   -2.1792    0.0000 C   0  0
    2.0417   -1.5292    0.0000 C   0  0
   -1.2833    0.8958    0.0000 C   0  0
   -0.4208    1.5583    0.0000 C   0  0
    2.6417   -1.1792    0.0000 C   0  0
    2.0167   -2.2417    0.0000 C   0  0
   -0.9208   -2.5375    0.0000 H   0  0
    1.4667    0.2833    0.0000 H   0  0
  2  1  1  0
  3  4  1  0
  4  1  1  0
  5  2  1  0
  6 17  2  0
  7 23  1  0
  8  1  1  0
  9  8  1  0
 10  9  1  0
 11  7  2  0
 12  3  1  0
 13 15  1  0
 14  2  1  0
 15  6  1  0
 16 20  1  0
 17 19  1  0
 18 22  1  0
 19 21  1  1
 20 24  1  0
 21 12  1  0
 22 13  2  0
 23 16  1  0
 24 19  1  0
 25  4  2  0
 26  9  2  0
  2 27  1  6
  8 28  1  6
  3 29  1  1
 30 21  2  0
 31 11  1  0
 32 10  1  0
 33 15  2  0
 34 20  1  0
 35 14  1  0
 36 38  2  0
 37 35  1  0
 38 33  1  0
 39 28  1  0
 40 29  1  0
 41 29  1  0
 42 39  1  0
 43 39  1  0
 16 44  1  1
 14 45  1  1
  5  3  1  0
 14 10  1  0
 32 37  1  0
  6 16  1  0
 13  7  1  0
 22 36  1  0
 11 18  1  0
M  END