
          11280714472D 1   1.00000     0.00000     0

 39 40  0     1  0            999 V2000
   10.4417   -0.8542    0.0000 S   0  0  3  0  0  0           0  0  0
   11.2375   -0.6292    0.0000 C   0  0  0  0  0  0           0  0  0
   -1.7833   -1.4917    0.0000 S   0  0  3  0  0  0           0  0  0
    9.7292   -1.2667    0.0000 N   0  0  0  0  0  0           0  0  0
   12.5667   -0.6875    0.0000 N   0  0  0  0  0  0           0  0  0
    5.2625   -3.5000    0.0000 N   0  0  0  0  0  0           0  0  0
   11.5167    0.1375    0.0000 C   0  0  0  0  0  0           0  0  0
   11.8792   -1.1417    0.0000 C   0  0  0  0  0  0           0  0  0
   12.3417    0.1083    0.0000 O   0  0  0  0  0  0           0  0  0
    9.7292   -2.0917    0.0000 C   0  0  2  0  0  0           0  0  0
    4.8500   -2.7792    0.0000 C   0  0  0  0  0  0           0  0  0
   10.4417   -2.5042    0.0000 C   0  0  0  0  0  0           0  0  0
    6.0667   -3.3250    0.0000 O   0  0  0  0  0  0           0  0  0
    1.5667   -2.4417    0.0000 C   0  0  0  0  0  0           0  0  0
   10.6542   -1.6500    0.0000 O   0  0  0  0  0  0           0  0  0
   10.4417   -0.0292    0.0000 O   0  0  0  0  0  0           0  0  0
    7.5792   -2.5042    0.0000 C   0  0  0  0  0  0           0  0  0
    6.8667   -2.0917    0.0000 C   0  0  0  0  0  0           0  0  0
    5.4000   -2.1667    0.0000 C   0  0  0  0  0  0           0  0  0
    6.1542   -2.5042    0.0000 C   0  0  1  0  0  0           0  0  0
   -1.7833   -2.3167    0.0000 O   0  0  0  0  0  0           0  0  0
   -1.7875   -0.6667    0.0000 O   0  0  0  0  0  0           0  0  0
    4.0292   -2.6917    0.0000 C   0  0  0  0  0  0           0  0  0
    2.3917   -2.5250    0.0000 C   0  0  0  0  0  0           0  0  0
    1.2292   -1.6875    0.0000 N   0  0  0  0  0  0           0  0  0
    8.3000   -2.0917    0.0000 N   0  0  0  0  0  0           0  0  0
    9.0125   -2.5042    0.0000 C   0  0  0  0  0  0           0  0  0
   10.4417   -3.3292    0.0000 O   0  0  0  0  0  0           0  0  0
   -0.9583   -1.4917    0.0000 O   0  0  0  0  0  0           0  0  0
    7.5792   -3.3292    0.0000 O   0  0  0  0  0  0           0  0  0
    3.6917   -1.9417    0.0000 C   0  0  0  0  0  0           0  0  0
    3.5500   -3.3667    0.0000 C   0  0  0  0  0  0           0  0  0
    2.7292   -3.2792    0.0000 C   0  0  0  0  0  0           0  0  0
    2.8792   -1.8542    0.0000 C   0  0  0  0  0  0           0  0  0
    1.0875   -3.1042    0.0000 N   0  0  0  0  0  0           0  0  0
   -2.5000   -1.0792    0.0000 C   0  0  0  0  0  0           0  0  0
   11.1542   -2.0917    0.0000 O   0  0  0  0  0  0           0  0  0
   11.0667    0.8250    0.0000 C   0  0  0  0  0  0           0  0  0
   11.8417   -1.9667    0.0000 C   0  0  0  0  0  0           0  0  0
  2  1  1  0     0  0
  4  1  1  0     0  0
  5  8  2  0     0  0
  6 13  1  0     0  0
  7  2  2  0     0  0
  8  2  1  0     0  0
  9  7  1  0     0  0
 10  4  1  6     0  0
 11 19  1  0     0  0
 12 10  1  0     0  0
 13 20  1  0     0  0
 14 24  1  0     0  0
 15  1  2  0     0  0
 16  1  2  0     0  0
 17 26  1  0     0  0
 18 17  1  0     0  0
 19 20  1  0     0  0
 20 18  1  6     0  0
 21  3  2  0     0  0
 22  3  2  0     0  0
 23 11  1  0     0  0
 24 33  1  0     0  0
 25 14  2  0     0  0
 26 27  1  0     0  0
 27 10  1  0     0  0
 28 12  2  0     0  0
 29  3  1  0     0  0
 30 17  2  0     0  0
 31 23  2  0     0  0
 32 23  1  0     0  0
 33 32  2  0     0  0
 34 31  1  0     0  0
 35 14  1  0     0  0
 36  3  1  0     0  0
 37 12  1  0     0  0
 38  7  1  0     0  0
 39  8  1  0     0  0
  9  5  1  0     0  0
  6 11  2  0     0  0
 24 34  2  0     0  0
M  END