
          11280715232D 1   1.00000     0.00000     0

 28 31  0     0  0            999 V2000
    6.1875   -4.9417    0.0000 C   0  0  0  0  0  0           0  0  0
    5.6542   -6.1667    0.0000 N   0  0  0  0  0  0           0  0  0
    6.3667   -5.7500    0.0000 N   0  0  0  0  0  0           0  0  0
    5.0417   -5.6375    0.0000 N   0  0  0  0  0  0           0  0  0
    3.3417    0.0083    0.0000 C   0  0  0  0  0  0           0  0  0
    5.3667   -4.8667    0.0000 N   0  0  0  0  0  0           0  0  0
    6.9042   -4.5292    0.0000 C   0  0  0  0  0  0           0  0  0
    3.3417   -0.8167    0.0000 C   0  0  0  0  0  0           0  0  0
    4.0542    0.4250    0.0000 C   0  0  0  0  0  0           0  0  0
    6.9042   -3.7042    0.0000 C   0  0  0  0  0  0           0  0  0
    2.6292   -1.2292    0.0000 N   0  0  0  0  0  0           0  0  0
    4.0542   -1.2292    0.0000 N   0  0  0  0  0  0           0  0  0
    6.1917   -3.2917    0.0000 C   0  0  0  0  0  0           0  0  0
    1.9167    0.0083    0.0000 N   0  0  0  0  0  0           0  0  0
    4.0542    1.2500    0.0000 O   0  0  0  0  0  0           0  0  0
    1.9167   -0.8167    0.0000 C   0  0  0  0  0  0           0  0  0
    6.1917   -2.4667    0.0000 C   0  0  0  0  0  0           0  0  0
    5.4792   -3.7042    0.0000 C   0  0  0  0  0  0           0  0  0
    2.6292    0.4208    0.0000 C   0  0  0  0  0  0           0  0  0
    4.0542   -2.0542    0.0000 C   0  0  0  0  0  0           0  0  0
    4.7750    0.0208    0.0000 O   0  0  0  0  0  0           0  0  0
    4.7667   -2.4667    0.0000 C   0  0  0  0  0  0           0  0  0
    5.4792   -2.0542    0.0000 C   0  0  0  0  0  0           0  0  0
    4.7667   -3.2917    0.0000 C   0  0  0  0  0  0           0  0  0
    7.6167   -4.9417    0.0000 C   0  0  0  0  0  0           0  0  0
    7.6167   -3.2917    0.0000 C   0  0  0  0  0  0           0  0  0
    8.3292   -4.5292    0.0000 C   0  0  0  0  0  0           0  0  0
    8.3292   -3.7042    0.0000 C   0  0  0  0  0  0           0  0  0
  2  3  2  0     0  0
  3  1  1  0     0  0
  4  6  1  0     0  0
  5  8  1  0     0  0
  6  1  2  0     0  0
  7  1  1  0     0  0
  8 12  1  0     0  0
  9  5  1  0     0  0
 10  7  2  0     0  0
 11  8  2  0     0  0
 12 20  1  0     0  0
 13 10  1  0     0  0
 14 16  2  0     0  0
 15  9  2  0     0  0
 16 11  1  0     0  0
 17 13  2  0     0  0
 18 13  1  0     0  0
 19  5  2  0     0  0
 20 22  1  0     0  0
 21  9  1  0     0  0
 22 24  1  0     0  0
 23 17  1  0     0  0
 24 18  2  0     0  0
 25  7  1  0     0  0
 26 10  1  0     0  0
 27 25  2  0     0  0
 28 27  1  0     0  0
  2  4  1  0     0  0
 26 28  2  0     0  0
 22 23  2  0     0  0
 14 19  1  0     0  0
M  END