
  SciTegic12171313052D

 29 33  0  0  0  0            999 V2000
   15.1392   -4.8587    0.0000 C   0  0
   15.1392   -5.6845    0.0000 N   0  0
   15.8519   -6.0932    0.0000 C   0  0
   16.5646   -5.6845    0.0000 C   0  0
   16.5646   -4.8587    0.0000 C   0  0
   15.8519   -4.4417    0.0000 C   0  0
   16.5656   -4.0329    0.0000 C   0  0
   17.2782   -5.2675    0.0000 C   0  0
   17.9909   -4.8587    0.0000 N   0  0
   17.9909   -4.0329    0.0000 C   0  0
   17.2782   -3.6159    0.0000 C   0  0
   17.2785   -6.0932    0.0000 O   0  0
   14.4246   -6.0984    0.0000 C   0  0
   13.7096   -5.6853    0.0000 N   0  0
   13.7171   -7.3369    0.0000 N   0  0
   14.4282   -6.9213    0.0000 C   0  0
   12.9963   -6.9252    0.0000 C   0  0
   12.9981   -6.1015    0.0000 C   0  0
   12.2868   -5.6899    0.0000 C   0  0
   11.5733   -6.1008    0.0000 C   0  0
   11.5754   -6.9277    0.0000 C   0  0
   12.2873   -7.3356    0.0000 C   0  0
   18.7054   -5.2726    0.0000 C   0  0
   19.4212   -4.8608    0.0000 C   0  0
   20.1341   -5.2756    0.0000 C   0  0
   20.8493   -4.8645    0.0000 C   0  0
   20.8509   -4.0378    0.0000 C   0  0
   20.1315   -3.6241    0.0000 C   0  0
   19.4191   -4.0376    0.0000 C   0  0
  1  2  1  0
  1  6  1  0
  2  3  1  0
  3  4  1  0
  4  5  1  0
  5  6  1  0
  7  5  1  0
  7 11  1  0
  5  8  1  0
  8  9  1  0
  9 10  1  0
 10 11  1  0
  8 12  2  0
  2 13  1  0
 13 14  2  0
 14 18  1  0
 17 15  1  0
 15 16  2  0
 16 13  1  0
 17 18  1  0
 18 19  2  0
 19 20  1  0
 20 21  2  0
 21 22  1  0
 22 17  2  0
  9 23  1  0
 23 24  1  0
 24 25  2  0
 25 26  1  0
 26 27  2  0
 27 28  1  0
 28 29  2  0
 29 24  1  0
M  END