
          11280715452D 1   1.00000     0.00000     0

 32 34  0     0  0            999 V2000
   -1.8500    0.1750    0.0000 C   0  0  0  0  0  0           0  0  0
   -1.8583   -0.6500    0.0000 C   0  0  0  0  0  0           0  0  0
   -3.2750   -0.6500    0.0000 N   0  0  3  0  0  0           0  0  0
   -2.5625   -1.0667    0.0000 N   0  0  3  0  0  0           0  0  0
   -0.4208    0.1750    0.0000 S   0  0  3  0  0  0           0  0  0
   -3.2750    0.1750    0.0000 C   0  0  0  0  0  0           0  0  0
   -1.1375    0.5875    0.0000 N   0  0  0  0  0  0           0  0  0
    0.2875    0.5958    0.0000 C   0  0  0  0  0  0           0  0  0
   -1.1375   -1.0625    0.0000 O   0  0  0  0  0  0           0  0  0
   -1.1458   -0.2292    0.0000 O   0  0  0  0  0  0           0  0  0
    0.2875   -0.2375    0.0000 O   0  0  0  0  0  0           0  0  0
    3.1292    1.4500    0.0000 C   0  0  0  0  0  0           0  0  0
   -2.5625   -1.8875    0.0000 C   0  0  0  0  0  0           0  0  0
    5.2667    1.8958    0.0000 C   0  0  0  0  0  0           0  0  0
    2.4125    1.8583    0.0000 N   0  0  0  0  0  0           0  0  0
    3.1417    0.6250    0.0000 O   0  0  0  0  0  0           0  0  0
    5.2542    2.7208    0.0000 O   0  0  0  0  0  0           0  0  0
    1.0042    0.1875    0.0000 C   0  0  0  0  0  0           0  0  0
    0.2750    1.4125    0.0000 C   0  0  0  0  0  0           0  0  0
   -3.9958   -1.0542    0.0000 C   0  0  0  0  0  0           0  0  0
    1.7042    1.4333    0.0000 C   0  0  0  0  0  0           0  0  0
   -3.8583    0.7625    0.0000 C   0  0  0  0  0  0           0  0  0
    3.8417    1.8750    0.0000 C   0  0  0  0  0  0           0  0  0
    4.5625    1.4750    0.0000 C   0  0  0  0  0  0           0  0  0
    5.9917    1.4875    0.0000 O   0  0  0  0  0  0           0  0  0
    1.7125    0.6083    0.0000 C   0  0  0  0  0  0           0  0  0
    0.9792    1.8375    0.0000 C   0  0  0  0  0  0           0  0  0
   -1.8500   -2.3000    0.0000 C   0  0  0  0  0  0           0  0  0
   -3.2833   -2.3000    0.0000 C   0  0  0  0  0  0           0  0  0
   -1.8500   -3.1250    0.0000 C   0  0  0  0  0  0           0  0  0
   -3.2833   -3.1250    0.0000 C   0  0  0  0  0  0           0  0  0
   -2.5708   -3.5375    0.0000 C   0  0  0  0  0  0           0  0  0
  2  1  1  0     0  0
  3  6  1  0     0  0
  4  2  1  0     0  0
  5  7  1  0     0  0
  6  1  2  0     0  0
  7  1  1  0     0  0
  8  5  1  0     0  0
  9  2  2  0     0  0
 10  5  2  0     0  0
 11  5  2  0     0  0
 12 15  1  0     0  0
 13  4  1  0     0  0
 14 24  1  0     0  0
 15 21  1  0     0  0
 16 12  2  0     0  0
 17 14  2  0     0  0
 18  8  2  0     0  0
 19  8  1  0     0  0
 20  3  1  0     0  0
 21 27  1  0     0  0
 22  6  1  0     0  0
 23 12  1  0     0  0
 24 23  1  0     0  0
 25 14  1  0     0  0
 26 18  1  0     0  0
 27 19  2  0     0  0
 28 13  1  0     0  0
 29 13  2  0     0  0
 30 28  2  0     0  0
 31 29  1  0     0  0
 32 31  2  0     0  0
  4  3  1  0     0  0
 26 21  2  0     0  0
 30 32  1  0     0  0
M  END