
  SciTegic10301317112D

 36 37  0  0  0  0            999 V2000
   -2.8694    1.0203    0.0000 S   0  0
    0.4165    1.0328    0.0000 C   0  0
    7.1257   -3.0652    0.0000 C   0  0  1  0  0  0
    7.9503   -3.1235    0.0000 C   0  0
    6.7634   -2.3281    0.0000 N   0  0
   -2.0490    1.0245    0.0000 C   0  0
    5.9346   -2.3281    0.0000 C   0  0
    0.8371    0.3206    0.0000 N   0  0
   -2.8736    0.1999    0.0000 O   0  0
   -2.8694    1.8449    0.0000 O   0  0
    2.0782   -0.3790    0.0000 C   0  0
    4.2104   -0.9537    0.0000 C   0  0
   -0.4081    1.0328    0.0000 C   0  0
   -3.6982    1.0328    0.0000 N   0  0
    4.6894   -1.6242    0.0000 N   0  0
    2.9028   -0.3790    0.0000 N   0  0
    6.6634   -3.7524    0.0000 C   0  0
    0.8288    1.7574    0.0000 O   0  0
    8.4084   -2.4363    0.0000 O   0  0
    5.5265   -3.0485    0.0000 O   0  0
    1.6659   -1.0995    0.0000 O   0  0
    4.5395   -0.2041    0.0000 O   0  0
   -1.6450    1.7366    0.0000 C   0  0
   -1.6325    0.3123    0.0000 C   0  0
   -0.8121    0.3206    0.0000 C   0  0
   -0.8246    1.7449    0.0000 C   0  0
    1.6617    0.3331    0.0000 C   0  0
    5.5140   -1.6159    0.0000 C   0  0
    3.3900   -1.0412    0.0000 C   0  0
    8.3126   -3.8648    0.0000 O   0  0
    7.0340   -4.4895    0.0000 C   0  0
    7.8503   -4.5395    0.0000 C   0  0
    6.5718   -5.1642    0.0000 C   0  0
    6.9258   -5.9096    0.0000 C   0  0
    8.2127   -5.2766    0.0000 C   0  0
    7.7587   -5.9638    0.0000 C   0  0
  2 13  1  0
  3  5  1  0
  4  3  1  0
  5  7  1  0
  6  1  1  0
  7 28  1  0
  8  2  1  0
  9  1  2  0
 10  1  2  0
 11 27  1  0
 12 29  1  0
 13 25  2  0
 14  1  1  0
 15 12  1  0
 16 11  1  0
  3 17  1  6
 18  2  2  0
 19  4  2  0
 20  7  2  0
 21 11  2  0
 22 12  2  0
 23  6  1  0
 24  6  2  0
 25 24  1  0
 26 23  2  0
 27  8  1  0
 28 15  1  0
 29 16  1  0
 30  4  1  0
 31 17  1  0
 32 31  2  0
 33 31  1  0
 34 33  2  0
 35 32  1  0
 36 34  1  0
 13 26  1  0
 36 35  2  0
M  END