
  CDK    12/20/10,14:45

 41 45  0  0  0  0  0  0  0  0999 V2000
    9.4250   -0.7375    0.0000 N   0  0  0  0  0  0  0  0  0  0  0  0
    7.3000    1.3333    0.0000 C   0  0  0  0  0  0  0  0  0  0  0  0
    6.5542    1.6792    0.0000 N   0  0  0  0  0  0  0  0  0  0  0  0
    8.7042   -1.1500    0.0000 C   0  0  0  0  0  0  0  0  0  0  0  0
    9.4292    0.0833    0.0000 C   0  0  0  0  0  0  0  0  0  0  0  0
    7.2083    0.5250    0.0000 N   0  0  0  0  0  0  0  0  0  0  0  0
    8.7167    0.5000    0.0000 C   0  0  0  0  0  0  0  0  0  0  0  0
    7.9750   -3.2083    0.0000 C   0  0  0  0  0  0  0  0  0  0  0  0
   10.1375   -1.1583    0.0000 C   0  0  0  0  0  0  0  0  0  0  0  0
    8.0125    1.7375    0.0000 C   0  0  0  0  0  0  0  0  0  0  0  0
    8.7208    1.3208    0.0000 N   0  0  0  0  0  0  0  0  0  0  0  0
    7.9833   -2.3792    0.0000 C   0  0  0  0  0  0  0  0  0  0  0  0
   10.1458    0.4917    0.0000 C   0  0  0  0  0  0  0  0  0  0  0  0
    8.6875   -3.6208    0.0000 C   0  0  0  0  0  0  0  0  0  0  0  0
    7.2542   -3.6125    0.0000 C   0  0  0  0  0  0  0  0  0  0  0  0
    8.0208    2.5625    0.0000 C   0  0  0  0  0  0  0  0  0  0  0  0
    8.7000   -1.9750    0.0000 C   0  0  0  0  0  0  0  0  0  0  0  0
    6.0000    1.0750    0.0000 C   0  0  0  0  0  0  0  0  0  0  0  0
    6.4042    0.3583    0.0000 C   0  0  0  0  0  0  0  0  0  0  0  0
   10.8542   -0.7500    0.0000 C   0  0  0  0  0  0  0  0  0  0  0  0
   10.8625    0.0750    0.0000 C   0  0  0  0  0  0  0  0  0  0  0  0
    8.7375    2.9667    0.0000 C   0  0  0  0  0  0  0  0  0  0  0  0
    7.2500   -4.4375    0.0000 C   0  0  0  0  0  0  0  0  0  0  0  0
    8.6833   -4.4458    0.0000 C   0  0  0  0  0  0  0  0  0  0  0  0
    7.9625   -4.8542    0.0000 C   0  0  0  0  0  0  0  0  0  0  0  0
    7.9917   -0.7292    0.0000 O   0  0  0  0  0  0  0  0  0  0  0  0
    8.0000    0.0958    0.0000 O   0  0  0  0  0  0  0  0  0  0  0  0
    8.7417    3.7875    0.0000 O   0  0  0  0  0  0  0  0  0  0  0  0
    6.5458   -3.1917    0.0000 F   0  0  0  0  0  0  0  0  0  0  0  0
    9.4042   -3.2083    0.0000 F   0  0  0  0  0  0  0  0  0  0  0  0
    9.4125   -2.3917    0.0000 N   0  0  0  0  0  0  0  0  0  0  0  0
    9.4458    2.5500    0.0000 O   0  0  0  0  0  0  0  0  0  0  0  0
    7.9583   -5.6792    0.0000 O   0  0  0  0  0  0  0  0  0  0  0  0
    5.1833    1.0833    0.0000 C   0  0  0  0  0  0  0  0  0  0  0  0
    5.9917   -0.3458    0.0000 C   0  0  0  0  0  0  0  0  0  0  0  0
   11.5792    0.4833    0.0000 C   0  0  0  0  0  0  0  0  0  0  0  0
   11.5667   -1.1708    0.0000 C   0  0  0  0  0  0  0  0  0  0  0  0
   12.2833   -0.7625    0.0000 C   0  0  0  0  0  0  0  0  0  0  0  0
    4.7667    0.3750    0.0000 C   0  0  0  0  0  0  0  0  0  0  0  0
    5.1708   -0.3417    0.0000 C   0  0  0  0  0  0  0  0  0  0  0  0
   12.2875    0.0667    0.0000 C   0  0  0  0  0  0  0  0  0  0  0  0
  2 10  1  0  0  0  0 
  3  2  2  0  0  0  0 
  4  1  1  0  0  0  0 
  5  1  1  0  0  0  0 
  6  2  1  0  0  0  0 
  5  7  1  6  0  0  0 
  8 12  1  0  0  0  0 
  9  1  1  0  0  0  0 
 10 11  1  0  0  0  0 
 11  7  1  0  0  0  0 
 12 17  1  0  0  0  0 
 13  5  1  0  0  0  0 
 14  8  1  0  0  0  0 
 15  8  2  0  0  0  0 
 10 16  1  6  0  0  0 
 17  4  1  0  0  0  0 
 18  3  1  0  0  0  0 
 19  6  1  0  0  0  0 
 20  9  1  0  0  0  0 
 21 13  1  0  0  0  0 
 22 16  1  0  0  0  0 
 23 15  1  0  0  0  0 
 24 14  2  0  0  0  0 
 25 23  2  0  0  0  0 
 26  4  2  0  0  0  0 
 27  7  2  0  0  0  0 
 28 22  2  0  0  0  0 
 29 15  1  0  0  0  0 
 30 14  1  0  0  0  0 
 17 31  1  1  0  0  0 
 32 22  1  0  0  0  0 
 33 25  1  0  0  0  0 
 34 18  1  0  0  0  0 
 35 19  1  0  0  0  0 
 36 21  1  0  0  0  0 
 37 20  1  0  0  0  0 
 38 37  2  0  0  0  0 
 39 34  2  0  0  0  0 
 40 35  2  0  0  0  0 
 41 36  2  0  0  0  0 
 20 21  2  0  0  0  0 
 38 41  1  0  0  0  0 
 18 19  2  0  0  0  0 
 24 25  1  0  0  0  0 
 40 39  1  0  0  0  0 
M  END