
  SciTegic05061116452D

 89 97  0  0  0  0            999 V2000
   -3.7140  -19.3508    0.0000 C   0  0
   -3.7154  -20.1784    0.0000 C   0  0
   -3.0043  -18.9380    0.0000 C   0  0
   -2.2862  -19.3468    0.0000 C   0  0
   -0.8419  -20.1740    0.0000 C   0  0
   -2.2825  -20.1804    0.0000 C   0  0
   -3.0034  -20.5900    0.0000 C   0  0
   -2.6534  -21.3106    0.0000 N   0  0
   -1.9623  -21.3114    0.0000 C   0  0
   -1.5602  -20.5929    0.0000 C   0  0
   -1.5701  -18.9245    0.0000 C   0  0
   -0.8434  -19.3390    0.0000 C   0  0  2  0  0  0
   -0.1251  -18.9192    0.0000 N   0  0
   -0.1272  -18.0832    0.0000 C   0  0
   -0.8538  -17.6687    0.0000 C   0  0  1  0  0  0
   -1.5785  -18.0903    0.0000 C   0  0
    0.5910  -19.3290    0.0000 C   0  0
   -0.8573  -16.8437    0.0000 C   0  0
   -0.1446  -16.4282    0.0000 N   0  0
   -1.5735  -16.4342    0.0000 O   0  0
   -0.1482  -15.6032    0.0000 C   0  0  2  0  0  0
    0.5646  -15.1877    0.0000 C   0  0
   -0.8644  -15.1937    0.0000 C   0  0
    1.2808  -15.5971    0.0000 O   0  0
    0.5611  -14.3627    0.0000 N   0  0
    1.2738  -13.9471    0.0000 C   0  0  2  0  0  0
    1.2703  -13.1221    0.0000 C   0  0
    1.9826  -12.7072    0.0000 N   0  0
    0.5541  -12.7127    0.0000 O   0  0
    1.9900  -14.3566    0.0000 C   0  0
    2.8140  -14.3621    0.0000 C   0  0
    3.2197  -15.0785    0.0000 C   0  0
    4.0439  -15.0841    0.0000 C   0  0
    4.4619  -14.3718    0.0000 C   0  0
    4.0496  -13.6523    0.0000 C   0  0
    3.2267  -13.6501    0.0000 C   0  0
   -0.1375  -19.7496    0.0000 H   0  0
   -0.8678  -14.3687    0.0000 C   0  0
   -0.1515  -13.9575    0.0000 C   0  0
   -0.1545  -13.1332    0.0000 C   0  0
   -0.8713  -12.7229    0.0000 C   0  0
   -1.5864  -13.1429    0.0000 C   0  0
   -1.5797  -13.9657    0.0000 C   0  0
   -0.8775  -11.8923    0.0000 N   0  3
   -1.5942  -11.4838    0.0000 O   0  0
   -0.1652  -11.4759    0.0000 O   0  5
    5.2869  -14.3760    0.0000 F   0  0
    2.6947  -13.1200    0.0000 C   0  0
    3.4049  -12.7085    0.0000 C   0  0
    3.4059  -11.8838    0.0000 C   0  0
    2.6906  -11.4722    0.0000 C   0  0
    1.9742  -11.8854    0.0000 C   0  0
    2.6903  -10.6472    0.0000 C   0  0
    3.4045  -10.2344    0.0000 N   0  0
    1.9756  -10.2351    0.0000 O   0  0
    3.4042   -9.4094    0.0000 C   0  0
    2.6895   -8.9972    0.0000 C   0  0
    2.6892   -8.1722    0.0000 C   0  0
    1.9745   -7.7601    0.0000 C   0  0
    1.9741   -6.9351    0.0000 C   0  0
    1.2594   -6.5229    0.0000 C   0  0
    1.2591   -5.6979    0.0000 N   0  0
    0.5452   -6.9357    0.0000 O   0  0
    0.5444   -5.2857    0.0000 C   0  0
    0.5441   -4.4607    0.0000 C   0  0
   -0.1706   -4.0485    0.0000 C   0  0
   -0.1710   -3.2235    0.0000 C   0  0
   -0.8857   -2.8114    0.0000 C   0  0  2  0  0  0
   -0.8860   -1.9864    0.0000 N   0  0
   -1.5999   -3.2242    0.0000 C   0  0
   -2.3146   -2.8120    0.0000 O   0  0
   -1.5996   -4.0492    0.0000 N   0  0
   -0.1718   -1.5735    0.0000 C   0  0
   -0.1721   -0.7485    0.0000 C   0  0
    0.5428   -1.9857    0.0000 O   0  0
    0.5421   -0.3357    0.0000 C   0  0
    0.5417    0.4893    0.0000 C   0  0
    1.2560    0.9021    0.0000 C   0  0
    1.2556    1.7271    0.0000 C   0  0  1  0  0  0
    1.9215    2.2067    0.0000 S   0  0
    1.6662    2.9911    0.0000 C   0  0
    0.5866    2.2060    0.0000 C   0  0  1  0  0  0
    0.8427    2.9877    0.0000 C   0  0  2  0  0  0
    0.1784    3.4729    0.0000 N   0  0
   -0.4883    2.9910    0.0000 C   0  0
   -0.2359    2.2080    0.0000 N   0  0
   -1.2724    3.2477    0.0000 O   0  0
    0.3666    1.4162    0.0000 H   0  0
    1.2466    3.7034    0.0000 H   0  0
  1  2  2  0
 42 43  2  0
 43 38  1  0
 18 20  2  0
  7  8  1  0
 19 21  1  0
 44 45  2  0
 44 46  1  0
 41 44  1  0
  8  9  1  0
 34 47  1  0
 28 48  1  0
 21 22  1  0
  9 10  2  0
 21 23  1  1
 10  6  1  0
 22 24  2  0
 28 52  1  0
 48 49  1  0
 49 50  1  0
 50 51  1  0
 51 52  1  0
 11 12  1  0
 51 53  1  0
 22 25  1  0
 53 54  1  0
  2  7  1  0
 53 55  2  0
 25 26  1  0
 54 56  1  0
  4 11  1  0
 56 57  1  0
 26 27  1  0
 57 58  1  0
 10  5  1  0
 58 59  1  0
 27 28  1  0
 59 60  1  0
  5 12  1  0
 60 61  1  0
 27 29  2  0
 61 62  1  0
  6  7  2  0
 61 63  2  0
 26 30  1  6
 62 64  1  0
 64 65  1  0
 30 31  1  0
 65 66  1  0
 11 16  2  0
 66 67  1  0
 31 32  2  0
 68 67  1  1
 12 13  1  0
 68 69  1  0
 32 33  1  0
 68 70  1  0
 13 14  1  0
 70 71  2  0
 33 34  2  0
 70 72  1  0
 14 15  1  0
 69 73  1  0
 34 35  1  0
 73 74  1  0
 15 16  1  0
 73 75  2  0
 35 36  2  0
 74 76  1  0
 36 31  1  0
 76 77  1  0
  4  3  2  0
 77 78  1  0
 12 37  1  1
 79 78  1  6
 79 80  1  0
 13 17  1  0
 23 38  1  0
 80 81  1  0
 81 83  1  0
 82 79  1  0
 82 83  1  0
  3  1  1  0
 38 39  2  0
 15 18  1  1
 39 40  1  0
  4  6  1  0
 83 84  1  0
 84 85  1  0
 85 86  1  0
 86 82  1  0
 40 41  2  0
 85 87  2  0
 18 19  1  0
 82 88  1  1
 41 42  1  0
 83 89  1  1
M  CHG  2  44   1  46  -1
M  END