
  SciTegic01161211252D

 25 28  0  0  0  0            999 V2000
   -2.8118    0.7835    0.0000 N   0  0
   -2.0109    0.9626    0.0000 C   0  0
   -1.3650    0.4463    0.0000 C   0  0
   -3.1726    0.0392    0.0000 C   0  0
   -1.3632   -0.3773    0.0000 N   0  0
   -2.8148   -0.7057    0.0000 C   0  0
   -2.0093   -0.8881    0.0000 C   0  0
   -0.6494   -0.7908    0.0000 C   0  0
   -0.6514   -1.6158    0.0000 O   0  0
    0.0659   -0.3807    0.0000 C   0  0  2  0  0  0
    0.7363   -0.8558    0.0000 N   0  0
    1.3966   -0.3611    0.0000 C   0  0
    1.1301    0.4198    0.0000 C   0  0  2  0  0  0
    0.3053    0.4075    0.0000 C   0  0
    1.6053    1.0944    0.0000 O   0  0
    1.2000    1.8129    0.0000 C   0  0
    1.6213    2.5201    0.0000 C   0  0
    1.2166    3.2382    0.0000 C   0  0
    0.3908    3.2469    0.0000 C   0  0
   -0.0287    2.5316    0.0000 C   0  0
    0.3783    1.8164    0.0000 C   0  0
   -3.3926    1.3694    0.0000 C   0  0
   -3.3884    2.1955    0.0000 C   0  0
   -4.2134    2.1992    0.0000 C   0  0
   -4.2171    1.3742    0.0000 C   0  0
  5  7  1  0
 11 12  1  0
 12 13  1  0
 13 14  1  0
 14 10  1  0
  6  7  1  0
 13 15  1  6
  1  4  1  0
 15 16  1  0
  5  8  1  0
 16 17  2  0
 17 18  1  0
  8  9  2  0
 18 19  2  0
  3  5  1  0
 19 20  1  0
 10  8  1  1
 20 21  2  0
 21 16  1  0
 10 11  1  0
  1 22  1  0
 22 23  1  0
  2  3  1  0
  4  6  1  0
  1  2  1  0
 23 24  1  0
 24 25  1  0
 25 22  1  0
M  END