
  SciTegic01161211232D

 27 30  0  0  0  0            999 V2000
    2.9250   -0.0333    0.0000 C   0  0
    2.9250   -0.8583    0.0000 C   0  0  1  0  0  0
    3.6370   -1.2667    0.0000 C   0  0
    3.6370    0.3833    0.0000 C   0  0
    4.3490   -0.0333    0.0000 C   0  0  1  0  0  0
    4.3501   -0.8583    0.0000 C   0  0
    5.0611   -1.2676    0.0000 C   0  0
    5.7757   -0.8565    0.0000 C   0  0
    5.0590    0.3824    0.0000 C   0  0  2  0  0  0
    5.7743   -0.0361    0.0000 C   0  0  2  0  0  0
    5.7822    1.6183    0.0000 C   0  0
    5.0599    1.2087    0.0000 C   0  0
    6.4974    1.1998    0.0000 C   0  0  1  0  0  0
    6.4892    0.3703    0.0000 C   0  0  1  0  0  0
    7.2756    0.1062    0.0000 C   0  0
    7.7698    0.7725    0.0000 C   0  0
    7.2888    1.4483    0.0000 C   0  0  2  0  0  0
    2.2111   -1.2719    0.0000 O   0  0
    4.3417    0.7917    0.0000 C   0  0
    6.4917    2.0250    0.0000 C   0  0
    7.5514    2.2303    0.0000 C   0  0
    8.3601    2.3939    0.0000 O   0  0
    7.0055    2.8488    0.0000 C   0  0
    5.0542   -0.4417    0.0000 H   0  0
    6.4833   -0.4542    0.0000 H   0  0
    5.7667    0.7917    0.0000 H   0  0
    8.1125    1.4500    0.0000 O   0  0
 11 12  1  0
 13 14  1  0
  1  2  1  0
  1  4  1  0
  2  3  1  0
  5  9  1  0
  6  7  2  0
 14 15  1  0
 15 16  1  0
 16 17  1  0
 17 13  1  0
  7  8  1  0
  2 18  1  1
  8 10  1  0
  5 19  1  1
  9 10  1  0
 13 20  1  1
  3  6  1  0
 17 21  1  1
  5  4  1  0
 21 22  2  0
  5  6  1  0
 21 23  1  0
  9 24  1  6
  9 12  1  0
 14 25  1  6
 10 14  1  0
 10 26  1  1
 13 11  1  0
 17 27  1  0
M  END