
  SciTegic09171211542D

 22 23  0  0  0  0            999 V2000
    5.7523  -24.2940    0.0000 C   0  0
    5.7512  -25.1213    0.0000 C   0  0
    6.4659  -25.5341    0.0000 C   0  0
    6.4641  -23.8812    0.0000 C   0  0
    7.1795  -24.2904    0.0000 C   0  0
    7.1843  -25.1167    0.0000 C   0  0
    7.9717  -25.3675    0.0000 N   0  0
    8.4536  -24.6961    0.0000 C   0  0
    7.9639  -24.0304    0.0000 S   0  0
    9.2785  -24.6913    0.0000 S   0  0
    5.0378  -23.8817    0.0000 N   0  0
    5.0376  -23.0568    0.0000 C   0  0
    4.3231  -22.6444    0.0000 C   0  0
    5.7519  -22.6441    0.0000 O   0  0
    3.6087  -23.0571    0.0000 C   0  0
    2.8943  -22.6448    0.0000 N   0  0
    2.1799  -23.0575    0.0000 C   0  0
    1.4677  -22.6451    0.0000 N   0  0
    2.1801  -23.8824    0.0000 O   0  0
    9.6952  -25.4032    0.0000 C   0  0
   10.5201  -25.3983    0.0000 C   0  0
   10.9368  -26.1104    0.0000 C   0  0
  5  6  1  0
  1 11  1  0
 11 12  1  0
  2  3  1  0
 12 13  1  0
  3  6  2  0
 12 14  2  0
  1  2  2  0
 13 15  1  0
  5  4  2  0
 15 16  1  0
  6  7  1  0
 16 17  1  0
  7  8  2  0
 17 18  1  0
  8  9  1  0
 17 19  2  0
  9  5  1  0
 10 20  1  0
  4  1  1  0
 20 21  1  0
  8 10  1  0
 21 22  1  0
M  END