
  SciTegic11201309402D

 69 71  0  0  1  0            999 V2000
   11.5625   -2.5667    0.0000 N   0  0
   11.0417   -2.2750    0.0000 C   0  0
   12.2250   -1.7542    0.0000 C   0  0
   12.1000   -2.3292    0.0000 C   0  0
    9.5167   -2.5667    0.0000 C   0  0
    6.4542   -2.5667    0.0000 C   0  0
   11.7792   -1.3667    0.0000 N   0  0
    8.5000   -2.5667    0.0000 N   0  0
    5.4375   -2.5667    0.0000 N   0  0
   10.5417   -2.5667    0.0000 C   0  0  1  0  0  0
    7.9875   -2.2750    0.0000 C   0  0
    4.9250   -2.2750    0.0000 C   0  0
   10.0292   -2.2750    0.0000 N   0  0
    3.3917   -2.5667    0.0000 C   0  0
    6.9667   -2.2750    0.0000 N   0  0
    5.9500   -2.2750    0.0000 C   0  0  1  0  0  0
    9.0125   -2.2750    0.0000 C   0  0  1  0  0  0
    3.9042   -2.2750    0.0000 N   0  0
   11.9042   -0.7792    0.0000 C   0  0  2  0  0  0
   11.8042   -3.1042    0.0000 C   0  0
    7.4792   -2.5667    0.0000 C   0  0  1  0  0  0
   11.7042   -3.8042    0.0000 N   0  0
   12.3417   -2.8625    0.0000 C   0  0
    5.4375   -4.9292    0.0000 C   0  0
   11.4667   -0.3917    0.0000 C   0  0
   10.9542   -3.7750    0.0000 C   0  0
   10.5417   -3.1542    0.0000 C   0  0
    2.8042   -2.5667    0.0000 C   0  0
    4.4167   -2.5667    0.0000 C   0  0  1  0  0  0
   11.2917   -4.9500    0.0000 N   0  0
   11.9042   -4.5375    0.0000 C   0  0
    5.4375   -4.3417    0.0000 N   0  0
   11.0417   -1.6875    0.0000 O   0  0
   12.7750   -1.5792    0.0000 O   0  0
    9.5167   -3.1542    0.0000 O   0  0
    6.4542   -3.1542    0.0000 O   0  0
   10.7042   -4.4792    0.0000 C   0  0
    7.9875   -1.6875    0.0000 O   0  0
    4.9250   -1.6875    0.0000 O   0  0
    3.3917   -3.1542    0.0000 O   0  0
    7.4792   -3.1542    0.0000 C   0  0
   10.9042   -0.5750    0.0000 O   0  0
    5.9500   -5.2167    0.0000 N   0  0
    4.9250   -5.2167    0.0000 N   0  0
    5.9500   -1.6875    0.0000 C   0  0
    2.5083   -3.0792    0.0000 N   0  0
    9.0125   -1.6875    0.0000 C   0  0  2  0  0  0
   12.4667   -0.6042    0.0000 C   0  0  1  0  0  0
    7.9875   -3.4542    0.0000 C   0  0
   11.5917    0.1875    0.0000 O   0  0
    9.0125   -4.0375    0.0000 C   0  0
    8.5000   -3.1542    0.0000 C   0  0
    7.9875   -4.0375    0.0000 C   0  0
    9.0125   -3.4542    0.0000 C   0  0
    8.5000   -4.3417    0.0000 C   0  0
    9.5167   -4.3417    0.0000 O   0  0
    3.1000   -2.0625    0.0000 C   0  0
    2.3917   -2.1542    0.0000 C   0  0
    4.9250   -4.0375    0.0000 C   0  0
    4.4167   -3.1542    0.0000 C   0  0
   12.5917   -0.0167    0.0000 C   0  0
    8.5000   -1.3917    0.0000 C   0  0
    6.4542   -1.3917    0.0000 C   0  0
    5.4375   -1.3917    0.0000 C   0  0
    9.5167   -1.3917    0.0000 C   0  0
   12.8917   -1.0042    0.0000 C   0  0
    4.9250   -3.4542    0.0000 C   0  0
    8.5000   -0.8042    0.0000 C   0  0
   13.1417    0.1625    0.0000 C   0  0
  2  1  1  0
  3  4  1  0
  4  1  1  0
  5 13  1  0
  6 15  1  0
  7  3  1  0
 17  8  1  1
 16  9  1  1
 10  2  1  0
 11  8  1  0
 12  9  1  0
 10 13  1  6
 14 18  1  0
 21 15  1  6
 16  6  1  0
 17  5  1  0
 29 18  1  6
 19  7  1  6
 20  1  1  0
 21 11  1  0
 22 26  1  0
 23 20  1  0
 24 32  2  0
 25 19  1  0
 26 27  1  0
 10 27  1  0
 28 14  1  0
 29 12  1  0
 30 37  1  0
 31 22  2  0
 32 59  1  0
 33  2  2  0
 34  3  2  0
 35  5  2  0
 36  6  2  0
 37 26  2  0
 38 11  2  0
 39 12  2  0
 40 14  2  0
 21 41  1  0
 42 25  2  0
 43 24  1  0
 44 24  1  0
 16 45  1  0
 46 28  1  0
 17 47  1  0
 19 48  1  0
 49 41  1  0
 50 25  1  0
 51 55  2  0
 52 49  1  0
 53 49  2  0
 54 52  2  0
 55 53  1  0
 56 51  1  0
 57 28  1  0
 58 28  1  0
 59 67  1  0
 29 60  1  0
 61 48  1  0
 62 47  1  0
 63 45  1  0
 64 45  1  0
 47 65  1  6
 48 66  1  1
 67 60  1  0
 68 62  1  0
 69 61  1  0
 23  4  1  0
 31 30  1  0
 54 51  1  0
M  END