
          05080814042D 1   1.00000     0.00000     0

 37 41  0     1  0            999 V2000
    7.7435  -13.2905    0.0000 C   0  0  0  0  0  0           0  0  0
    7.0327  -13.7054    0.0000 C   0  0  0  0  0  0           0  0  0
    7.0397  -14.5317    0.0000 C   0  0  0  0  0  0           0  0  0
    7.7536  -14.9352    0.0000 C   0  0  0  0  0  0           0  0  0
    8.4567  -13.6977    0.0000 C   0  0  0  0  0  0           0  0  0
    8.4628  -14.5254    0.0000 C   0  0  0  0  0  0           0  0  0
    9.1786  -14.9317    0.0000 C   0  0  0  0  0  0           0  0  0
    9.1665  -13.2764    0.0000 C   0  0  0  0  0  0           0  0  0
    9.8870  -13.6872    0.0000 C   0  0  2  0  0  0           0  0  0
    9.8915  -14.5168    0.0000 C   0  0  2  0  0  0           0  0  0
   10.6083  -14.9255    0.0000 N   0  0  3  0  0  0           0  0  0
   11.3251  -14.5090    0.0000 C   0  0  0  0  0  0           0  0  0
   11.3206  -13.6794    0.0000 C   0  0  1  0  0  0           0  0  0
   10.5992  -13.2662    0.0000 C   0  0  0  0  0  0           0  0  0
    9.8792  -12.8583    0.0000 H   0  0  0  0  0  0           0  0  0
    9.8833  -15.3417    0.0000 H   0  0  0  0  0  0           0  0  0
   12.0332  -13.2637    0.0000 C   0  0  0  0  0  0           0  0  0
   12.7495  -13.6730    0.0000 N   0  0  3  0  0  0           0  0  0
   12.0295  -12.4387    0.0000 O   0  0  0  0  0  0           0  0  0
   12.7472  -14.5012    0.0000 C   0  0  0  0  0  0           0  0  0
   13.4594  -14.9104    0.0000 C   0  0  0  0  0  0           0  0  0
   14.1745  -14.4982    0.0000 N   0  0  3  0  0  0           0  0  0
   14.1728  -13.6722    0.0000 C   0  0  0  0  0  0           0  0  0
   13.4560  -13.2585    0.0000 C   0  0  0  0  0  0           0  0  0
    7.7395  -12.4655    0.0000 O   0  0  0  0  0  0           0  0  0
    7.0230  -12.0564    0.0000 C   0  0  0  0  0  0           0  0  0
   10.6117  -15.7504    0.0000 C   0  0  0  0  0  0           0  0  0
   14.8892  -14.9102    0.0000 C   0  0  0  0  0  0           0  0  0
   14.8853  -15.7344    0.0000 C   0  0  0  0  0  0           0  0  0
   15.5992  -16.1463    0.0000 C   0  0  0  0  0  0           0  0  0
   16.3144  -15.7333    0.0000 C   0  0  0  0  0  0           0  0  0
   16.3112  -14.9040    0.0000 C   0  0  0  0  0  0           0  0  0
   15.5967  -14.4958    0.0000 C   0  0  0  0  0  0           0  0  0
   17.0297  -16.1444    0.0000 C   0  0  3  0  0  0           0  0  0
   17.7417  -16.5542    0.0000 F   0  0  0  0  0  0           0  0  0
   17.4410  -15.4292    0.0000 F   0  0  0  0  0  0           0  0  0
   16.6214  -16.8613    0.0000 F   0  0  0  0  0  0           0  0  0
  7 10  1  0     0  0
 17 18  1  0     0  0
  9  8  1  0     0  0
 17 19  2  0     0  0
 18 20  1  0     0  0
  9 10  1  0     0  0
  3  4  2  0     0  0
  4  6  1  0     0  0
  5  6  2  0     0  0
  1  2  2  0     0  0
 18 24  1  0     0  0
 20 21  1  0     0  0
 21 22  1  0     0  0
 22 23  1  0     0  0
 23 24  1  0     0  0
  5  1  1  0     0  0
  1 25  1  0     0  0
  2  3  1  0     0  0
 25 26  1  0     0  0
  9 14  1  0     0  0
 11 27  1  0     0  0
 10 11  1  0     0  0
 22 28  1  0     0  0
 11 12  1  0     0  0
 28 29  2  0     0  0
 12 13  1  0     0  0
 29 30  1  0     0  0
 13 14  1  0     0  0
 30 31  2  0     0  0
 31 32  1  0     0  0
  9 15  1  6     0  0
 32 33  2  0     0  0
 33 28  1  0     0  0
  5  8  1  0     0  0
 31 34  1  0     0  0
 10 16  1  1     0  0
 34 35  1  0     0  0
  6  7  1  0     0  0
 34 36  1  0     0  0
 13 17  1  1     0  0
 34 37  1  0     0  0
M  END