
  CDK    8/10/10,12:22

 19 21  0  0  0  0  0  0  0  0999 V2000
    7.8542   -6.5042    0.0000 C   0  0  0  0  0  0  0  0  0  0  0  0
    7.1375   -6.9250    0.0000 C   0  0  0  0  0  0  0  0  0  0  0  0
    6.4167   -6.5167    0.0000 C   0  0  0  0  0  0  0  0  0  0  0  0
    7.8542   -5.6750    0.0000 C   0  0  0  0  0  0  0  0  0  0  0  0
    6.4167   -5.6792    0.0000 C   0  0  0  0  0  0  0  0  0  0  0  0
    7.1292   -5.2625    0.0000 O   0  0  0  0  0  0  0  0  0  0  0  0
    8.5667   -6.9167    0.0000 C   0  0  0  0  0  0  0  0  0  0  0  0
    5.7000   -6.9250    0.0000 C   0  0  0  0  0  0  0  0  0  0  0  0
    5.7000   -5.2750    0.0000 C   0  0  0  0  0  0  0  0  0  0  0  0
    7.1417   -7.7500    0.0000 O   0  0  0  0  0  0  0  0  0  0  0  0
    9.2792   -6.5042    0.0000 C   0  0  0  0  0  0  0  0  0  0  0  0
    8.5667   -7.7417    0.0000 C   0  0  0  0  0  0  0  0  0  0  0  0
    4.9917   -5.6875    0.0000 C   0  0  0  0  0  0  0  0  0  0  0  0
    4.9875   -6.5125    0.0000 C   0  0  0  0  0  0  0  0  0  0  0  0
   10.0000   -7.7375    0.0000 C   0  0  0  0  0  0  0  0  0  0  0  0
    9.2792   -8.1542    0.0000 C   0  0  0  0  0  0  0  0  0  0  0  0
    9.9917   -6.9125    0.0000 C   0  0  0  0  0  0  0  0  0  0  0  0
    4.2750   -5.2750    0.0000 O   0  0  0  0  0  0  0  0  0  0  0  0
   10.7083   -8.1500    0.0000 O   0  0  0  0  0  0  0  0  0  0  0  0
  2  1  1  0  0  0  0 
  3  2  1  0  0  0  0 
  4  1  2  0  0  0  0 
  5  6  1  0  0  0  0 
  6  4  1  0  0  0  0 
  7  1  1  0  0  0  0 
  8  3  2  0  0  0  0 
  9  5  2  0  0  0  0 
 10  2  2  0  0  0  0 
 11  7  1  0  0  0  0 
 12  7  2  0  0  0  0 
 13  9  1  0  0  0  0 
 14  8  1  0  0  0  0 
 15 16  2  0  0  0  0 
 16 12  1  0  0  0  0 
 17 11  2  0  0  0  0 
 18 13  1  0  0  0  0 
 19 15  1  0  0  0  0 
 17 15  1  0  0  0  0 
  5  3  1  0  0  0  0 
 13 14  2  0  0  0  0 
M  END