
  Mrv0541 04051115152D          

 15 16  0  0  0  0            999 V2000
   -1.4560    0.0485    0.0000 C   0  0  0  0  0  0  0  0  0  0  0  0
   -1.4560   -0.7765    0.0000 C   0  0  0  0  0  0  0  0  0  0  0  0
   -0.7415   -1.1890    0.0000 C   0  0  0  0  0  0  0  0  0  0  0  0
   -0.0270   -0.7765    0.0000 C   0  0  0  0  0  0  0  0  0  0  0  0
   -0.0270    0.0485    0.0000 C   0  0  0  0  0  0  0  0  0  0  0  0
   -0.7415    0.4610    0.0000 C   0  0  0  0  0  0  0  0  0  0  0  0
    1.4019    0.0485    0.0000 C   0  0  0  0  0  0  0  0  0  0  0  0
    0.6874    0.4610    0.0000 C   0  0  0  0  0  0  0  0  0  0  0  0
   -0.7415    2.1110    0.0000 O   0  0  0  0  0  0  0  0  0  0  0  0
   -0.7415    1.2860    0.0000 S   0  0  0  0  0  0  0  0  0  0  0  0
    0.0835    1.2860    0.0000 O   0  0  0  0  0  0  0  0  0  0  0  0
   -1.5665    1.2860    0.0000 O   0  0  0  0  0  0  0  0  0  0  0  0
    1.4019   -0.7765    0.0000 C   0  0  0  0  0  0  0  0  0  0  0  0
    0.6874   -1.1890    0.0000 C   0  0  0  0  0  0  0  0  0  0  0  0
    0.6874   -2.0140    0.0000 N   0  0  0  0  0  0  0  0  0  0  0  0
  1  6  2  0  0  0  0
  1  2  1  0  0  0  0
  2  3  2  0  0  0  0
  3  4  1  0  0  0  0
  4  5  1  0  0  0  0
  4 14  2  0  0  0  0
  5  6  1  0  0  0  0
  8  5  2  0  0  0  0
  6 10  1  0  0  0  0
  8  7  1  0  0  0  0
 13  7  2  0  0  0  0
  9 10  1  0  0  0  0
 12 10  2  0  0  0  0
 11 10  2  0  0  0  0
 14 13  1  0  0  0  0
 14 15  1  0  0  0  0
M  END