
  SciTegic11201309402D

 71 73  0  0  1  0            999 V2000
    1.4792    4.5583    0.0000 N   0  0
    3.8750    2.8208    0.0000 C   0  0
    0.0000   -4.7917    0.0000 N   0  0
    3.8750   -2.8167    0.0000 N   0  0
    4.5583    1.4833    0.0000 N   0  0
    0.0000    4.7917    0.0000 C   0  0
    1.4792   -4.5583    0.0000 C   0  0
   -0.9417    7.1083    0.0000 C   0  0
    4.5583   -1.4792    0.0000 C   0  0
   -1.4833   -4.5583    0.0000 C   0  0  1  0  0  0
    2.8167    3.8792    0.0000 C   0  0  2  0  0  0
    2.8167   -3.8750    0.0000 C   0  0  2  0  0  0
   -2.8208    3.8792    0.0000 N   0  0
   -1.4833    4.5583    0.0000 C   0  0  2  0  0  0
    1.1375    8.2792    0.0000 N   0  0
   -1.9458   -5.9958    0.0000 C   0  0
    0.5375    6.9333    0.0000 C   0  0
    3.7000   -5.1000    0.0000 C   0  0
    4.7917    0.0000    0.0000 C   0  0  2  0  0  0
   -3.8792    2.8208    0.0000 C   0  0
    1.6167  -11.8833    0.0000 C   0  0
    0.7750  -18.7083    0.0000 C   0  0
   -1.9458    5.9958    0.0000 C   0  0
   -1.2625    8.5542    0.0000 C   0  0
   -0.8583  -11.0792    0.0000 N   0  0
    3.0875   -6.4708    0.0000 C   0  0
   -0.3958   -9.6500    0.0000 C   0  0
   -0.9417   -7.1083    0.0000 N   0  0
    2.6208  -12.9958    0.0000 N   0  0
   -3.8792   -2.8167    0.0000 S   0  0
    0.0375    9.2917    0.0000 C   0  0
   -4.5625   -1.4792    0.0000 S   0  0
    0.1458  -12.1958    0.0000 C   0  0  1  0  0  0
    5.0917  -13.8000    0.0000 C   0  0
    8.5542   -1.3042    0.0000 C   0  0
    1.5792  -19.5958    0.0000 N   0  0
    4.8458    3.5250    0.0000 O   0  0
    0.0000    5.9917    0.0000 O   0  0
    1.8500   -5.7000    0.0000 O   0  0
    5.7000   -1.8500    0.0000 O   0  0
   -2.8208   -3.8750    0.0000 C   0  0
   -4.5625    1.4833    0.0000 C   0  0
   -3.1208   -6.2458    0.0000 O   0  0
    1.9875  -10.7417    0.0000 O   0  0
   -4.8500    3.5250    0.0000 O   0  0
    3.7917   -7.4417    0.0000 O   0  0
    0.7750   -9.4000    0.0000 O   0  0
    9.1500   -2.3458    0.0000 O   0  0
    6.2667  -13.5542    0.0000 O   0  0
    6.3042    0.0000    0.0000 C   0  0
    1.2375  -17.2792    0.0000 N   0  0
   -1.4042   -8.5375    0.0000 C   0  0
    4.0875  -12.6875    0.0000 C   0  0
   -0.3958  -18.9583    0.0000 N   0  0
    3.7000    5.1000    0.0000 C   0  0  2  0  0  0
    1.8958   -6.5958    0.0000 N   0  0
    7.0500   -1.3000    0.0000 C   0  0
    9.1542   -0.2667    0.0000 N   0  0
    4.7208  -14.9417    0.0000 N   0  0
   -4.7958    0.0000    0.0000 C   0  0
   -2.5667    9.3042    0.0000 C   0  0
   -0.3125  -13.6208    0.0000 C   0  0
    0.0667   10.7958    0.0000 C   0  0
    0.2333  -16.1667    0.0000 C   0  0
    3.0875    6.4708    0.0000 C   0  0
    4.8958    4.9792    0.0000 C   0  0
    0.6917  -14.7375    0.0000 C   0  0
    3.7917    7.4417    0.0000 C   0  0
   -2.5458   10.8250    0.0000 C   0  0
   -1.2458   11.5625    0.0000 C   0  0
    2.5816    4.8512    0.0000 H   0  0
  2 11  1  0
  3  7  1  0
  4  9  1  0
  5  2  1  0
  6  1  1  0
  7 12  1  0
  8 23  1  0
  9 19  1  0
 10 41  1  0
 11  1  1  0
 12  4  1  0
 13 14  1  0
 14  6  1  0
 15 17  1  0
 10 16  1  1
 17  8  2  0
 12 18  1  1
 19  5  1  0
 20 13  1  0
 21 33  1  0
 22 51  2  0
 14 23  1  6
 24  8  1  0
 25 27  1  0
 26 18  1  0
 27 52  1  0
 28 16  1  0
 29 21  1  0
 30 32  1  0
 31 24  1  0
 32 60  1  0
 33 25  1  6
 34 53  1  0
 35 57  1  0
 36 22  1  0
 37  2  2  0
 38  6  2  0
 39  7  2  0
 40  9  2  0
 41 30  1  0
 42 20  1  0
 43 16  2  0
 44 21  2  0
 45 20  2  0
 46 26  2  0
 47 27  2  0
 48 35  2  0
 49 34  2  0
 19 50  1  1
 51 64  1  0
 52 28  1  0
 53 29  1  0
 54 22  1  0
 55 11  1  0
 56 26  1  0
 57 50  1  0
 58 35  1  0
 59 34  1  0
 60 42  1  0
 61 24  2  0
 62 33  1  0
 63 31  2  0
 64 67  1  0
 65 55  1  0
 55 66  1  6
 67 62  1  0
 68 65  1  0
 69 61  1  0
 70 63  1  0
 31 15  1  0
 69 70  2  0
  3 10  1  0
 11 71  1  6
M  END