
          11280715362D 1   1.00000     0.00000     0

 40 43  0     1  0            999 V2000
    0.7417   -4.7167    0.0000 C   0  0  1  0  0  0           0  0  0
    0.5542   -3.9125    0.0000 C   0  0  2  0  0  0           0  0  0
    1.3250   -5.3000    0.0000 N   0  0  3  0  0  0           0  0  0
    0.0292   -5.1417    0.0000 C   0  0  0  0  0  0           0  0  0
   -0.2625   -3.8417    0.0000 C   0  0  3  0  0  0           0  0  0
    6.6667   -1.5625    0.0000 C   0  0  0  0  0  0           0  0  0
    5.5125   -4.7000    0.0000 C   0  0  0  0  0  0           0  0  0
    2.9875   -2.3292    0.0000 C   0  0  0  0  0  0           0  0  0
    2.1667   -2.3542    0.0000 C   0  0  0  0  0  0           0  0  0
    5.8417   -1.5750    0.0000 N   0  0  0  0  0  0           0  0  0
   -0.6875   -3.1292    0.0000 O   0  0  0  0  0  0           0  0  0
   -0.5875   -4.5917    0.0000 C   0  0  0  0  0  0           0  0  0
    7.0917   -2.2667    0.0000 O   0  0  0  0  0  0           0  0  0
    6.1750   -4.4292    0.0000 O   0  0  0  0  0  0           0  0  0
    1.7542   -1.6542    0.0000 C   0  0  0  0  0  0           0  0  0
    1.7667   -3.0792    0.0000 C   0  0  0  0  0  0           0  0  0
    3.3917   -3.0375    0.0000 C   0  0  0  0  0  0           0  0  0
    3.3875   -1.6167    0.0000 C   0  0  0  0  0  0           0  0  0
    2.6500   -3.8625    0.0000 C   0  0  0  0  0  0           0  0  0
    3.5125   -3.9250    0.0000 C   0  0  0  0  0  0           0  0  0
    1.3500   -3.6917    0.0000 O   0  0  0  0  0  0           0  0  0
   -0.2833   -2.4125    0.0000 C   0  0  0  0  0  0           0  0  0
    5.4417   -2.2917    0.0000 C   0  0  0  0  0  0           0  0  0
    0.5417   -2.4000    0.0000 C   0  0  0  0  0  0           0  0  0
    4.6167   -2.3042    0.0000 C   0  0  0  0  0  0           0  0  0
    5.4167   -5.4042    0.0000 O   0  0  0  0  0  0           0  0  0
    4.2000   -1.6000    0.0000 C   0  0  0  0  0  0           0  0  0
    0.9542   -3.0917    0.0000 C   0  0  0  0  0  0           0  0  0
    4.2167   -3.0250    0.0000 C   0  0  0  0  0  0           0  0  0
    0.9417   -1.6792    0.0000 C   0  0  0  0  0  0           0  0  0
    2.0917   -5.0250    0.0000 C   0  0  0  0  0  0           0  0  0
    1.0542   -6.0750    0.0000 C   0  0  0  0  0  0           0  0  0
    2.0250   -4.2250    0.0000 C   0  0  0  0  0  0           0  0  0
    4.9500   -4.2542    0.0000 C   0  0  0  0  0  0           0  0  0
    7.0750   -0.8417    0.0000 C   0  0  0  0  0  0           0  0  0
    4.0125   -4.5042    0.0000 C   0  0  0  0  0  0           0  0  0
    1.4917   -6.7667    0.0000 C   0  0  0  0  0  0           0  0  0
    2.7917   -5.4625    0.0000 C   0  0  0  0  0  0           0  0  0
    2.3167   -6.8542    0.0000 C   0  0  0  0  0  0           0  0  0
    2.8917   -6.2750    0.0000 C   0  0  0  0  0  0           0  0  0
  2  1  1  0     0  0
  1  3  1  1     0  0
  4  1  1  0     0  0
  5  2  1  0     0  0
  6 10  1  0     0  0
  7 34  1  0     0  0
  8  9  1  0     0  0
  9 15  2  0     0  0
 10 23  1  0     0  0
 11  5  1  0     0  0
 12  4  1  0     0  0
 13  6  2  0     0  0
 14  7  2  0     0  0
 15 30  1  0     0  0
 16 28  2  0     0  0
 17  8  2  0     0  0
 18  8  1  0     0  0
 19 33  1  0     0  0
 20 19  2  0     0  0
  2 21  1  6     0  0
 22 11  1  0     0  0
 23 25  1  0     0  0
 24 22  1  0     0  0
 25 27  1  0     0  0
 26  7  1  0     0  0
 27 18  2  0     0  0
 28 24  1  0     0  0
 29 17  1  0     0  0
 30 24  2  0     0  0
 31  3  1  0     0  0
 32  3  1  0     0  0
 33 21  1  0     0  0
 34 36  1  0     0  0
 35  6  1  0     0  0
 36 20  1  0     0  0
 37 32  1  0     0  0
 38 31  1  0     0  0
 39 37  1  0     0  0
 40 38  1  0     0  0
  5 12  1  0     0  0
 40 39  1  0     0  0
 16  9  1  0     0  0
 29 25  2  0     0  0
M  END