
          11280715332D 1   1.00000     0.00000     0

 27 29  0     0  0            999 V2000
    2.5625  -11.5042    0.0000 N   0  0  0  0  0  0           0  0  0
    2.5667  -12.3292    0.0000 C   0  0  0  0  0  0           0  0  0
    1.1375  -11.5125    0.0000 C   0  0  0  0  0  0           0  0  0
    1.8417  -11.0917    0.0000 C   0  0  0  0  0  0           0  0  0
    1.8542  -12.7500    0.0000 N   0  0  0  0  0  0           0  0  0
    1.1375  -12.3292    0.0000 C   0  0  0  0  0  0           0  0  0
    0.4167  -11.1000    0.0000 C   0  0  0  0  0  0           0  0  0
    0.4167  -12.7542    0.0000 C   0  0  0  0  0  0           0  0  0
    6.8542  -12.3167    0.0000 C   0  0  0  0  0  0           0  0  0
    6.1417  -12.7292    0.0000 C   0  0  0  0  0  0           0  0  0
   -0.2958  -11.5167    0.0000 C   0  0  0  0  0  0           0  0  0
   -0.2958  -12.3417    0.0000 C   0  0  0  0  0  0           0  0  0
    3.2792  -12.7417    0.0000 N   0  0  3  0  0  0           0  0  0
    7.6042  -12.6417    0.0000 O   0  0  0  0  0  0           0  0  0
    6.9375  -11.4917    0.0000 C   0  0  0  0  0  0           0  0  0
    6.1417  -13.5542    0.0000 O   0  0  0  0  0  0           0  0  0
    8.1542  -12.0292    0.0000 C   0  0  0  0  0  0           0  0  0
    7.7417  -11.3167    0.0000 C   0  0  0  0  0  0           0  0  0
    1.8417  -10.2667    0.0000 N   0  0  0  0  0  0           0  0  0
    5.4250  -12.3250    0.0000 N   0  0  0  0  0  0           0  0  0
   -1.0083  -11.1042    0.0000 O   0  0  0  0  0  0           0  0  0
   -1.0083  -12.7542    0.0000 O   0  0  0  0  0  0           0  0  0
    4.7125  -12.7375    0.0000 C   0  0  0  0  0  0           0  0  0
    3.9917  -12.3292    0.0000 C   0  0  0  0  0  0           0  0  0
    3.2875  -13.5667    0.0000 C   0  0  0  0  0  0           0  0  0
   -1.7250  -11.5167    0.0000 C   0  0  0  0  0  0           0  0  0
   -1.0083  -13.5792    0.0000 C   0  0  0  0  0  0           0  0  0
  2  1  1  0     0  0
  3  4  1  0     0  0
  4  1  2  0     0  0
  5  2  2  0     0  0
  6  3  1  0     0  0
  7  3  2  0     0  0
  8  6  2  0     0  0
  9 10  1  0     0  0
 10 20  1  0     0  0
 11  7  1  0     0  0
 12 11  2  0     0  0
 13  2  1  0     0  0
 14  9  1  0     0  0
 15  9  2  0     0  0
 16 10  2  0     0  0
 17 14  1  0     0  0
 18 15  1  0     0  0
 19  4  1  0     0  0
 20 23  1  0     0  0
 21 11  1  0     0  0
 22 12  1  0     0  0
 23 24  1  0     0  0
 24 13  1  0     0  0
 25 13  1  0     0  0
 26 21  1  0     0  0
 27 22  1  0     0  0
  6  5  1  0     0  0
  8 12  1  0     0  0
 17 18  2  0     0  0
M  END