
          11280715322D 1   1.00000     0.00000     0

 31 34  0     0  0            999 V2000
    6.7875    0.1625    0.0000 C   0  0  0  0  0  0           0  0  0
    8.1167    0.0333    0.0000 N   0  3  0  0  0  0           0  0  0
    7.5000    0.5833    0.0000 C   0  0  0  0  0  0           0  0  0
    3.2000   -1.0875    0.0000 C   0  0  0  0  0  0           0  0  0
    3.2000   -1.9125    0.0000 N   0  0  0  0  0  0           0  0  0
    6.9667   -0.6417    0.0000 N   0  0  0  0  0  0           0  0  0
    7.7875   -0.7250    0.0000 O   0  0  0  0  0  0           0  0  0
    6.0667    0.5750    0.0000 C   0  0  0  0  0  0           0  0  0
    1.7667   -1.9125    0.0000 C   0  0  0  0  0  0           0  0  0
    2.4792   -2.3250    0.0000 C   0  0  0  0  0  0           0  0  0
    2.4792   -0.6750    0.0000 N   0  0  0  0  0  0           0  0  0
    1.7667   -1.0875    0.0000 C   0  0  0  0  0  0           0  0  0
    3.9167   -0.6750    0.0000 N   0  0  3  0  0  0           0  0  0
    5.3417    0.1583    0.0000 N   0  0  3  0  0  0           0  0  0
    1.0542   -2.3250    0.0000 C   0  0  0  0  0  0           0  0  0
    7.5750    1.4000    0.0000 C   0  0  0  0  0  0           0  0  0
    1.0542   -0.6750    0.0000 C   0  0  0  0  0  0           0  0  0
    7.6500    2.2333    0.0000 N   0  0  0  0  0  0           0  0  0
    0.3417   -1.9125    0.0000 C   0  0  0  0  0  0           0  0  0
    8.9292    0.2083    0.0000 O   0  5  0  0  0  0           0  0  0
    0.3417   -1.0875    0.0000 C   0  0  0  0  0  0           0  0  0
    6.0625    1.4000    0.0000 O   0  0  0  0  0  0           0  0  0
    4.6292   -1.0875    0.0000 C   0  0  0  0  0  0           0  0  0
    3.9167    0.1583    0.0000 C   0  0  0  0  0  0           0  0  0
    4.6292    0.5708    0.0000 C   0  0  0  0  0  0           0  0  0
    5.3417   -0.6750    0.0000 C   0  0  0  0  0  0           0  0  0
    2.4792   -3.1500    0.0000 N   0  0  0  0  0  0           0  0  0
   -0.3833   -2.3292    0.0000 O   0  0  0  0  0  0           0  0  0
   -0.3833   -0.6750    0.0000 O   0  0  0  0  0  0           0  0  0
   -1.1000   -1.9167    0.0000 C   0  0  0  0  0  0           0  0  0
   -1.0958   -1.0917    0.0000 C   0  0  0  0  0  0           0  0  0
  2  3  2  0     0  0
  3  1  1  0     0  0
  4 13  1  0     0  0
  5  4  1  0     0  0
  6  1  2  0     0  0
  7  6  1  0     0  0
  8  1  1  0     0  0
  9 12  2  0     0  0
 10  5  2  0     0  0
 11  4  2  0     0  0
 12 11  1  0     0  0
 13 23  1  0     0  0
 14  8  1  0     0  0
 15  9  1  0     0  0
 16  3  1  0     0  0
 17 12  1  0     0  0
 18 16  3  0     0  0
 19 21  1  0     0  0
 20  2  1  0     0  0
 21 17  2  0     0  0
 22  8  2  0     0  0
 23 26  1  0     0  0
 24 25  1  0     0  0
 25 14  1  0     0  0
 26 14  1  0     0  0
 27 10  1  0     0  0
 28 19  1  0     0  0
 29 21  1  0     0  0
 30 28  1  0     0  0
 31 29  1  0     0  0
  2  7  1  0     0  0
 13 24  1  0     0  0
 10  9  1  0     0  0
 19 15  2  0     0  0
M  CHG  2   2   1  20  -1
M  END