
  SciTegic05061409512D

 23 25  0  0  0  0            999 V2000
   20.7745   -3.9311    0.0000 C   0  0
   20.7734   -4.7580    0.0000 C   0  0
   21.4877   -5.1707    0.0000 C   0  0
   21.4859   -3.5186    0.0000 C   0  0
   22.2010   -3.9275    0.0000 C   0  0
   22.2043   -4.7601    0.0000 C   0  0
   22.9231   -5.1712    0.0000 O   0  0
   23.6432   -4.7542    0.0000 C   0  0
   23.6397   -3.9216    0.0000 C   0  0
   22.9163   -3.5060    0.0000 O   0  0
   21.4863   -5.9952    0.0000 N   0  0
   20.0590   -5.1697    0.0000 Cl  0  0
   21.4835   -2.6940    0.0000 C   0  0
   22.1964   -2.2796    0.0000 O   0  0
   20.7682   -2.2839    0.0000 O   0  0
   22.9116   -2.6898    0.0000 C   0  0
   23.6245   -2.2754    0.0000 C   0  0
   24.3420   -2.6892    0.0000 C   0  0
   25.0527   -2.2783    0.0000 C   0  0
   25.0544   -1.4535    0.0000 N   0  0
   24.3394   -1.0411    0.0000 C   0  0
   23.6224   -1.4537    0.0000 C   0  0
   25.7689   -1.0417    0.0000 C   0  0
  1  2  2  0
  2  3  1  0
  3  6  2  0
  5  4  2  0
  4  1  1  0
  5  6  1  0
  5 10  1  0
  6  7  1  0
  7  8  1  0
  8  9  1  0
  9 10  1  0
  3 11  1  0
  2 12  1  0
  4 13  1  0
 13 14  1  0
 13 15  2  0
 14 16  1  0
 16 17  1  0
 17 18  1  0
 17 22  1  0
 18 19  1  0
 19 20  1  0
 20 21  1  0
 21 22  1  0
 20 23  1  0
M  END