
  SciTegic01161211242D

 20 21  0  0  0  0            999 V2000
   14.8667    1.8458    0.0000 C   0  0
   14.1500    2.2542    0.0000 N   0  0
   15.5792    2.2542    0.0000 C   0  0
   13.2583    3.2458    0.0000 N   0  0
   13.3958    1.9167    0.0000 N   0  0
   14.0667    3.0750    0.0000 C   0  0
   12.8417    2.5333    0.0000 C   0  0
   14.8667    1.0167    0.0000 O   0  0
   16.2917    1.8458    0.0000 C   0  0
   15.5792    3.0792    0.0000 O   0  0
   14.1500    0.6042    0.0000 C   0  0
   12.7208   -0.2167    0.0000 C   0  0
   12.0042   -0.6292    0.0000 Cl  0  0
   13.4375    1.0250    0.0000 C   0  0
   14.1542   -0.2167    0.0000 C   0  0
   13.4417   -0.6292    0.0000 C   0  0
   12.7208    0.6083    0.0000 C   0  0
   16.7000    1.1333    0.0000 C   0  0
   17.0083    2.2542    0.0000 C   0  0
   15.8750    1.1333    0.0000 C   0  0
  2  1  1  0
  3  1  1  0
  4  6  2  0
  5  2  1  0
  6  2  1  0
  7  5  2  0
  8  1  1  0
  9  3  1  0
 10  3  2  0
 11  8  1  0
 12 17  2  0
 13 12  1  0
 14 11  2  0
 15 11  1  0
 16 15  2  0
 17 14  1  0
 18  9  1  0
 19  9  1  0
 20  9  1  0
  7  4  1  0
 16 12  1  0
M  END