
  SciTegic12131615082D

 17 18  0  0  0  0            999 V2000
    3.5900   -2.1568    0.0000 C   0  0
    5.0513   -2.4957    0.0000 C   0  0
    5.4884   -3.9306    0.0000 C   0  0
    4.4644   -5.0266    0.0000 C   0  0
    3.0032   -4.6878    0.0000 C   0  0
    2.5660   -3.2530    0.0000 C   0  0
    4.8989   -6.4632    0.0000 C   0  0
    4.0784   -7.3389    0.0000 N   0  0
    3.1497   -0.7220    0.0000 C   0  0
    1.6852   -0.3846    0.0000 N   0  0
    1.3514    1.0778    0.0000 C   0  0
    0.0000    1.7286    0.0000 C   0  0
    0.7500   -1.5574    0.0000 C   0  0
   -1.3515    1.0777    0.0000 N   0  0
   -0.7500   -1.5574    0.0000 C   0  0
   -1.6852   -0.3847    0.0000 C   0  0
   -2.2897    1.8259    0.0000 C   0  0
  1  2  2  0
  2  3  1  0
  3  4  2  0
  4  5  1  0
  5  6  2  0
  6  1  1  0
  4  7  1  0
  7  8  1  0
  1  9  1  0
  9 10  1  0
 10 11  1  0
 11 12  1  0
 10 13  1  0
 12 14  1  0
 13 15  1  0
 14 16  1  0
 15 16  1  0
 14 17  1  0
M  END