
  SciTegic12231509382D

 18 20  0  0  0  0            999 V2000
    8.3592  -12.0221    0.0000 C   0  0
    9.7834  -12.8471    0.0000 C   0  0
    9.0714  -11.6054    0.0000 C   0  0  2  0  0  0
    9.7816  -12.0252    0.0000 C   0  0  2  0  0  0
   10.4963  -11.6220    0.0000 N   0  0
   10.5069  -10.7977    0.0000 C   0  0
    9.7966  -10.3780    0.0000 C   0  0
    9.0757  -10.7826    0.0000 C   0  0
   11.2061  -12.0428    0.0000 C   0  0
   11.9252  -11.6385    0.0000 C   0  0
   12.6350  -12.0593    0.0000 C   0  0
    8.9042  -14.0543    0.0000 C   0  0
    9.0714  -13.2556    0.0000 C   0  0
    8.3623  -12.8504    0.0000 C   0  0
    7.7587  -13.4009    0.0000 N   0  0
    8.0968  -14.1442    0.0000 N   0  0
    9.7760  -11.1970    0.0000 H   0  0
    9.0634  -12.4305    0.0000 H   0  0
  7  8  1  0
  5  9  1  0
  1 14  1  0
  9 10  1  0
  1  3  1  0
 10 11  1  0
 13 14  1  0
 13  2  1  0
  2  4  1  0
  3  4  1  0
  3  8  1  0
  4  5  1  0
 12 13  2  0
 14 15  2  0
 15 16  1  0
 16 12  1  0
  5  6  1  0
  4 17  1  1
  6  7  1  0
  3 18  1  6
M  END