
  SciTegic12011114592D

 28 28  0  0  0  0            999 V2000
    0.9111    1.1959    0.0000 C   0  0
    0.9099    0.3685    0.0000 C   0  0
    1.6247   -0.0444    0.0000 N   0  3
    2.3412    0.3690    0.0000 C   0  0
    2.3383    1.1995    0.0000 C   0  0
    1.6229    1.6086    0.0000 C   0  0
    1.6245   -0.8694    0.0000 C   0  0
    2.3389   -1.2820    0.0000 C   0  0
    2.3345   -2.1052    0.0000 C   0  0
    3.0480   -2.5178    0.0000 C   0  0
    3.7636   -2.1055    0.0000 C   0  0
    3.7612   -1.2762    0.0000 C   0  0
    3.0470   -0.8673    0.0000 C   0  0
    4.4785   -2.5172    0.0000 C   0  0
    5.1926   -2.1039    0.0000 N   0  3
    5.9032   -2.5174    0.0000 C   0  0
    6.6167   -2.1048    0.0000 C   0  0
    6.6163   -1.2789    0.0000 C   0  0
    5.8963   -0.8674    0.0000 C   0  0
    5.1857   -1.2823    0.0000 C   0  0
    1.6208    2.4341    0.0000 C   0  0
    7.3297   -0.8647    0.0000 C   0  0
    8.0452   -1.2755    0.0000 N   0  0
    7.3278   -0.0397    0.0000 O   0  0
    2.3342    2.8484    0.0000 N   0  0
    2.3321    3.6734    0.0000 O   0  0
    0.8438   -0.4688    0.0000 Br  0  5
    5.0312   -2.8125    0.0000 Br  0  5
 12 13  2  0
 13  8  1  0
  1  2  2  0
 11 14  1  0
  3  7  1  0
 14 15  1  0
  3  4  2  0
 15 16  2  0
  7  8  1  0
 16 17  1  0
 17 18  2  0
  8  9  2  0
 18 19  1  0
  4  5  1  0
 19 20  2  0
 20 15  1  0
  9 10  1  0
  6 21  1  0
  2  3  1  0
 18 22  1  0
 10 11  2  0
 22 23  1  0
  5  6  2  0
 22 24  2  0
 11 12  1  0
 21 25  2  0
  6  1  1  0
 25 26  1  0
M  CHG  4   3   1  15   1  27  -1  28  -1
M  END