
  SciTegic12231509382D

 16 16  0  0  1  0            999 V2000
    1.0500   -0.8542    0.0000 C   0  0  2  0  0  0
   -0.3833   -0.8542    0.0000 P   0  0
    1.7542    0.3875    0.0000 C   0  0
    1.0500   -0.0292    0.0000 C   0  0
    1.7542   -1.2625    0.0000 C   0  0  2  0  0  0
    0.3292   -1.2667    0.0000 O   0  0
    1.7542    1.2125    0.0000 C   0  0
    2.4667   -0.8542    0.0000 C   0  0  1  0  0  0
    2.4667   -0.0292    0.0000 C   0  0
   -0.3833   -1.6500    0.0000 O   0  0
   -0.3833   -0.0292    0.0000 O   0  0
    2.4750    1.6250    0.0000 O   0  0
   -1.2583   -0.8375    0.0000 O   0  0
    1.7542   -2.0875    0.0000 O   0  0
    1.0417    1.6250    0.0000 O   0  0
    3.1875   -1.2667    0.0000 O   0  0
  2  6  1  0
  3  4  2  0
  4  1  1  0
  5  1  1  0
  1  6  1  6
  7  3  1  0
  8  5  1  0
  9  8  1  0
 10  2  1  0
 11  2  2  0
 12  7  2  0
 13  2  1  0
  5 14  1  6
 15  7  1  0
  8 16  1  1
  9  3  1  0
M  END