
          03140815512D 1   1.00000     0.00000     0

 18 19  0     0  0            999 V2000
    3.7211  -14.5226    0.0000 C   0  0  0  0  0  0           0  0  0
    3.7211  -15.3520    0.0000 C   0  0  0  0  0  0           0  0  0
    4.4356  -15.7644    0.0000 N   0  0  3  0  0  0           0  0  0
    5.1544  -15.3520    0.0000 C   0  0  0  0  0  0           0  0  0
    5.1544  -14.5226    0.0000 C   0  0  0  0  0  0           0  0  0
    4.4356  -14.1055    0.0000 C   0  0  0  0  0  0           0  0  0
    4.4344  -16.5893    0.0000 S   0  0  3  0  0  0           0  0  0
    4.4269  -17.4097    0.0000 N   0  0  0  0  0  0           0  0  0
    5.2592  -16.5937    0.0000 O   0  0  0  0  0  0           0  0  0
    3.6095  -16.5897    0.0000 O   0  0  0  0  0  0           0  0  0
    3.7088  -17.8155    0.0000 C   0  0  0  0  0  0           0  0  0
    3.0014  -17.3938    0.0000 C   0  0  0  0  0  0           0  0  0
    2.2837  -17.7990    0.0000 C   0  0  0  0  0  0           0  0  0
    2.2758  -18.6247    0.0000 C   0  0  0  0  0  0           0  0  0
    2.9914  -19.0436    0.0000 C   0  0  0  0  0  0           0  0  0
    3.7060  -18.6359    0.0000 C   0  0  0  0  0  0           0  0  0
    1.5582  -19.0316    0.0000 C   0  0  0  0  0  0           0  0  0
    1.5733  -17.3797    0.0000 Cl  0  0  0  0  0  0           0  0  0
  7  9  2  0     0  0
  2  3  1  0     0  0
  7 10  2  0     0  0
  3  4  1  0     0  0
  8 11  1  0     0  0
  4  5  1  0     0  0
 11 12  2  0     0  0
  5  6  1  0     0  0
 12 13  1  0     0  0
 13 14  2  0     0  0
  3  7  1  0     0  0
 14 15  1  0     0  0
  1  2  1  0     0  0
 15 16  2  0     0  0
 16 11  1  0     0  0
  7  8  1  0     0  0
 14 17  1  0     0  0
  1  6  1  0     0  0
 13 18  1  0     0  0
M  END