
          11280714552D 1   1.00000     0.00000     0

 36 40  0     0  0            999 V2000
    0.0625  -13.5667    0.0000 N   0  0  3  0  0  0           0  0  0
    0.8625  -13.3417    0.0000 C   0  0  0  0  0  0           0  0  0
    0.1125  -12.2167    0.0000 N   0  0  0  0  0  0           0  0  0
    0.8917  -12.5042    0.0000 C   0  0  0  0  0  0           0  0  0
   -0.4083  -12.8667    0.0000 C   0  0  0  0  0  0           0  0  0
    1.4792  -13.8792    0.0000 C   0  0  3  0  0  0           0  0  0
    0.0292  -18.1667    0.0000 C   0  0  0  0  0  0           0  0  0
   -1.2458  -17.7667    0.0000 N   0  0  0  0  0  0           0  0  0
   -0.4625  -17.5042    0.0000 N   0  0  0  0  0  0           0  0  0
   -1.2375  -18.5917    0.0000 N   0  0  0  0  0  0           0  0  0
   -0.4500  -18.8417    0.0000 N   0  0  0  0  0  0           0  0  0
    1.2667  -14.6750    0.0000 C   0  0  0  0  0  0           0  0  0
    0.8542  -18.1625    0.0000 C   0  0  0  0  0  0           0  0  0
    1.2625  -17.4417    0.0000 C   0  0  0  0  0  0           0  0  0
   -0.4125  -14.6042    0.0000 C   0  0  0  0  0  0           0  0  0
    1.8417  -15.2625    0.0000 C   0  0  0  0  0  0           0  0  0
    0.8417  -16.7292    0.0000 C   0  0  0  0  0  0           0  0  0
    1.6250  -16.0542    0.0000 O   0  0  0  0  0  0           0  0  0
    0.7667  -14.2875    0.0000 O   0  0  0  0  0  0           0  0  0
    1.2500  -16.0125    0.0000 C   0  0  0  0  0  0           0  0  0
    0.0167  -16.7417    0.0000 C   0  0  0  0  0  0           0  0  0
    0.0042  -15.3167    0.0000 C   0  0  0  0  0  0           0  0  0
    1.5667  -12.0292    0.0000 C   0  0  0  0  0  0           0  0  0
   -1.2250  -12.8417    0.0000 C   0  0  0  0  0  0           0  0  0
    2.2917  -13.7292    0.0000 C   0  0  0  0  0  0           0  0  0
    2.6417  -15.0542    0.0000 O   0  0  0  0  0  0           0  0  0
    0.8292  -15.3042    0.0000 C   0  0  0  0  0  0           0  0  0
   -0.4000  -16.0292    0.0000 C   0  0  0  0  0  0           0  0  0
    1.2750  -18.8667    0.0000 C   0  0  0  0  0  0           0  0  0
    2.0792  -17.4292    0.0000 C   0  0  0  0  0  0           0  0  0
   -1.6125  -12.1042    0.0000 C   0  0  0  0  0  0           0  0  0
    2.3625  -12.2542    0.0000 C   0  0  0  0  0  0           0  0  0
    2.6875  -13.0042    0.0000 C   0  0  0  0  0  0           0  0  0
    2.5042  -18.1417    0.0000 C   0  0  0  0  0  0           0  0  0
    2.1042  -18.8625    0.0000 C   0  0  0  0  0  0           0  0  0
   -2.4333  -12.0792    0.0000 C   0  0  0  0  0  0           0  0  0
  2  1  1  0     0  0
  3  5  2  0     0  0
  4  2  2  0     0  0
  5  1  1  0     0  0
  6  2  1  0     0  0
  7 13  1  0     0  0
  8  9  2  0     0  0
  9  7  1  0     0  0
 10 11  1  0     0  0
 11  7  2  0     0  0
 12  6  1  0     0  0
 13 14  2  0     0  0
 14 17  1  0     0  0
 15  1  1  0     0  0
 16 12  1  0     0  0
 17 21  2  0     0  0
 18 16  2  0     0  0
  6 19  1  0     0  0
 20 27  2  0     0  0
 21 28  1  0     0  0
 22 15  1  0     0  0
 23  4  1  0     0  0
 24  5  1  0     0  0
 25  6  1  0     0  0
 26 16  1  0     0  0
 27 22  1  0     0  0
 28 22  2  0     0  0
 29 13  1  0     0  0
 30 14  1  0     0  0
 31 24  1  0     0  0
 32 23  1  0     0  0
 33 25  1  0     0  0
 34 30  2  0     0  0
 35 34  1  0     0  0
 36 31  1  0     0  0
  4  3  1  0     0  0
 20 17  1  0     0  0
 32 33  1  0     0  0
 29 35  2  0     0  0
  8 10  1  0     0  0
M  END