
          02060813472D 1   1.00000     0.00000     0

 31 33  0     1  0            999 V2000
   -4.3917  -27.4042    0.0000 C   0  0  0  0  0  0           0  0  0
   -4.3917  -28.2292    0.0000 O   0  0  0  0  0  0           0  0  0
   -3.6796  -28.6375    0.0000 C   0  0  0  0  0  0           0  0  0
   -2.9676  -28.2292    0.0000 C   0  0  0  0  0  0           0  0  0
   -2.9676  -27.4042    0.0000 N   0  0  3  0  0  0           0  0  0
   -3.6796  -26.9875    0.0000 C   0  0  0  0  0  0           0  0  0
   -2.2520  -26.9938    0.0000 C   0  0  0  0  0  0           0  0  0
   -1.5387  -27.4084    0.0000 C   0  0  0  0  0  0           0  0  0
   -2.2495  -26.1688    0.0000 O   0  0  0  0  0  0           0  0  0
   -0.8230  -26.9979    0.0000 C   0  0  1  0  0  0           0  0  0
   -0.8292  -26.1708    0.0000 C   0  0  0  0  0  0           0  0  0
   -0.1178  -25.7530    0.0000 C   0  0  3  0  0  0           0  0  0
    0.5990  -26.1659    0.0000 C   0  0  0  0  0  0           0  0  0
    1.3083  -25.7516    0.0000 C   0  0  0  0  0  0           0  0  0
    1.3064  -24.9263    0.0000 C   0  0  0  0  0  0           0  0  0
    0.5890  -24.5169    0.0000 C   0  0  0  0  0  0           0  0  0
   -0.1265  -24.9329    0.0000 C   0  0  0  0  0  0           0  0  0
   -0.1076  -27.4088    0.0000 C   0  0  0  0  0  0           0  0  0
   -0.1058  -28.2338    0.0000 O   0  0  0  0  0  0           0  0  0
    0.6059  -26.9947    0.0000 N   0  0  0  0  0  0           0  0  0
    1.3207  -27.4057    0.0000 C   0  0  2  0  0  0           0  0  0
    1.7128  -26.6762    0.0000 C   0  0  0  0  0  0           0  0  0
    2.1049  -25.9472    0.0000 N   0  0  0  0  0  0           0  0  0
    1.0071  -28.1672    0.0000 C   0  0  0  0  0  0           0  0  0
    1.7761  -28.6581    0.0000 C   0  0  0  0  0  0           0  0  0
    2.4256  -28.1494    0.0000 N   0  0  3  0  0  0           0  0  0
    2.1424  -27.3746    0.0000 C   0  0  0  0  0  0           0  0  0
    3.2190  -28.3758    0.0000 C   0  0  0  0  0  0           0  0  0
    3.8117  -27.8019    0.0000 C   0  0  3  0  0  0           0  0  0
    4.6050  -28.0283    0.0000 C   0  0  0  0  0  0           0  0  0
    3.6111  -27.0017    0.0000 C   0  0  0  0  0  0           0  0  0
 12 17  1  0     0  0
 13 14  1  0     0  0
 14 15  1  0     0  0
 15 16  1  0     0  0
 16 17  1  0     0  0
  1  6  1  0     0  0
 10 18  1  0     0  0
  7  9  2  0     0  0
 18 19  2  0     0  0
  2  3  1  0     0  0
 18 20  1  0     0  0
  8 10  1  0     0  0
 21 20  1  1     0  0
  3  4  1  0     0  0
 21 22  1  0     0  0
 10 11  1  1     0  0
 22 23  3  0     0  0
  4  5  1  0     0  0
 21 24  1  0     0  0
 11 12  1  0     0  0
 12 13  1  0     0  0
  5  6  1  0     0  0
 24 25  1  0     0  0
 25 26  1  0     0  0
 26 27  1  0     0  0
 21 27  1  0     0  0
 26 28  1  0     0  0
  5  7  1  0     0  0
 28 29  1  0     0  0
  1  2  1  0     0  0
 29 30  1  0     0  0
  7  8  1  0     0  0
 29 31  1  0     0  0
M  END