
  SciTegic12171312552D

 70 81  0  0  0  0            999 V2000
   22.4200   -5.4026    0.0000 C   0  0
   23.5142   -5.9146    0.0000 N   0  0
   22.4166   -4.5756    0.0000 C   0  0
   23.0079   -3.9898    0.0000 N   0  0
   22.6350   -3.2495    0.0000 N   0  0
   21.8142   -3.3771    0.0000 N   0  0
   21.6800   -4.1956    0.0000 C   0  0
   21.3995   -2.6587    0.0000 C   0  0
   20.5728   -2.6602    0.0000 C   0  0
   20.1625   -1.9434    0.0000 C   0  0
   19.3426   -3.3815    0.0000 C   0  0
   20.1672   -3.3769    0.0000 C   0  0
   18.9234   -2.6607    0.0000 C   0  0
   19.3398   -1.9466    0.0000 C   0  0
   18.9309   -1.2334    0.0000 C   0  0
   18.0981   -2.6617    0.0000 C   0  0
   17.6875   -1.9423    0.0000 C   0  0
   18.1036   -1.2310    0.0000 C   0  0
   17.6949   -0.5178    0.0000 C   0  0
   16.8702   -0.5145    0.0000 C   0  0
   16.4559   -1.2305    0.0000 C   0  0
   16.8671   -1.9408    0.0000 C   0  0
   19.3467   -0.5198    0.0000 O   0  0
   17.6831   -3.3799    0.0000 O   0  0
   24.4209   -5.4026    0.0000 C   0  0
   23.8372   -3.9897    0.0000 N   0  0
   24.4209   -4.5723    0.0000 C   0  0
   25.1523   -4.1986    0.0000 C   0  0
   25.0225   -3.3860    0.0000 N   0  0
   24.2094   -3.2577    0.0000 N   0  0
   25.4231   -2.6596    0.0000 C   0  0
   26.2497   -2.6448    0.0000 C   0  0
   26.6733   -3.3554    0.0000 C   0  0
   27.4700   -1.9043    0.0000 C   0  0
   26.6455   -1.9222    0.0000 C   0  0
   27.9006   -2.6184    0.0000 C   0  0
   27.4957   -3.3387    0.0000 C   0  0
   27.9158   -4.0450    0.0000 C   0  0
   28.7255   -2.6042    0.0000 C   0  0
   29.1473   -3.3168    0.0000 C   0  0
   28.7427   -4.0347    0.0000 C   0  0
   29.1629   -4.7413    0.0000 C   0  0
   29.9878   -4.7356    0.0000 C   0  0
   30.3905   -4.0088    0.0000 C   0  0
   29.9679   -3.3050    0.0000 C   0  0
   29.1290   -1.8795    0.0000 O   0  0
   27.5114   -4.7649    0.0000 O   0  0
   23.4736   -6.6811    0.0000 C   0  0
   24.9810   -6.9356    0.0000 N   0  0
   24.1777   -7.1216    0.0000 C   0  0
   24.1065   -7.9397    0.0000 C   0  0
   24.8644   -8.2607    0.0000 N   0  0
   25.4043   -7.6393    0.0000 N   0  0
   25.2677   -8.9854    0.0000 C   0  0
   24.8418   -9.6941    0.0000 C   0  0
   24.0148   -9.6764    0.0000 C   0  0
   24.8226  -11.1213    0.0000 C   0  0
   25.2446  -10.4129    0.0000 C   0  0
   23.9889  -11.1078    0.0000 C   0  0
   23.5928  -10.3825    0.0000 C   0  0
   22.7713  -10.3641    0.0000 C   0  0
   23.5635  -11.8147    0.0000 C   0  0
   22.7356  -11.7944    0.0000 C   0  0
   22.3416  -11.0706    0.0000 C   0  0
   21.5195  -11.0522    0.0000 C   0  0
   21.0870  -11.7545    0.0000 C   0  0
   21.4897  -12.4814    0.0000 C   0  0
   22.3104  -12.4963    0.0000 C   0  0
   23.9638  -12.5412    0.0000 O   0  0
   22.3754   -9.6395    0.0000 O   0  0
  1  3  1  0
  1  2  1  0
  3  4  1  0
  4  5  2  0
  5  6  1  0
  6  7  1  0
  7  3  2  0
  6  8  1  0
  8  9  1  0
  9 10  2  0
 10 14  1  0
 13 11  1  0
 11 12  2  0
 12  9  1  0
 13 14  2  0
 13 16  1  0
 14 15  1  0
 15 18  1  0
 17 16  1  0
 17 18  2  0
 18 19  1  0
 19 20  2  0
 20 21  1  0
 21 22  2  0
 22 17  1  0
 15 23  2  0
 16 24  2  0
  2 25  1  0
 25 27  1  0
 26 27  1  0
 27 28  2  0
 28 29  1  0
 29 30  1  0
 30 26  2  0
 29 31  1  0
 31 32  1  0
 32 33  2  0
 33 37  1  0
 36 34  1  0
 34 35  2  0
 35 32  1  0
 36 37  2  0
 36 39  1  0
 37 38  1  0
 38 41  1  0
 40 39  1  0
 40 41  2  0
 41 42  1  0
 42 43  2  0
 43 44  1  0
 44 45  2  0
 45 40  1  0
 39 46  2  0
 38 47  2  0
  2 48  1  0
 48 50  1  0
 49 50  1  0
 50 51  2  0
 51 52  1  0
 52 53  1  0
 53 49  2  0
 52 54  1  0
 54 55  1  0
 55 56  2  0
 56 60  1  0
 59 57  1  0
 57 58  2  0
 58 55  1  0
 59 60  2  0
 59 62  1  0
 60 61  1  0
 61 64  1  0
 63 62  1  0
 63 64  2  0
 64 65  1  0
 65 66  2  0
 66 67  1  0
 67 68  2  0
 68 63  1  0
 62 69  2  0
 61 70  2  0
M  END