
  SciTegic10301317112D

 28 29  0  0  0  0            999 V2000
   -0.2207   -2.5034    0.0000 S   0  0
    7.3395   -5.1484    0.0000 N   0  0
    6.8604   -4.4778    0.0000 C   0  0
    8.1642   -5.2276    0.0000 C   0  0  2  0  0  0
    3.0658   -2.4909    0.0000 C   0  0
    8.7141   -4.6111    0.0000 C   0  0
    0.5998   -2.5034    0.0000 C   0  0
    3.4864   -3.2032    0.0000 N   0  0
   -0.2249   -3.3282    0.0000 O   0  0
   -0.2207   -1.6787    0.0000 O   0  0
    4.7278   -3.9030    0.0000 C   0  0
    2.2410   -2.4909    0.0000 C   0  0
    5.5525   -3.9030    0.0000 N   0  0
   -1.0497   -2.4992    0.0000 N   0  0
    6.0399   -4.5653    0.0000 C   0  0
    7.1895   -3.7281    0.0000 O   0  0
    3.4781   -1.7745    0.0000 O   0  0
    8.4516   -3.8280    0.0000 O   0  0
    4.3154   -4.6236    0.0000 O   0  0
    1.0039   -1.7912    0.0000 C   0  0
    1.0164   -3.2157    0.0000 C   0  0
    1.8369   -3.2115    0.0000 C   0  0
    1.8244   -1.7787    0.0000 C   0  0
    4.3112   -3.1907    0.0000 C   0  0
    7.0146   -5.9024    0.0000 C   0  0
    9.5221   -4.7736    0.0000 O   0  0
    8.3392   -6.0274    0.0000 C   0  0
    7.6269   -6.4480    0.0000 C   0  0
  2  3  1  0
  3 15  1  0
  4  2  1  0
  5 12  1  0
  4  6  1  6
  7  1  1  0
  8  5  1  0
  9  1  2  0
 10  1  2  0
 11 24  1  0
 12 22  2  0
 13 11  1  0
 14  1  1  0
 15 13  1  0
 16  3  2  0
 17  5  2  0
 18  6  2  0
 19 11  2  0
 20  7  1  0
 21  7  2  0
 22 21  1  0
 23 20  2  0
 24  8  1  0
 25  2  1  0
 26  6  1  0
 27  4  1  0
 28 25  1  0
 23 12  1  0
 27 28  1  0
M  END