
  CDK    12/20/10,14:45

 39 43  0  0  0  0  0  0  0  0999 V2000
    0.5000  -10.5042    0.0000 N   0  0  0  0  0  0  0  0  0  0  0  0
   -1.6250   -8.4292    0.0000 C   0  0  0  0  0  0  0  0  0  0  0  0
   -2.3708   -8.0833    0.0000 N   0  0  0  0  0  0  0  0  0  0  0  0
   -0.2167  -10.9125    0.0000 C   0  0  0  0  0  0  0  0  0  0  0  0
    0.5042   -9.6792    0.0000 C   0  0  0  0  0  0  0  0  0  0  0  0
   -1.7125   -9.2417    0.0000 N   0  0  0  0  0  0  0  0  0  0  0  0
   -0.2083   -9.2625    0.0000 C   0  0  0  0  0  0  0  0  0  0  0  0
    1.2125  -10.9250    0.0000 C   0  0  0  0  0  0  0  0  0  0  0  0
   -0.9083   -8.0250    0.0000 C   0  0  0  0  0  0  0  0  0  0  0  0
   -0.2000   -8.4417    0.0000 N   0  0  0  0  0  0  0  0  0  0  0  0
    1.2250   -9.2750    0.0000 C   0  0  0  0  0  0  0  0  0  0  0  0
   -0.9042   -7.2042    0.0000 C   0  0  0  0  0  0  0  0  0  0  0  0
   -2.9208   -8.6917    0.0000 C   0  0  0  0  0  0  0  0  0  0  0  0
   -2.5208   -9.4083    0.0000 C   0  0  0  0  0  0  0  0  0  0  0  0
   -0.2250  -11.7417    0.0000 C   0  0  0  0  0  0  0  0  0  0  0  0
    1.9292  -10.5167    0.0000 C   0  0  0  0  0  0  0  0  0  0  0  0
    1.9375   -9.6917    0.0000 C   0  0  0  0  0  0  0  0  0  0  0  0
   -0.1875   -6.8000    0.0000 C   0  0  0  0  0  0  0  0  0  0  0  0
   -0.9292  -10.4958    0.0000 O   0  0  0  0  0  0  0  0  0  0  0  0
   -0.9250   -9.6667    0.0000 O   0  0  0  0  0  0  0  0  0  0  0  0
   -0.9417  -12.1458    0.0000 C   0  0  0  0  0  0  0  0  0  0  0  0
   -0.1792   -5.9792    0.0000 O   0  0  0  0  0  0  0  0  0  0  0  0
    0.4917  -12.1542    0.0000 N   0  0  0  0  0  0  0  0  0  0  0  0
   -0.9458  -12.9708    0.0000 C   0  0  0  0  0  0  0  0  0  0  0  0
   -0.9583  -14.6208    0.0000 C   0  0  0  0  0  0  0  0  0  0  0  0
    0.5208   -7.2167    0.0000 O   0  0  0  0  0  0  0  0  0  0  0  0
   -0.2375  -13.3875    0.0000 C   0  0  0  0  0  0  0  0  0  0  0  0
   -1.6667  -13.3792    0.0000 C   0  0  0  0  0  0  0  0  0  0  0  0
   -1.6750  -14.2042    0.0000 C   0  0  0  0  0  0  0  0  0  0  0  0
   -0.2375  -14.2083    0.0000 C   0  0  0  0  0  0  0  0  0  0  0  0
   -0.9625  -15.4458    0.0000 O   0  0  0  0  0  0  0  0  0  0  0  0
   -3.7417   -8.6833    0.0000 C   0  0  0  0  0  0  0  0  0  0  0  0
   -2.9333  -10.1125    0.0000 C   0  0  0  0  0  0  0  0  0  0  0  0
    2.6583   -9.2833    0.0000 C   0  0  0  0  0  0  0  0  0  0  0  0
    2.6417  -10.9375    0.0000 C   0  0  0  0  0  0  0  0  0  0  0  0
    3.3583  -10.5250    0.0000 C   0  0  0  0  0  0  0  0  0  0  0  0
   -4.1583   -9.3917    0.0000 C   0  0  0  0  0  0  0  0  0  0  0  0
   -3.7500  -10.1083    0.0000 C   0  0  0  0  0  0  0  0  0  0  0  0
    3.3667   -9.7000    0.0000 C   0  0  0  0  0  0  0  0  0  0  0  0
  2  9  1  0  0  0  0 
  3  2  2  0  0  0  0 
  4  1  1  0  0  0  0 
  5  1  1  0  0  0  0 
  6  2  1  0  0  0  0 
  5  7  1  6  0  0  0 
  8  1  1  0  0  0  0 
  9 10  1  0  0  0  0 
 10  7  1  0  0  0  0 
 11  5  1  0  0  0  0 
  9 12  1  6  0  0  0 
 13  3  1  0  0  0  0 
 14  6  1  0  0  0  0 
 15  4  1  0  0  0  0 
 16  8  1  0  0  0  0 
 17 11  1  0  0  0  0 
 18 12  1  0  0  0  0 
 19  4  2  0  0  0  0 
 20  7  2  0  0  0  0 
 21 15  1  0  0  0  0 
 22 18  2  0  0  0  0 
 15 23  1  1  0  0  0 
 24 21  1  0  0  0  0 
 25 30  1  0  0  0  0 
 26 18  1  0  0  0  0 
 27 24  1  0  0  0  0 
 28 24  2  0  0  0  0 
 29 28  1  0  0  0  0 
 30 27  2  0  0  0  0 
 31 25  1  0  0  0  0 
 32 13  1  0  0  0  0 
 33 14  1  0  0  0  0 
 34 17  1  0  0  0  0 
 35 16  1  0  0  0  0 
 36 35  2  0  0  0  0 
 37 32  2  0  0  0  0 
 38 33  2  0  0  0  0 
 39 34  2  0  0  0  0 
 16 17  2  0  0  0  0 
 36 39  1  0  0  0  0 
 25 29  2  0  0  0  0 
 13 14  2  0  0  0  0 
 38 37  1  0  0  0  0 
M  END