
  SciTegic04151115542D

 24 27  0  0  0  0            999 V2000
    6.9491  -18.8804    0.0000 C   0  0
    6.9473  -17.2275    0.0000 C   0  0
    7.6627  -17.6366    0.0000 C   0  0
    7.6635  -18.4633    0.0000 C   0  0
    8.3787  -18.8743    0.0000 C   0  0
    9.0937  -18.4595    0.0000 C   0  0
    9.0889  -17.6297    0.0000 C   0  0
    8.3730  -17.2224    0.0000 N   0  0
    6.2344  -18.4675    0.0000 C   0  0
    6.2385  -17.6447    0.0000 C   0  0
    5.5320  -17.2321    0.0000 O   0  0
    4.8167  -17.6376    0.0000 C   0  0
    4.8126  -18.4604    0.0000 C   0  0
    5.5238  -18.8776    0.0000 O   0  0
    9.8097  -18.8693    0.0000 C   0  0
    9.8008  -17.2128    0.0000 S   0  0
   10.5176  -17.6210    0.0000 C   0  0
   11.2296  -17.2041    0.0000 C   0  0
   11.9465  -17.6123    0.0000 N   0  0
   11.9477  -18.4369    0.0000 C   0  0
   12.6606  -18.8449    0.0000 C   0  0
   13.3749  -18.4316    0.0000 C   0  0
   13.3718  -17.6057    0.0000 C   0  0
   12.6545  -17.1931    0.0000 C   0  0
  3  2  2  0
  5  6  2  0
  9 14  1  0
 10 11  1  0
 11 12  1  0
 12 13  1  0
 13 14  1  0
  2 10  1  0
  6 15  1  0
  6  7  1  0
  7 16  1  0
  9  1  1  0
 16 17  1  0
  7  8  2  0
 17 18  1  0
  8  3  1  0
 18 19  1  0
 19 20  1  0
  9 10  2  0
  1  4  2  0
  3  4  1  0
  4  5  1  0
 19 24  1  0
 20 21  1  0
 21 22  1  0
 22 23  1  0
 23 24  1  0
M  END