
  SciTegic01181116592D

 28 32  0  0  0  0            999 V2000
   -2.0088  -26.9355    0.0000 C   0  0
   -2.0090  -27.7605    0.0000 O   0  0
   -2.7232  -26.5228    0.0000 N   0  0
   -3.4357  -26.9400    0.0000 C   0  0
   -4.1479  -26.5308    0.0000 C   0  0
   -4.1520  -25.7055    0.0000 N   0  0
   -3.4376  -25.2910    0.0000 C   0  0
   -2.7191  -25.7018    0.0000 C   0  0
   -1.2943  -26.5232    0.0000 C   0  0
   -1.2931  -25.6958    0.0000 C   0  0
   -0.5794  -26.9360    0.0000 C   0  0
   -0.5812  -25.2830    0.0000 C   0  0
    0.1341  -25.6922    0.0000 C   0  0
    0.1390  -26.5186    0.0000 C   0  0
    0.9265  -26.7694    0.0000 N   0  0
    1.4084  -26.0979    0.0000 C   0  0
    0.9179  -25.4326    0.0000 C   0  0
    1.3381  -24.7226    0.0000 C   0  0
    2.1630  -24.7315    0.0000 N   0  0
    2.5609  -25.4513    0.0000 C   0  0
    3.3822  -25.4621    0.0000 C   0  0
    3.8062  -24.7540    0.0000 O   0  0
    3.4027  -24.0333    0.0000 C   0  0
    2.5752  -24.0207    0.0000 C   0  0
   -4.8637  -25.2988    0.0000 C   0  0
   -5.0800  -24.5026    0.0000 C   0  0
   -5.8761  -24.7190    0.0000 C   0  0
   -5.6598  -25.5151    0.0000 C   0  0
  3  8  1  0
  4  5  1  0
  5  6  1  0
  6  7  1  0
  7  8  1  0
 14 15  1  0
 15 16  1  0
 16 17  2  0
 17 13  1  0
 17 18  1  0
  1  9  1  0
 18 19  1  0
 19 20  1  0
  1  3  1  0
 10  9  2  0
  3  4  1  0
  9 11  1  0
 11 14  2  0
 19 24  1  0
 20 21  1  0
 21 22  1  0
 22 23  1  0
 23 24  1  0
 25 26  1  0
  1  2  2  0
 13 12  2  0
 12 10  1  0
 13 14  1  0
 26 27  1  0
 27 28  1  0
 28 25  1  0
  6 25  1  0
M  END