
  SciTegic06051315212D

 31 34  0  0  0  0            999 V2000
   19.2934  -16.6286    0.0000 C   0  0
   19.2922  -17.4481    0.0000 C   0  0
   20.0003  -17.8571    0.0000 C   0  0
   20.7099  -17.4476    0.0000 C   0  0
   20.7071  -16.6250    0.0000 C   0  0
   19.9985  -16.2197    0.0000 C   0  0
   20.0001  -18.6743    0.0000 C   0  0
   21.4183  -17.8551    0.0000 O   0  0
   22.1254  -17.4454    0.0000 C   0  0
   19.3439  -19.1544    0.0000 N   0  0
   19.5962  -19.9317    0.0000 N   0  0
   20.4134  -19.9319    0.0000 C   0  0
   20.6660  -19.1547    0.0000 C   0  0
   20.8937  -20.5931    0.0000 C   0  0
   19.1157  -20.5927    0.0000 C   0  0
   22.8337  -17.8529    0.0000 C   0  0
   18.3044  -20.5019    0.0000 C   0  0
   17.8241  -21.1621    0.0000 C   0  0
   18.1563  -21.9097    0.0000 C   0  0
   18.9734  -21.9932    0.0000 C   0  0
   19.4501  -21.3320    0.0000 C   0  0
   20.5577  -21.3366    0.0000 C   0  0
   21.0372  -21.9974    0.0000 C   0  0
   21.8508  -21.9125    0.0000 C   0  0
   22.1826  -21.1611    0.0000 C   0  0
   21.7011  -20.5034    0.0000 C   0  0
   23.5408  -17.4432    0.0000 C   0  0
   24.2491  -17.8507    0.0000 C   0  0
   24.9562  -17.4410    0.0000 O   0  0
   24.2504  -18.6679    0.0000 O   0  0
   17.6766  -22.5714    0.0000 F   0  0
  1  2  2  0
  2  3  1  0
  3  4  2  0
  4  5  1  0
  5  6  2  0
  6  1  1  0
  3  7  1  0
  4  8  1  0
  8  9  1  0
  7 10  2  0
 10 11  1  0
 11 12  1  0
 12 13  2  0
 13  7  1  0
 12 14  1  0
 11 15  1  0
  9 16  1  0
 15 17  2  0
 17 18  1  0
 18 19  2  0
 19 20  1  0
 20 21  2  0
 21 15  1  0
 14 22  2  0
 22 23  1  0
 23 24  2  0
 24 25  1  0
 25 26  2  0
 26 14  1  0
 16 27  1  0
 27 28  1  0
 28 29  1  0
 28 30  2  0
 19 31  1  0
M  END