
  SciTegic11201309402D

109118  0  0  0  0            999 V2000
   -1.9661   -9.5085    0.0000 C   0  0
   -1.9196  -11.1626    0.0000 O   0  0
    1.8466   -7.3914    0.0000 N   0  0
    1.0236   -7.4044    0.0000 C   0  0
    0.6232   -8.1257    0.0000 N   0  0
    0.5991   -6.6969    0.0000 S   0  0
   -0.2017   -8.1396    0.0000 C   0  0
   -0.6204   -7.4316    0.0000 C   0  0
   -1.4445   -7.4451    0.0000 C   0  0
   -0.5941   -8.8597    0.0000 C   0  0
   -1.4168   -8.8767    0.0000 C   0  0
   -1.8475   -8.1626    0.0000 C   0  0
   -2.6597   -8.3515    0.0000 C   0  0
   -2.7311   -9.1824    0.0000 O   0  0
   -3.2832   -7.8113    0.0000 O   0  0
   -1.2366   -9.8973    0.0000 C   0  0
   -1.2174  -10.7266    0.0000 C   0  0
   -0.4907  -11.1228    0.0000 C   0  0
    0.2173  -10.6908    0.0000 C   0  0
    0.1939   -9.8584    0.0000 C   0  0
   -0.5333   -9.4659    0.0000 C   0  0
   -2.6475  -10.7675    0.0000 C   0  0
   -2.6688   -9.9454    0.0000 C   0  0
   -3.3903   -9.5546    0.0000 C   0  0
   -4.0910   -9.9848    0.0000 C   0  0
   -4.0655  -10.8100    0.0000 C   0  0
   -3.3436  -11.1970    0.0000 C   0  0
    0.9423  -11.0844    0.0000 O   0  0
   -4.7668  -11.2445    0.0000 O   0  0
   11.1110   -8.5547    0.0000 C   0  0
   11.9358   -8.5378    0.0000 N   0  0
   10.7132   -9.2774    0.0000 O   0  0
   12.3628   -9.2437    0.0000 C   0  0  2  0  0  0
   13.1876   -9.2268    0.0000 C   0  0
   11.9650   -9.9664    0.0000 C   0  0  1  0  0  0
   11.1402   -9.9833    0.0000 C   0  0
   12.3920  -10.6723    0.0000 O   0  0
   13.6147   -9.9327    0.0000 N   0  0
   13.5854   -8.5040    0.0000 O   0  0
    9.8642   -7.8646    0.0000 N   0  0
   10.6844   -7.8490    0.0000 C   0  0  1  0  0  0
   10.9228   -7.0639    0.0000 C   0  0
   10.2497   -6.5945    0.0000 C   0  0
    9.5955   -7.0896    0.0000 C   0  0
   14.4395   -9.9158    0.0000 C   0  0  2  0  0  0
   14.8665  -10.6217    0.0000 C   0  0
   14.8373   -9.1930    0.0000 C   0  0
   14.4687  -11.3444    0.0000 O   0  0
   15.6889  -10.6048    0.0000 N   0  0
   15.7017  -11.4284    0.0000 C   0  0
   16.4889  -11.6755    0.0000 C   0  0
   16.9671  -11.0031    0.0000 C   0  0
   16.4757  -10.3391    0.0000 C   0  0  1  0  0  0
   16.8469   -9.6023    0.0000 C   0  0
   17.6698   -9.5555    0.0000 N   0  0
   16.3945   -8.9125    0.0000 O   0  0
   17.9682  -10.3240    0.0000 C   0  0
   18.7920  -10.2797    0.0000 C   0  0
   19.0046   -9.4825    0.0000 C   0  0
   18.3124   -9.0329    0.0000 C   0  0  1  0  0  0
   18.0034   -8.2680    0.0000 C   0  0
   18.5098   -7.6094    0.0000 N   0  0
   17.1865   -8.1530    0.0000 O   0  0
   11.3630   -9.2641    0.0000 H   0  0
    9.4721   -8.5905    0.0000 C   0  0
    8.6475   -8.6140    0.0000 C   0  0
    9.9048   -9.2930    0.0000 O   0  0
    8.2148   -7.9115    0.0000 N   0  0
   18.0896   -6.8997    0.0000 C   0  0  2  0  0  0
   17.2646   -6.9083    0.0000 C   0  0
   18.4936   -6.1811    0.0000 C   0  0
   19.3179   -6.1468    0.0000 C   0  0
   19.7597   -6.8435    0.0000 C   0  0
   19.3788   -7.5756    0.0000 O   0  0
   20.5856   -6.8103    0.0000 O   0  0
   16.8443   -6.1983    0.0000 N   0  0
   16.8596   -7.6271    0.0000 O   0  0
   17.1454   -5.4292    0.0000 C   0  0
   17.9616   -5.3089    0.0000 C   0  0
   18.2654   -4.5418    0.0000 N   0  0
   18.4739   -5.9555    0.0000 O   0  0
    7.3902   -7.9350    0.0000 C   0  0
    6.9577   -7.2323    0.0000 C   0  0  2  0  0  0
    6.9981   -8.6609    0.0000 O   0  0
   16.0194   -6.2139    0.0000 C   0  0
   15.5935   -5.5073    0.0000 C   0  0
   14.7687   -5.5229    0.0000 C   0  0
   14.3697   -6.2450    0.0000 C   0  0
    7.2242   -6.4560    0.0000 C   0  0
    6.5660   -5.9585    0.0000 C   0  0
    5.8895   -6.4308    0.0000 C   0  0
    6.1284   -7.2200    0.0000 N   0  0
    5.4307   -7.6601    0.0000 C   0  0
    4.7006   -7.2759    0.0000 C   0  0
    5.4630   -8.4845    0.0000 O   0  0
    4.0028   -7.7161    0.0000 C   0  0
    3.2727   -7.3318    0.0000 C   0  0
    2.5750   -7.7720    0.0000 C   0  0
   13.5449   -6.2606    0.0000 C   0  0
   12.8856   -5.3373    0.0000 C   0  0
   11.9775   -5.1195    0.0000 C   0  0
    8.2083   -7.0833    0.0000 C   0  0
    8.9195   -6.6652    0.0000 C   0  0
    8.9131   -5.8403    0.0000 C   0  0
   10.7586   -5.1207    0.0000 C   0  0
    9.6243   -5.4222    0.0000 C   0  0
   19.0841   -8.3969    0.0000 H   0  0
   17.4721  -10.2540    0.0000 H   0  0
   11.6767   -7.7249    0.0000 H   0  0
 23 24  1  0
 11 12  1  0
 50 51  1  0
 51 52  1  0
 52 53  1  0
 53 49  1  0
 24 25  2  0
 53 54  1  0
  1 16  1  0
 54 55  1  0
 25 26  1  0
 54 56  2  0
 55 57  1  0
  4  5  1  0
 26 27  2  0
 27 22  1  0
 22  2  1  0
 57 58  1  0
 58 59  1  0
 59 60  1  0
 60 55  1  0
 19 28  1  0
 60 61  1  0
  4  6  2  0
 61 62  1  0
 26 29  1  0
 61 63  2  0
 12 13  1  0
 33 64  1  1
 41 30  1  0
 40 65  1  0
 13 14  1  0
 65 66  1  0
 30 31  1  0
 65 67  2  0
 14  1  1  0
 66 68  1  0
 30 32  2  0
 62 69  1  0
  1 11  1  0
 69 70  1  0
 31 33  1  0
 69 71  1  6
  2 17  1  0
 71 72  1  0
 33 34  1  0
 72 73  1  0
 13 15  2  0
 33 35  1  0
 73 74  1  0
 73 75  2  0
  5  7  1  0
 70 76  1  0
 35 36  1  6
 70 77  2  0
 76 78  1  0
 35 37  1  0
 78 79  1  0
 16 17  2  0
 79 80  1  0
 34 38  1  0
 79 81  2  0
  7  8  2  0
 68 82  1  0
 34 39  2  0
 83 82  1  1
 40 41  1  0
 82 84  2  0
 17 18  1  0
 76 85  1  0
  1 23  1  0
 85 86  1  0
 18 19  2  0
 86 87  1  0
  8  9  1  0
 87 88  1  0
 83 89  1  0
 19 20  1  0
 41 42  1  0
 42 43  1  0
 43 44  1  0
 89 90  1  0
 90 91  1  0
 91 92  1  0
 92 83  1  0
 44 40  1  0
 92 93  1  0
  9 12  2  0
 93 94  1  0
 38 45  1  0
 93 95  2  0
 20 21  2  0
 94 96  1  0
 45 46  1  0
 96 97  1  0
 21 16  1  0
 97 98  1  0
 98  3  1  0
 45 47  1  1
 88 99  1  0
  3  4  1  0
 99100  1  0
 46 48  2  0
100101  1  0
 11 10  2  0
 68102  1  0
 46 49  1  0
102103  1  0
 49 50  1  0
103104  1  0
 22 23  2  0
105101  2  0
 10  7  1  0
104106  1  0
106105  1  0
 60107  1  1
 53108  1  1
 41109  1  6
M  END