
          08180812472D 1   1.00000     0.00000     0

 19 20  0     0  0            999 V2000
    3.8758  -14.2213    0.0000 C   0  0  0  0  0  0           0  0  0
    3.8744  -15.0489    0.0000 C   0  0  0  0  0  0           0  0  0
    4.5874  -15.4618    0.0000 C   0  0  0  0  0  0           0  0  0
    5.3067  -15.0483    0.0000 C   0  0  0  0  0  0           0  0  0
    5.3035  -14.2173    0.0000 C   0  0  0  0  0  0           0  0  0
    4.5854  -13.8086    0.0000 C   0  0  0  0  0  0           0  0  0
    6.0159  -13.8013    0.0000 C   0  0  0  0  0  0           0  0  0
    6.7324  -14.2103    0.0000 C   0  0  0  0  0  0           0  0  0
    7.4448  -13.7942    0.0000 N   0  0  0  0  0  0           0  0  0
    8.1613  -14.2031    0.0000 C   0  0  0  0  0  0           0  0  0
    8.8736  -13.7871    0.0000 C   0  0  0  0  0  0           0  0  0
    9.5884  -14.1991    0.0000 C   0  0  0  0  0  0           0  0  0
   10.3003  -13.7837    0.0000 C   0  0  0  0  0  0           0  0  0
   10.2967  -12.9579    0.0000 C   0  0  0  0  0  0           0  0  0
    9.5751  -12.5492    0.0000 C   0  0  0  0  0  0           0  0  0
    8.8662  -12.9669    0.0000 C   0  0  0  0  0  0           0  0  0
   11.0085  -12.5410    0.0000 O   0  0  0  0  0  0           0  0  0
   11.0166  -14.1930    0.0000 O   0  0  0  0  0  0           0  0  0
   11.0202  -15.0180    0.0000 C   0  0  0  0  0  0           0  0  0
  4  5  1  0     0  0
  9 10  2  0     0  0
  2  3  1  0     0  0
 10 11  1  0     0  0
  5  6  2  0     0  0
 11 12  2  0     0  0
  6  1  1  0     0  0
 12 13  1  0     0  0
  1  2  2  0     0  0
 13 14  2  0     0  0
  5  7  1  0     0  0
 14 15  1  0     0  0
  3  4  2  0     0  0
 15 16  2  0     0  0
 16 11  1  0     0  0
  7  8  1  0     0  0
 14 17  1  0     0  0
 13 18  1  0     0  0
  8  9  1  0     0  0
 18 19  1  0     0  0
M  END