
  SciTegic01161211212D

 18 20  0  0  0  0            999 V2000
   11.1429   -6.5099    0.0000 C   0  0
   11.1418   -7.3337    0.0000 C   0  0
   11.8536   -7.7448    0.0000 C   0  0
   11.8518   -6.0988    0.0000 C   0  0
   12.5642   -6.5062    0.0000 C   0  0
   12.5675   -7.3358    0.0000 C   0  0
   13.2837   -7.7453    0.0000 C   0  0
   14.0011   -7.3299    0.0000 C   0  0
   13.2768   -6.0862    0.0000 C   0  0  1  0  0  0
   13.9981   -6.5023    0.0000 C   0  0  2  0  0  0
   14.6167   -5.9449    0.0000 N   0  0
   14.2778   -5.1843    0.0000 C   0  0
   13.4497   -5.2717    0.0000 C   0  0
   15.4389   -5.9384    0.0000 C   0  0
   12.5592   -5.6717    0.0000 H   0  0
   14.7872   -6.7132    0.0000 H   0  0
   15.8440   -5.2238    0.0000 C   0  0
   16.6655   -5.2174    0.0000 C   0  0
  8 10  1  0
  9 10  1  0
  5  4  2  0
  4  1  1  0
  5  6  1  0
  2  3  1  0
 10 11  1  0
 11 12  1  0
 12 13  1  0
 13  9  1  0
  3  6  2  0
 11 14  1  0
  1  2  2  0
  9 15  1  1
  5  9  1  0
 10 16  1  1
  6  7  1  0
 14 17  1  0
  7  8  1  0
 17 18  2  0
M  END