
  SciTegic09081514192D

 29 32  0  0  0  0            999 V2000
   -7.5673   14.2315    0.0000 C   0  0
   -6.2696   14.9837    0.0000 C   0  0
   -4.9692   14.2360    0.0000 C   0  0
   -4.9666   12.7360    0.0000 C   0  0
   -6.2643   11.9836    0.0000 C   0  0
   -7.5647   12.7315    0.0000 C   0  0
   -6.2593   10.4829    0.0000 N   0  0
   -7.5559    9.7286    0.0000 C   0  0
   -7.5509    8.2286    0.0000 C   0  0
   -6.2494    7.4828    0.0000 N   0  0
   -4.9528    8.2372    0.0000 C   0  0
   -4.9578    9.7372    0.0000 C   0  0
   -8.8647   11.9815    0.0000 O   0  0
   -9.9041   12.5812    0.0000 C   0  0
   -6.2413    5.9820    0.0000 C   0  0
   -4.9380    5.2378    0.0000 C   0  0
   -4.9300    3.7369    0.0000 C   0  0
   -3.6267    2.9927    0.0000 N   0  0
   -3.6187    1.4919    0.0000 C   0  0
   -2.3155    0.7475    0.0000 C   0  0
   -4.6549    0.8867    0.0000 O   0  0
   -2.3155   -0.7475    0.0000 C   0  0
   -1.0028   -1.5132    0.0000 C   0  0
   -1.0028    1.5132    0.0000 C   0  0
    0.2917    0.7475    0.0000 C   0  0
    0.2917   -0.7475    0.0000 C   0  0
    1.7138   -1.2033    0.0000 N   0  0
    2.5889    0.0182    0.0000 C   0  0
    1.7138    1.2033    0.0000 C   0  0
  1  2  2  0
  2  3  1  0
  3  4  2  0
  4  5  1  0
  5  6  2  0
  6  1  1  0
  7  8  1  0
  7 12  1  0
  8  9  1  0
  9 10  1  0
 10 11  1  0
 11 12  1  0
  5  7  1  0
  6 13  1  0
 13 14  1  0
 10 15  1  0
 15 16  1  0
 16 17  1  0
 17 18  1  0
 18 19  1  0
 19 20  1  0
 19 21  2  0
 20 22  2  0
 22 23  1  0
 23 26  2  0
 25 24  2  0
 24 20  1  0
 25 26  1  0
 26 27  1  0
 27 28  1  0
 28 29  2  0
 29 25  1  0
M  END