
  SciTegic01161211262D

 57 62  0  0  0  0            999 V2000
    9.3446   -8.5213    0.0000 C   0  0
    9.9980   -8.0363    0.0000 N   0  3
    9.7391   -7.2511    0.0000 C   0  0
    8.9134   -7.2598    0.0000 C   0  0
    8.6625   -8.0459    0.0000 C   0  0
   10.0819  -12.9645    0.0000 C   0  0  2  0  0  0
    3.6504  -13.5001    0.0000 C   0  0
    3.6515  -14.3294    0.0000 C   0  0
    4.3696  -14.7403    0.0000 C   0  0
    5.0830  -14.3237    0.0000 C   0  0
    5.0780  -13.4903    0.0000 C   0  0
    4.3610  -13.0843    0.0000 C   0  0
    5.7898  -13.0818    0.0000 C   0  0  1  0  0  0
    5.7843  -12.2529    0.0000 C   0  0
    5.0686  -11.8425    0.0000 C   0  0
    5.0651  -11.0213    0.0000 C   0  0
    5.7773  -10.6061    0.0000 C   0  0
    6.4891  -11.0121    0.0000 C   0  0  2  0  0  0
    7.2012  -10.5968    0.0000 C   0  0  2  0  0  0
    7.9208  -11.0028    0.0000 C   0  0
    7.2012   -9.7713    0.0000 O   0  0
    9.3467  -10.9903    0.0000 C   0  0  1  0  0  0
    9.3545  -11.8158    0.0000 C   0  0  2  0  0  0
    8.6400  -12.2344    0.0000 O   0  0
   10.0680  -12.2223    0.0000 C   0  0  1  0  0  0
    9.3635  -13.4660    0.0000 C   0  0  2  0  0  0
    8.6474  -13.0599    0.0000 C   0  0  2  0  0  0
    9.4021  -14.2902    0.0000 O   0  0
    8.7087  -14.7371    0.0000 C   0  0
    7.9352  -13.4752    0.0000 C   0  0  2  0  0  0
    7.2196  -13.0692    0.0000 C   0  0
    6.5078  -13.4845    0.0000 O   0  0
    7.9352  -14.3008    0.0000 C   0  0
    7.9144   -9.3602    0.0000 C   0  0
    7.9144   -8.5306    0.0000 O   0  0
    8.6233   -9.7687    0.0000 C   0  0
    8.6331  -10.5877    0.0000 C   0  0
    9.3446   -9.3548    0.0000 C   0  0
   10.2118   -6.5773    0.0000 C   0  0
   11.0371   -6.5726    0.0000 C   0  0
   11.5206   -7.2328    0.0000 N   0  0
   12.3031   -6.9699    0.0000 C   0  0
   12.2955   -6.1481    0.0000 C   0  0
   11.5259   -5.8926    0.0000 C   0  0
   12.9753   -7.4500    0.0000 C   0  0
   11.2288   -5.1238    0.0000 C   0  0
   11.2719   -8.0170    0.0000 B   0  5
   10.7992   -8.6922    0.0000 F   0  0
   12.0098   -8.3821    0.0000 F   0  0
   10.0628  -10.5775    0.0000 C   0  0
   10.7841  -11.8096    0.0000 C   0  0
   10.0664  -11.4031    0.0000 H   0  0
    7.2144  -12.2089    0.0000 O   0  0
    6.4889  -11.8725    0.0000 O   0  0
    6.0529  -12.6140    0.0000 C   0  0
    8.6474  -13.8856    0.0000 O   0  0
   10.8179  -13.3382    0.0000 O   0  0
  5  1  1  0
  7  8  2  0
  8  9  1  0
  9 10  2  0
 10 11  1  0
 11 12  2  0
 12  7  1  0
 13 11  1  6
 13 32  1  0
 13 14  1  0
 14 15  1  0
 15 16  1  0
 16 17  1  0
 17 18  1  0
 18 19  1  0
 19 20  1  0
 19 21  1  6
 20 37  2  0
 37 22  1  0
 22 23  1  0
 23 24  1  0
 23 25  1  0
 25  6  1  0
  6 26  1  0
 24 27  1  0
 26 27  1  0
 26 28  1  1
 28 29  1  0
 27 30  1  0
 30 31  1  0
 31 32  1  0
 30 33  1  6
 21 34  1  0
 34 35  2  0
 34 36  1  0
 36 38  1  0
 38  1  1  0
  3 39  2  0
 39 40  1  0
 40 41  1  0
 41 42  1  0
 42 43  2  0
 43 44  1  0
 44 40  2  0
 42 45  1  0
 44 46  1  0
 41 47  1  0
 47 48  1  0
 47 49  1  0
 22 50  1  6
 25 51  1  1
 23 52  1  6
 47  2  1  0
 31 53  2  0
  1  2  2  0
 18 54  1  1
  2  3  1  0
 54 55  1  0
  3  4  1  0
  4  5  2  0
 27 56  1  6
  6 57  1  6
M  CHG  2   2   1  47  -1
M  END