
  SciTegic06051313522D

 31 34  0  0  0  0            999 V2000
    6.7424  -16.7907    0.0000 S   0  0
    7.4665  -17.1861    0.0000 N   0  0
    7.4865  -18.0099    0.0000 C   0  0
    8.1704  -16.7577    0.0000 C   0  0
    8.8945  -17.1530    0.0000 C   0  0
    9.5984  -16.7246    0.0000 C   0  0
    9.5804  -15.8970    0.0000 C   0  0
    8.8562  -15.5017    0.0000 C   0  0
    8.1503  -15.9338    0.0000 N   0  0
    8.9147  -17.9769    0.0000 C   0  0
    9.6387  -18.3723    0.0000 N   0  0
   10.4010  -20.4190    0.0000 C   0  0
   10.3830  -19.5915    0.0000 C   0  0
    9.6588  -19.1961    0.0000 C   0  0
    8.9529  -19.6282    0.0000 C   0  0
    8.9730  -20.4521    0.0000 C   0  0
    9.6971  -20.8475    0.0000 N   0  0
   11.6599  -19.9746    0.0000 C   0  0
   11.1904  -20.6537    0.0000 N   0  0
   11.1589  -19.3158    0.0000 N   0  0
   12.4837  -19.9544    0.0000 C   0  0
   12.9123  -20.6584    0.0000 C   0  0
   13.7397  -20.6403    0.0000 C   0  0
   14.1352  -19.9162    0.0000 C   0  0
   13.7030  -19.2103    0.0000 C   0  0
   12.8792  -19.2304    0.0000 C   0  0
   14.9590  -19.8961    0.0000 F   0  0
    8.2288  -19.2329    0.0000 Br  0  0
    6.0379  -17.2200    0.0000 C   0  0
    6.3250  -16.0708    0.0000 O   0  0
    7.1500  -16.0708    0.0000 O   0  0
  1  2  1  0
  2  3  1  0
  4  5  1  0
  5  6  2  0
  6  7  1  0
  7  8  2  0
  8  9  1  0
  4  9  2  0
 12 13  1  0
 13 14  2  0
 14 15  1  0
 15 16  2  0
 16 17  1  0
 12 17  2  0
 18 19  1  0
 18 20  2  0
 12 19  1  0
 13 20  1  0
 21 22  1  0
 22 23  2  0
 23 24  1  0
 24 25  2  0
 25 26  1  0
 21 26  2  0
 24 27  1  0
 18 21  1  0
 15 28  1  0
 11 14  1  0
 10 11  1  0
  5 10  1  0
  2  4  1  0
  1 29  1  0
  1 30  2  0
  1 31  2  0
M  END