
          11280714442D 1   1.00000     0.00000     0

 19 19  0     0  0            999 V2000
    5.3875   -7.7500    0.0000 C   0  0  0  0  0  0           0  0  0
    6.0792   -7.3042    0.0000 C   0  0  0  0  0  0           0  0  0
    6.8125   -7.6875    0.0000 O   0  0  0  0  0  0           0  0  0
    4.6542   -7.3667    0.0000 C   0  0  0  0  0  0           0  0  0
    6.0417   -6.4792    0.0000 O   0  0  0  0  0  0           0  0  0
    9.6667   -7.5542    0.0000 N   0  0  0  0  0  0           0  0  0
   10.3667   -7.1125    0.0000 C   0  0  3  0  0  0           0  0  0
    8.2417   -7.6167    0.0000 C   0  0  3  0  0  0           0  0  0
    7.5042   -7.2417    0.0000 C   0  0  0  0  0  0           0  0  0
    8.9375   -7.1750    0.0000 C   0  0  0  0  0  0           0  0  0
    4.6167   -6.5417    0.0000 O   0  0  0  0  0  0           0  0  0
    5.4292   -8.5667    0.0000 C   0  0  0  0  0  0           0  0  0
    8.2792   -8.4417    0.0000 O   0  0  0  0  0  0           0  0  0
    3.9625   -7.8167    0.0000 C   0  0  0  0  0  0           0  0  0
   10.3292   -6.2875    0.0000 C   0  0  0  0  0  0           0  0  0
   10.9167   -6.5042    0.0000 C   0  0  0  0  0  0           0  0  0
   11.0917   -7.4917    0.0000 C   0  0  0  0  0  0           0  0  0
    4.7375   -9.0167    0.0000 C   0  0  0  0  0  0           0  0  0
    4.0000   -8.6375    0.0000 C   0  0  0  0  0  0           0  0  0
  2  1  1  0     0  0
  3  2  1  0     0  0
  4  1  2  0     0  0
  5  2  2  0     0  0
  6 10  1  0     0  0
  7  6  1  0     0  0
  8  9  1  0     0  0
  9  3  1  0     0  0
 10  8  1  0     0  0
 11  4  1  0     0  0
 12  1  1  0     0  0
 13  8  1  0     0  0
 14  4  1  0     0  0
 15  7  1  0     0  0
 16  7  1  0     0  0
 17  7  1  0     0  0
 18 12  2  0     0  0
 19 18  1  0     0  0
 19 14  2  0     0  0
M  END