
  SciTegic12171312552D

 62 69  0  0  0  0            999 V2000
   38.6537   -8.1391    0.0000 F   0  0
   38.8893   -7.3470    0.0000 B   0  5
   38.0871   -7.5406    0.0000 F   0  0
   32.1586   -7.7490    0.0000 C   0  0
   32.8786   -7.3535    0.0000 C   0  0
   32.1410   -8.5743    0.0000 O   0  0
   33.5851   -7.7794    0.0000 O   0  0
   34.3092   -7.3840    0.0000 C   0  0
   35.0118   -7.8125    0.0000 C   0  0
   35.7355   -7.4178    0.0000 C   0  0
   35.7535   -6.5915    0.0000 C   0  0
   35.0420   -6.1616    0.0000 C   0  0
   34.3213   -6.5629    0.0000 C   0  0
   36.4771   -6.1911    0.0000 C   0  0
   37.1843   -6.6201    0.0000 C   0  0
   37.9079   -6.2196    0.0000 C   0  0
   38.8224   -5.2415    0.0000 C   0  0
   38.0115   -5.3963    0.0000 C   0  0
   39.2187   -5.9652    0.0000 C   0  0
   38.6534   -6.5660    0.0000 N   0  3
   40.0189   -6.1484    0.0000 C   0  0
   40.2539   -6.9390    0.0000 C   0  0
   39.6966   -7.5399    0.0000 N   0  0
   40.0920   -8.2585    0.0000 C   0  0
   40.8978   -8.1033    0.0000 C   0  0
   40.9978   -7.2888    0.0000 C   0  0
   39.7493   -9.0102    0.0000 C   0  0
   38.9388   -9.1663    0.0000 S   0  0
   38.8379   -9.9857    0.0000 C   0  0
   39.5864  -10.3334    0.0000 C   0  0
   40.1470   -9.7330    0.0000 C   0  0
   24.3011   -8.9825    0.0000 C   0  0
   24.3011   -9.8088    0.0000 C   0  0
   25.0130  -10.2214    0.0000 N   0  0
   25.7271   -9.8088    0.0000 C   0  0
   25.7271   -8.9825    0.0000 N   0  0
   25.0130   -8.5700    0.0000 C   0  0
   23.5104   -8.7251    0.0000 N   0  0
   23.0271   -9.3963    0.0000 C   0  0
   23.5104  -10.0621    0.0000 N   0  0
   25.0130   -7.7395    0.0000 N   0  0
   25.7271   -7.3311    0.0000 C   0  0
   23.2572  -10.8465    0.0000 C   0  0  2  0  0  0
   22.4707  -11.1051    0.0000 O   0  0
   22.4707  -11.9261    0.0000 C   0  0  1  0  0  0
   23.2572  -12.1826    0.0000 C   0  0  2  0  0  0
   23.7405  -11.5177    0.0000 C   0  0  1  0  0  0
   24.5668  -11.5177    0.0000 O   0  0
   23.5104  -12.9691    0.0000 O   0  0
   21.8016  -12.4127    0.0000 C   0  0
   21.0477  -12.0771    0.0000 N   0  0
   21.8907  -13.2380    0.0000 O   0  0
   20.3828  -12.5699    0.0000 C   0  0
   19.6256  -12.2342    0.0000 C   0  0
   26.4420   -7.7428    0.0000 C   0  0
   27.1540   -7.3332    0.0000 O   0  0
   27.8689   -7.7450    0.0000 C   0  0
   28.5849   -7.3354    0.0000 C   0  0
   29.2998   -7.7472    0.0000 O   0  0
   30.0160   -7.3376    0.0000 C   0  0
   30.7309   -7.7495    0.0000 C   0  0
   31.4470   -7.3399    0.0000 N   0  0
  2  1  1  0
  3  2  1  0
  4  5  1  0
  4  6  2  0
  5  7  1  0
  7  8  1  0
  8  9  2  0
  9 10  1  0
 10 11  2  0
 11 12  1  0
 12 13  2  0
 13  8  1  0
 11 14  1  0
 14 15  2  0
 15 16  1  0
 16 20  2  0
 19 17  1  0
 17 18  2  0
 18 16  1  0
 19 20  1  0
 19 21  2  0
 20  2  1  0
  2 23  1  0
 22 21  1  0
 22 23  1  0
 23 24  1  0
 24 25  2  0
 25 26  1  0
 26 22  2  0
 27 28  1  0
 28 29  1  0
 29 30  2  0
 30 31  1  0
 31 27  2  0
 24 27  1  0
 32 33  2  0
 33 34  1  0
 34 35  2  0
 35 36  1  0
 36 37  2  0
 37 32  1  0
 32 38  1  0
 38 39  2  0
 39 40  1  0
 40 33  1  0
 37 41  1  0
 41 42  1  0
 43 40  1  1
 43 44  1  0
 44 45  1  0
 45 46  1  0
 46 47  1  0
 47 43  1  0
 47 48  1  6
 46 49  1  6
 45 50  1  1
 50 51  1  0
 50 52  2  0
 51 53  1  0
 53 54  1  0
 42 55  1  0
 55 56  1  0
 56 57  1  0
 57 58  1  0
 58 59  1  0
 59 60  1  0
 60 61  1  0
 61 62  1  0
 62  4  1  0
M  CHG  2   2  -1  20   1
M  END