
  SciTegic09291412002D

 73 75  0  0  0  0            999 V2000
   13.0267   -6.1306    0.0000 S   0  0
   13.7370   -5.7183    0.0000 S   0  0
    9.4130   -5.4857    0.0000 O   0  0
   10.1684   -6.1306    0.0000 O   0  0
    8.0454   -2.1649    0.0000 O   0  0
   10.1684   -6.9554    0.0000 O   0  0
   13.7370  -10.6670    0.0000 O   0  0
   10.8829   -9.8422    0.0000 O   0  0
   16.5953   -9.8422    0.0000 O   0  0
    9.4539   -7.3679    0.0000 O   0  0
   15.8849   -6.9554    0.0000 O   0  0
    5.8815   -4.1817    0.0000 O   0  0
   10.8829   -4.8935    0.0000 N   0  0
   15.1704   -9.8422    0.0000 N   0  0
   10.2151   -4.4080    0.0000 C   0  0  1  0  0  0
   10.4706   -3.6209    0.0000 C   0  0
   11.2953   -3.6209    0.0000 C   0  0
   11.5508   -4.4080    0.0000 C   0  0
    9.4310   -4.6633    0.0000 C   0  0
   10.8829   -5.7183    0.0000 C   0  0
   11.5974   -6.1306    0.0000 C   0  0  2  0  0  0
    8.7375   -3.4141    0.0000 C   0  0  1  0  0  0
    9.4594   -3.0094    0.0000 C   0  0
   12.3122   -5.7183    0.0000 C   0  0
    9.4542   -2.1870    0.0000 C   0  0
    8.0316   -2.9873    0.0000 C   0  0
   10.8829   -7.3679    0.0000 C   0  0
   10.8829   -8.1926    0.0000 C   0  0  2  0  0  0
   14.4558  -10.7469    0.0000 C   0  0  2  0  0  0
   14.4558   -9.4299    0.0000 C   0  0  1  0  0  0
   10.1676   -1.7697    0.0000 C   0  0
    8.7384   -1.7768    0.0000 C   0  0
   12.3123   -9.8422    0.0000 C   0  0  2  0  0  0
   15.1704  -11.1635    0.0000 C   0  0
   10.1684   -8.6050    0.0000 C   0  0
   13.7370   -9.8422    0.0000 C   0  0
   11.5974   -9.4299    0.0000 C   0  0
   13.5227  -11.2855    0.0000 C   0  0
   12.3123  -10.6670    0.0000 C   0  0
   15.8849   -8.6050    0.0000 C   0  0  2  0  0  0
   15.8849   -9.4299    0.0000 C   0  0
    6.6184   -2.9629    0.0000 C   0  0
   15.1704  -11.9883    0.0000 C   0  0
   11.5976  -11.0794    0.0000 C   0  0
   16.5953   -8.1926    0.0000 C   0  0
   14.4558   -6.1306    0.0000 C   0  0
   14.4558   -6.9554    0.0000 C   0  0
    9.4539   -8.1926    0.0000 C   0  0
   15.1704   -7.3679    0.0000 C   0  0
   17.3098   -8.6050    0.0000 C   0  0
    5.8955   -3.3593    0.0000 C   0  0
   18.0287   -8.1926    0.0000 C   0  0
   17.3099   -9.4299    0.0000 C   0  0
   18.7390   -8.6050    0.0000 C   0  0
   18.0287   -9.8422    0.0000 C   0  0
   18.7390   -9.4299    0.0000 C   0  0
   19.4296   -9.8424    0.0000 O   0  0
   13.0027   -9.4301    0.0000 N   0  0
   11.5975   -6.9556    0.0000 N   0  0
   15.1703   -8.1929    0.0000 N   0  0
    7.3177   -3.4007    0.0000 N   0  0
    8.7279   -8.5982    0.0000 N   0  0
    8.7235   -4.2390    0.0000 N   0  0
    5.1895   -2.9367    0.0000 N   0  0
   11.5975   -8.6049    0.0000 N   0  0
   14.8669   -5.4074    0.0000 C   0  0
   15.2835   -6.1270    0.0000 C   0  0
   14.4454   -4.6887    0.0000 C   0  0
   15.6968   -5.4036    0.0000 C   0  0
   11.5975  -11.9126    0.0000 C   0  0
   10.8759  -12.3290    0.0000 N   0  0
   12.3190  -12.3293    0.0000 O   0  0
   14.9559  -10.2959    0.0000 H   0  0
 10 48  2  0
 11 49  2  0
 12 51  2  0
 57 56  1  0
 13 15  1  0
 13 18  1  0
 13 20  1  0
 63 19  1  0
 22 63  1  6
 59 21  1  0
 59 27  1  0
 61 26  1  0
 61 42  1  0
 65 28  1  0
 65 37  1  0
 30 14  1  0
 14 41  1  0
 58 33  1  0
 58 36  1  0
 60 40  1  0
 60 49  1  0
 62 48  1  0
 64 51  1  0
 15 16  1  0
 15 19  1  6
 16 17  1  0
 17 18  1  0
 21 20  1  6
 21 24  1  0
 22 23  1  0
 22 26  1  0
 23 25  1  0
 25 31  1  0
 25 32  1  0
 27 28  1  0
 28 35  1  1
 29 30  1  0
 29 34  1  0
 29 38  1  6
 30 36  1  0
 33 37  1  0
 33 39  1  1
 34 43  1  0
 35 48  1  0
 39 44  1  0
 40 41  1  0
 40 45  1  1
 42 51  1  0
 45 50  1  0
 46 47  1  0
 47 49  1  0
 50 52  2  0
 50 53  1  0
 52 54  1  0
 53 55  2  0
 54 56  2  0
 55 56  1  0
  1  2  1  0
  1 24  1  0
  2 46  1  0
  3 19  2  0
  4 20  2  0
  5 26  2  0
  6 27  2  0
  7 36  2  0
  8 37  2  0
  9 41  2  0
 46 66  1  0
 46 67  1  0
 66 68  1  0
 67 69  1  0
 44 70  1  0
 70 71  1  0
 70 72  2  0
 30 73  1  6
M  END