
  SciTegic04201616412D

 23 25  0  0  0  0            999 V2000
    8.5244    5.2803    0.0000 C   0  0
    7.5257    6.3996    0.0000 C   0  0
    6.0571    6.0943    0.0000 C   0  0
    5.5870    4.6698    0.0000 C   0  0
    6.5858    3.5506    0.0000 C   0  0
    8.0544    3.8558    0.0000 C   0  0
    4.1182    4.3614    0.0000 O   0  0
    3.6500    2.9355    0.0000 C   0  0
    2.1812    2.6271    0.0000 C   0  0
    1.7138    1.2033    0.0000 N   0  0
    1.7138   -1.2033    0.0000 N   0  0
    2.5889    0.0182    0.0000 C   0  0
    4.0872    0.0320    0.0000 S   0  0
    4.8506   -1.2602    0.0000 C   0  0
    6.3513   -1.2462    0.0000 C   0  0
    6.9413   -0.2013    0.0000 O   0  0
    6.9616   -2.2794    0.0000 O   0  0
    0.2917   -0.7475    0.0000 C   0  0
    0.2917    0.7475    0.0000 C   0  0
   -1.0028    1.5132    0.0000 C   0  0
   -2.3155    0.7475    0.0000 C   0  0
   -2.3155   -0.7475    0.0000 C   0  0
   -1.0028   -1.5132    0.0000 C   0  0
  1  2  2  0
  2  3  1  0
  3  4  2  0
  4  5  1  0
  5  6  2  0
  6  1  1  0
  4  7  1  0
  7  8  1  0
  8  9  1  0
  9 10  1  0
 10 19  1  0
 18 11  1  0
 11 12  2  0
 12 10  1  0
 12 13  1  0
 13 14  1  0
 14 15  1  0
 15 16  1  0
 15 17  2  0
 18 19  2  0
 19 20  1  0
 20 21  2  0
 21 22  1  0
 22 23  2  0
 23 18  1  0
M  END