
  SciTegic12231509382D

 47 48  0  0  0  0            999 V2000
    1.2990   -0.7500    0.0000 C   0  0
   22.0362  -36.8125    0.0000 C   0  0
    1.2990    0.7500    0.0000 C   0  0
   23.3326  -37.5671    0.0000 C   0  0
    2.5951   -3.0039    0.0000 N   0  0
   20.7401  -34.5586    0.0000 N   0  0
   16.8540  -26.2961    0.0000 N   0  0
    7.7815  -10.5187    0.0000 N   0  0
   24.6365  -36.8239    0.0000 O   0  0
    2.5972    1.5031    0.0000 O   0  0
    2.5973   -1.5031    0.0000 C   0  0
   22.0383  -35.3117    0.0000 C   0  0
    0.0000   -1.5000    0.0000 C   0  0
   20.7346  -37.5581    0.0000 C   0  0
    0.0000    1.5000    0.0000 C   0  0
   23.3274  -39.0671    0.0000 C   0  0
    7.7794  -12.0195    0.0000 C   0  0
    6.4833   -9.7656    0.0000 C   0  0
    3.8933   -3.7570    0.0000 C   0  0
   15.5558  -25.5430    0.0000 C   0  0
   20.7423  -33.0578    0.0000 C   0  0
   16.8519  -27.7969    0.0000 C   0  0
    2.5955    2.7031    0.0000 C   0  0
   25.6728  -37.4290    0.0000 C   0  0
    6.4855   -8.2648    0.0000 C   0  0
   19.4441  -32.3047    0.0000 C   0  0
   15.5580  -24.0422    0.0000 C   0  0
    9.0776  -12.7726    0.0000 C   0  0
   18.1501  -28.5500    0.0000 C   0  0
    3.8912   -5.2578    0.0000 C   0  0
   11.6676  -18.7813    0.0000 C   0  0
   11.6698  -17.2804    0.0000 C   0  0
   10.3716  -16.5273    0.0000 C   0  0
   10.3737  -15.0265    0.0000 C   0  0
    9.0755  -14.2734    0.0000 C   0  0
    5.1873   -7.5117    0.0000 C   0  0
   19.4462  -30.8039    0.0000 C   0  0
   18.1480  -30.0508    0.0000 C   0  0
    5.1894   -6.0109    0.0000 C   0  0
   14.2598  -23.2891    0.0000 C   0  0
   14.2619  -21.7882    0.0000 C   0  0
   12.9637  -21.0352    0.0000 C   0  0
   12.9658  -19.5343    0.0000 C   0  0
   20.7294  -39.0581    0.0000 C   0  0
   -1.2990   -0.7500    0.0000 C   0  0
   -1.2990    0.7500    0.0000 C   0  0
   22.0258  -39.8126    0.0000 C   0  0
  1  3  1  0
  2  4  1  0
  4  9  1  0
  3 10  1  0
  1 11  1  0
  5 11  1  0
  2 12  1  0
  6 12  1  0
  1 13  2  0
  2 14  2  0
  3 15  2  0
  4 16  2  0
  8 17  1  0
  8 18  1  0
  5 19  1  0
  7 20  1  0
  6 21  1  0
  7 22  1  0
 10 23  1  0
  9 24  1  0
 18 25  1  0
 21 26  1  0
 20 27  1  0
 17 28  1  0
 22 29  1  0
 19 30  1  0
 31 32  1  0
 32 33  1  0
 33 34  1  0
 28 35  1  0
 34 35  1  0
 25 36  1  0
 26 37  1  0
 29 38  1  0
 37 38  1  0
 30 39  1  0
 36 39  1  0
 27 40  1  0
 40 41  1  0
 41 42  1  0
 31 43  1  0
 42 43  1  0
 14 44  1  0
 13 45  1  0
 15 46  1  0
 45 46  2  0
 16 47  1  0
 44 47  2  0
M  END