
          05080814042D 1   1.00000     0.00000     0

 38 42  0     1  0            999 V2000
   -4.9565   -4.8405    0.0000 C   0  0  0  0  0  0           0  0  0
   -5.6673   -5.2554    0.0000 C   0  0  0  0  0  0           0  0  0
   -5.6603   -6.0817    0.0000 C   0  0  0  0  0  0           0  0  0
   -4.9464   -6.4852    0.0000 C   0  0  0  0  0  0           0  0  0
   -4.2432   -5.2477    0.0000 C   0  0  0  0  0  0           0  0  0
   -4.2372   -6.0754    0.0000 C   0  0  0  0  0  0           0  0  0
   -3.5214   -6.4817    0.0000 C   0  0  0  0  0  0           0  0  0
   -3.5335   -4.8264    0.0000 C   0  0  0  0  0  0           0  0  0
   -2.8130   -5.2372    0.0000 C   0  0  2  0  0  0           0  0  0
   -2.8085   -6.0668    0.0000 C   0  0  2  0  0  0           0  0  0
   -2.0917   -6.4755    0.0000 N   0  0  3  0  0  0           0  0  0
   -1.3749   -6.0590    0.0000 C   0  0  0  0  0  0           0  0  0
   -1.3794   -5.2294    0.0000 C   0  0  1  0  0  0           0  0  0
   -2.1008   -4.8162    0.0000 C   0  0  0  0  0  0           0  0  0
   -2.8208   -4.4083    0.0000 H   0  0  0  0  0  0           0  0  0
   -2.8167   -6.8917    0.0000 H   0  0  0  0  0  0           0  0  0
   -0.6668   -4.8137    0.0000 C   0  0  0  0  0  0           0  0  0
    0.0495   -5.2230    0.0000 N   0  0  3  0  0  0           0  0  0
   -0.6705   -3.9887    0.0000 O   0  0  0  0  0  0           0  0  0
    0.0472   -6.0512    0.0000 C   0  0  0  0  0  0           0  0  0
    0.7594   -6.4604    0.0000 C   0  0  0  0  0  0           0  0  0
    1.4745   -6.0482    0.0000 N   0  0  3  0  0  0           0  0  0
    1.4728   -5.2222    0.0000 C   0  0  0  0  0  0           0  0  0
    0.7560   -4.8085    0.0000 C   0  0  0  0  0  0           0  0  0
   -4.9605   -4.0155    0.0000 O   0  0  0  0  0  0           0  0  0
   -5.6770   -3.6064    0.0000 C   0  0  0  0  0  0           0  0  0
   -2.0883   -7.3004    0.0000 C   0  0  0  0  0  0           0  0  0
    2.1892   -6.4602    0.0000 C   0  0  0  0  0  0           0  0  0
    2.1853   -7.2844    0.0000 C   0  0  0  0  0  0           0  0  0
    2.8992   -7.6963    0.0000 C   0  0  0  0  0  0           0  0  0
    3.6144   -7.2833    0.0000 C   0  0  0  0  0  0           0  0  0
    3.6112   -6.4540    0.0000 C   0  0  0  0  0  0           0  0  0
    2.8967   -6.0458    0.0000 C   0  0  0  0  0  0           0  0  0
    2.8922   -5.2214    0.0000 C   0  0  0  0  0  0           0  0  0
    2.8877   -4.3965    0.0000 N   0  0  0  0  0  0           0  0  0
    4.3317   -7.6966    0.0000 N   0  3  0  0  0  0           0  0  0
    5.0453   -7.2827    0.0000 O   0  0  0  0  0  0           0  0  0
    4.3333   -8.5216    0.0000 O   0  5  0  0  0  0           0  0  0
 17 18  1  0     0  0
  9  8  1  0     0  0
 17 19  2  0     0  0
 18 20  1  0     0  0
  9 10  1  0     0  0
  3  4  2  0     0  0
  4  6  1  0     0  0
  5  6  2  0     0  0
  1  2  2  0     0  0
 18 24  1  0     0  0
 20 21  1  0     0  0
 21 22  1  0     0  0
 22 23  1  0     0  0
 23 24  1  0     0  0
  5  1  1  0     0  0
  1 25  1  0     0  0
  2  3  1  0     0  0
 25 26  1  0     0  0
  9 14  1  0     0  0
 11 27  1  0     0  0
 10 11  1  0     0  0
 22 28  1  0     0  0
 11 12  1  0     0  0
 28 29  2  0     0  0
 12 13  1  0     0  0
 29 30  1  0     0  0
 13 14  1  0     0  0
 30 31  2  0     0  0
 31 32  1  0     0  0
  9 15  1  6     0  0
 32 33  2  0     0  0
 33 28  1  0     0  0
  5  8  1  0     0  0
 10 16  1  1     0  0
 34 35  3  0     0  0
 33 34  1  0     0  0
  6  7  1  0     0  0
 13 17  1  1     0  0
  7 10  1  0     0  0
 36 37  2  0     0  0
 36 38  1  0     0  0
 31 36  1  0     0  0
M  CHG  2  36   1  38  -1
M  END