
  SciTegic05221516342D

 28 29  0  0  0  0            999 V2000
    8.4030  -12.2455    0.0000 O   0  0
    7.5858  -12.2455    0.0000 S   0  0
    7.9944  -12.9532    0.0000 O   0  0
    9.7148  -11.0189    0.0000 C   0  0
    9.7149  -10.1992    0.0000 C   0  0
   10.2941   -9.6200    0.0000 C   0  0
   10.2942  -11.5940    0.0000 C   0  0
   11.1138  -11.5940    0.0000 C   0  0
   11.6890  -11.0189    0.0000 C   0  0
   11.6889  -10.1992    0.0000 C   0  0
   11.1138   -9.6199    0.0000 C   0  0
    6.7645   -8.9726    0.0000 O   0  0
    7.5817   -8.9726    0.0000 S   0  0
    7.1731   -8.2649    0.0000 O   0  0
    6.8828  -10.2025    0.0000 C   0  0
    6.8817  -11.0220    0.0000 C   0  0
    7.5897  -11.4310    0.0000 C   0  0
    8.2994  -11.0215    0.0000 C   0  0
    8.2965  -10.1989    0.0000 C   0  0
    7.5879   -9.7936    0.0000 C   0  0
    8.2920   -8.5657    0.0000 N   0  0
    6.1750   -9.7940    0.0000 F   0  0
    6.1736  -11.4300    0.0000 F   0  0
    6.8817  -12.6566    0.0000 C   0  0
    6.8815  -13.4738    0.0000 C   0  0
    6.1737  -13.8822    0.0000 O   0  0
    9.0027   -9.7876    0.0000 F   0  0
    9.0077  -11.4290    0.0000 N   0  0
  2  1  2  0
  3  2  2  0
  4  5  1  0
  5  6  1  0
  4  7  1  0
  7  8  1  0
  8  9  1  0
  9 10  1  0
 10 11  1  0
 11  6  1  0
 13 12  2  0
 14 13  2  0
 15 16  2  0
 16 17  1  0
 17 18  2  0
 18 19  1  0
 19 20  2  0
 20 15  1  0
 20 13  1  0
 13 21  1  0
 15 22  1  0
 16 23  1  0
 17  2  1  0
  2 24  1  0
 24 25  1  0
 25 26  1  0
 19 27  1  0
 18 28  1  0
 28  4  1  0
M  END