
  SciTegic11111309142D

 54 58  0  0  1  0            999 V2000
    5.3806    2.5126    0.0000 C   0  0
    0.9223   -4.8943    0.0000 C   0  0
    1.5354   -4.3423    0.0000 C   0  0
    1.1998   -3.5886    0.0000 C   0  0
    0.3793   -3.6749    0.0000 C   0  0
    0.2078   -4.4818    0.0000 C   0  0
    3.2372    0.4501    0.0000 O   0  0
    2.5228    0.0376    0.0000 C   0  0
    2.5228   -0.7874    0.0000 C   0  0
    3.2372   -1.1999    0.0000 C   0  0
    3.2372   -2.0249    0.0000 C   0  0
    2.5228   -2.4374    0.0000 C   0  0
    1.8083   -2.0249    0.0000 C   0  0
    1.8083   -1.1999    0.0000 C   0  0
    3.9517   -0.7874    0.0000 Cl  0  0
    1.0938   -0.7874    0.0000 Cl  0  0
    1.0938   -2.4374    0.0000 S   0  0
    0.6813   -1.7229    0.0000 O   0  0
    1.5063   -3.1518    0.0000 O   0  0
   -0.4411   -3.5886    0.0000 C   0  0
   -0.9261   -4.2561    0.0000 N   0  0
   -0.7767   -2.8349    0.0000 O   0  0
   -0.5905   -5.0097    0.0000 C   0  0
   -1.0754   -5.6772    0.0000 C   0  0
   -1.8959   -5.5909    0.0000 N   0  0
   -2.2315   -4.8373    0.0000 C   0  0
   -1.7465   -4.1698    0.0000 C   0  0
   -2.3808   -6.2584    0.0000 C   0  0
   -2.0453   -7.0121    0.0000 O   0  0
   -3.2013   -6.1721    0.0000 C   0  0  2  0  0  0
   -3.6862   -6.8396    0.0000 C   0  0
   -4.5067   -6.7533    0.0000 C   0  0
   -4.9916   -7.4208    0.0000 C   0  0
   -5.8121   -7.3345    0.0000 C   0  0
    3.2372    1.2751    0.0000 C   0  0
    3.2372    2.9251    0.0000 C   0  0
    2.5228    2.5126    0.0000 C   0  0
    2.5228    1.6876    0.0000 C   0  0
    3.9517    2.5126    0.0000 C   0  0
    3.9517    1.6876    0.0000 C   0  0
    4.6662    1.2751    0.0000 N   0  0
    5.3806    1.6876    0.0000 C   0  0
    4.6662    2.9251    0.0000 C   0  0
    6.0951    1.2751    0.0000 C   0  0
    4.6662    3.7501    0.0000 C   0  0
   -6.2970   -8.0020    0.0000 N   0  3
   -6.7820   -8.6694    0.0000 C   0  0
   -3.5369   -5.4185    0.0000 N   0  3
   -3.8724   -4.6648    0.0000 C   0  0
   -4.2905   -5.7540    0.0000 C   0  0
   -2.7832   -5.0829    0.0000 C   0  0
   -6.9645   -7.5171    0.0000 C   0  0
   -5.6296   -8.4869    0.0000 C   0  0
    0.3793   -2.8499    0.0000 N   0  0
  5 20  1  0
 20 21  1  0
 20 22  2  0
 21 23  1  0
 21 27  1  0
 23 24  1  0
 24 25  1  0
 25 26  1  0
 26 27  1  0
 25 28  1  0
 28 29  2  0
 28 30  1  0
 30 31  1  0
 31 32  1  0
 32 33  1  0
 33 34  1  0
  7 35  1  0
 35 40  2  0
  2  3  1  0
 39 36  2  0
  3  4  1  0
 36 37  1  0
  4  5  1  0
 37 38  2  0
 38 35  1  0
  5  6  1  0
  6  2  1  0
 39 40  1  0
  7  8  1  0
 40 41  1  0
  8  9  1  0
 41 42  2  0
 42  1  1  0
  9 10  2  0
  1 43  2  0
 43 39  1  0
 10 11  1  0
 42 44  1  0
 11 12  2  0
 43 45  1  0
 12 13  1  0
 34 46  1  0
 13 14  2  0
 46 47  1  0
 14  9  1  0
 30 48  1  6
 10 15  1  0
 48 49  1  0
 14 16  1  0
 48 50  1  0
 13 17  1  0
 48 51  1  0
 17 18  2  0
 46 52  1  0
 17 19  2  0
 46 53  1  0
 54  5  1  0
 17 54  1  0
M  CHG  2  46   1  48   1
M  END