
          11280715332D 1   1.00000     0.00000     0

 31 33  0     0  0            999 V2000
    3.2500    1.2333    0.0000 N   0  0  0  0  0  0           0  0  0
    3.2542    0.4083    0.0000 C   0  0  0  0  0  0           0  0  0
    1.8250    1.2250    0.0000 C   0  0  0  0  0  0           0  0  0
    2.5292    1.6458    0.0000 C   0  0  0  0  0  0           0  0  0
    2.5417   -0.0125    0.0000 N   0  0  0  0  0  0           0  0  0
    1.8250    0.4000    0.0000 C   0  0  0  0  0  0           0  0  0
    1.1042    1.6375    0.0000 C   0  0  0  0  0  0           0  0  0
    1.1042   -0.0167    0.0000 C   0  0  0  0  0  0           0  0  0
   10.3917    0.4500    0.0000 C   0  0  0  0  0  0           0  0  0
    9.6792    0.0333    0.0000 C   0  0  0  0  0  0           0  0  0
    0.3917    1.2250    0.0000 C   0  0  0  0  0  0           0  0  0
    0.3917    0.3958    0.0000 C   0  0  0  0  0  0           0  0  0
    3.9667   -0.0042    0.0000 N   0  0  3  0  0  0           0  0  0
   11.1417    0.1208    0.0000 O   0  0  0  0  0  0           0  0  0
   10.4750    1.2750    0.0000 C   0  0  0  0  0  0           0  0  0
    9.6792   -0.7917    0.0000 O   0  0  0  0  0  0           0  0  0
   11.6917    0.7375    0.0000 C   0  0  0  0  0  0           0  0  0
   11.2792    1.4500    0.0000 C   0  0  0  0  0  0           0  0  0
    2.5292    2.4708    0.0000 N   0  0  0  0  0  0           0  0  0
    8.9667    0.4458    0.0000 N   0  0  0  0  0  0           0  0  0
   -0.3208    1.6333    0.0000 O   0  0  0  0  0  0           0  0  0
   -0.3208   -0.0167    0.0000 O   0  0  0  0  0  0           0  0  0
    4.6792    0.4083    0.0000 C   0  0  0  0  0  0           0  0  0
    3.9750   -0.8292    0.0000 C   0  0  0  0  0  0           0  0  0
    8.2542    0.0208    0.0000 C   0  0  0  0  0  0           0  0  0
   -1.0375    1.2208    0.0000 C   0  0  0  0  0  0           0  0  0
   -0.3208   -0.8417    0.0000 C   0  0  0  0  0  0           0  0  0
    5.4000    0.0000    0.0000 C   0  0  0  0  0  0           0  0  0
    7.5417    0.4333    0.0000 C   0  0  0  0  0  0           0  0  0
    6.8292    0.0125    0.0000 C   0  0  0  0  0  0           0  0  0
    6.1125    0.4208    0.0000 C   0  0  0  0  0  0           0  0  0
  2  1  1  0     0  0
  3  4  1  0     0  0
  4  1  2  0     0  0
  5  2  2  0     0  0
  6  3  1  0     0  0
  7  3  2  0     0  0
  8  6  2  0     0  0
  9 10  1  0     0  0
 10 20  1  0     0  0
 11  7  1  0     0  0
 12 11  2  0     0  0
 13  2  1  0     0  0
 14  9  1  0     0  0
 15  9  2  0     0  0
 16 10  2  0     0  0
 17 14  1  0     0  0
 18 15  1  0     0  0
 19  4  1  0     0  0
 20 25  1  0     0  0
 21 11  1  0     0  0
 22 12  1  0     0  0
 23 13  1  0     0  0
 24 13  1  0     0  0
 25 29  1  0     0  0
 26 21  1  0     0  0
 27 22  1  0     0  0
 28 23  1  0     0  0
 29 30  1  0     0  0
 30 31  1  0     0  0
 31 28  1  0     0  0
  6  5  1  0     0  0
  8 12  1  0     0  0
 17 18  2  0     0  0
M  END