
  SciTegic06051313552D

 38 42  0  0  0  0            999 V2000
   13.0117  -14.6186    0.0000 C   0  0
   13.0106  -15.4381    0.0000 C   0  0
   13.7186  -15.8471    0.0000 C   0  0
   13.7168  -14.2097    0.0000 C   0  0
   15.2092  -14.3589    0.0000 C   0  0
   14.4255  -14.6150    0.0000 C   0  0
   14.4280  -15.4403    0.0000 C   0  0
   15.2143  -15.6915    0.0000 N   0  0
   15.6951  -15.0207    0.0000 N   0  0
   15.4713  -16.4673    0.0000 C   0  0
   15.0529  -17.1684    0.0000 C   0  0
   14.2381  -17.1538    0.0000 C   0  0
   13.8192  -17.8546    0.0000 C   0  0
   14.2173  -18.5692    0.0000 C   0  0
   15.0387  -18.5787    0.0000 C   0  0
   15.4539  -17.8773    0.0000 C   0  0
   15.4393  -19.2910    0.0000 C   0  0
   15.0228  -19.9941    0.0000 N   0  0
   15.4234  -20.7063    0.0000 C   0  0
   15.0069  -21.4094    0.0000 O   0  0
   16.2405  -20.7155    0.0000 C   0  0
   15.6309  -13.6589    0.0000 N   0  0
   16.4479  -13.6741    0.0000 S   0  0
   16.9346  -14.3305    0.0000 C   0  0
   16.4205  -12.8504    0.0000 O   0  0
   17.2294  -13.4310    0.0000 O   0  0
   16.6895  -15.1121    0.0000 C   0  0
   17.3558  -15.5869    0.0000 C   0  0
   18.0125  -15.0986    0.0000 C   0  0
   17.7498  -14.3238    0.0000 S   0  0
   18.7927  -15.3419    0.0000 Cl  0  0
   13.7102  -13.3967    0.0000 O   0  0
   12.9992  -12.9939    0.0000 C   0  0
   16.6355  -21.4308    0.0000 C   0  0
   17.4491  -21.4419    0.0000 C   0  0
   17.8694  -20.7407    0.0000 O   0  0
   17.4701  -20.0266    0.0000 C   0  0
   16.6504  -20.0138    0.0000 C   0  0
  1  2  2  0
  2  3  1  0
  3  7  2  0
  6  4  2  0
  4  1  1  0
  6  7  1  0
  5  6  1  0
  7  8  1  0
  8  9  1  0
  9  5  2  0
  8 10  1  0
 10 11  1  0
 11 12  2  0
 12 13  1  0
 13 14  2  0
 14 15  1  0
 15 16  2  0
 16 11  1  0
 15 17  1  0
 17 18  1  0
 18 19  1  0
 19 20  2  0
 19 21  1  0
  5 22  1  0
 22 23  1  0
 23 24  1  0
 23 25  2  0
 23 26  2  0
 27 28  1  0
 24 27  2  0
 28 29  2  0
 29 30  1  0
 30 24  1  0
 29 31  1  0
  4 32  1  0
 32 33  1  0
 21 34  1  0
 21 38  1  0
 34 35  1  0
 35 36  1  0
 36 37  1  0
 37 38  1  0
M  END