
          11280714522D 1   1.00000     0.00000     0

 60 65  0     1  0            999 V2000
    8.2417   -3.0542    0.0000 N   0  0  0  0  0  0           0  0  0
    8.6000   -2.3042    0.0000 C   0  0  2  0  0  0           0  0  0
    7.4250   -1.3667    0.0000 N   0  0  3  0  0  0           0  0  0
    8.2375   -1.5500    0.0000 C   0  0  0  0  0  0           0  0  0
    7.4292   -3.2417    0.0000 C   0  0  0  0  0  0           0  0  0
    6.7750   -2.7250    0.0000 C   0  0  0  0  0  0           0  0  0
    9.4250   -2.3000    0.0000 N   0  0  0  0  0  0           0  0  0
    6.7750   -1.8917    0.0000 C   0  0  0  0  0  0           0  0  0
    9.8375   -3.0125    0.0000 C   0  0  0  0  0  0           0  0  0
    9.4292   -6.5792    0.0000 C   0  0  0  0  0  0           0  0  0
    6.9542   -9.4417    0.0000 C   0  0  0  0  0  0           0  0  0
    7.7792   -9.4417    0.0000 C   0  0  0  0  0  0           0  0  0
    6.5417   -8.7292    0.0000 C   0  0  0  0  0  0           0  0  0
   10.6625   -3.0125    0.0000 N   0  0  0  0  0  0           0  0  0
   -0.5833  -10.0167    0.0000 N   0  0  3  0  0  0           0  0  0
    8.7500   -0.9042    0.0000 O   0  0  0  0  0  0           0  0  0
    7.2417   -4.0500    0.0000 C   0  0  0  0  0  0           0  0  0
    9.4292   -3.7292    0.0000 O   0  0  0  0  0  0           0  0  0
    8.6042   -6.5792    0.0000 O   0  0  0  0  0  0           0  0  0
    9.8417   -5.8667    0.0000 O   0  0  0  0  0  0           0  0  0
   11.0792   -3.7250    0.0000 C   0  0  0  0  0  0           0  0  0
    8.2000  -10.1542    0.0000 O   0  0  0  0  0  0           0  0  0
    6.9542   -8.0167    0.0000 O   0  0  0  0  0  0           0  0  0
    0.0667   -9.5125    0.0000 C   0  0  0  0  0  0           0  0  0
    9.8417   -7.2917    0.0000 N   0  0  0  0  0  0           0  0  0
    0.8292   -9.8250    0.0000 C   0  0  0  0  0  0           0  0  0
    5.7167   -8.7292    0.0000 N   0  0  0  0  0  0           0  0  0
    8.1917   -8.7292    0.0000 N   0  0  0  0  0  0           0  0  0
    7.2375   -0.5667    0.0000 C   0  0  0  0  0  0           0  0  0
   10.6667   -4.4375    0.0000 C   0  0  0  0  0  0           0  0  0
    1.4792   -9.3167    0.0000 C   0  0  0  0  0  0           0  0  0
   10.6667   -5.8667    0.0000 C   0  0  0  0  0  0           0  0  0
    6.0542   -3.1375    0.0000 C   0  0  0  0  0  0           0  0  0
   11.0792   -5.1500    0.0000 C   0  0  0  0  0  0           0  0  0
    2.2417   -9.6292    0.0000 C   0  0  0  0  0  0           0  0  0
    6.0542   -1.4792    0.0000 C   0  0  0  0  0  0           0  0  0
    4.3042   -8.9292    0.0000 C   0  0  0  0  0  0           0  0  0
    2.8917   -9.1250    0.0000 O   0  0  0  0  0  0           0  0  0
   -0.4708  -10.8292    0.0000 C   0  0  0  0  0  0           0  0  0
   -1.3458   -9.7000    0.0000 C   0  0  0  0  0  0           0  0  0
   12.3167   -4.4292    0.0000 C   0  0  0  0  0  0           0  0  0
    1.7042  -10.9542    0.0000 C   0  0  0  0  0  0           0  0  0
    5.0667   -9.2375    0.0000 C   0  0  0  0  0  0           0  0  0
   11.9000   -3.7167    0.0000 C   0  0  0  0  0  0           0  0  0
    0.9417  -10.6417    0.0000 C   0  0  0  0  0  0           0  0  0
    7.8500   -4.6042    0.0000 C   0  0  0  0  0  0           0  0  0
    6.4542   -4.2917    0.0000 C   0  0  0  0  0  0           0  0  0
    3.6542   -9.4375    0.0000 C   0  0  0  0  0  0           0  0  0
    9.4292   -8.0125    0.0000 C   0  0  0  0  0  0           0  0  0
    8.6042   -8.0125    0.0000 C   0  0  0  0  0  0           0  0  0
   11.9042   -5.1500    0.0000 C   0  0  0  0  0  0           0  0  0
    2.3542  -10.4500    0.0000 C   0  0  0  0  0  0           0  0  0
    5.3417   -2.7250    0.0000 C   0  0  0  0  0  0           0  0  0
    5.3417   -1.8917    0.0000 C   0  0  0  0  0  0           0  0  0
   -1.1208  -11.3375    0.0000 C   0  0  0  0  0  0           0  0  0
   -1.9958  -10.2042    0.0000 C   0  0  0  0  0  0           0  0  0
    7.6667   -5.4042    0.0000 C   0  0  0  0  0  0           0  0  0
    6.2750   -5.0917    0.0000 C   0  0  0  0  0  0           0  0  0
   -1.8833  -11.0292    0.0000 C   0  0  0  0  0  0           0  0  0
    6.8792   -5.6542    0.0000 C   0  0  0  0  0  0           0  0  0
  2  1  1  0     0  0
  3  4  1  0     0  0
  4  2  1  0     0  0
  5  1  2  0     0  0
  6  5  1  0     0  0
  2  7  1  6     0  0
  8  6  1  0     0  0
  9  7  1  0     0  0
 10 20  1  0     0  0
 11 12  1  0     0  0
 12 28  1  0     0  0
 13 11  1  0     0  0
 14  9  1  0     0  0
 15 24  1  0     0  0
 16  4  2  0     0  0
 17  5  1  0     0  0
 18  9  2  0     0  0
 19 10  2  0     0  0
 20 32  1  0     0  0
 21 14  1  0     0  0
 22 12  2  0     0  0
 23 13  2  0     0  0
 24 26  1  0     0  0
 25 10  1  0     0  0
 26 31  2  0     0  0
 27 13  1  0     0  0
 28 50  1  0     0  0
 29  3  1  0     0  0
 30 21  2  0     0  0
 31 35  1  0     0  0
 32 34  1  0     0  0
 33  6  2  0     0  0
 34 30  1  0     0  0
 35 38  1  0     0  0
 36  8  2  0     0  0
 37 43  1  0     0  0
 38 48  1  0     0  0
 39 15  1  0     0  0
 40 15  1  0     0  0
 41 44  2  0     0  0
 42 52  1  0     0  0
 43 27  1  0     0  0
 44 21  1  0     0  0
 45 42  2  0     0  0
 46 17  1  0     0  0
 47 17  2  0     0  0
 48 37  1  0     0  0
 49 25  1  0     0  0
 50 49  1  0     0  0
 51 41  1  0     0  0
 52 35  2  0     0  0
 53 33  1  0     0  0
 54 53  2  0     0  0
 55 39  1  0     0  0
 56 40  1  0     0  0
 57 46  2  0     0  0
 58 47  1  0     0  0
 59 56  1  0     0  0
 60 58  2  0     0  0
  8  3  1  0     0  0
 57 60  1  0     0  0
 36 54  1  0     0  0
 34 51  2  0     0  0
 26 45  1  0     0  0
 55 59  1  0     0  0
M  END