
          11280715332D 1   1.00000     0.00000     0

 25 25  0     0  0            999 V2000
    1.6042   -4.0792    0.0000 S   0  0  3  0  0  0           0  0  0
    4.8917   -4.0667    0.0000 C   0  0  0  0  0  0           0  0  0
    7.8542   -6.1542    0.0000 C   0  0  3  0  0  0           0  0  0
    8.6792   -6.0792    0.0000 C   0  0  0  0  0  0           0  0  0
    7.3792   -5.4792    0.0000 N   0  0  0  0  0  0           0  0  0
    2.4250   -4.0792    0.0000 C   0  0  0  0  0  0           0  0  0
    6.5542   -5.4792    0.0000 C   0  0  0  0  0  0           0  0  0
    5.3125   -4.7792    0.0000 N   0  0  0  0  0  0           0  0  0
    1.6000   -4.9042    0.0000 O   0  0  0  0  0  0           0  0  0
    1.6042   -3.2542    0.0000 O   0  0  0  0  0  0           0  0  0
    4.0667   -4.0667    0.0000 C   0  0  0  0  0  0           0  0  0
    0.7750   -4.0667    0.0000 N   0  0  0  0  0  0           0  0  0
    5.3042   -3.3500    0.0000 O   0  0  0  0  0  0           0  0  0
    9.0250   -5.3292    0.0000 O   0  0  0  0  0  0           0  0  0
    6.1417   -6.2000    0.0000 O   0  0  0  0  0  0           0  0  0
    2.8292   -3.3667    0.0000 C   0  0  0  0  0  0           0  0  0
    2.8417   -4.7917    0.0000 C   0  0  0  0  0  0           0  0  0
    3.6625   -4.7875    0.0000 C   0  0  0  0  0  0           0  0  0
    3.6500   -3.3542    0.0000 C   0  0  0  0  0  0           0  0  0
    6.1375   -4.7667    0.0000 C   0  0  0  0  0  0           0  0  0
    7.5125   -6.9042    0.0000 C   0  0  3  0  0  0           0  0  0
    9.1542   -6.7542    0.0000 O   0  0  0  0  0  0           0  0  0
    6.6875   -6.9792    0.0000 C   0  0  0  0  0  0           0  0  0
    7.9875   -7.5792    0.0000 C   0  0  0  0  0  0           0  0  0
    6.3417   -7.7292    0.0000 C   0  0  0  0  0  0           0  0  0
  2 11  1  0     0  0
  3  5  1  0     0  0
  4  3  1  0     0  0
  5  7  1  0     0  0
  6  1  1  0     0  0
  7 20  1  0     0  0
  8  2  1  0     0  0
  9  1  2  0     0  0
 10  1  2  0     0  0
 11 18  2  0     0  0
 12  1  1  0     0  0
 13  2  2  0     0  0
 14  4  2  0     0  0
 15  7  2  0     0  0
 16  6  1  0     0  0
 17  6  2  0     0  0
 18 17  1  0     0  0
 19 16  2  0     0  0
 20  8  1  0     0  0
 21  3  1  0     0  0
 22  4  1  0     0  0
 23 21  1  0     0  0
 24 21  1  0     0  0
 25 23  1  0     0  0
 11 19  1  0     0  0
M  END