
  SciTegic09261414552D

 33 37  0  0  0  0            999 V2000
   15.0365  -11.5535    0.0000 C   0  0
   15.7523  -11.9660    0.0000 N   0  0
   16.4640  -11.5535    0.0000 C   0  0
   16.4640  -10.7285    0.0000 C   0  0
   15.7523  -10.3160    0.0000 C   0  0
   15.0365  -10.7285    0.0000 N   0  0
   17.1798  -11.9660    0.0000 C   0  0
   17.8916  -11.5535    0.0000 C   0  0
   17.8916  -10.7285    0.0000 C   0  0
   17.1798  -10.3160    0.0000 N   0  0
   15.7523   -9.4911    0.0000 N   0  0
   18.6074  -10.3161    0.0000 N   0  0
   15.0365   -9.0786    0.0000 C   0  0
   14.3206   -9.4911    0.0000 C   0  0
   13.6047   -9.0786    0.0000 C   0  0
   13.6047   -8.2536    0.0000 C   0  0
   14.3206   -7.8411    0.0000 C   0  0
   15.0365   -8.2536    0.0000 C   0  0
   12.8931   -7.8411    0.0000 N   0  0
   12.1772   -8.2536    0.0000 C   0  0
   11.4655   -7.8411    0.0000 C   0  0
   11.4655   -7.0161    0.0000 N   0  0
   12.1772   -6.6036    0.0000 C   0  0
   12.8931   -7.0161    0.0000 C   0  0
   10.7496   -6.6036    0.0000 C   0  0
   19.3233  -10.7285    0.0000 C   0  0
   20.0349  -10.3161    0.0000 C   0  0
   20.0349   -9.4911    0.0000 C   0  0
   20.7508   -9.0786    0.0000 C   0  0
   21.4667   -9.4911    0.0000 C   0  0
   21.4667  -10.3161    0.0000 C   0  0
   20.7508  -10.7285    0.0000 C   0  0
   20.7508   -8.2536    0.0000 Cl  0  0
  1  2  1  0
  2  3  2  0
  3  4  1  0
  4  5  2  0
  5  6  1  0
  1  6  2  0
  7  8  2  0
  8  9  1  0
  9 10  2  0
  3  7  1  0
  4 10  1  0
  5 11  1  0
  9 12  1  0
 13 14  1  0
 14 15  2  0
 15 16  1  0
 16 17  2  0
 17 18  1  0
 13 18  2  0
 19 20  1  0
 20 21  1  0
 21 22  1  0
 22 23  1  0
 23 24  1  0
 19 24  1  0
 22 25  1  0
 16 19  1  0
 11 13  1  0
 26 27  1  0
 27 28  1  0
 28 29  2  0
 29 30  1  0
 30 31  2  0
 31 32  1  0
 27 32  2  0
 29 33  1  0
 12 26  1  0
M  END