
          11280715122D 1   1.00000     0.00000     0

 29 31  0     0  0            999 V2000
    6.3417   -5.0625    0.0000 C   0  0  0  0  0  0           0  0  0
    7.0542   -5.4667    0.0000 C   0  0  0  0  0  0           0  0  0
    1.8042   -7.1750    0.0000 N   0  0  3  0  0  0           0  0  0
    0.9917   -7.0375    0.0000 C   0  0  0  0  0  0           0  0  0
    3.4500   -7.2292    0.0000 N   0  0  3  0  0  0           0  0  0
    6.3417   -4.2375    0.0000 N   0  0  3  0  0  0           0  0  0
    7.0542   -6.3000    0.0000 C   0  0  0  0  0  0           0  0  0
    5.6292   -5.4750    0.0000 O   0  0  0  0  0  0           0  0  0
    2.1917   -7.9042    0.0000 C   0  0  0  0  0  0           0  0  0
    2.2417   -6.4667    0.0000 C   0  0  0  0  0  0           0  0  0
    0.7042   -6.2542    0.0000 C   0  0  0  0  0  0           0  0  0
    3.0167   -7.9292    0.0000 C   0  0  0  0  0  0           0  0  0
    3.0667   -6.5042    0.0000 C   0  0  0  0  0  0           0  0  0
    6.2375   -6.3000    0.0000 N   0  0  0  0  0  0           0  0  0
    7.7667   -5.0542    0.0000 C   0  0  0  0  0  0           0  0  0
    1.2292   -5.6167    0.0000 O   0  0  0  0  0  0           0  0  0
    4.2750   -7.2667    0.0000 C   0  0  0  0  0  0           0  0  0
    4.8542   -6.6750    0.0000 C   0  0  0  0  0  0           0  0  0
    0.4667   -7.6750    0.0000 C   0  0  0  0  0  0           0  0  0
    5.6292   -3.8250    0.0000 C   0  0  0  0  0  0           0  0  0
    7.0542   -3.8167    0.0000 C   0  0  0  0  0  0           0  0  0
    5.6500   -6.8875    0.0000 C   0  0  0  0  0  0           0  0  0
    7.7667   -6.7125    0.0000 C   0  0  0  0  0  0           0  0  0
   -0.1083   -6.1250    0.0000 C   0  0  0  0  0  0           0  0  0
    2.0417   -5.7542    0.0000 C   0  0  0  0  0  0           0  0  0
    8.4875   -5.4667    0.0000 C   0  0  0  0  0  0           0  0  0
   -0.3500   -7.5292    0.0000 C   0  0  0  0  0  0           0  0  0
    8.4875   -6.3000    0.0000 C   0  0  0  0  0  0           0  0  0
   -0.6333   -6.7542    0.0000 C   0  0  0  0  0  0           0  0  0
  2  1  1  0     0  0
  3 10  1  0     0  0
  4  3  1  0     0  0
  5 17  1  0     0  0
  6  1  1  0     0  0
  7  2  2  0     0  0
  8  1  2  0     0  0
  9 12  1  0     0  0
 10 13  1  0     0  0
 11  4  1  0     0  0
 12  5  1  0     0  0
 13  5  1  0     0  0
 14  7  1  0     0  0
 15  2  1  0     0  0
 16 11  1  0     0  0
 17 18  1  0     0  0
 18 22  1  0     0  0
 19  4  2  0     0  0
 20  6  1  0     0  0
 21  6  1  0     0  0
 22 14  1  0     0  0
 23  7  1  0     0  0
 24 11  2  0     0  0
 25 16  1  0     0  0
 26 15  2  0     0  0
 27 19  1  0     0  0
 28 26  1  0     0  0
 29 27  2  0     0  0
 28 23  2  0     0  0
  9  3  1  0     0  0
 29 24  1  0     0  0
M  END