
          11280715392D 1   1.00000     0.00000     0

 14 14  0     0  0            999 V2000
    3.4250    1.4208    0.0000 S   0  0  3  0  0  0           0  0  0
   -0.1583    0.1708    0.0000 N   0  3  0  0  0  0           0  0  0
    2.7042    1.8333    0.0000 N   0  0  0  0  0  0           0  0  0
    0.5542    0.5833    0.0000 C   0  0  0  0  0  0           0  0  0
   -0.8750    0.5833    0.0000 O   0  5  0  0  0  0           0  0  0
    3.0042    0.6958    0.0000 O   0  0  0  0  0  0           0  0  0
    3.8417    2.1458    0.0000 O   0  0  0  0  0  0           0  0  0
   -0.1583   -0.6542    0.0000 O   0  0  0  0  0  0           0  0  0
    4.1417    1.0000    0.0000 N   0  0  0  0  0  0           0  0  0
    1.2750    0.1750    0.0000 C   0  0  0  0  0  0           0  0  0
    0.5542    1.4125    0.0000 C   0  0  0  0  0  0           0  0  0
    1.9875    1.4125    0.0000 C   0  0  0  0  0  0           0  0  0
    1.9875    0.5875    0.0000 C   0  0  0  0  0  0           0  0  0
    1.2750    1.8250    0.0000 C   0  0  0  0  0  0           0  0  0
  2  4  1  0     0  0
  3  1  1  0     0  0
  4 11  2  0     0  0
  5  2  1  0     0  0
  6  1  2  0     0  0
  7  1  2  0     0  0
  8  2  2  0     0  0
  9  1  1  0     0  0
 10 13  2  0     0  0
 11 14  1  0     0  0
 12  3  1  0     0  0
 13 12  1  0     0  0
 14 12  2  0     0  0
  4 10  1  0     0  0
M  CHG  2   2   1   5  -1
M  END