
  SciTegic11111309142D

 51 55  0  0  1  0            999 V2000
   -1.9196   -4.3512    0.0000 C   0  0
   -1.4518   -5.0337    0.0000 N   0  0
   -0.6312   -4.9678    0.0000 C   0  0
   -0.2737   -4.2261    0.0000 C   0  0
   -0.7415   -3.5436    0.0000 C   0  0
   -1.5669   -3.6027    0.0000 C   0  0
   -2.4360    2.3871    0.0000 C   0  0
   -3.5576   -0.3663    0.0000 O   0  0
   -4.0426   -1.0337    0.0000 C   0  0
   -3.7400   -1.8012    0.0000 C   0  0
   -4.2415   -2.4129    0.0000 C   0  0
   -3.9609   -3.1466    0.0000 C   0  0
   -3.1843   -3.2503    0.0000 C   0  0
   -2.7227   -2.6163    0.0000 C   0  0
   -3.0451   -1.8942    0.0000 C   0  0
   -5.0558   -2.2808    0.0000 Cl  0  0
   -2.5511   -1.2335    0.0000 Cl  0  0
   -1.9023   -2.7026    0.0000 S   0  0
   -1.8161   -1.8821    0.0000 O   0  0
   -1.9885   -3.5230    0.0000 O   0  0
   -0.0309   -3.1306    0.0000 C   0  0
    0.6829   -3.5426    0.0000 N   0  0
   -0.0309   -2.3048    0.0000 O   0  0
    0.6829   -4.3692    0.0000 C   0  0
    1.3927   -4.7790    0.0000 C   0  0
    2.1029   -4.3689    0.0000 N   0  0
    2.1029   -3.5472    0.0000 C   0  0
    1.3929   -3.1328    0.0000 C   0  0
    2.8139   -4.7793    0.0000 C   0  0
    2.8139   -5.6000    0.0000 O   0  0
    3.5321   -4.3647    0.0000 C   0  0  2  0  0  0
   -3.8942    0.3896    0.0000 C   0  0
   -4.5652    1.8970    0.0000 C   0  0
   -5.0519    1.2225    0.0000 C   0  0
   -4.7133    0.4698    0.0000 C   0  0
   -3.7414    1.8099    0.0000 C   0  0
   -3.4095    1.0534    0.0000 C   0  0
   -2.5900    0.9638    0.0000 N   0  0
   -2.1017    1.6299    0.0000 C   0  0
   -3.2570    2.4737    0.0000 C   0  0
   -1.2790    1.5414    0.0000 C   0  0
   -3.5928    3.2300    0.0000 C   0  0
    4.2488   -4.7784    0.0000 C   0  0
    4.9654   -4.3647    0.0000 C   0  0
    5.6820   -4.7784    0.0000 C   0  0
    6.3986   -4.3647    0.0000 N   0  3
    7.1152   -4.7784    0.0000 C   0  0
    6.3986   -3.5372    0.0000 C   0  0
    7.1093   -3.9464    0.0000 C   0  0
    3.5321   -3.5372    0.0000 N   0  0
   -1.0822   -2.7922    0.0000 N   0  0
  5 21  1  0
 21 22  1  0
 21 23  2  0
 22 24  1  0
 22 28  1  0
 24 25  1  0
 25 26  1  0
 26 27  1  0
 27 28  1  0
 26 29  1  0
 29 30  2  0
 29 31  1  0
  3  4  1  0
  8 32  1  0
 32 37  2  0
  4  5  1  0
 36 33  2  0
  5  6  1  0
 33 34  1  0
 34 35  2  0
 35 32  1  0
  1  2  1  0
  1  6  1  0
 36 37  1  0
  2  3  1  0
 37 38  1  0
  8  9  1  0
 38 39  2  0
 39  7  1  0
  9 10  1  0
  7 40  2  0
 40 36  1  0
 10 11  2  0
 39 41  1  0
 11 12  1  0
 40 42  1  0
 12 13  2  0
 31 43  1  0
 13 14  1  0
 43 44  1  0
 14 15  2  0
 44 45  1  0
 15 10  1  0
 45 46  1  0
 11 16  1  0
 46 47  1  0
 15 17  1  0
 46 48  1  0
 14 18  1  0
 46 49  1  0
 18 19  2  0
 31 50  1  1
 18 20  2  0
 18 51  1  0
 51  5  1  0
M  CHG  1  46   1
M  END