
  SciTegic02101213002D

 27 29  0  0  0  0            999 V2000
   -0.1155   -1.4998    0.0000 S   0  0
   -2.2589    1.3877    0.0000 S   0  0
    2.7424   -3.1498    0.0000 F   0  0
    0.2970   -0.7853    0.0000 O   0  0
   -0.5280   -2.2143    0.0000 O   0  0
   -0.8299    2.2127    0.0000 O   0  0
   -4.4023    0.9752    0.0000 O   0  0
   -3.6878    2.2127    0.0000 O   0  0
   -0.8299   -1.0873    0.0000 N   0  0
   -0.8299   -0.2623    0.0000 C   0  0
   -0.1155    0.1502    0.0000 C   0  0
   -0.1155    0.9752    0.0000 C   0  0
   -0.8299    1.3877    0.0000 C   0  0
   -1.5444    0.9752    0.0000 C   0  0
   -1.5444    0.1502    0.0000 C   0  0
    0.5990   -1.9123    0.0000 C   0  0
    0.5990   -0.2623    0.0000 C   0  0
    0.5990    1.3877    0.0000 C   0  0
    1.3135   -1.4998    0.0000 C   0  0
    0.5990   -2.7373    0.0000 C   0  0
    1.3135    0.1502    0.0000 C   0  0
    1.3135    0.9752    0.0000 C   0  0
    2.0280   -1.9123    0.0000 C   0  0
    1.3135   -3.1498    0.0000 C   0  0
    2.0280   -2.7373    0.0000 C   0  0
   -2.9733    0.9752    0.0000 C   0  0
   -3.6878    1.3877    0.0000 C   0  0
  1  4  2  0
  1  5  2  0
  1  9  1  0
  1 16  1  0
  2 14  1  0
  2 26  1  0
  3 25  1  0
  6 13  1  0
  7 27  2  0
  8 27  1  0
  9 10  1  0
 10 11  2  0
 10 15  1  0
 11 12  1  0
 11 17  1  0
 12 13  2  0
 12 18  1  0
 13 14  1  0
 14 15  2  0
 16 19  2  0
 16 20  1  0
 17 21  2  0
 18 22  2  0
 19 23  1  0
 20 24  2  0
 21 22  1  0
 23 25  2  0
 24 25  1  0
 26 27  1  0
M  END