
          11280716002D 1   1.00000     0.00000     0

 96103  0     1  0            999 V2000
   12.2292   -2.2667    0.0000 N   0  0  3  0  0  0           0  0  0
   10.2625   -1.6000    0.0000 N   0  0  3  0  0  0           0  0  0
    2.6500   -1.9792    0.0000 N   0  0  3  0  0  0           0  0  0
   11.5000   -2.2667    0.0000 C   0  0  0  0  0  0           0  0  0
   10.8875   -1.9292    0.0000 C   0  0  1  0  0  0           0  0  0
    2.0417   -1.6417    0.0000 C   0  0  0  0  0  0           0  0  0
   12.6417   -2.8125    0.0000 C   0  0  2  0  0  0           0  0  0
    0.7292   -2.1417    0.0000 N   0  0  3  0  0  0           0  0  0
   12.6417   -1.7250    0.0000 C   0  0  1  0  0  0           0  0  0
    9.6375   -1.9292    0.0000 C   0  0  0  0  0  0           0  0  0
    0.0917   -2.4875    0.0000 C   0  0  0  0  0  0           0  0  0
    3.3500   -1.7750    0.0000 C   0  0  2  0  0  0           0  0  0
   13.1542   -3.2875    0.0000 C   0  0  0  0  0  0           0  0  0
   13.3292   -1.9292    0.0000 C   0  0  1  0  0  0           0  0  0
    1.4125   -1.9750    0.0000 C   0  0  2  0  0  0           0  0  0
    9.0250   -1.6000    0.0000 C   0  0  1  0  0  0           0  0  0
   10.2542   -0.9292    0.0000 C   0  0  0  0  0  0           0  0  0
   13.3292   -2.6042    0.0000 C   0  0  0  0  0  0           0  0  0
    7.7750   -1.6000    0.0000 C   0  0  0  0  0  0           0  0  0
    8.4000   -1.9292    0.0000 N   0  0  0  0  0  0           0  0  0
   -1.7708   -2.1500    0.0000 C   0  0  0  0  0  0           0  0  0
   11.5000   -1.6000    0.0000 C   0  0  0  0  0  0           0  0  0
   13.8750   -3.2875    0.0000 N   0  0  0  0  0  0           0  0  0
   -1.1458   -2.4875    0.0000 N   0  0  0  0  0  0           0  0  0
    4.0417   -1.6042    0.0000 C   0  0  0  0  0  0           0  0  0
    7.1542   -1.9292    0.0000 C   0  0  1  0  0  0           0  0  0
   -0.5208   -2.1500    0.0000 C   0  0  1  0  0  0           0  0  0
   -0.5333    0.5458    0.0000 C   0  0  0  0  0  0           0  0  0
   12.7917   -6.2042    0.0000 C   0  0  0  0  0  0           0  0  0
    6.5375   -1.6042    0.0000 N   0  0  0  0  0  0           0  0  0
   14.9417   -3.8750    0.0000 C   0  0  0  0  0  0           0  0  0
    2.6500   -2.6542    0.0000 C   0  0  0  0  0  0           0  0  0
   10.8750   -0.5917    0.0000 C   0  0  0  0  0  0           0  0  0
    3.7625   -2.3417    0.0000 C   0  0  0  0  0  0           0  0  0
   11.5000   -0.9292    0.0000 C   0  0  0  0  0  0           0  0  0
    7.5042   -3.1917    0.0000 C   0  0  0  0  0  0           0  0  0
    7.1542   -2.6167    0.0000 C   0  0  0  0  0  0           0  0  0
    5.9042   -1.9417    0.0000 C   0  0  0  0  0  0           0  0  0
    4.6625   -1.9417    0.0000 N   0  0  0  0  0  0           0  0  0
    8.2167   -3.2667    0.0000 S   0  0  0  0  0  0           0  0  0
   11.5000   -2.9417    0.0000 O   0  0  0  0  0  0           0  0  0
   14.2250   -3.8750    0.0000 C   0  0  2  0  0  0           0  0  0
   -2.3833   -2.4875    0.0000 C   0  0  0  0  0  0           0  0  0
    2.0417   -0.9667    0.0000 O   0  0  0  0  0  0           0  0  0
   -1.1500    0.8833    0.0000 N   0  0  0  0  0  0           0  0  0
   12.0667   -6.2042    0.0000 N   0  0  0  0  0  0           0  0  0
    9.6375   -2.6167    0.0000 O   0  0  0  0  0  0           0  0  0
    0.0917   -3.1625    0.0000 O   0  0  0  0  0  0           0  0  0
   12.6417   -3.7667    0.0000 O   0  0  0  0  0  0           0  0  0
   -4.2500   -3.4917    0.0000 N   0  0  0  0  0  0           0  0  0
    7.7750   -0.9292    0.0000 O   0  0  0  0  0  0           0  0  0
   -1.7708   -1.4792    0.0000 O   0  0  0  0  0  0           0  0  0
    3.3292   -2.8750    0.0000 C   0  0  1  0  0  0           0  0  0
    8.3542   -3.9042    0.0000 C   0  0  0  0  0  0           0  0  0
    4.0417   -0.9292    0.0000 O   0  0  0  0  0  0           0  0  0
   -3.6333   -5.1792    0.0000 N   0  0  0  0  0  0           0  0  0
    7.2250   -3.8042    0.0000 C   0  0  0  0  0  0           0  0  0
   15.3125   -3.2875    0.0000 O   0  0  0  0  0  0           0  0  0
    7.7500   -4.2500    0.0000 C   0  0  0  0  0  0           0  0  0
   -4.2500   -4.1750    0.0000 C   0  0  3  0  0  0           0  0  0
    5.9042   -2.6167    0.0000 O   0  0  0  0  0  0           0  0  0
   -0.5333   -0.1250    0.0000 N   0  0  0  0  0  0           0  0  0
   13.1542   -5.6167    0.0000 N   0  0  0  0  0  0           0  0  0
    5.2792   -1.6042    0.0000 C   0  0  0  0  0  0           0  0  0
   -2.3833   -3.1625    0.0000 C   0  0  0  0  0  0           0  0  0
   -3.0208   -2.1500    0.0000 C   0  0  0  0  0  0           0  0  0
    0.0917    0.8833    0.0000 N   0  0  0  0  0  0           0  0  0
   13.1542   -6.7917    0.0000 N   0  0  0  0  0  0           0  0  0
   -3.6333   -4.5042    0.0000 C   0  0  0  0  0  0           0  0  0
    0.3542   -1.5500    0.0000 C   0  0  0  0  0  0           0  0  0
   -3.6333   -3.1625    0.0000 C   0  0  0  0  0  0           0  0  0
   15.3042   -4.4542    0.0000 O   0  0  0  0  0  0           0  0  0
   -4.8750   -4.5042    0.0000 N   0  0  0  0  0  0           0  0  0
   11.9417   -1.5500    0.0000 C   0  0  0  0  0  0           0  0  0
   12.4917   -1.0667    0.0000 C   0  0  0  0  0  0           0  0  0
    9.0250   -0.9292    0.0000 C   0  0  0  0  0  0           0  0  0
   -3.0083   -3.4917    0.0000 C   0  0  0  0  0  0           0  0  0
   -3.6333   -2.4875    0.0000 C   0  0  0  0  0  0           0  0  0
   14.0167   -2.1042    0.0000 C   0  0  0  0  0  0           0  0  0
   13.8542   -1.4875    0.0000 C   0  0  0  0  0  0           0  0  0
    1.4625   -1.2750    0.0000 C   0  0  0  0  0  0           0  0  0
    3.5292   -3.5167    0.0000 O   0  0  0  0  0  0           0  0  0
    8.4000   -0.5875    0.0000 O   0  0  0  0  0  0           0  0  0
    0.8042   -1.0042    0.0000 C   0  0  0  0  0  0           0  0  0
   -0.5208   -1.4792    0.0000 C   0  0  0  0  0  0           0  0  0
   10.8750    0.0833    0.0000 C   0  0  0  0  0  0           0  0  0
   12.1167   -0.5917    0.0000 C   0  0  0  0  0  0           0  0  0
   13.8750   -4.4542    0.0000 C   0  0  0  0  0  0           0  0  0
    0.0917   -0.4625    0.0000 C   0  0  0  0  0  0           0  0  0
   12.7917   -5.0375    0.0000 C   0  0  0  0  0  0           0  0  0
    0.0917   -1.1417    0.0000 C   0  0  0  0  0  0           0  0  0
   13.1542   -4.4417    0.0000 C   0  0  0  0  0  0           0  0  0
   13.0250   -0.6167    0.0000 C   0  0  0  0  0  0           0  0  0
   13.7167   -0.8250    0.0000 C   0  0  0  0  0  0           0  0  0
   11.5000    0.4125    0.0000 C   0  0  0  0  0  0           0  0  0
   12.1250    0.0833    0.0000 C   0  0  0  0  0  0           0  0  0
  2  5  1  0     0  0
  3 12  1  0     0  0
  4  1  1  0     0  0
  5  4  1  6     0  0
  6  3  1  0     0  0
  7  1  1  0     0  0
  8 15  1  0     0  0
  9  1  1  0     0  0
 10  2  1  0     0  0
 11  8  1  0     0  0
 12 25  1  6     0  0
  7 13  1  1     0  0
 14  9  1  0     0  0
 15  6  1  6     0  0
 16 10  1  0     0  0
 17  2  1  0     0  0
 18  7  1  0     0  0
 19 20  1  0     0  0
 20 16  1  0     0  0
 21 24  1  0     0  0
 22  5  1  0     0  0
 23 13  1  0     0  0
 24 27  1  0     0  0
 25 39  1  0     0  0
 26 19  1  0     0  0
 27 11  1  0     0  0
 28 62  2  0     0  0
 29 63  2  0     0  0
 30 26  1  0     0  0
 31 42  1  0     0  0
 32  3  1  0     0  0
 33 35  2  0     0  0
 34 12  1  0     0  0
 35 22  1  0     0  0
 36 37  1  0     0  0
 26 37  1  6     0  0
 38 30  1  0     0  0
 39 64  1  0     0  0
 40 36  1  0     0  0
 41  4  2  0     0  0
 42 23  1  0     0  0
 43 21  1  0     0  0
 44  6  2  0     0  0
 45 28  1  0     0  0
 46 29  1  0     0  0
 47 10  2  0     0  0
 48 11  2  0     0  0
 49 13  2  0     0  0
 50 71  1  0     0  0
 51 19  2  0     0  0
 52 21  2  0     0  0
 53 34  1  0     0  0
 54 40  1  0     0  0
 55 25  2  0     0  0
 56 69  2  0     0  0
 57 36  2  0     0  0
 58 31  2  0     0  0
 59 57  1  0     0  0
 60 50  1  0     0  0
 61 38  2  0     0  0
 62 89  1  0     0  0
 63 90  1  0     0  0
 64 38  1  0     0  0
 65 43  2  0     0  0
 66 43  1  0     0  0
 67 28  1  0     0  0
 68 29  1  0     0  0
 69 60  1  0     0  0
 70  8  1  0     0  0
 71 78  1  0     0  0
 72 31  1  0     0  0
 73 60  1  0     0  0
  9 74  1  6     0  0
 75  9  1  0     0  0
 16 76  1  1     0  0
 77 65  1  0     0  0
 78 66  2  0     0  0
 14 79  1  6     0  0
 80 14  1  0     0  0
 81 15  1  0     0  0
 53 82  1  1     0  0
 83 76  1  0     0  0
 84 81  1  0     0  0
 27 85  1  1     0  0
 86 33  1  0     0  0
 87 35  1  0     0  0
 42 88  1  6     0  0
 89 91  1  0     0  0
 90 92  1  0     0  0
 91 85  1  0     0  0
 92 88  1  0     0  0
 93 75  1  0     0  0
 94 93  1  0     0  0
 95 96  1  0     0  0
 96 87  2  0     0  0
 14 18  1  0     0  0
 94 80  1  0     0  0
 17 33  1  0     0  0
 86 95  2  0     0  0
 54 59  2  0     0  0
 53 32  1  0     0  0
 70 84  1  0     0  0
 71 77  2  0     0  0
M  END