
  SciTegic05161214222D

 61 64  0  0  0  0            999 V2000
    1.7069   -3.2499    0.0000 N   0  3
    1.7043   -4.0759    0.0000 C   0  0
    2.4144   -4.4888    0.0000 C   0  0
    3.1316   -4.0803    0.0000 N   0  3
    3.1341   -3.2543    0.0000 C   0  0
    2.4195   -2.8368    0.0000 C   0  0
   -1.8583   -2.8458    0.0000 C   0  0
   -1.8583   -3.6708    0.0000 C   0  0
   -1.1463   -4.0792    0.0000 O   0  0
   -0.4343   -3.6708    0.0000 C   0  0
   -0.4343   -2.8458    0.0000 C   0  0
   -1.1463   -2.4292    0.0000 C   0  0
   -2.5760   -2.4406    0.0000 S   0  0
   -2.9843   -3.1575    0.0000 O   0  0
   -2.1594   -3.1527    0.0000 O   0  0
   -5.4431    2.4959    0.0000 C   0  0
   -5.4443    1.6685    0.0000 C   0  0
   -4.7294    1.2556    0.0000 C   0  0
   -4.7313    2.9086    0.0000 C   0  0
   -4.0159    2.4995    0.0000 C   0  0
   -4.0151    1.6727    0.0000 C   0  0
   -3.2998    1.2617    0.0000 N   0  0
   -2.5848    1.6765    0.0000 C   0  0
   -2.5895    2.5064    0.0000 C   0  0
   -3.3054    2.9137    0.0000 C   0  0
   -1.8687    1.2667    0.0000 C   0  0
   -3.3098    3.7386    0.0000 C   0  0
   -4.7275    0.4306    0.0000 O   0  0
   -4.0121    0.0198    0.0000 C   0  0
   -4.0102   -0.8052    0.0000 C   0  0
   -4.7263   -1.2150    0.0000 C   0  0
   -4.7247   -2.0392    0.0000 C   0  0
   -4.0088   -2.4509    0.0000 C   0  0
   -3.2929   -2.0323    0.0000 C   0  0
   -3.2980   -1.2094    0.0000 C   0  0
   -5.4404   -0.8018    0.0000 Cl  0  0
   -2.5863   -0.7921    0.0000 Cl  0  0
   -1.8640   -2.0239    0.0000 N   0  0
   -0.4351   -2.0156    0.0000 C   0  0
    0.2807   -2.4259    0.0000 N   0  0
   -0.4376   -1.1906    0.0000 O   0  0
    0.2796   -3.2509    0.0000 C   0  0
    0.9912   -3.6611    0.0000 C   0  0
    1.7063   -2.4239    0.0000 C   0  0
    0.9901   -2.0092    0.0000 C   0  0
    3.8442   -4.4960    0.0000 C   0  0
    3.1250   -4.9042    0.0000 C   0  0
    0.7534   -0.9613    0.0000 F   0  0
    1.4678   -0.5488    0.0000 C   0  0
    2.1823   -0.9613    0.0000 F   0  0
    1.4617   -1.3696    0.0000 F   0  0
    1.4709    0.2762    0.0000 C   0  0
    2.1869    0.6860    0.0000 O   0  5
    0.7580    0.6914    0.0000 O   0  0
    2.9097   -2.1801    0.0000 F   0  0
    3.6241   -1.7676    0.0000 C   0  0
    4.3386   -2.1801    0.0000 F   0  0
    3.6180   -2.5884    0.0000 F   0  0
    3.6272   -0.9426    0.0000 C   0  0
    4.3432   -0.5328    0.0000 O   0  5
    2.9143   -0.5274    0.0000 O   0  0
 23 24  1  0
 11 12  1  0
 24 25  2  0
 25 20  1  0
 14 13  2  0
 23 26  1  0
 13 15  2  0
 25 27  1  0
  5  6  1  0
 18 28  1  0
  7  8  1  0
 28 29  1  0
 29 30  1  0
  1  2  1  0
 30 31  2  0
  1  6  1  0
 31 32  1  0
 16 17  2  0
 32 33  2  0
  2  3  1  0
 33 34  1  0
 17 18  1  0
 34 35  2  0
 35 30  1  0
 18 21  2  0
 31 36  1  0
  3  4  1  0
 35 37  1  0
 34 13  1  0
 20 19  2  0
 13 38  1  0
 38 12  1  0
 19 16  1  0
 12 39  1  0
  4  5  1  0
 39 40  1  0
  7 12  1  0
 39 41  2  0
 40 42  1  0
 20 21  1  0
  8  9  1  0
 21 22  1  0
  9 10  1  0
 40 45  1  0
 42 43  1  0
 43  1  1  0
  1 44  1  0
 44 45  1  0
 22 23  2  0
  4 46  1  0
 10 11  1  0
  4 47  1  0
 48 49  1  0
 49 51  1  0
 49 52  1  0
 49 50  1  0
 52 53  1  0
 52 54  2  0
 55 56  1  0
 56 58  1  0
 56 59  1  0
 56 57  1  0
 59 60  1  0
 59 61  2  0
M  CHG  4   1   1   4   1  53  -1  60  -1
M  END