
  SciTegic05061409512D

 35 36  0  0  0  0            999 V2000
    4.1525   -8.4216    0.0000 C   0  0
    4.8719   -8.0290    0.0000 C   0  0
    4.8885   -7.2120    0.0000 C   0  0
    4.1900   -6.7847    0.0000 C   0  0
    3.4698   -7.1823    0.0000 C   0  0
    3.4531   -8.0000    0.0000 C   0  0
    5.6090   -6.8177    0.0000 C   0  0
    6.3127   -7.2441    0.0000 N   0  0
    5.6293   -5.9952    0.0000 O   0  0
    7.0332   -6.8498    0.0000 C   0  0
    7.7334   -7.2781    0.0000 O   0  0
    7.0499   -6.0292    0.0000 N   0  0
    7.7704   -5.6349    0.0000 C   0  0  1  0  0  0
    7.7907   -4.8123    0.0000 C   0  0
    6.2924   -8.0666    0.0000 C   0  0
    6.9962   -8.4929    0.0000 C   0  0
    6.9790   -9.3100    0.0000 C   0  0
    8.5083   -4.4213    0.0000 S   0  0
    8.5285   -3.6044    0.0000 C   0  0
    8.4714   -6.0611    0.0000 C   0  0
    8.4519   -6.8780    0.0000 O   0  0
    9.1886   -5.6694    0.0000 O   0  0
    4.1350   -9.2385    0.0000 C   0  0
    4.1414  -10.0532    0.0000 C   0  0
    4.1478  -10.8703    0.0000 C   0  0
    3.4420  -11.2796    0.0000 C   0  0
    3.4480  -12.0960    0.0000 C   0  0
    4.1595  -12.4998    0.0000 C   0  0
    4.8663  -12.0813    0.0000 C   0  0
    4.8568  -11.2663    0.0000 C   0  0
    9.2453   -3.2169    0.0000 C   0  0
    9.9361   -3.6476    0.0000 C   0  0
    9.2633   -2.4077    0.0000 C   0  0
    2.7256  -10.8704    0.0000 F   0  0
    4.1670  -13.3248    0.0000 F   0  0
  1  2  2  0
  2  3  1  0
  3  4  2  0
  4  5  1  0
  5  6  2  0
  6  1  1  0
  3  7  1  0
  7  8  1  0
  7  9  2  0
  8 10  1  0
 10 11  2  0
 10 12  1  0
 12 13  1  0
 13 14  1  1
  8 15  1  0
 15 16  1  0
 16 17  1  0
 14 18  1  0
 18 19  1  0
 20 21  2  0
 20 22  1  0
 13 20  1  0
  1 23  1  0
 23 24  3  0
 24 25  1  0
 25 26  2  0
 26 27  1  0
 27 28  2  0
 28 29  1  0
 29 30  2  0
 30 25  1  0
 19 31  1  0
 31 32  1  0
 33 31  1  0
 26 34  1  0
 28 35  1  0
M  END