
  SciTegic12231509382D

 38 42  0  0  0  0            999 V2000
    5.5540   -7.5134    0.0000 C   0  0
    5.2978   -8.2925    0.0000 C   0  0
    4.4742   -8.2925    0.0000 N   0  0
    4.2251   -7.5042    0.0000 C   0  0
    4.8916   -7.0292    0.0000 N   0  0
    3.4403   -7.2439    0.0000 O   0  0
    4.8916   -6.2014    0.0000 C   0  0
    4.1797   -5.7887    0.0000 C   0  0
    3.4651   -6.2005    0.0000 C   0  0
    2.7532   -5.7878    0.0000 N   0  0
    2.7532   -4.9658    0.0000 C   0  0
    2.0433   -4.5551    0.0000 C   0  0
    1.3368   -4.9621    0.0000 N   0  0
    1.3368   -5.7780    0.0000 C   0  0
    2.0392   -6.1993    0.0000 C   0  0
    0.6134   -4.5471    0.0000 C   0  0
    0.6134   -3.7145    0.0000 C   0  0
   -0.0842   -3.2885    0.0000 C   0  0
   -0.8043   -3.7017    0.0000 C   0  0
   -0.8043   -4.5355    0.0000 C   0  0
   -0.0839   -4.9507    0.0000 C   0  0
    4.1797   -4.9670    0.0000 O   0  0
    5.9657   -6.7988    0.0000 C   0  0
    6.7959   -6.7988    0.0000 C   0  0
    7.2115   -6.0816    0.0000 C   0  0
    6.7951   -5.3631    0.0000 C   0  0
    5.9627   -5.3631    0.0000 C   0  0
    5.5509   -6.0807    0.0000 C   0  0
    6.3058   -7.8477    0.0000 C   0  0
    6.3895   -8.6698    0.0000 C   0  0
    7.1439   -9.0054    0.0000 C   0  0
    7.8129   -8.5242    0.0000 C   0  0
    7.7207   -7.6991    0.0000 C   0  0
    6.9702   -7.3646    0.0000 C   0  0
    5.7770   -8.9644    0.0000 O   0  0
    3.9876   -8.9516    0.0000 C   0  0
    1.3396   -3.2955    0.0000 O   0  0
    2.0660   -3.7148    0.0000 C   0  0
  8  9  1  0
 18 19  2  0
  4  5  1  0
 19 20  1  0
  9 10  1  0
 20 21  2  0
 21 16  1  0
 10 11  1  0
  8 22  1  0
  5  1  1  0
  1 23  1  0
  1  2  1  0
 23 24  2  0
  4  6  2  0
 24 25  1  0
 25 26  2  0
  5  7  1  0
 26 27  1  0
 10 15  1  0
 27 28  2  0
 28 23  1  0
 11 12  1  0
  1 29  1  0
 12 13  1  0
 29 30  2  0
 13 14  1  0
 30 31  1  0
 14 15  1  0
 31 32  2  0
  2  3  1  0
 32 33  1  0
 13 16  1  0
 33 34  2  0
 34 29  1  0
  7  8  1  0
  2 35  2  0
 16 17  2  0
  3 36  1  0
  3  4  1  0
 17 37  1  0
 17 18  1  0
 37 38  1  0
M  END