
          02060813462D 1   1.00000     0.00000     0

 26 29  0     0  0            999 V2000
   11.9652   -3.0166    0.0000 N   0  0  0  0  0  0           0  0  0
   11.9641   -3.8440    0.0000 C   0  0  0  0  0  0           0  0  0
   12.6789   -4.2569    0.0000 N   0  0  0  0  0  0           0  0  0
   12.6771   -2.6039    0.0000 C   0  0  0  0  0  0           0  0  0
   13.3925   -3.0130    0.0000 C   0  0  0  0  0  0           0  0  0
   13.3932   -3.8398    0.0000 C   0  0  0  0  0  0           0  0  0
   14.1085   -4.2508    0.0000 N   0  0  0  0  0  0           0  0  0
   14.8236   -3.8360    0.0000 C   0  0  0  0  0  0           0  0  0
   14.8188   -3.0061    0.0000 C   0  0  0  0  0  0           0  0  0
   14.1029   -2.5988    0.0000 N   0  0  0  0  0  0           0  0  0
   15.5277   -2.5910    0.0000 C   0  0  0  0  0  0           0  0  0
   16.2450   -3.0008    0.0000 C   0  0  0  0  0  0           0  0  0
   16.9565   -2.5847    0.0000 C   0  0  0  0  0  0           0  0  0
   16.9519   -1.7588    0.0000 C   0  0  0  0  0  0           0  0  0
   16.2299   -1.3509    0.0000 C   0  0  0  0  0  0           0  0  0
   15.5214   -1.7694    0.0000 C   0  0  0  0  0  0           0  0  0
   12.6746   -1.7789    0.0000 N   0  0  0  0  0  0           0  0  0
   15.5361   -4.2416    0.0000 C   0  0  0  0  0  0           0  0  0
   15.5379   -5.0678    0.0000 C   0  0  0  0  0  0           0  0  0
   16.2531   -5.4774    0.0000 C   0  0  0  0  0  0           0  0  0
   16.9670   -5.0621    0.0000 C   0  0  0  0  0  0           0  0  0
   16.9611   -4.2328    0.0000 C   0  0  0  0  0  0           0  0  0
   16.2453   -3.8269    0.0000 C   0  0  0  0  0  0           0  0  0
   16.2220   -0.5259    0.0000 O   0  0  0  0  0  0           0  0  0
   16.2560   -6.3024    0.0000 O   0  0  0  0  0  0           0  0  0
   11.2493   -4.2559    0.0000 N   0  0  0  0  0  0           0  0  0
 12 13  1  0     0  0
  3  6  2  0     0  0
 13 14  2  0     0  0
  6  7  1  0     0  0
 14 15  1  0     0  0
  1  2  2  0     0  0
 15 16  2  0     0  0
 16 11  1  0     0  0
  9 11  1  0     0  0
  7  8  2  0     0  0
  4 17  1  0     0  0
  5  4  2  0     0  0
  8  9  1  0     0  0
 18 19  2  0     0  0
  4  1  1  0     0  0
 19 20  1  0     0  0
  9 10  2  0     0  0
 20 21  2  0     0  0
 10  5  1  0     0  0
 21 22  1  0     0  0
 22 23  2  0     0  0
 23 18  1  0     0  0
  8 18  1  0     0  0
  2  3  1  0     0  0
 15 24  1  0     0  0
 11 12  2  0     0  0
 20 25  1  0     0  0
  5  6  1  0     0  0
  2 26  1  0     0  0
M  END