
          11280715342D 1   1.00000     0.00000     0

 29 29  0     0  0            999 V2000
   -0.3750   -2.5917    0.0000 S   0  0  3  0  0  0           0  0  0
    2.9167   -2.5792    0.0000 C   0  0  0  0  0  0           0  0  0
    0.4500   -2.5917    0.0000 C   0  0  0  0  0  0           0  0  0
    3.3292   -3.2917    0.0000 N   0  0  0  0  0  0           0  0  0
   -0.3833   -3.4167    0.0000 O   0  0  0  0  0  0           0  0  0
   -0.3750   -1.7667    0.0000 O   0  0  0  0  0  0           0  0  0
    4.5750   -4.0000    0.0000 C   0  0  0  0  0  0           0  0  0
    6.7042   -4.5750    0.0000 C   0  0  0  0  0  0           0  0  0
    8.4292   -5.9500    0.0000 C   0  0  0  0  0  0           0  0  0
    2.0917   -2.5875    0.0000 C   0  0  0  0  0  0           0  0  0
   10.3792   -6.8250    0.0000 C   0  0  0  0  0  0           0  0  0
   -1.2000   -2.5875    0.0000 N   0  0  0  0  0  0           0  0  0
    9.2542   -5.9417    0.0000 N   0  0  0  0  0  0           0  0  0
    5.4000   -3.9917    0.0000 N   0  0  0  0  0  0           0  0  0
    7.1917   -5.2417    0.0000 N   0  0  0  0  0  0           0  0  0
    3.3250   -1.8667    0.0000 O   0  0  0  0  0  0           0  0  0
    8.0292   -6.6667    0.0000 O   0  0  0  0  0  0           0  0  0
    4.1667   -4.7167    0.0000 O   0  0  0  0  0  0           0  0  0
    7.0417   -3.8167    0.0000 O   0  0  0  0  0  0           0  0  0
   10.8917   -6.1750    0.0000 O   0  0  0  0  0  0           0  0  0
    0.8500   -1.8792    0.0000 C   0  0  0  0  0  0           0  0  0
    0.8625   -3.3042    0.0000 C   0  0  0  0  0  0           0  0  0
    1.6792   -3.3042    0.0000 C   0  0  0  0  0  0           0  0  0
    1.6667   -1.8750    0.0000 C   0  0  0  0  0  0           0  0  0
    4.1542   -3.2875    0.0000 C   0  0  0  0  0  0           0  0  0
    8.0167   -5.2375    0.0000 C   0  0  0  0  0  0           0  0  0
    5.8875   -4.6625    0.0000 C   0  0  0  0  0  0           0  0  0
    9.5667   -6.7042    0.0000 C   0  0  0  0  0  0           0  0  0
   10.6917   -7.5875    0.0000 O   0  0  0  0  0  0           0  0  0
  2 10  1  0     0  0
  3  1  1  0     0  0
  4  2  1  0     0  0
  5  1  2  0     0  0
  6  1  2  0     0  0
  7 25  1  0     0  0
  8 27  1  0     0  0
  9 26  1  0     0  0
 10 23  2  0     0  0
 11 28  1  0     0  0
 12  1  1  0     0  0
 13  9  1  0     0  0
 14  7  1  0     0  0
 15  8  1  0     0  0
 16  2  2  0     0  0
 17  9  2  0     0  0
 18  7  2  0     0  0
 19  8  2  0     0  0
 20 11  2  0     0  0
 21  3  1  0     0  0
 22  3  2  0     0  0
 23 22  1  0     0  0
 24 21  2  0     0  0
 25  4  1  0     0  0
 26 15  1  0     0  0
 27 14  1  0     0  0
 28 13  1  0     0  0
 29 11  1  0     0  0
 24 10  1  0     0  0
M  END