
          11280714442D 1   1.00000     0.00000     0

 27 28  0     0  0            999 V2000
   -0.4958   -2.3417    0.0000 C   0  0  0  0  0  0           0  0  0
   -1.1958   -2.7875    0.0000 C   0  0  0  0  0  0           0  0  0
    5.8625   -0.8167    0.0000 C   0  0  0  0  0  0           0  0  0
    0.2375   -2.7250    0.0000 O   0  0  0  0  0  0           0  0  0
    6.6000   -1.2000    0.0000 C   0  0  0  0  0  0           0  0  0
   -0.5333   -1.5167    0.0000 O   0  0  0  0  0  0           0  0  0
   -1.9250   -2.4042    0.0000 C   0  0  0  0  0  0           0  0  0
    5.1667   -1.2667    0.0000 C   0  0  0  0  0  0           0  0  0
    6.6375   -2.0250    0.0000 C   0  0  0  0  0  0           0  0  0
    0.9292   -2.2792    0.0000 C   0  0  0  0  0  0           0  0  0
    5.2125   -2.0792    0.0000 C   0  0  0  0  0  0           0  0  0
    1.6625   -2.6542    0.0000 C   0  0  3  0  0  0           0  0  0
   -2.6208   -2.8542    0.0000 C   0  0  0  0  0  0           0  0  0
    5.9417   -2.4667    0.0000 C   0  0  0  0  0  0           0  0  0
    5.8167    0.0083    0.0000 O   0  0  0  0  0  0           0  0  0
    3.0917   -2.5917    0.0000 N   0  0  0  0  0  0           0  0  0
    7.2917   -0.7542    0.0000 O   0  0  0  0  0  0           0  0  0
    1.7000   -3.4792    0.0000 O   0  0  0  0  0  0           0  0  0
   -1.1500   -3.6042    0.0000 C   0  0  0  0  0  0           0  0  0
   -1.8458   -4.0542    0.0000 C   0  0  0  0  0  0           0  0  0
    2.3542   -2.2125    0.0000 C   0  0  0  0  0  0           0  0  0
   -2.5833   -3.6750    0.0000 C   0  0  0  0  0  0           0  0  0
    3.7792   -2.1500    0.0000 C   0  0  0  0  0  0           0  0  0
    4.5167   -2.5292    0.0000 C   0  0  0  0  0  0           0  0  0
   -3.3500   -2.4750    0.0000 C   0  0  0  0  0  0           0  0  0
    6.5125    0.4500    0.0000 C   0  0  0  0  0  0           0  0  0
    8.0250   -1.1292    0.0000 C   0  0  0  0  0  0           0  0  0
  2  1  1  0     0  0
  3  8  2  0     0  0
  4  1  1  0     0  0
  5  9  2  0     0  0
  6  1  2  0     0  0
  7  2  2  0     0  0
  8 11  1  0     0  0
  9 14  1  0     0  0
 10  4  1  0     0  0
 11 24  1  0     0  0
 12 10  1  0     0  0
 13  7  1  0     0  0
 14 11  2  0     0  0
 15  3  1  0     0  0
 16 21  1  0     0  0
 17  5  1  0     0  0
 18 12  1  0     0  0
 19  2  1  0     0  0
 20 19  2  0     0  0
 21 12  1  0     0  0
 22 20  1  0     0  0
 23 16  1  0     0  0
 24 23  1  0     0  0
 25 13  1  0     0  0
 26 15  1  0     0  0
 27 17  1  0     0  0
 22 13  2  0     0  0
  5  3  1  0     0  0
M  END