
          11280715162D 1   1.00000     0.00000     0

 15 15  0     0  0            999 V2000
    5.2250   -4.0625    0.0000 C   0  0  0  0  0  0           0  0  0
    6.0500   -4.0667    0.0000 C   0  0  0  0  0  0           0  0  0
    4.8167   -3.3500    0.0000 C   0  0  0  0  0  0           0  0  0
    4.8125   -4.7667    0.0000 C   0  0  0  0  0  0           0  0  0
    3.9917   -3.3417    0.0000 C   0  0  0  0  0  0           0  0  0
    6.4667   -3.3542    0.0000 O   0  0  0  0  0  0           0  0  0
    6.4542   -4.7792    0.0000 C   0  0  3  0  0  0           0  0  0
    3.5875   -4.0542    0.0000 C   0  0  0  0  0  0           0  0  0
    3.9917   -4.7667    0.0000 C   0  0  0  0  0  0           0  0  0
    5.2292   -2.6375    0.0000 O   0  0  0  0  0  0           0  0  0
    7.2792   -4.7875    0.0000 N   0  0  0  0  0  0           0  0  0
    2.7625   -4.0542    0.0000 O   0  0  0  0  0  0           0  0  0
    6.0417   -5.4917    0.0000 C   0  0  0  0  0  0           0  0  0
    6.0542   -2.6417    0.0000 C   0  0  0  0  0  0           0  0  0
    2.3500   -3.3417    0.0000 C   0  0  0  0  0  0           0  0  0
  2  1  1  0     0  0
  3  1  2  0     0  0
  4  1  1  0     0  0
  5  3  1  0     0  0
  6  2  2  0     0  0
  7  2  1  0     0  0
  8  9  1  0     0  0
  9  4  2  0     0  0
 10  3  1  0     0  0
 11  7  1  0     0  0
 12  8  1  0     0  0
 13  7  1  0     0  0
 14 10  1  0     0  0
 15 12  1  0     0  0
  5  8  2  0     0  0
M  END