
          02060813472D 1   1.00000     0.00000     0

 25 27  0     1  0            999 V2000
   14.3208   -0.8333    0.0000 C   0  0  0  0  0  0           0  0  0
   13.9125   -0.1208    0.0000 C   0  0  3  0  0  0           0  0  0
   13.4996   -0.8307    0.0000 C   0  0  0  0  0  0           0  0  0
    8.2042   -0.1000    0.0000 C   0  0  0  0  0  0           0  0  0
    8.2042   -0.9250    0.0000 O   0  0  0  0  0  0           0  0  0
    8.9162   -1.3333    0.0000 C   0  0  0  0  0  0           0  0  0
    9.6282   -0.9250    0.0000 C   0  0  0  0  0  0           0  0  0
    9.6282   -0.1000    0.0000 N   0  0  3  0  0  0           0  0  0
    8.9162    0.3167    0.0000 C   0  0  0  0  0  0           0  0  0
   10.3439    0.3104    0.0000 C   0  0  0  0  0  0           0  0  0
   11.0571   -0.1042    0.0000 C   0  0  0  0  0  0           0  0  0
   10.3463    1.1354    0.0000 O   0  0  0  0  0  0           0  0  0
   11.7728    0.3062    0.0000 C   0  0  2  0  0  0           0  0  0
   12.4868   -0.1136    0.0000 C   0  0  0  0  0  0           0  0  0
   13.2003    0.2933    0.0000 N   0  0  0  0  0  0           0  0  0
   11.7773    1.1312    0.0000 C   0  0  0  0  0  0           0  0  0
   12.4939    1.5354    0.0000 C   0  0  3  0  0  0           0  0  0
   13.2073    1.1149    0.0000 C   0  0  0  0  0  0           0  0  0
   13.9242    1.5202    0.0000 C   0  0  0  0  0  0           0  0  0
   13.9340    2.3477    0.0000 C   0  0  0  0  0  0           0  0  0
   13.2206    2.7682    0.0000 C   0  0  0  0  0  0           0  0  0
   12.4974    2.3613    0.0000 C   0  0  0  0  0  0           0  0  0
   14.6292    0.2857    0.0000 C   0  0  0  0  0  0           0  0  0
   12.4813   -0.9386    0.0000 O   0  0  0  0  0  0           0  0  0
   15.3417    0.7042    0.0000 N   0  0  0  0  0  0           0  0  0
  4  5  1  0     0  0
 11 13  1  0     0  0
 13 14  1  0     0  0
  1  3  1  0     0  0
  4  9  1  0     0  0
 14 15  1  0     0  0
 17 16  1  0     0  0
  5  6  1  0     0  0
 13 16  1  1     0  0
 17 18  1  0     0  0
  6  7  1  0     0  0
  7  8  1  0     0  0
  8  9  1  0     0  0
  8 10  1  0     0  0
  2  1  1  0     0  0
 17 22  1  0     0  0
 18 19  1  0     0  0
 19 20  1  0     0  0
 20 21  1  0     0  0
 21 22  1  0     0  0
  2 15  1  0     0  0
 10 11  1  0     0  0
  2 23  1  0     0  0
  3  2  1  0     0  0
 14 24  2  0     0  0
 10 12  2  0     0  0
 23 25  3  0     0  0
M  END