
  SciTegic01161211252D

 48 52  0  0  0  0            999 V2000
    4.2226  -14.8530    0.0000 N   0  0
    5.6471  -14.8602    0.0000 C   0  0  1  0  0  0
    4.9368  -14.4408    0.0000 C   0  0
    2.8466  -13.1603    0.0000 C   0  0
    3.5504  -13.5941    0.0000 C   0  0
    3.5268  -14.4206    0.0000 C   0  0
    6.3814  -14.5027    0.0000 C   0  0
    7.0811  -14.9365    0.0000 N   0  0
    6.4009  -13.6763    0.0000 O   0  0
    7.0531  -15.7592    0.0000 C   0  0
    7.7488  -16.1928    0.0000 C   0  0
    8.4787  -15.8036    0.0000 N   0  0
    8.5043  -14.9763    0.0000 C   0  0
    7.8002  -14.5381    0.0000 C   0  0
    9.1738  -16.2392    0.0000 C   0  0
    9.1455  -17.0667    0.0000 C   0  0
    9.8470  -17.5030    0.0000 C   0  0
   10.5729  -17.1130    0.0000 C   0  0
   10.5971  -16.2823    0.0000 C   0  0
    9.8992  -15.8496    0.0000 C   0  0
   11.2768  -17.5505    0.0000 N   0  3
   12.0012  -17.1596    0.0000 O   0  0
   11.2512  -18.3769    0.0000 O   0  5
    4.2739  -13.2014    0.0000 C   0  0
    2.1231  -13.5531    0.0000 C   0  0
    1.4228  -13.1170    0.0000 C   0  0
    1.3805  -14.7702    0.0000 C   0  0
    2.1047  -14.3757    0.0000 C   0  0
    0.6757  -14.3364    0.0000 C   0  0
    0.6991  -13.5110    0.0000 C   0  0
    4.2184  -15.6798    0.0000 C   0  0
    5.6424  -14.0303    0.0000 H   0  0
    5.6430  -15.6870    0.0000 C   0  0  2  0  0  0
    4.9257  -16.0960    0.0000 C   0  0  1  0  0  0
    4.9212  -16.9171    0.0000 C   0  0
    5.6323  -17.3355    0.0000 C   0  0
    6.3497  -16.9266    0.0000 C   0  0
    6.3559  -16.0992    0.0000 C   0  0
    4.2059  -16.5025    0.0000 H   0  0
    6.3565  -15.2664    0.0000 H   0  0
   -0.0041  -13.0795    0.0000 C   0  0
    0.0179  -12.2548    0.0000 O   0  0
   -0.7293  -13.4728    0.0000 O   0  0
   -1.4325  -13.0414    0.0000 C   0  0
    1.3587  -15.5949    0.0000 C   0  0
    0.6335  -15.9883    0.0000 O   0  0
    2.0620  -16.0261    0.0000 O   0  0
    0.6117  -16.8130    0.0000 C   0  0
  5 24  1  0
  5  6  1  0
  4 25  1  0
  6  1  1  0
 25 26  2  0
 26 30  1  0
  8 14  1  0
 29 27  1  0
 10 11  1  0
 27 28  2  0
 28 25  1  0
 29 30  2  0
 11 12  1  0
 12 13  1  0
 13 14  1  0
 33  2  1  0
  2  7  1  0
 34 31  1  0
 15 16  2  0
  2  3  1  0
  2 32  1  6
 33 34  1  0
 16 17  1  0
  7  8  1  0
 17 18  2  0
  1 31  1  0
 18 19  1  0
  7  9  2  0
 33 38  1  0
 34 35  1  0
 35 36  1  0
 36 37  1  0
 37 38  1  0
 19 20  2  0
 34 39  1  6
 20 15  1  0
 33 40  1  6
 30 41  1  0
 12 15  1  0
 41 42  2  0
  8 10  1  0
 41 43  1  0
  4  5  1  0
 43 44  1  0
 21 22  2  0
 27 45  1  0
 21 23  1  0
 45 46  1  0
 18 21  1  0
 45 47  2  0
  1  3  1  0
 46 48  1  0
M  CHG  2  21   1  23  -1
M  END