
  SciTegic01161211232D

 18 19  0  0  0  0            999 V2000
   -3.9091    1.5019    0.0000 C   0  0
   -3.9067    3.0027    0.0000 C   0  0
   -5.2049    3.7560    0.0000 C   0  0
   -5.3425    5.2369    0.0000 N   0  0
   -6.8097    5.5489    0.0000 C   0  0
   -7.5599    4.2500    0.0000 C   0  0
   -6.5563    3.1351    0.0000 N   0  0
   -2.6111    0.7486    0.0000 C   0  0
   -2.6111   -0.7486    0.0000 C   0  0
   -1.2964   -1.4973    0.0000 O   0  0
    0.0000   -0.7486    0.0000 C   0  0
    1.2964   -1.4973    0.0000 C   0  0
    2.5929   -0.7486    0.0000 C   0  0
    2.5929    0.7486    0.0000 C   0  0
    1.2964    1.4973    0.0000 C   0  0
    0.0000    0.7486    0.0000 C   0  0
   -1.2964    1.4973    0.0000 O   0  0
    5.0929    2.0258    0.0000 Cl  0  0
  1  2  1  0
  2  3  1  0
  3  4  2  0
  4  5  1  0
  5  6  2  0
  6  7  1  0
  7  3  1  0
  1  8  1  0
  8  9  1  0
  9 10  1  0
 10 11  1  0
 11 12  2  0
 12 13  1  0
 13 14  2  0
 14 15  1  0
 15 16  2  0
 16 11  1  0
 16 17  1  0
 17  8  1  0
M  END