
  SciTegic10311217562D

 30 32  0  0  0  0            999 V2000
    4.0775    1.3291    0.0000 C   0  0
    4.0764    0.5018    0.0000 C   0  0
    4.7911    0.0890    0.0000 C   0  0
    5.5075    0.5023    0.0000 C   0  0
    5.5047    1.3327    0.0000 C   0  0
    4.7893    1.7419    0.0000 C   0  0
    4.7868    2.5668    0.0000 O   0  0
    6.2175    1.7479    0.0000 O   0  0
    6.2226    0.0909    0.0000 O   0  0
    3.3616    0.0899    0.0000 C   0  0
    2.6474    0.5030    0.0000 O   0  0
    3.3609   -0.7351    0.0000 O   0  0
    2.6461   -1.1469    0.0000 O   0  0
    2.6455   -1.9719    0.0000 C   0  0
    1.9308   -2.3839    0.0000 O   0  0
    3.3596   -2.3850    0.0000 C   0  0
    3.3547   -3.2092    0.0000 C   0  0
    4.0680   -3.6222    0.0000 C   0  0
    4.7837   -3.2102    0.0000 C   0  0
    4.7817   -2.3810    0.0000 C   0  0
    4.0679   -1.9718    0.0000 C   0  0
    5.4950   -1.9666    0.0000 O   0  0
    5.4984   -3.6223    0.0000 O   0  0
    4.0670   -4.4471    0.0000 O   0  0
    1.9321   -0.7340    0.0000 C   0  0  2  0  0  0
    1.9368    0.0949    0.0000 C   0  0  1  0  0  0
    1.2253    0.5111    0.0000 C   0  0
    0.5046    0.1030    0.0000 C   0  0
    0.4999   -0.7258    0.0000 C   0  0
    1.2159   -1.1465    0.0000 C   0  0
  6  7  1  0
 14 15  2  0
  3  4  2  0
 14 16  1  0
  5  8  1  0
 16 17  2  0
 17 18  1  0
  4  9  1  0
 18 19  2  0
  4  5  1  0
 19 20  1  0
  2 10  1  0
 20 21  2  0
 21 16  1  0
  2  3  1  0
 20 22  1  0
 10 11  1  0
 19 23  1  0
  5  6  2  0
 18 24  1  0
 25 26  1  0
 10 12  2  0
 26 11  1  1
  6  1  1  0
 25 13  1  1
  1  2  2  0
 13 14  1  0
 25 30  1  0
 26 27  1  0
 27 28  1  0
 28 29  1  0
 29 30  1  0
M  END