
  SciTegic05071317012D

 11 10  0  0  0  0            999 V2000
   10.8959   -4.9292    0.0000 N   0  0
   11.6104   -4.5167    0.0000 C   0  0  2  0  0  0
   12.3248   -4.9292    0.0000 C   0  0
   12.3286   -5.7558    0.0000 O   0  0
   13.0430   -4.5183    0.0000 O   0  0
   11.6104   -3.6917    0.0000 C   0  0
   10.8959   -3.2792    0.0000 C   0  0
   10.8959   -2.4541    0.0000 C   0  0
   12.3209   -4.1000    0.0000 C   0  0
   12.3153   -3.2750    0.0000 F   0  0
   10.1814   -2.0416    0.0000 N   0  0
  1  2  1  0
  2  3  1  0
  3  4  1  0
  3  5  2  0
  2  6  1  1
  6  7  1  0
  7  8  1  0
  2  9  1  0
  9 10  1  0
  8 11  1  0
M  END