
  SciTegic11111309142D

 54 58  0  0  1  0            999 V2000
    7.5321  -15.8007    0.0000 C   0  0
    1.0317  -19.6707    0.0000 C   0  0
    1.8163  -19.4158    0.0000 C   0  0
    2.3012  -20.0832    0.0000 C   0  0
    1.8163  -20.7507    0.0000 C   0  0
    1.0317  -20.4957    0.0000 C   0  0
    5.3887  -17.8632    0.0000 O   0  0
    4.6742  -18.2757    0.0000 C   0  0
    4.6742  -19.1007    0.0000 C   0  0
    5.3887  -19.5132    0.0000 C   0  0
    5.3887  -20.3382    0.0000 C   0  0
    4.6742  -20.7507    0.0000 C   0  0
    3.9597  -20.3382    0.0000 C   0  0
    3.9597  -19.5132    0.0000 C   0  0
    6.1031  -19.1007    0.0000 Cl  0  0
    3.2452  -19.1007    0.0000 Cl  0  0
    3.2452  -20.7507    0.0000 S   0  0
    2.8327  -20.0362    0.0000 O   0  0
    3.6577  -21.4651    0.0000 O   0  0
    1.4807  -21.5043    0.0000 C   0  0
    0.6603  -21.5906    0.0000 N   0  0
    1.9657  -22.1718    0.0000 O   0  0
    0.3247  -22.3442    0.0000 C   0  0
   -0.4958  -22.4305    0.0000 C   0  0
   -0.9807  -21.7630    0.0000 N   0  0
   -0.6451  -21.0094    0.0000 C   0  0
    0.1753  -20.9231    0.0000 C   0  0
   -1.8012  -21.8493    0.0000 C   0  0
   -2.1367  -22.6029    0.0000 O   0  0
   -2.2861  -21.1818    0.0000 C   0  0  2  0  0  0
   -3.1066  -21.2681    0.0000 C   0  0
   -3.5915  -20.6006    0.0000 C   0  0
   -4.4120  -20.6869    0.0000 C   0  0
   -4.8969  -20.0194    0.0000 C   0  0
    5.3887  -17.0382    0.0000 C   0  0
    5.3887  -15.3882    0.0000 C   0  0
    4.6742  -15.8007    0.0000 C   0  0
    4.6742  -16.6257    0.0000 C   0  0
    6.1031  -15.8007    0.0000 C   0  0
    6.1031  -16.6257    0.0000 C   0  0
    6.8176  -17.0382    0.0000 N   0  0
    7.5321  -16.6257    0.0000 C   0  0
    6.8176  -15.3882    0.0000 C   0  0
    8.2465  -17.0382    0.0000 C   0  0
    6.8176  -14.5632    0.0000 C   0  0
   -5.7174  -20.1057    0.0000 N   0  0
   -6.2023  -19.4382    0.0000 C   0  0
   -7.0228  -19.5245    0.0000 N   0  0
   -5.8668  -18.6845    0.0000 N   0  0
   -1.9505  -20.4282    0.0000 N   0  3
   -1.6150  -19.6745    0.0000 C   0  0
   -2.7042  -20.0926    0.0000 C   0  0
   -1.1969  -20.7637    0.0000 C   0  0
    2.5308  -21.1632    0.0000 N   0  0
  5 20  1  0
 20 21  1  0
 20 22  2  0
 21 23  1  0
 21 27  1  0
 23 24  1  0
 24 25  1  0
 25 26  1  0
 26 27  1  0
 25 28  1  0
 28 29  2  0
 28 30  1  0
 30 31  1  0
 31 32  1  0
 32 33  1  0
 33 34  1  0
  7 35  1  0
 35 40  2  0
  2  3  1  0
 39 36  2  0
  3  4  1  0
 36 37  1  0
  4  5  1  0
 37 38  2  0
 38 35  1  0
  5  6  1  0
  6  2  1  0
 39 40  1  0
  7  8  1  0
 40 41  1  0
  8  9  1  0
 41 42  2  0
 42  1  1  0
  9 10  2  0
  1 43  2  0
 43 39  1  0
 10 11  1  0
 42 44  1  0
 11 12  2  0
 43 45  1  0
 12 13  1  0
 34 46  1  0
 13 14  2  0
 46 47  1  0
 14  9  1  0
 47 48  1  0
 10 15  1  0
 47 49  2  0
 14 16  1  0
 30 50  1  6
 13 17  1  0
 50 51  1  0
 17 18  2  0
 50 52  1  0
 17 19  2  0
 50 53  1  0
 54  5  1  0
 17 54  1  0
M  CHG  1  50   1
M  END