
          11280715422D 1   1.00000     0.00000     0

 24 25  0     0  0            999 V2000
    6.4250   -2.9750    0.0000 N   0  0  3  0  0  0           0  0  0
    7.1500   -2.5667    0.0000 C   0  0  3  0  0  0           0  0  0
    5.8375   -2.3875    0.0000 N   0  0  0  0  0  0           0  0  0
    5.2250   -3.5792    0.0000 C   0  0  0  0  0  0           0  0  0
    5.1000   -2.7625    0.0000 N   0  0  0  0  0  0           0  0  0
    6.0500   -3.7125    0.0000 C   0  0  0  0  0  0           0  0  0
    7.8625   -2.1542    0.0000 C   0  0  3  0  0  0           0  0  0
    6.4292   -2.1542    0.0000 C   0  0  3  0  0  0           0  0  0
    8.5750   -2.5667    0.0000 C   0  0  3  0  0  0           0  0  0
    8.0542   -1.6542    0.0000 O   0  0  0  0  0  0           0  0  0
    7.2542   -2.1542    0.0000 C   0  0  3  0  0  0           0  0  0
    4.6375   -4.1625    0.0000 C   0  0  0  0  0  0           0  0  0
    4.8500   -4.9625    0.0000 O   0  0  0  0  0  0           0  0  0
    9.1875   -3.1167    0.0000 S   0  0  0  0  0  0           0  0  0
    7.8542   -2.9750    0.0000 O   0  0  0  0  0  0           0  0  0
    3.8417   -3.9500    0.0000 N   0  0  0  0  0  0           0  0  0
    6.0125   -1.4375    0.0000 O   0  0  0  0  0  0           0  0  0
    7.0375   -1.3542    0.0000 C   0  0  0  0  0  0           0  0  0
    2.4625   -4.3167    0.0000 C   0  0  0  0  0  0           0  0  0
    7.6167   -0.7667    0.0000 O   0  0  0  0  0  0           0  0  0
    1.0792   -4.6792    0.0000 O   0  0  0  0  0  0           0  0  0
    3.2542   -4.5292    0.0000 C   0  0  0  0  0  0           0  0  0
    1.8792   -4.8917    0.0000 C   0  0  0  0  0  0           0  0  0
    9.0167   -3.9250    0.0000 C   0  0  0  0  0  0           0  0  0
  2  1  1  0     0  0
  3  1  1  0     0  0
  4  6  2  0     0  0
  5  3  2  0     0  0
  6  1  1  0     0  0
  7  2  1  0     0  0
  8  2  1  0     0  0
  9  7  1  0     0  0
 10 11  1  0     0  0
 11  8  1  0     0  0
 12  4  1  0     0  0
 13 12  2  0     0  0
 14  9  1  0     0  0
 15  7  1  0     0  0
 16 12  1  0     0  0
 17  8  1  0     0  0
 18 11  1  0     0  0
 19 22  1  0     0  0
 20 18  1  0     0  0
 21 23  1  0     0  0
 22 16  1  0     0  0
 23 19  1  0     0  0
 24 14  1  0     0  0
  4  5  1  0     0  0
  9 10  1  0     0  0
M  END