
  CDK    6/4/10,11:41

 20 20  0  0  0  0  0  0  0  0999 V2000
   10.7694    2.2292    0.0000 C   0  0  0  0  0  0  0  0  0  0  0  0
   10.7682    1.4018    0.0000 C   0  0  0  0  0  0  0  0  0  0  0  0
   11.4831    0.9890    0.0000 C   0  0  0  0  0  0  0  0  0  0  0  0
   12.1995    1.4023    0.0000 C   0  0  0  0  0  0  0  0  0  0  0  0
   12.1966    2.2328    0.0000 C   0  0  0  0  0  0  0  0  0  0  0  0
   11.4813    2.6420    0.0000 C   0  0  0  0  0  0  0  0  0  0  0  0
   10.0534    0.9899    0.0000 S   0  0  0  0  0  0  0  0  0  0  0  0
    9.3393    1.4030    0.0000 N   0  0  0  0  0  0  0  0  0  0  0  0
    9.4625    0.4083    0.0000 O   0  0  0  0  0  0  0  0  0  0  0  0
   10.6333    0.4083    0.0000 O   0  0  0  0  0  0  0  0  0  0  0  0
    8.6245    0.9910    0.0000 C   0  0  0  0  0  0  0  0  0  0  0  0
    7.9104    1.4041    0.0000 C   0  0  0  0  0  0  0  0  0  0  0  0
    8.6239    0.1660    0.0000 C   0  0  0  0  0  0  0  0  0  0  0  0
    7.9091   -0.2459    0.0000 C   0  0  0  0  0  0  0  0  0  0  0  0
    9.3380   -0.2470    0.0000 C   0  0  0  0  0  0  0  0  0  0  0  0
    7.9110    2.2291    0.0000 O   0  0  0  0  0  0  0  0  0  0  0  0
    7.1956    0.9922    0.0000 N   0  0  0  0  0  0  0  0  0  0  0  0
    6.4814    1.4052    0.0000 O   0  0  0  0  0  0  0  0  0  0  0  0
   12.9096    2.6480    0.0000 O   0  0  0  0  0  0  0  0  0  0  0  0
   13.6256    2.2382    0.0000 C   0  0  0  0  0  0  0  0  0  0  0  0
  7 10  2  0  0  0  0 
  2  3  1  0  0  0  0 
  8 11  1  0  0  0  0 
  5  6  2  0  0  0  0 
 11 12  1  0  0  0  0 
  6  1  1  0  0  0  0 
 11 13  1  6  0  0  0 
  1  2  2  0  0  0  0 
 13 14  1  0  0  0  0 
  2  7  1  0  0  0  0 
 13 15  1  0  0  0  0 
  3  4  2  0  0  0  0 
 12 16  2  0  0  0  0 
  7  8  1  0  0  0  0 
 12 17  1  0  0  0  0 
 17 18  1  0  0  0  0 
  7  9  2  0  0  0  0 
  5 19  1  0  0  0  0 
  4  5  1  0  0  0  0 
 19 20  1  0  0  0  0 
M  END