
  CDK    9/16/09,10:2

 24 26  0  0  0  0  0  0  0  0999 V2000
   13.9232    2.0610    0.0000 C   0  0  0  0  0  0  0  0  0  0  0  0
   13.5057    1.3494    0.0000 C   0  0  0  0  0  0  0  0  0  0  0  0
   13.9132    0.6342    0.0000 C   0  0  0  0  0  0  0  0  0  0  0  0
   14.7378    0.6294    0.0000 C   0  0  0  0  0  0  0  0  0  0  0  0
   15.1534    1.3457    0.0000 C   0  0  0  0  0  0  0  0  0  0  0  0
   14.7436    2.0580    0.0000 C   0  0  0  0  0  0  0  0  0  0  0  0
   15.1434   -0.0875    0.0000 C   0  0  0  0  0  0  0  0  0  0  0  0
   14.8952   -0.8757    0.0000 N   0  0  0  0  0  0  0  0  0  0  0  0
   15.5681   -1.3554    0.0000 N   0  0  0  0  0  0  0  0  0  0  0  0
   16.2323   -0.8636    0.0000 S   0  0  0  0  0  0  0  0  0  0  0  0
   15.9697   -0.0801    0.0000 C   0  0  0  0  0  0  0  0  0  0  0  0
   16.4452    0.5904    0.0000 C   0  0  0  0  0  0  0  0  0  0  0  0
   17.2725    0.5714    0.0000 C   0  0  0  0  0  0  0  0  0  0  0  0
   17.7007    1.2772    0.0000 C   0  0  0  0  0  0  0  0  0  0  0  0
   17.3028    2.0025    0.0000 C   0  0  0  0  0  0  0  0  0  0  0  0
   16.4723    2.0175    0.0000 C   0  0  0  0  0  0  0  0  0  0  0  0
   16.0478    1.3111    0.0000 C   0  0  0  0  0  0  0  0  0  0  0  0
   17.7302    2.7098    0.0000 O   0  0  0  0  0  0  0  0  0  0  0  0
   18.5564    2.6932    0.0000 C   0  0  0  0  0  0  0  0  0  0  0  0
   13.4958   -0.0789    0.0000 O   0  0  0  0  0  0  0  0  0  0  0  0
   13.5138    2.7788    0.0000 O   0  0  0  0  0  0  0  0  0  0  0  0
   15.1586    2.7726    0.0000 Cl  0  0  0  0  0  0  0  0  0  0  0  0
   18.5268    1.2593    0.0000 O   0  0  0  0  0  0  0  0  0  0  0  0
   18.9243    0.5348    0.0000 C   0  0  0  0  0  0  0  0  0  0  0  0
  5  6  2  0  0  0  0 
  6  1  1  0  0  0  0 
 12 13  2  0  0  0  0 
  7  8  1  0  0  0  0 
 13 14  1  0  0  0  0 
  1  2  2  0  0  0  0 
 14 15  2  0  0  0  0 
  3  4  2  0  0  0  0 
 15 16  1  0  0  0  0 
 16 17  2  0  0  0  0 
 17 12  1  0  0  0  0 
 11 12  1  0  0  0  0 
  4  5  1  0  0  0  0 
 15 18  1  0  0  0  0 
  2  3  1  0  0  0  0 
 18 19  1  0  0  0  0 
  8  9  2  0  0  0  0 
  3 20  1  0  0  0  0 
  9 10  1  0  0  0  0 
  1 21  1  0  0  0  0 
 10 11  1  0  0  0  0 
  6 22  1  0  0  0  0 
 11  7  2  0  0  0  0 
 14 23  1  0  0  0  0 
  4  7  1  0  0  0  0 
 23 24  1  0  0  0  0 
M  END