
  CDK    6/4/10,11:41

 33 36  0  0  0  0  0  0  0  0999 V2000
   -5.2639   -5.8583    0.0000 C   0  0  0  0  0  0  0  0  0  0  0  0
   -5.2651   -6.6857    0.0000 C   0  0  0  0  0  0  0  0  0  0  0  0
   -4.5503   -7.0985    0.0000 C   0  0  0  0  0  0  0  0  0  0  0  0
   -3.8338   -6.6852    0.0000 C   0  0  0  0  0  0  0  0  0  0  0  0
   -3.8367   -5.8547    0.0000 C   0  0  0  0  0  0  0  0  0  0  0  0
   -4.5521   -5.4455    0.0000 C   0  0  0  0  0  0  0  0  0  0  0  0
   -3.1238   -5.4395    0.0000 C   0  0  0  0  0  0  0  0  0  0  0  0
   -2.4078   -5.8493    0.0000 N   0  0  0  0  0  0  0  0  0  0  0  0
   -3.1269   -4.6145    0.0000 O   0  0  0  0  0  0  0  0  0  0  0  0
   -2.3147   -6.6683    0.0000 N   0  0  0  0  0  0  0  0  0  0  0  0
   -1.5071   -6.8368    0.0000 C   0  0  0  0  0  0  0  0  0  0  0  0
   -1.0973   -6.1208    0.0000 C   0  0  0  0  0  0  0  0  0  0  0  0
   -1.6517   -5.5099    0.0000 C   0  0  0  0  0  0  0  0  0  0  0  0
   -1.4830   -4.7023    0.0000 O   0  0  0  0  0  0  0  0  0  0  0  0
   -1.1687   -7.5892    0.0000 C   0  0  0  0  0  0  0  0  0  0  0  0
   -0.2728   -6.1104    0.0000 N   0  0  0  0  0  0  0  0  0  0  0  0
    0.1489   -6.8195    0.0000 N   0  0  0  0  0  0  0  0  0  0  0  0
    0.9738   -6.8090    0.0000 C   0  0  0  0  0  0  0  0  0  0  0  0
    1.3907   -7.5182    0.0000 C   0  0  0  0  0  0  0  0  0  0  0  0
    2.2149   -7.5080    0.0000 C   0  0  0  0  0  0  0  0  0  0  0  0
    2.6190   -6.7877    0.0000 C   0  0  0  0  0  0  0  0  0  0  0  0
    2.1929   -6.0763    0.0000 C   0  0  0  0  0  0  0  0  0  0  0  0
    1.3702   -6.0900    0.0000 C   0  0  0  0  0  0  0  0  0  0  0  0
    3.4439   -6.7761    0.0000 S   0  0  0  0  0  0  0  0  0  0  0  0
    4.2667   -6.7750    0.0000 N   0  0  0  0  0  0  0  0  0  0  0  0
    3.4376   -5.9511    0.0000 O   0  0  0  0  0  0  0  0  0  0  0  0
    3.4526   -7.6010    0.0000 O   0  0  0  0  0  0  0  0  0  0  0  0
    4.6801   -7.4889    0.0000 C   0  0  0  0  0  0  0  0  0  0  0  0
    4.2655   -8.2018    0.0000 N   0  0  0  0  0  0  0  0  0  0  0  0
    4.6782   -8.9152    0.0000 C   0  0  0  0  0  0  0  0  0  0  0  0
    5.5041   -8.9146    0.0000 C   0  0  0  0  0  0  0  0  0  0  0  0
    5.9155   -8.1946    0.0000 C   0  0  0  0  0  0  0  0  0  0  0  0
    5.5004   -7.4841    0.0000 N   0  0  0  0  0  0  0  0  0  0  0  0
 12 16  1  0  0  0  0 
  7  8  1  0  0  0  0 
 16 17  2  0  0  0  0 
 17 18  1  0  0  0  0 
  7  9  2  0  0  0  0 
 18 19  2  0  0  0  0 
  8 10  1  0  0  0  0 
 19 20  1  0  0  0  0 
  4  5  1  0  0  0  0 
 20 21  2  0  0  0  0 
  2  3  1  0  0  0  0 
 21 22  1  0  0  0  0 
  5  6  2  0  0  0  0 
 22 23  2  0  0  0  0 
 23 18  1  0  0  0  0 
  6  1  1  0  0  0  0 
 21 24  1  0  0  0  0 
 10 11  2  0  0  0  0 
 24 25  1  0  0  0  0 
 11 12  1  0  0  0  0 
 24 26  2  0  0  0  0 
 12 13  1  0  0  0  0 
 24 27  2  0  0  0  0 
 13  8  1  0  0  0  0 
 25 28  1  0  0  0  0 
  1  2  2  0  0  0  0 
 28 29  2  0  0  0  0 
 13 14  2  0  0  0  0 
 29 30  1  0  0  0  0 
  5  7  1  0  0  0  0 
 30 31  2  0  0  0  0 
 11 15  1  0  0  0  0 
 31 32  1  0  0  0  0 
  3  4  2  0  0  0  0 
 32 33  2  0  0  0  0 
 33 28  1  0  0  0  0 
M  END