
          05270816392D 1   1.00000     0.00000     0

 25 28  0     0  0            999 V2000
   -3.5779   -0.1954    0.0000 C   0  0  0  0  0  0           0  0  0
   -3.5790   -1.0212    0.0000 C   0  0  0  0  0  0           0  0  0
   -2.8656   -1.4332    0.0000 C   0  0  0  0  0  0           0  0  0
   -2.8674    0.2166    0.0000 C   0  0  0  0  0  0           0  0  0
   -2.1533   -0.1918    0.0000 C   0  0  0  0  0  0           0  0  0
   -2.1545   -1.0232    0.0000 C   0  0  0  0  0  0           0  0  0
   -1.4390   -1.4377    0.0000 C   0  0  0  0  0  0           0  0  0
   -1.4366    0.2252    0.0000 C   0  0  0  0  0  0           0  0  0
   -0.7166   -0.1938    0.0000 C   0  0  0  0  0  0           0  0  0
   -0.7179   -1.0212    0.0000 C   0  0  0  0  0  0           0  0  0
   -0.0032   -1.4341    0.0000 C   0  0  0  0  0  0           0  0  0
    0.7133   -1.0209    0.0000 C   0  0  0  0  0  0           0  0  0
   -0.0047    0.2188    0.0000 C   0  0  0  0  0  0           0  0  0
    0.7094   -0.1943    0.0000 C   0  0  0  0  0  0           0  0  0
    1.4203    0.2153    0.0000 C   0  0  0  0  0  0           0  0  0
    1.4233    1.0396    0.0000 C   0  0  0  0  0  0           0  0  0
    0.7092    1.4528    0.0000 C   0  0  0  0  0  0           0  0  0
   -0.0079    1.0415    0.0000 O   0  0  0  0  0  0           0  0  0
   -1.4366    1.0486    0.0000 O   0  0  0  0  0  0           0  0  0
   -1.4396   -2.2611    0.0000 O   0  0  0  0  0  0           0  0  0
    2.1325   -0.1981    0.0000 O   0  0  0  0  0  0           0  0  0
   -2.8699    1.0400    0.0000 O   0  0  0  0  0  0           0  0  0
   -4.2924   -1.4323    0.0000 O   0  0  0  0  0  0           0  0  0
    1.4272   -1.4311    0.0000 O   0  0  0  0  0  0           0  0  0
    0.7107    2.2762    0.0000 C   0  0  0  0  0  0           0  0  0
 11 12  2  0     0  0
 12 14  1  0     0  0
 13  9  1  0     0  0
 13 14  2  0     0  0
  2  3  1  0     0  0
  3  6  2  0     0  0
  1  2  2  0     0  0
  5  8  1  0     0  0
  6  7  1  0     0  0
  7 10  1  0     0  0
 13 18  1  0     0  0
 14 15  1  0     0  0
 15 16  1  0     0  0
 16 17  2  0     0  0
 17 18  1  0     0  0
  9  8  1  0     0  0
  8 19  2  0     0  0
  5  4  2  0     0  0
  7 20  2  0     0  0
  4  1  1  0     0  0
 15 21  2  0     0  0
  9 10  2  0     0  0
  4 22  1  0     0  0
  5  6  1  0     0  0
  2 23  1  0     0  0
 10 11  1  0     0  0
 12 24  1  0     0  0
 17 25  1  0     0  0
M  END