
  SciTegic12091611352D

 30 31  0  0  0  0            999 V2000
    5.1884   -7.5121    0.0000 N   0  0
    6.4868   -8.2648    0.0000 C   0  0  1  0  0  0
    6.4851   -9.7656    0.0000 C   0  0
    7.7892   -7.5189    0.0000 C   0  0
    7.7930   -6.3189    0.0000 O   0  0
    8.8267   -8.1219    0.0000 O   0  0
    7.7835  -10.5183    0.0000 C   0  0
    7.7818  -12.0191    0.0000 C   0  0
    9.0803  -12.7718    0.0000 N   0  0
    9.0786  -14.2727    0.0000 C   0  0
    8.0385  -14.8712    0.0000 N   0  0
   10.1167  -14.8745    0.0000 O   0  0
    5.1901   -6.0113    0.0000 C   0  0
    3.8917   -5.2586    0.0000 C   0  0
    6.2302   -5.4128    0.0000 O   0  0
    3.8934   -3.7577    0.0000 O   0  0
    2.5949   -3.0050    0.0000 C   0  0
    2.5966   -1.5042    0.0000 C   0  0
    1.2990   -0.7500    0.0000 C   0  0
    3.8990   -0.7582    0.0000 C   0  0
    1.2990    0.7500    0.0000 C   0  0
    0.0000    1.5000    0.0000 C   0  0
   -1.2990    0.7500    0.0000 C   0  0
   -1.2990   -0.7500    0.0000 C   0  0
    0.0000   -1.5000    0.0000 C   0  0
    3.9042    0.7419    0.0000 C   0  0
    5.2058    1.4875    0.0000 C   0  0
    6.5023    0.7331    0.0000 C   0  0
    6.4972   -0.7669    0.0000 C   0  0
    5.1956   -1.5125    0.0000 C   0  0
  1  2  1  0
  2  3  1  6
  2  4  1  0
  4  5  1  0
  4  6  2  0
  3  7  1  0
  7  8  1  0
  8  9  1  0
  9 10  1  0
 10 11  1  0
 10 12  2  0
  1 13  1  0
 13 14  1  0
 13 15  2  0
 14 16  1  0
 16 17  1  0
 17 18  1  0
 18 19  1  0
 18 20  1  0
 19 21  2  0
 21 22  1  0
 22 23  2  0
 23 24  1  0
 24 25  2  0
 25 19  1  0
 20 26  2  0
 26 27  1  0
 27 28  2  0
 28 29  1  0
 29 30  2  0
 30 20  1  0
M  END