
  SciTegic01161211252D

 33 36  0  0  0  0            999 V2000
   15.9392  -16.9738    0.0000 N   0  0
   16.6010  -16.4805    0.0000 C   0  0
   16.3364  -15.6987    0.0000 C   0  0
   15.5110  -15.7088    0.0000 N   0  0
   15.2657  -16.4962    0.0000 C   0  0
   14.5514  -16.9019    0.0000 C   0  0
   13.8403  -16.4813    0.0000 C   0  0
   13.1227  -16.8868    0.0000 C   0  0
   13.1149  -17.7126    0.0000 C   0  0
   13.8307  -18.1314    0.0000 C   0  0
   14.5454  -17.7235    0.0000 C   0  0
   16.7405  -14.9790    0.0000 C   0  0
   17.5654  -14.9690    0.0000 N   0  0
   16.3194  -14.2695    0.0000 O   0  0
   17.9692  -14.2496    0.0000 N   0  0
   18.7961  -14.2449    0.0000 C   0  0
   19.2001  -13.5314    0.0000 C   0  0
   18.7828  -12.8227    0.0000 C   0  0
   17.9567  -12.8290    0.0000 C   0  0
   17.5488  -13.5522    0.0000 C   0  0
   15.9514  -17.7967    0.0000 C   0  0
   15.2404  -18.2173    0.0000 C   0  0
   15.2501  -19.0414    0.0000 C   0  0
   15.9701  -19.4460    0.0000 C   0  0
   16.6818  -19.0204    0.0000 C   0  0
   16.6686  -18.1976    0.0000 C   0  0
   12.3973  -18.1197    0.0000 Cl  0  0
   15.9812  -20.2709    0.0000 Cl  0  0
   13.8485  -15.6564    0.0000 Cl  0  0
   17.3886  -16.7259    0.0000 S   0  0
   17.5700  -17.5307    0.0000 C   0  0
   17.6000  -15.9250    0.0000 O   0  0
   18.1833  -16.9375    0.0000 O   0  0
  7  8  1  0
  3  4  1  0
  8  9  2  0
  4  5  2  0
  9 10  1  0
 15 20  1  0
 16 17  1  0
 17 18  1  0
 18 19  1  0
 19 20  1  0
  5  1  1  0
 10 11  2  0
 21 22  2  0
 11  6  1  0
 22 23  1  0
  5  6  1  0
 23 24  2  0
  1  2  1  0
 24 25  1  0
  3 12  1  0
 25 26  2  0
 26 21  1  0
  1 21  1  0
  9 27  1  0
 12 13  1  0
 24 28  1  0
  6  7  2  0
  7 29  1  0
 12 14  2  0
  2 30  1  0
  2  3  2  0
 30 31  1  0
 13 15  1  0
 30 32  2  0
 15 16  1  0
 30 33  2  0
M  END