
  CDK    9/16/09,10:0

 22 23  0  0  0  0  0  0  0  0999 V2000
   -4.5528  -20.0108    0.0000 C   0  0  0  0  0  0  0  0  0  0  0  0
   -4.5541  -20.8384    0.0000 C   0  0  0  0  0  0  0  0  0  0  0  0
   -3.8411  -21.2513    0.0000 C   0  0  0  0  0  0  0  0  0  0  0  0
   -3.1218  -20.8378    0.0000 C   0  0  0  0  0  0  0  0  0  0  0  0
   -3.1250  -20.0068    0.0000 C   0  0  0  0  0  0  0  0  0  0  0  0
   -3.8431  -19.5980    0.0000 C   0  0  0  0  0  0  0  0  0  0  0  0
   -2.4125  -19.5908    0.0000 C   0  0  0  0  0  0  0  0  0  0  0  0
   -1.6960  -19.9998    0.0000 C   0  0  0  0  0  0  0  0  0  0  0  0
   -2.4166  -18.7658    0.0000 O   0  0  0  0  0  0  0  0  0  0  0  0
   -1.6031  -20.8196    0.0000 C   0  0  0  0  0  0  0  0  0  0  0  0
   -0.7953  -20.9871    0.0000 N   0  0  0  0  0  0  0  0  0  0  0  0
   -0.3863  -20.2706    0.0000 C   0  0  0  0  0  0  0  0  0  0  0  0
   -0.9414  -19.6603    0.0000 N   0  0  0  0  0  0  0  0  0  0  0  0
   -5.2691  -21.2499    0.0000 Cl  0  0  0  0  0  0  0  0  0  0  0  0
   -0.7735  -18.8526    0.0000 C   0  0  0  0  0  0  0  0  0  0  0  0
    0.4383  -20.2712    0.0000 S   0  0  0  0  0  0  0  0  0  0  0  0
    0.8506  -20.9858    0.0000 C   0  0  0  0  0  0  0  0  0  0  0  0
    1.6756  -20.9861    0.0000 C   0  0  0  0  0  0  0  0  0  0  0  0
    2.0879  -21.7007    0.0000 C   0  0  0  0  0  0  0  0  0  0  0  0
    2.9129  -21.7010    0.0000 C   0  0  0  0  0  0  0  0  0  0  0  0
    3.3251  -22.4156    0.0000 C   0  0  0  0  0  0  0  0  0  0  0  0
    3.3256  -20.9867    0.0000 C   0  0  0  0  0  0  0  0  0  0  0  0
  5  6  2  0  0  0  0 
  6  1  1  0  0  0  0 
 10 11  1  0  0  0  0 
 11 12  2  0  0  0  0 
 12 13  1  0  0  0  0 
 13  8  1  0  0  0  0 
  1  2  2  0  0  0  0 
  2 14  1  0  0  0  0 
  5  7  1  0  0  0  0 
 13 15  1  0  0  0  0 
  3  4  2  0  0  0  0 
 12 16  1  0  0  0  0 
  7  8  1  0  0  0  0 
 16 17  1  0  0  0  0 
 17 18  1  0  0  0  0 
  7  9  2  0  0  0  0 
 18 19  1  0  0  0  0 
  8 10  2  0  0  0  0 
 19 20  1  0  0  0  0 
  4  5  1  0  0  0  0 
 20 21  1  0  0  0  0 
  2  3  1  0  0  0  0 
 20 22  1  0  0  0  0 
M  END