
  SciTegic10311316322D

 32 35  0  0  0  0            999 V2000
    6.8025   -3.9296    0.0000 O   0  0
    6.0939   -3.5243    0.0000 C   0  0
    5.3876   -4.7527    0.0000 C   0  0
    5.3888   -3.9317    0.0000 C   0  0
    4.6083   -3.6768    0.0000 C   0  0
    4.1246   -4.3403    0.0000 N   0  0
    4.6057   -5.0052    0.0000 N   0  0
    6.0921   -2.7072    0.0000 N   0  0
    6.7989   -2.2970    0.0000 C   0  0
    7.5044   -2.7070    0.0000 C   0  0
    8.2107   -2.2975    0.0000 C   0  0
    8.2094   -1.4795    0.0000 C   0  0
    7.4958   -1.0726    0.0000 C   0  0
    6.7924   -1.4844    0.0000 C   0  0
    6.0818   -1.0808    0.0000 C   0  0
    8.9191   -2.7049    0.0000 C   0  0
    8.9205   -3.5221    0.0000 O   0  0
    9.6261   -2.2951    0.0000 N   0  0
   10.3345   -2.7025    0.0000 C   0  0
   10.7413   -3.4061    0.0000 C   0  0
   11.1487   -2.6977    0.0000 C   0  0
    6.0480   -5.2341    0.0000 C   0  0
    4.1873   -5.7072    0.0000 C   0  0
    3.3732   -5.6907    0.0000 N   0  0
    2.9549   -6.3919    0.0000 C   0  0
    3.3538   -7.1061    0.0000 C   0  0
    4.1751   -7.1148    0.0000 C   0  0
    4.5897   -6.4130    0.0000 C   0  0
    5.4069   -6.4193    0.0000 C   0  0
    5.8100   -7.1302    0.0000 F   0  0
    5.8209   -5.7148    0.0000 F   0  0
    6.2010   -6.5972    0.0000 F   0  0
  1  2  2  0
  2  4  1  0
  3  4  2  0
  4  5  1  0
  5  6  2  0
  6  7  1  0
  7  3  1  0
  2  8  1  0
  8  9  1  0
  9 10  2  0
 10 11  1  0
 11 12  2  0
 12 13  1  0
 13 14  2  0
 14  9  1  0
 14 15  1  0
 11 16  1  0
 16 17  2  0
 16 18  1  0
 18 19  1  0
 20 19  1  0
 21 20  1  0
 19 21  1  0
  3 22  1  0
  7 23  1  0
 23 24  2  0
 24 25  1  0
 25 26  2  0
 26 27  1  0
 27 28  2  0
 28 23  1  0
 28 29  1  0
 29 30  1  0
 29 31  1  0
 29 32  1  0
M  END