
  SciTegic01161211222D

 35 37  0  0  0  0            999 V2000
   -3.7848    1.9375    0.0000 C   0  0
   -3.7859    1.1102    0.0000 C   0  0
   -3.0711    0.6973    0.0000 C   0  0
   -2.3547    1.1106    0.0000 C   0  0
   -2.3575    1.9412    0.0000 C   0  0
   -3.0729    2.3503    0.0000 C   0  0
   -1.6395    0.6993    0.0000 C   0  0
   -1.6383   -0.1257    0.0000 C   0  0
   -0.9257    1.1129    0.0000 C   0  0
   -0.2140    0.7011    0.0000 C   0  0
    0.4994    1.1140    0.0000 C   0  0
    0.4985    1.9399    0.0000 C   0  0
   -0.2216    2.3511    0.0000 C   0  0
   -0.9320    1.9358    0.0000 C   0  0
   -2.3521   -0.5393    0.0000 N   0  0
   -0.9231   -0.5371    0.0000 O   0  0
   -2.3508   -1.3643    0.0000 C   0  0  1  0  0  0
   -3.0646   -1.7780    0.0000 C   0  0
   -1.6357   -1.7757    0.0000 C   0  0
   -0.9218   -1.3621    0.0000 C   0  0
   -0.2067   -1.7735    0.0000 C   0  0
   -0.2054   -2.5985    0.0000 N   0  0
    0.5097   -3.0099    0.0000 C   0  0
    0.5110   -3.8349    0.0000 N   0  0
    1.2235   -2.5962    0.0000 N   0  0
   -3.7797   -1.3666    0.0000 O   0  0
   -3.0633   -2.6030    0.0000 N   0  0
   -3.7771   -3.0166    0.0000 C   0  0
   -3.7758   -3.8416    0.0000 C   0  0
   -4.4880   -4.2520    0.0000 C   0  0
   -4.4871   -5.0763    0.0000 C   0  0
   -3.7714   -5.4885    0.0000 C   0  0
   -3.0553   -5.0704    0.0000 C   0  0
   -3.0597   -4.2475    0.0000 C   0  0
   -3.7690   -6.3135    0.0000 O   0  0
 17 15  1  6
 17 18  1  0
  7  9  1  0
 17 19  1  0
  4  5  1  0
 19 20  1  0
  9 10  2  0
 20 21  1  0
  2  3  1  0
 21 22  1  0
 10 11  1  0
 22 23  2  0
  5  6  2  0
 23 24  1  0
 11 12  2  0
 23 25  1  0
  6  1  1  0
 18 26  2  0
 12 13  1  0
 18 27  1  0
  1  2  2  0
 27 28  1  0
 13 14  2  0
 28 29  1  0
 14  9  1  0
 29 30  2  0
  4  7  1  0
 30 31  1  0
  8 15  1  0
 31 32  2  0
  3  4  2  0
 32 33  1  0
  8 16  2  0
 33 34  2  0
 34 29  1  0
  7  8  1  0
 32 35  1  0
M  END