
          11280715142D 1   1.00000     0.00000     0

 46 51  0     1  0            999 V2000
    0.1417   -3.1542    0.0000 C   0  0  2  0  0  0           0  0  0
    0.1250   -1.2875    0.0000 N   0  0  3  0  0  0           0  0  0
    0.5542   -3.8667    0.0000 C   0  0  1  0  0  0           0  0  0
   -0.5125   -2.6417    0.0000 C   0  0  0  0  0  0           0  0  0
   -0.5125   -1.8125    0.0000 C   0  0  0  0  0  0           0  0  0
    0.3500   -5.3750    0.0000 C   0  0  0  0  0  0           0  0  0
    0.9542   -2.9625    0.0000 N   0  0  0  0  0  0           0  0  0
    0.4292    0.1083    0.0000 C   0  0  0  0  0  0           0  0  0
   -0.1250   -0.5000    0.0000 C   0  0  0  0  0  0           0  0  0
   -0.4458   -3.7375    0.0000 C   0  0  0  0  0  0           0  0  0
    0.9375   -1.4667    0.0000 C   0  0  0  0  0  0           0  0  0
    1.3500   -4.0792    0.0000 C   0  0  0  0  0  0           0  0  0
    0.1375   -4.5792    0.0000 O   0  0  0  0  0  0           0  0  0
    1.1375   -5.5792    0.0000 N   0  0  0  0  0  0           0  0  0
   -0.2375   -5.9542    0.0000 N   0  0  0  0  0  0           0  0  0
   -0.2333   -4.5292    0.0000 C   0  0  0  0  0  0           0  0  0
    1.3042   -2.2125    0.0000 C   0  0  0  0  0  0           0  0  0
   -0.8333   -5.1125    0.0000 C   0  0  0  0  0  0           0  0  0
    1.2292   -0.0667    0.0000 C   0  0  0  0  0  0           0  0  0
    0.1750    0.8875    0.0000 C   0  0  0  0  0  0           0  0  0
   -0.0250   -6.7500    0.0000 C   0  0  0  0  0  0           0  0  0
    1.3542   -6.3750    0.0000 C   0  0  0  0  0  0           0  0  0
    0.7667   -6.9625    0.0000 C   0  0  0  0  0  0           0  0  0
    1.4417   -0.8167    0.0000 O   0  0  0  0  0  0           0  0  0
    1.5625   -4.8750    0.0000 O   0  0  0  0  0  0           0  0  0
   -1.2458   -5.8250    0.0000 C   0  0  0  0  0  0           0  0  0
    2.1417   -3.8625    0.0000 O   0  0  0  0  0  0           0  0  0
   -1.2333   -3.0542    0.0000 C   0  0  0  0  0  0           0  0  0
    2.0292   -0.2792    0.0000 Cl  0  0  0  0  0  0           0  0  0
   -0.6333    1.0583    0.0000 Cl  0  0  0  0  0  0           0  0  0
   -1.2458   -3.5125    0.0000 C   0  0  0  0  0  0           0  0  0
   -1.2333   -1.4000    0.0000 C   0  0  0  0  0  0           0  0  0
   -1.6250   -4.8875    0.0000 C   0  0  0  0  0  0           0  0  0
   -1.8333   -4.0875    0.0000 C   0  0  0  0  0  0           0  0  0
    1.5375    1.3333    0.0000 C   0  0  0  0  0  0           0  0  0
    0.7250    1.5000    0.0000 C   0  0  0  0  0  0           0  0  0
    1.7875    0.5458    0.0000 C   0  0  0  0  0  0           0  0  0
   -0.6083   -7.3292    0.0000 C   0  0  0  0  0  0           0  0  0
    2.1500   -6.5875    0.0000 C   0  0  0  0  0  0           0  0  0
   -2.0750   -5.8125    0.0000 C   0  0  0  0  0  0           0  0  0
   -0.8458   -6.5375    0.0000 C   0  0  0  0  0  0           0  0  0
   -1.9458   -2.6417    0.0000 C   0  0  0  0  0  0           0  0  0
   -1.9458   -1.8125    0.0000 C   0  0  0  0  0  0           0  0  0
   -1.2583   -7.2417    0.0000 C   0  0  0  0  0  0           0  0  0
   -2.4958   -6.5167    0.0000 C   0  0  0  0  0  0           0  0  0
   -2.0875   -7.2417    0.0000 C   0  0  0  0  0  0           0  0  0
  2  5  1  0     0  0
  3  1  1  0     0  0
  4  1  1  0     0  0
  5  4  1  0     0  0
  6 13  1  0     0  0
  7  1  1  0     0  0
  8  9  1  0     0  0
  9  2  1  0     0  0
  1 10  1  1     0  0
 11 17  1  0     0  0
 12  3  1  0     0  0
  3 13  1  1     0  0
 14  6  1  0     0  0
 15  6  2  0     0  0
 16 10  2  0     0  0
 17  7  1  0     0  0
 18 16  1  0     0  0
 19  8  2  0     0  0
 20  8  1  0     0  0
 21 15  1  0     0  0
 22 14  2  0     0  0
 23 21  2  0     0  0
 24 11  2  0     0  0
 25 12  2  0     0  0
 26 18  1  0     0  0
 27 12  1  0     0  0
 28  4  2  0     0  0
 29 19  1  0     0  0
 30 20  1  0     0  0
 31 10  1  0     0  0
 32  5  2  0     0  0
 33 34  1  0     0  0
 34 31  2  0     0  0
 35 36  1  0     0  0
 36 20  2  0     0  0
 37 19  1  0     0  0
 38 21  1  0     0  0
 39 22  1  0     0  0
 40 26  2  0     0  0
 41 26  1  0     0  0
 42 28  1  0     0  0
 43 42  2  0     0  0
 44 41  2  0     0  0
 45 40  1  0     0  0
 46 44  1  0     0  0
  2 11  1  0     0  0
 18 33  2  0     0  0
 32 43  1  0     0  0
 23 22  1  0     0  0
 45 46  2  0     0  0
 37 35  2  0     0  0
M  END