
  SciTegic06051313552D

 28 30  0  0  0  0            999 V2000
   19.3609   -8.1499    0.0000 C   0  0
   19.3597   -8.9773    0.0000 C   0  0
   20.0745   -9.3901    0.0000 C   0  0
   20.7910   -8.9768    0.0000 C   0  0
   20.7881   -8.1462    0.0000 C   0  0
   20.0727   -7.7372    0.0000 N   0  0
   21.5010   -7.7311    0.0000 C   0  0
   22.2171   -8.1409    0.0000 C   0  0
   22.9299   -7.7256    0.0000 C   0  0
   23.6460   -8.1355    0.0000 O   0  0
   24.3588   -7.7203    0.0000 C   0  0
   25.0708   -8.1319    0.0000 C   0  0
   25.7833   -7.7174    0.0000 C   0  0
   25.7806   -6.8915    0.0000 C   0  0
   25.0595   -6.4819    0.0000 C   0  0
   24.3500   -6.8987    0.0000 C   0  0
   26.4929   -6.4753    0.0000 Cl  0  0
   18.6463   -7.7376    0.0000 C   0  0
   17.9319   -8.1503    0.0000 C   0  0
   17.2174   -7.7379    0.0000 C   0  0
   16.5030   -8.1506    0.0000 O   0  0
   15.7885   -7.7383    0.0000 C   0  0
   15.7921   -6.9130    0.0000 C   0  0
   15.0785   -6.5008    0.0000 C   0  0
   14.3631   -6.9135    0.0000 C   0  0
   14.3659   -7.7427    0.0000 C   0  0
   15.0802   -8.1513    0.0000 C   0  0
   13.6479   -6.5021    0.0000 Cl  0  0
  1  2  2  0
  2  3  1  0
  3  4  2  0
  4  5  1  0
  5  6  2  0
  6  1  1  0
  5  7  1  0
  7  8  1  0
  8  9  1  0
  9 10  1  0
 10 11  1  0
 11 12  2  0
 12 13  1  0
 13 14  2  0
 14 15  1  0
 15 16  2  0
 16 11  1  0
 14 17  1  0
  1 18  1  0
 18 19  1  0
 19 20  1  0
 20 21  1  0
 21 22  1  0
 22 23  2  0
 23 24  1  0
 24 25  2  0
 25 26  1  0
 26 27  2  0
 27 22  1  0
 25 28  1  0
M  END