
          11280714502D 1   1.00000     0.00000     0

 28 30  0     0  0            999 V2000
    6.0875   -5.7875    0.0000 N   0  0  3  0  0  0           0  0  0
    0.2667   -4.7500    0.0000 N   0  0  0  0  0  0           0  0  0
    6.8750   -6.0375    0.0000 C   0  0  0  0  0  0           0  0  0
    0.9167   -5.2500    0.0000 C   0  0  0  0  0  0           0  0  0
   -0.4958   -5.0667    0.0000 C   0  0  0  0  0  0           0  0  0
   -1.1500   -4.5667    0.0000 C   0  0  0  0  0  0           0  0  0
    7.4750   -5.4750    0.0000 C   0  0  0  0  0  0           0  0  0
    4.5167   -5.2917    0.0000 N   0  0  3  0  0  0           0  0  0
    0.8167   -6.0667    0.0000 N   0  0  0  0  0  0           0  0  0
    7.0417   -6.8375    0.0000 C   0  0  0  0  0  0           0  0  0
    5.4792   -6.3417    0.0000 C   0  0  0  0  0  0           0  0  0
    5.9042   -4.9792    0.0000 C   0  0  0  0  0  0           0  0  0
   -1.0458   -3.7500    0.0000 O   0  0  0  0  0  0           0  0  0
    1.6792   -4.9292    0.0000 N   0  0  0  0  0  0           0  0  0
    7.8292   -7.0875    0.0000 C   0  0  0  0  0  0           0  0  0
    8.2542   -5.7167    0.0000 C   0  0  0  0  0  0           0  0  0
    4.6917   -6.1000    0.0000 C   0  0  0  0  0  0           0  0  0
    5.1167   -4.7292    0.0000 C   0  0  0  0  0  0           0  0  0
   -1.9125   -4.8875    0.0000 N   0  0  0  0  0  0           0  0  0
   -0.6000   -5.8875    0.0000 C   0  0  0  0  0  0           0  0  0
    0.0625   -6.3875    0.0000 C   0  0  0  0  0  0           0  0  0
    8.4417   -6.5292    0.0000 C   0  0  0  0  0  0           0  0  0
    8.8667   -5.1542    0.0000 Cl  0  0  0  0  0  0           0  0  0
    6.4375   -7.3917    0.0000 O   0  0  0  0  0  0           0  0  0
    3.7542   -5.6125    0.0000 C   0  0  0  0  0  0           0  0  0
    3.0917   -5.1125    0.0000 C   0  0  0  0  0  0           0  0  0
    2.3375   -5.4292    0.0000 C   0  0  0  0  0  0           0  0  0
    5.6500   -7.1417    0.0000 C   0  0  0  0  0  0           0  0  0
  2  4  1  0     0  0
  3  1  1  0     0  0
  4 14  1  0     0  0
  5  2  2  0     0  0
  6  5  1  0     0  0
  7  3  1  0     0  0
  8 18  1  0     0  0
  9  4  2  0     0  0
 10  3  2  0     0  0
 11  1  1  0     0  0
 12  1  1  0     0  0
 13  6  2  0     0  0
 14 27  1  0     0  0
 15 10  1  0     0  0
 16  7  2  0     0  0
 17 11  1  0     0  0
 18 12  1  0     0  0
 19  6  1  0     0  0
 20 21  2  0     0  0
 21  9  1  0     0  0
 22 15  2  0     0  0
 23 16  1  0     0  0
 24 10  1  0     0  0
 25  8  1  0     0  0
 26 25  1  0     0  0
 27 26  1  0     0  0
 28 24  1  0     0  0
 17  8  1  0     0  0
 22 16  1  0     0  0
 20  5  1  0     0  0
M  END