
          11280714462D 1   1.00000     0.00000     0

 28 30  0     0  0            999 V2000
    0.0875   -2.4000    0.0000 N   0  0  3  0  0  0           0  0  0
    0.3500   -1.8625    0.0000 C   0  0  0  0  0  0           0  0  0
   -0.5000   -2.2917    0.0000 C   0  0  0  0  0  0           0  0  0
   -0.1750   -1.5625    0.0000 C   0  0  0  0  0  0           0  0  0
   -0.7875   -2.8167    0.0000 N   0  0  0  0  0  0           0  0  0
   -0.1750   -0.9500    0.0000 C   0  0  0  0  0  0           0  0  0
    0.1625   -3.0000    0.0000 C   0  0  0  0  0  0           0  0  0
    0.3500   -0.6417    0.0000 O   0  0  0  0  0  0           0  0  0
   -0.3750   -3.2500    0.0000 C   0  0  0  0  0  0           0  0  0
    0.8750   -1.5542    0.0000 C   0  0  0  0  0  0           0  0  0
   -0.7000   -0.6500    0.0000 C   0  0  0  0  0  0           0  0  0
    2.4875   -1.2000    0.0000 N   0  0  0  0  0  0           0  0  0
    0.8750   -0.9417    0.0000 C   0  0  0  0  0  0           0  0  0
    1.4542   -0.7875    0.0000 C   0  0  3  0  0  0           0  0  0
    1.8875   -1.2000    0.0000 C   0  0  0  0  0  0           0  0  0
   -0.7000   -1.8625    0.0000 C   0  0  0  0  0  0           0  0  0
   -0.7000   -0.0500    0.0000 O   0  0  0  0  0  0           0  0  0
    1.6000   -0.2000    0.0000 O   0  0  0  0  0  0           0  0  0
    0.6500   -3.3375    0.0000 C   0  0  0  0  0  0           0  0  0
   -1.2208   -1.5625    0.0000 C   0  0  0  0  0  0           0  0  0
    2.8417   -1.6875    0.0000 C   0  0  3  0  0  0           0  0  0
   -1.2208   -0.9542    0.0000 C   0  0  0  0  0  0           0  0  0
   -0.4250   -3.8500    0.0000 C   0  0  0  0  0  0           0  0  0
   -0.1833    0.2500    0.0000 C   0  0  0  0  0  0           0  0  0
    2.6000   -2.2375    0.0000 C   0  0  0  0  0  0           0  0  0
    3.4417   -1.6250    0.0000 C   0  0  0  0  0  0           0  0  0
    0.6042   -3.9292    0.0000 C   0  0  0  0  0  0           0  0  0
    0.0625   -4.1875    0.0000 C   0  0  0  0  0  0           0  0  0
  2  1  1  0     0  0
  3  1  1  0     0  0
  4  2  1  0     0  0
  5  3  2  0     0  0
  6  4  1  0     0  0
  7  1  1  0     0  0
  8  6  1  0     0  0
  9  7  2  0     0  0
 10  2  2  0     0  0
 11  6  2  0     0  0
 12 15  1  0     0  0
 13  8  1  0     0  0
 14 13  1  0     0  0
 15 14  1  0     0  0
 16  4  2  0     0  0
 17 11  1  0     0  0
 18 14  1  0     0  0
 19  7  1  0     0  0
 20 16  1  0     0  0
 21 12  1  0     0  0
 22 20  2  0     0  0
 23  9  1  0     0  0
 24 17  1  0     0  0
 25 21  1  0     0  0
 26 21  1  0     0  0
 27 19  2  0     0  0
 28 27  1  0     0  0
  9  5  1  0     0  0
 28 23  2  0     0  0
 22 11  1  0     0  0
M  END