
          11280715332D 1   1.00000     0.00000     0

 36 35  0     1  0            999 V2000
    2.1875   -1.1750    0.0000 C   0  0  0  0  0  0           0  0  0
    5.7542   -1.5875    0.0000 C   0  0  0  0  0  0           0  0  0
    5.0417   -1.1750    0.0000 C   0  0  1  0  0  0           0  0  0
    2.9000   -1.5875    0.0000 C   0  0  1  0  0  0           0  0  0
    3.6167   -1.1750    0.0000 C   0  0  1  0  0  0           0  0  0
    4.3292   -1.5875    0.0000 C   0  0  1  0  0  0           0  0  0
    1.4667   -1.5875    0.0000 N   0  0  0  0  0  0           0  0  0
    6.4750   -1.1750    0.0000 N   0  0  0  0  0  0           0  0  0
    0.7542   -1.1750    0.0000 C   0  0  2  0  0  0           0  0  0
    7.1875   -1.5875    0.0000 C   0  0  2  0  0  0           0  0  0
    0.0417   -1.5875    0.0000 C   0  0  0  0  0  0           0  0  0
    7.9042   -1.1750    0.0000 C   0  0  0  0  0  0           0  0  0
    5.7542   -2.4125    0.0000 O   0  0  0  0  0  0           0  0  0
    2.1875   -0.3500    0.0000 O   0  0  0  0  0  0           0  0  0
    0.0417   -2.4125    0.0000 O   0  0  0  0  0  0           0  0  0
    7.9042   -0.3500    0.0000 O   0  0  0  0  0  0           0  0  0
    8.6167   -1.5875    0.0000 N   0  0  0  0  0  0           0  0  0
   -0.6708   -1.1750    0.0000 N   0  0  0  0  0  0           0  0  0
    3.6167   -0.3500    0.0000 O   0  0  0  0  0  0           0  0  0
    4.3292   -2.4125    0.0000 O   0  0  0  0  0  0           0  0  0
    2.9000   -2.4125    0.0000 O   0  0  0  0  0  0           0  0  0
    5.0417   -0.3500    0.0000 O   0  0  0  0  0  0           0  0  0
    0.7542   -0.3500    0.0000 C   0  0  3  0  0  0           0  0  0
    7.1875   -2.4125    0.0000 C   0  0  3  0  0  0           0  0  0
   -1.3833   -1.5875    0.0000 C   0  0  0  0  0  0           0  0  0
    9.3292   -1.1750    0.0000 C   0  0  0  0  0  0           0  0  0
    2.1875   -2.8250    0.0000 C   0  0  0  0  0  0           0  0  0
    5.7542    0.0625    0.0000 C   0  0  0  0  0  0           0  0  0
    7.9042   -2.8250    0.0000 C   0  0  0  0  0  0           0  0  0
    1.4667    0.0625    0.0000 C   0  0  0  0  0  0           0  0  0
    0.0417    0.0625    0.0000 C   0  0  0  0  0  0           0  0  0
    6.4750   -2.8250    0.0000 C   0  0  0  0  0  0           0  0  0
    2.1875   -3.6500    0.0000 C   0  0  0  0  0  0           0  0  0
    5.7542    0.8875    0.0000 C   0  0  0  0  0  0           0  0  0
    1.4667   -4.0625    0.0000 C   0  0  0  0  0  0           0  0  0
    6.4750    1.3000    0.0000 C   0  0  0  0  0  0           0  0  0
  2  3  1  0     0  0
  3  6  1  0     0  0
  4  1  1  0     0  0
  5  4  1  0     0  0
  6  5  1  0     0  0
  7  1  1  0     0  0
  8  2  1  0     0  0
  9  7  1  0     0  0
 10  8  1  0     0  0
 11  9  1  0     0  0
 12 10  1  0     0  0
 13  2  2  0     0  0
 14  1  2  0     0  0
 15 11  2  0     0  0
 16 12  2  0     0  0
 17 12  1  0     0  0
 18 11  1  0     0  0
  5 19  1  6     0  0
  6 20  1  6     0  0
  4 21  1  1     0  0
  3 22  1  1     0  0
  9 23  1  6     0  0
 10 24  1  6     0  0
 25 18  1  0     0  0
 26 17  1  0     0  0
 27 21  1  0     0  0
 28 22  1  0     0  0
 29 24  1  0     0  0
 30 23  1  0     0  0
 31 23  1  0     0  0
 32 24  1  0     0  0
 33 27  1  0     0  0
 34 28  1  0     0  0
 35 33  1  0     0  0
 36 34  1  0     0  0
M  END