
  SciTegic07101214422D

 21 23  0  0  0  0            999 V2000
    6.0736   -6.6500    0.0000 C   0  0
    6.0724   -7.4773    0.0000 C   0  0
    6.7872   -7.8902    0.0000 N   0  0
    7.5037   -7.4769    0.0000 C   0  0
    7.5008   -6.6463    0.0000 N   0  0
    6.7854   -6.2372    0.0000 N   0  0
    8.2188   -7.8882    0.0000 N   0  0
    5.3590   -6.2376    0.0000 C   0  0
    5.3576   -7.8893    0.0000 C   0  0
    5.3622   -5.4117    0.0000 C   0  0
    4.6485   -4.9994    0.0000 C   0  0
    3.9332   -5.4122    0.0000 C   0  0
    3.9360   -6.2414    0.0000 C   0  0
    4.6503   -6.6499    0.0000 C   0  0
    4.6451   -7.4748    0.0000 C   0  0
    3.9308   -7.8860    0.0000 C   0  0
    3.9297   -8.7119    0.0000 C   0  0
    4.6489   -9.1248    0.0000 C   0  0
    5.3602   -8.7112    0.0000 C   0  0
    4.6487   -4.1744    0.0000 Cl  0  0
    3.2180   -5.0008    0.0000 O   0  0
  2  3  1  0
 10 11  1  0
  5  6  2  0
 11 12  2  0
  6  1  1  0
 12 13  1  0
  1  2  2  0
 13 14  2  0
 14  8  1  0
  4  7  1  0
  9 15  2  0
  3  4  2  0
 15 16  1  0
  1  8  1  0
 16 17  2  0
 17 18  1  0
  2  9  1  0
 18 19  2  0
 19  9  1  0
  4  5  1  0
 11 20  1  0
  8 10  2  0
 12 21  1  0
M  END