
  SciTegic01161211252D

 27 30  0  0  0  0            999 V2000
    2.5923   -4.9248    0.0000 N   0  0
    3.3933   -4.7458    0.0000 C   0  0
    4.0392   -5.2621    0.0000 C   0  0
    2.2315   -5.6691    0.0000 C   0  0
    4.0409   -6.0857    0.0000 N   0  0
    2.5893   -6.4140    0.0000 C   0  0
    3.3949   -6.5965    0.0000 C   0  0
    4.7548   -6.4991    0.0000 C   0  0
    4.7528   -7.3241    0.0000 O   0  0
    5.4701   -6.0890    0.0000 C   0  0  2  0  0  0
    6.1405   -6.5641    0.0000 N   0  0
    6.8008   -6.0694    0.0000 C   0  0
    6.5343   -5.2886    0.0000 C   0  0  2  0  0  0
    5.7094   -5.3008    0.0000 C   0  0
    7.0095   -4.6140    0.0000 O   0  0
    6.6041   -3.8954    0.0000 C   0  0
    7.0254   -3.1882    0.0000 C   0  0
    6.6208   -2.4701    0.0000 C   0  0
    5.7950   -2.4614    0.0000 C   0  0
    5.3754   -3.1767    0.0000 C   0  0
    5.7825   -3.8919    0.0000 C   0  0
    2.0115   -4.3389    0.0000 C   0  0
    2.0157   -3.5128    0.0000 C   0  0
    1.1907   -3.5092    0.0000 C   0  0
    1.1871   -4.3342    0.0000 C   0  0
    7.0408   -1.7600    0.0000 C   0  0
    5.3887   -1.7434    0.0000 Cl  0  0
 12 13  1  0
 13 14  1  0
 14 10  1  0
  6  7  1  0
 13 15  1  6
  1  4  1  0
 15 16  1  0
  5  8  1  0
 16 17  2  0
 17 18  1  0
  8  9  2  0
 18 19  2  0
  3  5  1  0
 19 20  1  0
 10  8  1  1
 20 21  2  0
 21 16  1  0
 10 11  1  0
  1 22  1  0
 22 23  1  0
  2  3  1  0
  4  6  1  0
  1  2  1  0
 23 24  1  0
 24 25  1  0
 25 22  1  0
  5  7  1  0
 18 26  1  0
 11 12  1  0
 19 27  1  0
M  END