
  CDK    9/16/09,9:59

 20 21  0  0  0  0  0  0  0  0999 V2000
   -3.1850  -23.7264    0.0000 C   0  0  0  0  0  0  0  0  0  0  0  0
   -2.3867  -22.3248    0.0000 C   0  0  0  0  0  0  0  0  0  0  0  0
   -3.6270  -23.0316    0.0000 C   0  0  0  0  0  0  0  0  0  0  0  0
   -4.4521  -23.0273    0.0000 C   0  0  0  0  0  0  0  0  0  0  0  0
   -1.9703  -21.6130    0.0000 C   0  0  0  0  0  0  0  0  0  0  0  0
   -2.4485  -20.9435    0.0000 C   0  0  0  0  0  0  0  0  0  0  0  0
   -1.1801  -20.5363    0.0000 C   0  0  0  0  0  0  0  0  0  0  0  0
   -1.1842  -21.3625    0.0000 C   0  0  0  0  0  0  0  0  0  0  0  0
   -0.4714  -21.7779    0.0000 N   0  0  0  0  0  0  0  0  0  0  0  0
    0.2455  -21.3671    0.0000 C   0  0  0  0  0  0  0  0  0  0  0  0
   -0.4632  -20.1255    0.0000 C   0  0  0  0  0  0  0  0  0  0  0  0
   -0.4613  -19.3029    0.0000 O   0  0  0  0  0  0  0  0  0  0  0  0
   -3.6209  -21.6023    0.0000 C   0  0  0  0  0  0  0  0  0  0  0  0
   -3.2046  -20.8900    0.0000 C   0  0  0  0  0  0  0  0  0  0  0  0
   -3.6133  -20.1733    0.0000 O   0  0  0  0  0  0  0  0  0  0  0  0
   -3.2117  -22.3187    0.0000 N   0  0  0  0  0  0  0  0  0  0  0  0
   -3.5625  -24.4598    0.0000 O   0  0  0  0  0  0  0  0  0  0  0  0
   -4.8976  -22.3279    0.0000 O   0  0  0  0  0  0  0  0  0  0  0  0
   -1.9631  -20.2764    0.0000 N   0  0  0  0  0  0  0  0  0  0  0  0
    0.2488  -20.5421    0.0000 N   0  0  0  0  0  0  0  0  0  0  0  0
  5  8  1  0  0  0  0 
  6  5  2  0  0  0  0 
  7  8  2  0  0  0  0 
  8  9  1  0  0  0  0 
  9 10  2  0  0  0  0 
 11  7  1  0  0  0  0 
 11 12  2  0  0  0  0 
 13 14  1  0  0  0  0 
 14 15  1  0  0  0  0 
  3  1  1  0  0  0  0 
  3  4  1  0  0  0  0 
  2  5  1  0  0  0  0 
 16 13  1  0  0  0  0 
  2 16  1  0  0  0  0 
 16  3  1  0  0  0  0 
  4 18  1  0  0  0  0 
  7 19  1  0  0  0  0 
 19  6  1  0  0  0  0 
  1 17  1  0  0  0  0 
 10 20  1  0  0  0  0 
 20 11  1  0  0  0  0 
M  END