
  SciTegic01181116592D

 29 31  0  0  0  0            999 V2000
    8.9965  -20.8529    0.0000 C   0  0
    9.8197  -20.8541    0.0000 N   0  0
   10.2306  -20.1429    0.0000 C   0  0
    9.8192  -19.4299    0.0000 C   0  0
    8.9929  -19.4328    0.0000 C   0  0
    8.5857  -20.1447    0.0000 N   0  0
    8.5776  -18.7199    0.0000 N   0  0
    7.7526  -18.7230    0.0000 C   0  0
    7.3412  -18.0073    0.0000 C   0  0
    6.5170  -18.0100    0.0000 C   0  0
    6.1064  -18.7267    0.0000 C   0  0
    6.5260  -19.4420    0.0000 C   0  0
    7.3488  -19.4357    0.0000 C   0  0
    5.2813  -18.7309    0.0000 O   0  0
    4.8651  -18.0184    0.0000 C   0  0
    4.0401  -18.0226    0.0000 F   0  0
    5.2740  -17.3019    0.0000 F   0  0
    4.4461  -17.3013    0.0000 F   0  0
   11.0518  -20.1405    0.0000 C   0  0
   11.4635  -20.8568    0.0000 C   0  0
   12.2878  -20.8573    0.0000 C   0  0
   12.7013  -20.1424    0.0000 C   0  0
   12.2845  -19.4254    0.0000 C   0  0
   11.4616  -19.4283    0.0000 C   0  0
   13.5264  -20.1415    0.0000 N   0  0
   13.9397  -20.8555    0.0000 S   0  0
   13.5280  -21.5705    0.0000 C   0  0
   14.6511  -20.4348    0.0000 O   0  0
   14.6511  -21.2641    0.0000 O   0  0
 11 14  1  0
  5  7  1  0
 14 15  1  0
  3  4  2  0
 15 16  1  0
  7  8  1  0
 15 17  1  0
 15 18  1  0
  8  9  2  0
  4  5  1  0
 19 20  2  0
  9 10  1  0
 20 21  1  0
  2  3  1  0
 21 22  2  0
 10 11  2  0
 22 23  1  0
  5  6  2  0
 23 24  2  0
 24 19  1  0
  3 19  1  0
 11 12  1  0
 22 25  1  0
  6  1  1  0
 25 26  1  0
 12 13  2  0
 26 27  1  0
 13  8  1  0
 26 28  2  0
  1  2  2  0
 26 29  2  0
M  END