
  SciTegic12231509382D

 22 24  0  0  0  0            999 V2000
   15.2994   -0.6053    0.0000 N   0  0
   16.0090   -0.1958    0.0000 C   0  0
   16.0062    0.6278    0.0000 N   0  0
   15.2976    1.0398    0.0000 C   0  0
   14.5913   -0.1963    0.0000 C   0  0
   14.5880    0.6262    0.0000 C   0  0
   13.8104    0.8723    0.0000 N   0  0
   13.3331    0.2141    0.0000 C   0  0
   13.8158   -0.4517    0.0000 N   0  0
   15.2949    1.8570    0.0000 Cl  0  0
   16.7174   -0.6033    0.0000 N   0  0
   13.5664   -1.2299    0.0000 C   0  0
   12.7678   -1.4030    0.0000 C   0  0
   12.2241   -0.7967    0.0000 N   0  0
   11.4262   -0.9693    0.0000 C   0  0
   11.1761   -1.7482    0.0000 C   0  0
   11.7302   -2.3547    0.0000 C   0  0
   12.5261   -2.1789    0.0000 C   0  0
   13.0789   -2.7807    0.0000 C   0  0
   10.3777   -1.9225    0.0000 C   0  0
   11.4835   -3.1338    0.0000 O   0  0
   10.6855   -3.3097    0.0000 C   0  0
  5  1  1  0
  1  2  2  0
  2  3  1  0
  3  4  2  0
  4  6  1  0
  5  6  2  0
  6  7  1  0
  7  8  2  0
  8  9  1  0
  9  5  1  0
  4 10  1  0
  2 11  1  0
  9 12  1  0
 12 13  1  0
 13 14  2  0
 14 15  1  0
 15 16  2  0
 16 17  1  0
 17 18  2  0
 18 13  1  0
 18 19  1  0
 16 20  1  0
 17 21  1  0
 21 22  1  0
M  END