
          11280714462D 1   1.00000     0.00000     0

 29 31  0     0  0            999 V2000
    1.5625   -3.1250    0.0000 N   0  0  3  0  0  0           0  0  0
    1.8250   -2.5875    0.0000 C   0  0  0  0  0  0           0  0  0
    0.9750   -3.0167    0.0000 C   0  0  0  0  0  0           0  0  0
    1.3000   -2.2875    0.0000 C   0  0  0  0  0  0           0  0  0
    0.6875   -3.5417    0.0000 N   0  0  0  0  0  0           0  0  0
    1.3000   -1.6750    0.0000 C   0  0  0  0  0  0           0  0  0
    1.6375   -3.7250    0.0000 C   0  0  0  0  0  0           0  0  0
    1.8250   -1.3667    0.0000 O   0  0  0  0  0  0           0  0  0
    1.1000   -3.9750    0.0000 C   0  0  0  0  0  0           0  0  0
    2.3500   -2.2792    0.0000 C   0  0  0  0  0  0           0  0  0
    0.7750   -1.3750    0.0000 C   0  0  0  0  0  0           0  0  0
    3.9625   -1.9250    0.0000 N   0  0  0  0  0  0           0  0  0
    4.3167   -2.4125    0.0000 C   0  0  3  0  0  0           0  0  0
    2.3500   -1.6667    0.0000 C   0  0  0  0  0  0           0  0  0
    2.9292   -1.5125    0.0000 C   0  0  3  0  0  0           0  0  0
    3.3625   -1.9250    0.0000 C   0  0  0  0  0  0           0  0  0
    0.7750   -2.5875    0.0000 C   0  0  0  0  0  0           0  0  0
    0.7750   -0.7750    0.0000 O   0  0  0  0  0  0           0  0  0
    3.0750   -0.9250    0.0000 O   0  0  0  0  0  0           0  0  0
    2.1250   -4.0625    0.0000 C   0  0  0  0  0  0           0  0  0
    0.2542   -2.2875    0.0000 C   0  0  0  0  0  0           0  0  0
    0.2542   -1.6792    0.0000 C   0  0  0  0  0  0           0  0  0
    1.0500   -4.5750    0.0000 C   0  0  0  0  0  0           0  0  0
    4.9167   -2.3500    0.0000 C   0  0  0  0  0  0           0  0  0
    4.7875   -2.7875    0.0000 C   0  0  0  0  0  0           0  0  0
    4.0750   -2.9625    0.0000 C   0  0  0  0  0  0           0  0  0
    1.2917   -0.4750    0.0000 C   0  0  0  0  0  0           0  0  0
    2.0792   -4.6542    0.0000 C   0  0  0  0  0  0           0  0  0
    1.5375   -4.9125    0.0000 C   0  0  0  0  0  0           0  0  0
  2  1  1  0     0  0
  3  1  1  0     0  0
  4  2  1  0     0  0
  5  3  2  0     0  0
  6  4  1  0     0  0
  7  1  1  0     0  0
  8  6  1  0     0  0
  9  7  2  0     0  0
 10  2  2  0     0  0
 11  6  2  0     0  0
 12 16  1  0     0  0
 13 12  1  0     0  0
 14  8  1  0     0  0
 15 14  1  0     0  0
 16 15  1  0     0  0
 17  4  2  0     0  0
 18 11  1  0     0  0
 19 15  1  0     0  0
 20  7  1  0     0  0
 21 17  1  0     0  0
 22 21  2  0     0  0
 23  9  1  0     0  0
 24 13  1  0     0  0
 25 13  1  0     0  0
 26 13  1  0     0  0
 27 18  1  0     0  0
 28 20  2  0     0  0
 29 28  1  0     0  0
  9  5  1  0     0  0
 29 23  2  0     0  0
 22 11  1  0     0  0
M  END