
  CDK    9/16/09,10:2

 24 26  0  0  0  0  0  0  0  0999 V2000
   -4.5478   -3.4274    0.0000 C   0  0  0  0  0  0  0  0  0  0  0  0
   -4.9647   -4.1381    0.0000 C   0  0  0  0  0  0  0  0  0  0  0  0
   -4.5578   -4.8524    0.0000 C   0  0  0  0  0  0  0  0  0  0  0  0
   -3.7340   -4.8572    0.0000 C   0  0  0  0  0  0  0  0  0  0  0  0
   -3.3189   -4.1418    0.0000 C   0  0  0  0  0  0  0  0  0  0  0  0
   -3.7282   -3.4304    0.0000 C   0  0  0  0  0  0  0  0  0  0  0  0
   -3.3289   -5.5733    0.0000 C   0  0  0  0  0  0  0  0  0  0  0  0
   -3.5768   -6.3606    0.0000 N   0  0  0  0  0  0  0  0  0  0  0  0
   -2.9047   -6.8397    0.0000 N   0  0  0  0  0  0  0  0  0  0  0  0
   -2.2414   -6.3486    0.0000 S   0  0  0  0  0  0  0  0  0  0  0  0
   -2.5036   -5.5659    0.0000 C   0  0  0  0  0  0  0  0  0  0  0  0
   -2.0287   -4.8962    0.0000 C   0  0  0  0  0  0  0  0  0  0  0  0
   -1.2024   -4.9152    0.0000 C   0  0  0  0  0  0  0  0  0  0  0  0
   -0.7746   -4.2102    0.0000 C   0  0  0  0  0  0  0  0  0  0  0  0
   -1.1720   -3.4858    0.0000 C   0  0  0  0  0  0  0  0  0  0  0  0
   -2.0015   -3.4707    0.0000 C   0  0  0  0  0  0  0  0  0  0  0  0
   -2.4256   -4.1764    0.0000 C   0  0  0  0  0  0  0  0  0  0  0  0
   -0.7452   -2.7793    0.0000 O   0  0  0  0  0  0  0  0  0  0  0  0
    0.0801   -2.7958    0.0000 C   0  0  0  0  0  0  0  0  0  0  0  0
   -4.9746   -5.5648    0.0000 O   0  0  0  0  0  0  0  0  0  0  0  0
   -4.9566   -2.7104    0.0000 O   0  0  0  0  0  0  0  0  0  0  0  0
   -3.3137   -2.7167    0.0000 C   0  0  0  0  0  0  0  0  0  0  0  0
   -3.7246   -2.0007    0.0000 C   0  0  0  0  0  0  0  0  0  0  0  0
    0.4784   -3.5188    0.0000 C   0  0  0  0  0  0  0  0  0  0  0  0
  5  6  2  0  0  0  0 
  6  1  1  0  0  0  0 
 12 13  2  0  0  0  0 
  7  8  1  0  0  0  0 
 13 14  1  0  0  0  0 
  1  2  2  0  0  0  0 
 14 15  2  0  0  0  0 
  3  4  2  0  0  0  0 
 15 16  1  0  0  0  0 
 16 17  2  0  0  0  0 
 17 12  1  0  0  0  0 
 11 12  1  0  0  0  0 
  4  5  1  0  0  0  0 
 15 18  1  0  0  0  0 
  2  3  1  0  0  0  0 
 18 19  1  0  0  0  0 
  8  9  2  0  0  0  0 
  3 20  1  0  0  0  0 
  9 10  1  0  0  0  0 
  1 21  1  0  0  0  0 
 10 11  1  0  0  0  0 
  6 22  1  0  0  0  0 
 11  7  2  0  0  0  0 
 22 23  1  0  0  0  0 
  4  7  1  0  0  0  0 
 19 24  1  0  0  0  0 
M  END