
  SciTegic02101213002D

 20 22  0  0  0  0            999 V2000
   -2.8810    1.2491    0.0000 F   0  0
   -2.5791    0.1221    0.0000 F   0  0
   -1.7541    1.5511    0.0000 F   0  0
   -0.7376    0.8366    0.0000 N   0  0
   -0.7376   -1.6384    0.0000 N   0  0
   -0.7376   -3.2884    0.0000 N   0  0
   -0.7376   -0.8134    0.0000 C   0  0
   -0.0232   -0.4009    0.0000 C   0  0
   -1.4521    0.4241    0.0000 C   0  0
   -0.0232    0.4241    0.0000 C   0  0
   -1.4521   -0.4009    0.0000 C   0  0
   -2.1666    0.8366    0.0000 C   0  0
    0.6913   -0.8134    0.0000 C   0  0
    0.6913    0.8366    0.0000 C   0  0
   -0.0232   -2.0509    0.0000 C   0  0
   -1.4521   -2.0509    0.0000 C   0  0
    1.4058   -0.4009    0.0000 C   0  0
    1.4058    0.4241    0.0000 C   0  0
   -0.0232   -2.8759    0.0000 C   0  0
   -1.4521   -2.8759    0.0000 C   0  0
  1 12  1  0
  2 12  1  0
  3 12  1  0
  4  9  1  0
  4 10  2  0
  5  7  1  0
  5 15  1  0
  5 16  1  0
  6 19  1  0
  6 20  1  0
  7  8  2  0
  7 11  1  0
  8 10  1  0
  8 13  1  0
  9 11  2  0
  9 12  1  0
 10 14  1  0
 13 17  2  0
 14 18  2  0
 15 19  1  0
 16 20  1  0
 17 18  1  0
M  END