
  SciTegic05071317012D

 24 25  0  0  0  0            999 V2000
   14.2740  -21.6164    0.0000 C   0  0  1  0  0  0
   14.9304  -22.1161    0.0000 O   0  0
   15.6085  -21.6462    0.0000 C   0  0  1  0  0  0
   15.3713  -20.8561    0.0000 C   0  0
   14.5465  -20.8377    0.0000 O   0  0
   16.3873  -21.9187    0.0000 C   0  0
   16.5407  -22.7293    0.0000 N   0  3
   17.3193  -23.0018    0.0000 C   0  0
   15.9153  -23.2675    0.0000 C   0  0
   16.5335  -23.5503    0.0000 C   0  0
   13.5595  -22.0268    0.0000 C   0  0
   12.8457  -21.6130    0.0000 C   0  0
   12.8498  -20.7872    0.0000 C   0  0
   12.1369  -20.3735    0.0000 C   0  0
   11.4207  -20.7848    0.0000 C   0  0
   11.4220  -21.6140    0.0000 C   0  0
   12.1354  -22.0240    0.0000 C   0  0
   13.5588  -22.8503    0.0000 C   0  0
   12.8419  -23.2608    0.0000 C   0  0
   12.8400  -24.0851    0.0000 C   0  0
   13.5542  -24.4998    0.0000 C   0  0
   14.2719  -24.0843    0.0000 C   0  0
   14.2702  -23.2614    0.0000 C   0  0
   17.7710  -21.4253    0.0000 I   0  5
  1  2  1  0
  2  3  1  0
  3  4  1  0
  4  5  1  0
  5  1  1  0
  3  6  1  1
  6  7  1  0
  7  8  1  0
  7  9  1  0
  7 10  1  0
  1 11  1  6
 11 12  1  0
 12 13  2  0
 13 14  1  0
 14 15  2  0
 15 16  1  0
 16 17  2  0
 17 12  1  0
 18 19  2  0
 19 20  1  0
 20 21  2  0
 21 22  1  0
 22 23  2  0
 23 18  1  0
 11 18  1  0
M  CHG  2   7   1  24  -1
M  END