
          11280714552D 1   1.00000     0.00000     0

 34 38  0     0  0            999 V2000
    0.6417    0.3333    0.0000 N   0  0  3  0  0  0           0  0  0
    1.4292    0.6125    0.0000 C   0  0  0  0  0  0           0  0  0
    0.5917    1.6708    0.0000 N   0  0  0  0  0  0           0  0  0
    1.3875    1.4458    0.0000 C   0  0  0  0  0  0           0  0  0
    0.1375    0.9833    0.0000 C   0  0  0  0  0  0           0  0  0
    3.7167   -2.9125    0.0000 C   0  0  0  0  0  0           0  0  0
    4.7167   -2.0292    0.0000 N   0  0  0  0  0  0           0  0  0
    3.9000   -2.1042    0.0000 N   0  0  0  0  0  0           0  0  0
    5.0417   -2.7875    0.0000 N   0  0  0  0  0  0           0  0  0
    4.4292   -3.3292    0.0000 N   0  0  0  0  0  0           0  0  0
    2.9542   -3.2417    0.0000 C   0  0  0  0  0  0           0  0  0
    2.1417   -3.2667    0.0000 C   0  0  0  0  0  0           0  0  0
    2.1000    0.1333    0.0000 C   0  0  0  0  0  0           0  0  0
    0.4167   -0.4542    0.0000 C   0  0  0  0  0  0           0  0  0
    1.7042   -2.5625    0.0000 C   0  0  0  0  0  0           0  0  0
    1.9542   -0.6792    0.0000 O   0  0  0  0  0  0           0  0  0
    2.1042   -1.8292    0.0000 C   0  0  0  0  0  0           0  0  0
    0.8792   -2.5792    0.0000 C   0  0  0  0  0  0           0  0  0
    0.8500   -1.1542    0.0000 C   0  0  0  0  0  0           0  0  0
    2.0042    1.9833    0.0000 C   0  0  0  0  0  0           0  0  0
   -0.6875    0.9500    0.0000 C   0  0  0  0  0  0           0  0  0
    1.6667   -1.1292    0.0000 C   0  0  0  0  0  0           0  0  0
    0.4542   -1.8792    0.0000 C   0  0  0  0  0  0           0  0  0
    3.3917   -3.9417    0.0000 C   0  0  0  0  0  0           0  0  0
    1.7417   -3.9875    0.0000 C   0  0  0  0  0  0           0  0  0
    2.8917    0.3583    0.0000 C   0  0  0  0  0  0           0  0  0
   -1.1250    1.6500    0.0000 C   0  0  0  0  0  0           0  0  0
    2.8167    1.8375    0.0000 C   0  0  0  0  0  0           0  0  0
   -2.3875    2.3208    0.0000 C   0  0  0  0  0  0           0  0  0
   -1.9500    1.6208    0.0000 C   0  0  0  0  0  0           0  0  0
    2.1750   -4.6917    0.0000 C   0  0  0  0  0  0           0  0  0
    3.0000   -4.6667    0.0000 C   0  0  0  0  0  0           0  0  0
    3.2042    1.1208    0.0000 C   0  0  0  0  0  0           0  0  0
   -3.2125    2.2833    0.0000 C   0  0  0  0  0  0           0  0  0
  2  1  1  0     0  0
  3  5  2  0     0  0
  4  2  2  0     0  0
  5  1  1  0     0  0
  6 11  1  0     0  0
  7  8  2  0     0  0
  8  6  1  0     0  0
  9 10  1  0     0  0
 10  6  2  0     0  0
 11 12  2  0     0  0
 12 15  1  0     0  0
 13  2  1  0     0  0
 14  1  1  0     0  0
 15 18  2  0     0  0
 16 13  2  0     0  0
 17 22  2  0     0  0
 18 23  1  0     0  0
 19 14  1  0     0  0
 20  4  1  0     0  0
 21  5  1  0     0  0
 22 19  1  0     0  0
 23 19  2  0     0  0
 24 11  1  0     0  0
 25 12  1  0     0  0
 26 13  1  0     0  0
 27 21  1  0     0  0
 28 20  1  0     0  0
 29 30  1  0     0  0
 30 27  1  0     0  0
 31 25  2  0     0  0
 32 31  1  0     0  0
 33 26  1  0     0  0
 34 29  1  0     0  0
  4  3  1  0     0  0
 15 17  1  0     0  0
 28 33  1  0     0  0
 24 32  2  0     0  0
  9  7  1  0     0  0
M  END