
  Mrv0541 05211314572D          

 32 32  0  0  0  0            999 V2000
   -4.5841   -0.8033    0.0000 C   0  0  0  0  0  0  0  0  0  0  0  0
   -4.6704   -1.6237    0.0000 N   0  0  0  0  0  0  0  0  0  0  0  0
   -5.3378   -0.4677    0.0000 N   0  0  0  0  0  0  0  0  0  0  0  0
   -5.8899   -1.0808    0.0000 C   0  0  0  0  0  0  0  0  0  0  0  0
   -3.8697   -0.3908    0.0000 C   0  0  0  0  0  0  0  0  0  0  0  0
    4.7040    0.4342    0.0000 C   0  0  0  0  0  0  0  0  0  0  0  0
   -5.4774   -1.7953    0.0000 C   0  0  0  0  0  0  0  0  0  0  0  0
    4.7040   -0.3908    0.0000 C   0  0  0  0  0  0  0  0  0  0  0  0
    3.9895    0.8467    0.0000 C   0  0  0  0  0  0  0  0  0  0  0  0
   -3.8697    0.4342    0.0000 C   0  0  0  0  0  0  0  0  0  0  0  0
   -3.1552   -0.8033    0.0000 C   0  0  0  0  0  0  0  0  0  0  0  0
    3.9895   -0.8033    0.0000 C   0  0  0  0  0  0  0  0  0  0  0  0
   -1.7263    0.8467    0.0000 O   0  0  0  0  0  0  0  0  0  0  0  0
   -2.4407    0.4342    0.0000 C   0  0  0  0  0  0  0  0  0  0  0  0
    3.2750    0.4342    0.0000 C   0  0  0  0  0  0  0  0  0  0  0  0
   -0.2973    0.8467    0.0000 C   0  0  0  0  0  0  0  0  0  0  0  0
   -1.0118    0.4342    0.0000 C   0  0  0  0  0  0  0  0  0  0  0  0
   -3.1552    0.8467    0.0000 C   0  0  0  0  0  0  0  0  0  0  0  0
   -2.4407   -0.3908    0.0000 C   0  0  0  0  0  0  0  0  0  0  0  0
    3.2750   -0.3908    0.0000 C   0  0  0  0  0  0  0  0  0  0  0  0
    5.4184    0.8467    0.0000 O   0  0  0  0  0  0  0  0  0  0  0  0
    1.1316    0.8467    0.0000 N   0  0  0  0  0  0  0  0  0  0  0  0
    8.3722    0.0000    0.0000 Cl  0  0  0  0  0  0  0  0  0  0  0  0
    0.0000   -3.8258    0.0000 Cl  0  0  0  0  0  0  0  0  0  0  0  0
    5.4184   -0.8033    0.0000 O   0  0  0  0  0  0  0  0  0  0  0  0
   -4.0573   -2.1758    0.0000 C   0  0  0  0  0  0  0  0  0  0  0  0
   -0.2973    1.6717    0.0000 O   0  0  0  0  0  0  0  0  0  0  0  0
    0.4172    0.4342    0.0000 C   0  0  0  0  0  0  0  0  0  0  0  0
    1.8461    0.4342    0.0000 C   0  0  0  0  0  0  0  0  0  0  0  0
    2.5606    0.8467    0.0000 C   0  0  0  0  0  0  0  0  0  0  0  0
    5.4184    1.6717    0.0000 C   0  0  0  0  0  0  0  0  0  0  0  0
    6.1329   -0.3908    0.0000 C   0  0  0  0  0  0  0  0  0  0  0  0
  1  2  1  0  0  0  0
  1  3  2  0  0  0  0
  3  4  1  0  0  0  0
  1  5  1  0  0  0  0
  2  7  1  0  0  0  0
  4  7  2  0  0  0  0
  6  8  2  0  0  0  0
  6  9  1  0  0  0  0
  5 10  1  0  0  0  0
  5 11  2  0  0  0  0
  8 12  1  0  0  0  0
 13 14  1  0  0  0  0
  9 15  2  0  0  0  0
 13 17  1  0  0  0  0
 16 17  1  0  0  0  0
 10 18  2  0  0  0  0
 14 18  1  0  0  0  0
 11 19  1  0  0  0  0
 14 19  2  0  0  0  0
 12 20  2  0  0  0  0
 15 20  1  0  0  0  0
  6 21  1  0  0  0  0
  8 25  1  0  0  0  0
  2 26  1  0  0  0  0
 16 27  1  0  0  0  0
 16 28  1  0  0  0  0
 22 28  1  0  0  0  0
 22 29  1  0  0  0  0
 15 30  1  0  0  0  0
 29 30  1  0  0  0  0
 21 31  1  0  0  0  0
 25 32  1  0  0  0  0
M  END