
  SciTegic09261414532D

 39 44  0  0  0  0            999 V2000
   22.4342   -4.2924    0.0000 C   0  0
   22.4331   -3.4687    0.0000 C   0  0
   23.1411   -3.0597    0.0000 C   0  0
   23.1393   -4.7053    0.0000 C   0  0
   23.8521   -4.2960    0.0000 C   0  0
   23.8568   -3.4732    0.0000 C   0  0
   24.6410   -3.2248    0.0000 N   0  0
   25.1225   -3.8940    0.0000 C   0  0
   24.6333   -4.5534    0.0000 N   0  0
   24.9022   -2.4449    0.0000 C   0  0
   24.3548   -1.8303    0.0000 C   0  0
   25.9418   -3.8993    0.0000 C   0  0
   26.4171   -4.5684    0.0000 C   0  0
   27.1982   -4.3174    0.0000 N   0  0
   27.2035   -3.4980    0.0000 C   0  0
   26.4257   -3.2412    0.0000 C   0  0
   27.8702   -3.0234    0.0000 C   0  0
   28.6192   -3.3623    0.0000 C   0  0
   29.2871   -2.8828    0.0000 C   0  0
   29.2073   -2.0645    0.0000 C   0  0
   28.4538   -1.7280    0.0000 C   0  0
   27.7890   -2.2095    0.0000 C   0  0
   26.1590   -5.3437    0.0000 C   0  0
   25.3544   -5.5121    0.0000 C   0  0
   26.7056   -5.9590    0.0000 C   0  0
   27.8603   -4.8061    0.0000 C   0  0
   28.6131   -4.4745    0.0000 C   0  0
   29.2752   -4.9633    0.0000 C   0  0
   30.0280   -4.6357    0.0000 N   0  0
   30.7330   -5.0507    0.0000 C   0  0
   31.3439   -4.5037    0.0000 N   0  0
   31.0163   -3.7550    0.0000 C   0  0
   30.1990   -3.8352    0.0000 C   0  0
   30.8113   -5.8682    0.0000 C   0  0
   24.6154   -1.0483    0.0000 C   0  0
   24.0729   -0.4341    0.0000 C   0  0
   23.2676   -0.6032    0.0000 C   0  0
   23.0076   -1.3879    0.0000 C   0  0
   23.5559   -1.9947    0.0000 C   0  0
  1  2  2  0
  2  3  1  0
  3  6  2  0
  5  4  2  0
  4  1  1  0
  5  6  1  0
  6  7  1  0
  7  8  1  0
  8  9  2  0
  9  5  1  0
  7 10  1  0
 10 11  1  0
  8 12  1  0
 12 13  2  0
 13 14  1  0
 14 15  1  0
 15 16  2  0
 16 12  1  0
 17 18  2  0
 18 19  1  0
 19 20  2  0
 20 21  1  0
 21 22  2  0
 22 17  1  0
 15 17  1  0
 13 23  1  0
 23 24  1  0
 23 25  1  0
 14 26  1  0
 26 27  1  0
 27 28  1  0
 28 29  1  0
 29 30  1  0
 30 31  2  0
 31 32  1  0
 32 33  2  0
 33 29  1  0
 30 34  1  0
 11 35  2  0
 35 36  1  0
 36 37  2  0
 37 38  1  0
 38 39  2  0
 39 11  1  0
M  END