
  SciTegic01161211252D

 23 23  0  0  0  0            999 V2000
    5.0375   -1.2042    0.0000 C   0  0
    5.9667   -1.4042    0.0000 C   0  0
    5.2417   -2.8292    0.0000 S   0  0
    6.9042   -2.4917    0.0000 S   0  0
    6.3042   -0.6375    0.0000 C   0  0
    4.4292   -1.5125    0.0000 C   0  0
    5.6625   -0.9417    0.0000 O   0  0
    5.0292   -2.0292    0.0000 O   0  0
    6.1250   -2.2167    0.0000 O   0  0
    4.7625   -0.7375    0.0000 C   0  0
    7.7042   -2.7000    0.0000 O   0  0
    5.4542   -3.6292    0.0000 O   0  0
    6.6917   -3.2875    0.0000 O   0  0
    6.0000   -2.8167    0.0000 O   0  0
    7.1167   -1.6792    0.0000 O   0  0
    4.4417   -3.0417    0.0000 O   0  0
    2.9917   -2.3250    0.0000 C   0  0
    2.2667   -2.7292    0.0000 C   0  0
    4.4292   -2.3417    0.0000 O   0  0
    6.8792   -0.0417    0.0000 O   0  0
    3.9542   -0.9500    0.0000 C   0  0
    3.7042   -2.7500    0.0000 C   0  0
    6.6500    0.7583    0.0000 C   0  0
  2  1  1  0
  3  8  1  0
  4  9  1  0
  5  2  1  0
  6  1  1  0
  7 10  1  0
  8  1  1  0
  9  2  1  0
 10  6  1  0
 11  4  1  0
 12  3  1  0
 13  4  2  0
 14  3  2  0
 15  4  2  0
 16  3  2  0
 17 22  1  0
 18 17  2  0
 19  6  1  0
 20  5  1  0
 21 10  1  0
 22 19  1  0
 23 20  1  0
  7  5  1  0
M  END