
  CDK    12/20/10,14:45

 56 57  0  0  0  0  0  0  0  0999 V2000
   -1.0875   -7.4958    0.0000 C   0  0  0  0  0  0  0  0  0  0  0  0
    8.9000   -7.5292    0.0000 C   0  0  0  0  0  0  0  0  0  0  0  0
    8.1833   -7.9333    0.0000 C   0  0  0  0  0  0  0  0  0  0  0  0
   -1.0875   -6.6708    0.0000 C   0  0  0  0  0  0  0  0  0  0  0  0
    0.3375   -7.4958    0.0000 C   0  0  0  0  0  0  0  0  0  0  0  0
    8.1917   -6.2833    0.0000 C   0  0  0  0  0  0  0  0  0  0  0  0
    8.9083   -6.7042    0.0000 C   0  0  0  0  0  0  0  0  0  0  0  0
   -0.3750   -7.9042    0.0000 C   0  0  0  0  0  0  0  0  0  0  0  0
   -0.3750   -6.2542    0.0000 C   0  0  0  0  0  0  0  0  0  0  0  0
    7.4750   -7.5208    0.0000 C   0  0  0  0  0  0  0  0  0  0  0  0
    7.4833   -6.6917    0.0000 C   0  0  0  0  0  0  0  0  0  0  0  0
    0.3375   -6.6708    0.0000 C   0  0  0  0  0  0  0  0  0  0  0  0
    8.9125   -5.0500    0.0000 P   0  0  0  0  0  0  0  0  0  0  0  0
    7.4625   -9.1667    0.0000 P   0  0  0  0  0  0  0  0  0  0  0  0
   -2.5125   -7.4958    0.0000 P   0  0  0  0  0  0  0  0  0  0  0  0
    1.0500   -8.7333    0.0000 P   0  0  0  0  0  0  0  0  0  0  0  0
   -1.8042   -5.4333    0.0000 P   0  0  0  0  0  0  0  0  0  0  0  0
   10.3292   -7.5375    0.0000 P   0  0  0  0  0  0  0  0  0  0  0  0
    8.1792   -8.7583    0.0000 O   0  0  0  0  0  0  0  0  0  0  0  0
   -1.8042   -6.2583    0.0000 O   0  0  0  0  0  0  0  0  0  0  0  0
   -1.8000   -7.9083    0.0000 O   0  0  0  0  0  0  0  0  0  0  0  0
    1.0500   -7.9083    0.0000 O   0  0  0  0  0  0  0  0  0  0  0  0
    8.1958   -5.4583    0.0000 O   0  0  0  0  0  0  0  0  0  0  0  0
    9.6125   -7.9458    0.0000 O   0  0  0  0  0  0  0  0  0  0  0  0
    3.9083   -6.2667    0.0000 C   0  0  0  0  0  0  0  0  0  0  0  0
   -3.2250   -7.9083    0.0000 O   0  0  0  0  0  0  0  0  0  0  0  0
    6.7500   -8.7500    0.0000 O   0  0  0  0  0  0  0  0  0  0  0  0
    9.6250   -5.4667    0.0000 O   0  0  0  0  0  0  0  0  0  0  0  0
   -1.0917   -5.0208    0.0000 O   0  0  0  0  0  0  0  0  0  0  0  0
    0.3333   -9.1458    0.0000 O   0  0  0  0  0  0  0  0  0  0  0  0
    3.9125   -5.4417    0.0000 O   0  0  0  0  0  0  0  0  0  0  0  0
    4.6250   -6.6833    0.0000 N   0  0  0  0  0  0  0  0  0  0  0  0
    3.1958   -6.6792    0.0000 N   0  0  0  0  0  0  0  0  0  0  0  0
    1.8750   -8.7583    0.0000 O   0  0  0  0  0  0  0  0  0  0  0  0
   -2.0958   -6.7833    0.0000 O   0  0  0  0  0  0  0  0  0  0  0  0
   -2.2167   -4.7167    0.0000 O   0  0  0  0  0  0  0  0  0  0  0  0
    8.4958   -4.3375    0.0000 O   0  0  0  0  0  0  0  0  0  0  0  0
    1.4417   -9.4583    0.0000 O   0  0  0  0  0  0  0  0  0  0  0  0
    9.3250   -4.3333    0.0000 O   0  0  0  0  0  0  0  0  0  0  0  0
    7.0500   -9.8833    0.0000 O   0  0  0  0  0  0  0  0  0  0  0  0
    7.8750   -9.8833    0.0000 O   0  0  0  0  0  0  0  0  0  0  0  0
   -2.6292   -5.4333    0.0000 O   0  0  0  0  0  0  0  0  0  0  0  0
   -2.9208   -6.7792    0.0000 O   0  0  0  0  0  0  0  0  0  0  0  0
   -0.3750   -8.7292    0.0000 O   0  0  0  0  0  0  0  0  0  0  0  0
    9.6250   -6.2958    0.0000 O   0  0  0  0  0  0  0  0  0  0  0  0
   -0.3750   -5.4292    0.0000 O   0  0  0  0  0  0  0  0  0  0  0  0
    6.7583   -7.9292    0.0000 O   0  0  0  0  0  0  0  0  0  0  0  0
    1.0542   -6.2583    0.0000 O   0  0  0  0  0  0  0  0  0  0  0  0
    6.7667   -6.2750    0.0000 O   0  0  0  0  0  0  0  0  0  0  0  0
   10.7750   -6.8417    0.0000 O   0  0  0  0  0  0  0  0  0  0  0  0
   11.0417   -7.9542    0.0000 O   0  0  0  0  0  0  0  0  0  0  0  0
    9.9500   -6.8042    0.0000 O   0  0  0  0  0  0  0  0  0  0  0  0
    2.4833   -6.2625    0.0000 C   0  0  0  0  0  0  0  0  0  0  0  0
    5.3375   -6.2708    0.0000 C   0  0  0  0  0  0  0  0  0  0  0  0
    1.7667   -6.6750    0.0000 C   0  0  0  0  0  0  0  0  0  0  0  0
    6.0542   -6.6875    0.0000 C   0  0  0  0  0  0  0  0  0  0  0  0
  2  7  1  0  0  0  0 
  3 10  1  0  0  0  0 
  4  1  1  0  0  0  0 
  5  8  1  0  0  0  0 
  6 11  1  0  0  0  0 
  7  6  1  0  0  0  0 
  8  1  1  0  0  0  0 
  9  4  1  0  0  0  0 
 10 11  1  0  0  0  0 
 11 49  1  1  0  0  0 
 12  5  1  0  0  0  0 
 13 23  1  0  0  0  0 
 14 19  1  0  0  0  0 
 15 21  1  0  0  0  0 
 16 22  1  0  0  0  0 
 17 20  1  0  0  0  0 
 18 24  1  0  0  0  0 
  3 19  1  6  0  0  0 
  4 20  1  6  0  0  0 
  1 21  1  1  0  0  0 
  5 22  1  1  0  0  0 
  6 23  1  1  0  0  0 
  2 24  1  1  0  0  0 
 25 33  1  0  0  0  0 
 26 15  2  0  0  0  0 
 27 14  2  0  0  0  0 
 28 13  2  0  0  0  0 
 29 17  2  0  0  0  0 
 30 16  2  0  0  0  0 
 31 25  2  0  0  0  0 
 32 25  1  0  0  0  0 
 33 53  1  0  0  0  0 
 34 16  1  0  0  0  0 
 35 15  1  0  0  0  0 
 36 17  1  0  0  0  0 
 37 13  1  0  0  0  0 
 38 16  1  0  0  0  0 
 39 13  1  0  0  0  0 
 40 14  1  0  0  0  0 
 41 14  1  0  0  0  0 
 42 17  1  0  0  0  0 
 43 15  1  0  0  0  0 
  8 44  1  6  0  0  0 
  7 45  1  6  0  0  0 
  9 46  1  1  0  0  0 
 10 47  1  1  0  0  0 
 12 48  1  1  0  0  0 
 49 56  1  0  0  0  0 
 50 18  1  0  0  0  0 
 51 18  1  0  0  0  0 
 52 18  1  0  0  0  0 
 53 55  1  0  0  0  0 
 54 32  1  0  0  0  0 
 55 48  1  0  0  0  0 
 56 54  1  0  0  0  0 
  9 12  1  0  0  0  0 
  2  3  1  0  0  0  0 
M  END