
  SciTegic10311316212D

 25 27  0  0  0  0            999 V2000
   18.8765  -28.7874    0.0000 C   0  0
   18.8754  -29.6069    0.0000 C   0  0
   19.5834  -30.0159    0.0000 C   0  0
   20.2931  -29.6064    0.0000 C   0  0
   20.2903  -28.7838    0.0000 C   0  0
   19.5816  -28.3785    0.0000 C   0  0
   19.5734  -27.5604    0.0000 N   0  0
   20.2330  -27.0781    0.0000 C   0  0
   19.9782  -26.3017    0.0000 N   0  0
   19.1609  -26.3041    0.0000 N   0  0
   18.9109  -27.0821    0.0000 C   0  0
   21.0110  -27.3283    0.0000 S   0  0
   21.6166  -26.7797    0.0000 C   0  0
   22.3946  -27.0298    0.0000 C   0  0
   23.0002  -26.4812    0.0000 O   0  0
   22.5669  -27.8287    0.0000 O   0  0
   18.1340  -27.3410    0.0000 C   0  0
   17.5251  -26.7943    0.0000 C   0  0
   16.7493  -27.0486    0.0000 C   0  0
   16.5812  -27.8492    0.0000 C   0  0
   17.1951  -28.3950    0.0000 C   0  0
   17.9685  -28.1378    0.0000 C   0  0
   19.5832  -30.8331    0.0000 Cl  0  0
   21.0014  -30.0139    0.0000 Cl  0  0
   15.8051  -28.1051    0.0000 N   0  0
  1  2  2  0
  2  3  1  0
  3  4  2  0
  4  5  1  0
  5  6  2  0
  6  1  1  0
  7  8  1  0
  8  9  2  0
  9 10  1  0
 10 11  2  0
 11  7  1  0
  6  7  1  0
  8 12  1  0
 12 13  1  0
 13 14  1  0
 14 15  1  0
 14 16  2  0
 17 18  2  0
 18 19  1  0
 19 20  2  0
 20 21  1  0
 21 22  2  0
 22 17  1  0
 11 17  1  0
  3 23  1  0
  4 24  1  0
 20 25  1  0
M  END