
  SciTegic02271514582D

 10 11  0  0  0  0            999 V2000
    2.6575   -2.4474    0.0000 C   0  0
    3.3627   -2.0430    0.0000 N   0  0
    3.3627   -1.2258    0.0000 C   0  0
    2.6575   -0.8131    0.0000 N   0  0
    1.9522   -2.0430    0.0000 C   0  0
    1.9522   -1.2213    0.0000 N   0  0
    1.1707   -0.9673    0.0000 C   0  0
    0.6876   -1.6321    0.0000 C   0  0
    1.1707   -2.2968    0.0000 C   0  0
    2.6575   -3.2646    0.0000 N   0  0
  6  4  1  0
  5  1  1  0
  1  2  2  0
  2  3  1  0
  3  4  2  0
  5  6  1  0
  6  7  1  0
  7  8  2  0
  8  9  1  0
  9  5  2  0
  1 10  1  0
M  END