
          11280715052D 1   1.00000     0.00000     0

 20 21  0     0  0            999 V2000
    1.4000    1.3083    0.0000 S   0  0  3  0  0  0           0  0  0
   -2.2958    1.1500    0.0000 N   0  0  0  0  0  0           0  0  0
    1.9292    1.0333    0.0000 C   0  0  0  0  0  0           0  0  0
   -2.2458    2.1208    0.0000 N   0  0  0  0  0  0           0  0  0
   -2.6208    1.6500    0.0000 C   0  0  0  0  0  0           0  0  0
   -1.7125    1.3083    0.0000 C   0  0  0  0  0  0           0  0  0
    1.0500    2.0208    0.0000 O   0  0  0  0  0  0           0  0  0
    1.7375    2.0208    0.0000 O   0  0  0  0  0  0           0  0  0
    0.8792    1.0083    0.0000 N   0  0  0  0  0  0           0  0  0
   -1.6833    1.9083    0.0000 C   0  0  0  0  0  0           0  0  0
    2.4292    1.3458    0.0000 C   0  0  0  0  0  0           0  0  0
    1.9542    0.4500    0.0000 C   0  0  0  0  0  0           0  0  0
    2.9917    0.4875    0.0000 C   0  0  0  0  0  0           0  0  0
    2.4875    0.1750    0.0000 C   0  0  0  0  0  0           0  0  0
    2.9667    1.0708    0.0000 C   0  0  0  0  0  0           0  0  0
    3.5250    0.2083    0.0000 Cl  0  0  0  0  0  0           0  0  0
   -1.1958    1.0083    0.0000 C   0  0  0  0  0  0           0  0  0
    0.3625    1.3083    0.0000 C   0  0  0  0  0  0           0  0  0
   -0.6833    1.3083    0.0000 C   0  0  0  0  0  0           0  0  0
   -0.1583    1.0083    0.0000 C   0  0  0  0  0  0           0  0  0
  2  6  1  0     0  0
  3  1  1  0     0  0
  4 10  1  0     0  0
  5  2  2  0     0  0
  6 17  1  0     0  0
  7  1  2  0     0  0
  8  1  2  0     0  0
  9  1  1  0     0  0
 10  6  2  0     0  0
 11  3  2  0     0  0
 12  3  1  0     0  0
 13 14  1  0     0  0
 14 12  2  0     0  0
 15 11  1  0     0  0
 16 13  1  0     0  0
 17 19  1  0     0  0
 18  9  1  0     0  0
 19 20  1  0     0  0
 20 18  1  0     0  0
 15 13  2  0     0  0
  4  5  1  0     0  0
M  END