
  SciTegic07291412072D

 52 58  0  0  0  0            999 V2000
   -2.2098   -6.5711    0.0000 N   0  0
   -1.4283   -6.8355    0.0000 C   0  0
   -1.7518   -5.2176    0.0000 C   0  0
    2.4517   -4.3768    0.0000 C   0  0
   -0.9704   -5.4819    0.0000 N   0  0
    3.6777   -3.8486    0.0000 N   0  0
   -0.8086   -6.2909    0.0000 C   0  0  1  0  0  0
   -2.3715   -5.7622    0.0000 C   0  0  2  0  0  0
    3.2566   -4.5581    0.0000 C   0  0
    4.7962   -5.1700    0.0000 C   0  0
    2.7753   -5.9948    0.0000 C   0  0
    4.1765   -5.7146    0.0000 C   0  0  1  0  0  0
    2.3754   -3.5554    0.0000 C   0  0
    3.1330   -3.2289    0.0000 C   0  0
    3.3950   -5.4502    0.0000 N   0  0
   -0.0271   -6.5553    0.0000 C   0  0
    5.5777   -5.4343    0.0000 N   0  0
    0.5926   -6.0107    0.0000 C   0  0
    1.9938   -5.7304    0.0000 C   0  0  1  0  0  0
    1.8320   -4.9215    0.0000 C   0  0
    1.3741   -6.2750    0.0000 N   0  0
   -2.9583   -6.2242    0.0000 C   0  0
   -1.9136   -4.4086    0.0000 O   0  0
   -1.2665   -7.6445    0.0000 O   0  0
   -3.1010   -5.4758    0.0000 C   0  0
    6.1974   -4.8897    0.0000 C   0  0
    4.3383   -6.5235    0.0000 C   0  0
    4.6344   -4.3610    0.0000 O   0  0
    2.4307   -6.7444    0.0000 O   0  0
    0.4308   -5.2017    0.0000 O   0  0
   -2.8186   -5.1856    0.0000 C   0  0
   -3.7976   -6.5831    0.0000 C   0  0
   -3.9048   -5.8277    0.0000 C   0  0
   -3.0633   -4.5797    0.0000 C   0  0
    4.4991   -3.7723    0.0000 C   0  0
    6.9789   -5.1541    0.0000 C   0  0
    3.7186   -7.0682    0.0000 C   0  0
    5.7395   -6.2433    0.0000 C   0  0
    3.2292   -2.4095    0.0000 C   0  0
    1.7138   -3.0625    0.0000 C   0  0
    2.9371   -6.8038    0.0000 C   0  0
    7.1407   -5.9631    0.0000 C   0  0
    7.5986   -4.6095    0.0000 C   0  0
    3.8804   -7.8771    0.0000 C   0  0
    2.5676   -1.9166    0.0000 C   0  0
    1.8099   -2.2431    0.0000 C   0  0
    8.3801   -4.8738    0.0000 C   0  0
    7.9222   -6.2274    0.0000 C   0  0
    3.2607   -8.4217    0.0000 C   0  0
    2.3174   -7.3484    0.0000 C   0  0
    2.4792   -8.1574    0.0000 C   0  0
    8.5419   -5.6828    0.0000 C   0  0
  2  1  1  0
  8  3  1  1
  4 20  1  0
  5  3  1  0
  6  9  1  0
  7  2  1  0
  8  1  1  0
  9  4  2  0
 10 12  1  0
 11 19  1  0
 12 15  1  0
 13  4  1  0
 14 13  2  0
 15 11  1  0
  7 16  1  1
 17 10  1  0
 18 16  1  0
 19 21  1  0
 19 20  1  6
 21 18  1  0
 22  1  1  0
 23  3  2  0
 24  2  2  0
 25  8  1  0
 26 17  1  0
 12 27  1  6
 28 10  2  0
 29 11  2  0
 30 18  2  0
 31 22  1  0
 32 22  1  0
 33 32  1  0
 34 31  1  0
 35  6  1  0
 36 26  1  0
 37 27  1  0
 38 17  1  0
 39 14  1  0
 40 13  1  0
 41 37  1  0
 42 36  2  0
 43 36  1  0
 44 37  2  0
 45 46  1  0
 46 40  2  0
 47 43  2  0
 48 42  1  0
 49 44  1  0
 50 41  2  0
 51 49  2  0
 52 47  1  0
  5  7  1  0
 33 25  1  0
 34 25  1  0
  6 14  1  0
 45 39  2  0
 50 51  1  0
 52 48  2  0
M  END