
  SciTegic01061111512D

 24 26  0  0  0  0            999 V2000
   -3.9964   -3.8678    0.0000 C   0  0  2  0  0  0
   -3.9964   -4.6928    0.0000 C   0  0  1  0  0  0
   -3.2879   -5.1032    0.0000 C   0  0  1  0  0  0
   -2.5754   -4.6928    0.0000 C   0  0  2  0  0  0
   -2.5754   -3.8678    0.0000 C   0  0  1  0  0  0
   -3.2879   -3.4532    0.0000 O   0  0
   -1.8591   -3.4595    0.0000 S   0  0
   -1.1454   -3.8720    0.0000 C   0  0
   -1.8609   -5.1084    0.0000 O   0  0
   -3.2879   -5.9281    0.0000 N   0  0
   -3.9487   -6.4124    0.0000 N   0  0
   -3.6950   -7.1972    0.0000 N   0  0
   -2.8700   -7.1972    0.0000 C   0  0
   -2.6165   -6.4124    0.0000 C   0  0
   -4.7107   -5.1084    0.0000 O   0  0
   -4.7125   -3.4595    0.0000 C   0  0
   -4.7149   -2.6345    0.0000 O   0  0
   -2.3834   -7.8612    0.0000 C   0  0
   -2.7192   -8.6157    0.0000 C   0  0
   -2.2362   -9.2821    0.0000 C   0  0
   -1.4149   -9.2005    0.0000 C   0  0
   -1.0789   -8.4464    0.0000 C   0  0
   -1.5601   -7.7740    0.0000 C   0  0
   -1.9774   -7.1428    0.0000 O   0  0
  5  6  1  0
 11 12  2  0
 12 13  1  0
 13 14  2  0
 14 10  1  0
  5  7  1  1
  2 15  1  1
  1  2  1  0
  1 16  1  1
  7  8  1  0
 16 17  1  0
  1  6  1  0
 13 18  1  0
 18 19  1  0
  4  9  1  6
  2  3  1  0
  3 10  1  1
 10 11  1  0
  3  4  1  0
 18 23  1  0
 19 20  1  0
 20 21  1  0
 21 22  1  0
 22 23  1  0
  4  5  1  0
 18 24  1  0
M  END