
          05080814042D 1   1.00000     0.00000     0

 27 30  0     1  0            999 V2000
    8.3652  -25.1388    0.0000 C   0  0  0  0  0  0           0  0  0
    7.6546  -25.5535    0.0000 C   0  0  0  0  0  0           0  0  0
    7.6616  -26.3795    0.0000 C   0  0  0  0  0  0           0  0  0
    8.3753  -26.7828    0.0000 C   0  0  0  0  0  0           0  0  0
    9.0782  -25.5458    0.0000 C   0  0  0  0  0  0           0  0  0
    9.0842  -26.3732    0.0000 C   0  0  0  0  0  0           0  0  0
    9.7997  -26.7794    0.0000 C   0  0  0  0  0  0           0  0  0
    9.7876  -25.1247    0.0000 C   0  0  0  0  0  0           0  0  0
   10.5078  -25.5354    0.0000 C   0  0  2  0  0  0           0  0  0
   10.5123  -26.3647    0.0000 C   0  0  2  0  0  0           0  0  0
   11.2288  -26.7731    0.0000 N   0  0  3  0  0  0           0  0  0
   11.9453  -26.3568    0.0000 C   0  0  0  0  0  0           0  0  0
   11.9408  -25.5275    0.0000 C   0  0  1  0  0  0           0  0  0
   11.2197  -25.1146    0.0000 C   0  0  0  0  0  0           0  0  0
   10.5000  -24.7069    0.0000 H   0  0  0  0  0  0           0  0  0
   10.5041  -27.1892    0.0000 H   0  0  0  0  0  0           0  0  0
   12.6532  -25.1120    0.0000 C   0  0  0  0  0  0           0  0  0
   13.3692  -25.5211    0.0000 N   0  0  3  0  0  0           0  0  0
   12.6495  -24.2873    0.0000 O   0  0  0  0  0  0           0  0  0
   13.3669  -26.3490    0.0000 C   0  0  0  0  0  0           0  0  0
   14.0788  -26.7580    0.0000 C   0  0  0  0  0  0           0  0  0
   14.7936  -26.3460    0.0000 N   0  0  0  0  0  0           0  0  0
   14.7919  -25.5204    0.0000 C   0  0  0  0  0  0           0  0  0
   14.0754  -25.1068    0.0000 C   0  0  0  0  0  0           0  0  0
    8.3612  -24.3141    0.0000 O   0  0  0  0  0  0           0  0  0
    7.6450  -23.9053    0.0000 C   0  0  0  0  0  0           0  0  0
   11.2322  -27.5978    0.0000 C   0  0  0  0  0  0           0  0  0
 10 11  1  0     0  0
 11 12  1  0     0  0
 12 13  1  0     0  0
 13 14  1  0     0  0
  9 15  1  6     0  0
  5  8  1  0     0  0
 10 16  1  1     0  0
  6  7  1  0     0  0
 13 17  1  1     0  0
  7 10  1  0     0  0
 17 18  1  0     0  0
  9  8  1  0     0  0
 17 19  2  0     0  0
 18 20  1  0     0  0
  9 10  1  0     0  0
  3  4  2  0     0  0
  4  6  1  0     0  0
  5  6  2  0     0  0
  1  2  2  0     0  0
 18 24  1  0     0  0
 20 21  1  0     0  0
 21 22  1  0     0  0
 22 23  1  0     0  0
 23 24  1  0     0  0
  5  1  1  0     0  0
  1 25  1  0     0  0
  2  3  1  0     0  0
 25 26  1  0     0  0
  9 14  1  0     0  0
 11 27  1  0     0  0
M  END