
  CDK    9/16/09,9:56

 30 32  0  0  0  0  0  0  0  0999 V2000
   11.1451   -4.7349    0.0000 C   0  0  0  0  0  0  0  0  0  0  0  0
   10.3429   -4.9258    0.0000 C   0  0  0  0  0  0  0  0  0  0  0  0
   10.1099   -5.7173    0.0000 C   0  0  0  0  0  0  0  0  0  0  0  0
    9.3049   -5.9112    0.0000 C   0  0  0  0  0  0  0  0  0  0  0  0
    9.0771   -6.7057    0.0000 N   0  0  0  0  0  0  0  0  0  0  0  0
    8.2745   -6.9090    0.0000 C   0  0  0  0  0  0  0  0  0  0  0  0
    7.6990   -6.3167    0.0000 O   0  0  0  0  0  0  0  0  0  0  0  0
    7.0205   -8.7145    0.0000 C   0  0  0  0  0  0  0  0  0  0  0  0
    6.2430   -9.0067    0.0000 C   0  0  0  0  0  0  0  0  0  0  0  0
    5.5587   -8.5474    0.0000 O   0  0  0  0  0  0  0  0  0  0  0  0
    6.2828   -9.8308    0.0000 C   0  0  0  0  0  0  0  0  0  0  0  0
    5.6336  -10.3415    0.0000 O   0  0  0  0  0  0  0  0  0  0  0  0
    7.0820  -10.0446    0.0000 C   0  0  0  0  0  0  0  0  0  0  0  0
    7.5339   -9.3547    0.0000 O   0  0  0  0  0  0  0  0  0  0  0  0
    7.4090  -10.8088    0.0000 N   0  0  0  0  0  0  0  0  0  0  0  0
    6.9545  -11.4693    0.0000 C   0  0  0  0  0  0  0  0  0  0  0  0
    7.4711  -12.1182    0.0000 N   0  0  0  0  0  0  0  0  0  0  0  0
    8.2358  -11.8356    0.0000 C   0  0  0  0  0  0  0  0  0  0  0  0
    8.9596  -12.2091    0.0000 C   0  0  0  0  0  0  0  0  0  0  0  0
    8.9901  -13.0246    0.0000 N   0  0  0  0  0  0  0  0  0  0  0  0
    9.6525  -11.7611    0.0000 N   0  0  0  0  0  0  0  0  0  0  0  0
    9.6169  -10.9635    0.0000 C   0  0  0  0  0  0  0  0  0  0  0  0
    8.8831  -10.5822    0.0000 N   0  0  0  0  0  0  0  0  0  0  0  0
    8.1956  -11.0180    0.0000 C   0  0  0  0  0  0  0  0  0  0  0  0
    7.2427   -7.9098    0.0000 C   0  0  0  0  0  0  0  0  0  0  0  0
    8.0487   -7.7060    0.0000 O   0  0  0  0  0  0  0  0  0  0  0  0
   11.7112   -5.3337    0.0000 C   0  0  0  0  0  0  0  0  0  0  0  0
   12.5130   -5.1429    0.0000 C   0  0  0  0  0  0  0  0  0  0  0  0
   13.0791   -5.7419    0.0000 O   0  0  0  0  0  0  0  0  0  0  0  0
   12.7485   -4.3533    0.0000 N   0  0  0  0  0  0  0  0  0  0  0  0
  4  5  1  0  0  0  0 
  8  9  1  0  0  0  0 
  9 10  1  6  0  0  0 
  9 11  1  0  0  0  0 
 11 12  1  6  0  0  0 
 11 13  1  0  0  0  0 
 13 14  1  0  0  0  0 
  8 14  1  0  0  0  0 
 13 15  1  1  0  0  0 
 15 16  1  0  0  0  0 
 16 17  2  0  0  0  0 
 17 18  1  0  0  0  0 
 18 19  1  0  0  0  0 
 19 20  1  0  0  0  0 
 19 21  2  0  0  0  0 
 21 22  1  0  0  0  0 
 22 23  2  0  0  0  0 
 23 24  1  0  0  0  0 
 18 24  2  0  0  0  0 
 15 24  1  0  0  0  0 
  2  3  1  0  0  0  0 
  8 25  1  1  0  0  0 
  6  5  1  0  0  0  0 
 25 26  1  0  0  0  0 
 26  6  1  0  0  0  0 
  1  2  1  0  0  0  0 
  1 27  1  0  0  0  0 
  6  7  2  0  0  0  0 
 27 28  1  0  0  0  0 
  3  4  1  0  0  0  0 
 28 29  2  0  0  0  0 
 28 30  1  0  0  0  0 
M  END