
  SciTegic02011310402D

 29 32  0  0  0  0            999 V2000
    8.1986   -4.2333    0.0000 C   0  0
    8.1974   -5.0607    0.0000 N   0  0
    8.9122   -5.4735    0.0000 C   0  0
    8.9104   -3.8205    0.0000 C   0  0
    9.6258   -4.2297    0.0000 C   0  0
    9.6246   -5.0627    0.0000 C   0  0
   10.3415   -5.4780    0.0000 C   0  0
   11.0642   -5.0648    0.0000 N   0  0
   11.0654   -4.2317    0.0000 N   0  0
   10.3439   -3.8119    0.0000 C   0  0
   10.3392   -6.3030    0.0000 C   0  0
    9.6235   -6.7135    0.0000 C   0  0
    8.9129   -6.2942    0.0000 C   0  0
    8.1978   -6.7040    0.0000 C   0  0
    8.1950   -7.5299    0.0000 C   0  0
    8.9133   -7.9442    0.0000 C   0  0
    9.6255   -7.5320    0.0000 C   0  0
    7.4799   -7.9413    0.0000 Cl  0  0
   10.3439   -2.9869    0.0000 O   0  0
   11.7808   -3.8210    0.0000 C   0  0
   12.4943   -4.2352    0.0000 C   0  0  1  0  0  0
   12.5072   -5.0574    0.0000 C   0  0
   13.2965   -5.2975    0.0000 C   0  0
   13.7687   -4.6209    0.0000 C   0  0
   13.2712   -3.9629    0.0000 N   0  0
   13.5095   -3.1730    0.0000 C   0  0
   14.3127   -2.9845    0.0000 C   0  0
   14.8775   -3.5858    0.0000 C   0  0
   15.6807   -3.3972    0.0000 C   0  0
 13 14  1  0
  1  2  2  0
 14 15  2  0
  5  4  2  0
 15 16  1  0
  4  1  1  0
 16 17  2  0
 17 12  1  0
  5 10  1  0
 15 18  1  0
  6  7  1  0
 10 19  2  0
  7  8  2  0
  9 20  1  0
  8  9  1  0
 21 20  1  6
 21 22  1  0
  9 10  1  0
  5  6  1  0
  7 11  1  0
 22 23  1  0
 23 24  1  0
 24 25  1  0
 25 21  1  0
 11 12  1  0
 25 26  1  0
  2  3  1  0
 26 27  1  0
 12 13  2  0
 27 28  1  0
  3  6  2  0
 28 29  1  0
M  END