
          11280714572D 1   1.00000     0.00000     0

 30 31  0     0  0            999 V2000
    3.1875   -1.1042    0.0000 C   0  0  3  0  0  0           0  0  0
    2.8750   -1.6167    0.0000 N   0  0  0  0  0  0           0  0  0
    5.5042   -1.3750    0.0000 N   0  0  0  0  0  0           0  0  0
    6.0542   -1.0292    0.0000 C   0  0  0  0  0  0           0  0  0
    5.0792   -0.9542    0.0000 C   0  0  3  0  0  0           0  0  0
    1.0750   -1.5750    0.0000 O   0  0  0  0  0  0           0  0  0
    3.4125   -0.5375    0.0000 C   0  0  3  0  0  0           0  0  0
    0.4750   -1.5625    0.0000 C   0  0  0  0  0  0           0  0  0
    6.0250   -0.4667    0.0000 O   0  0  0  0  0  0           0  0  0
    0.1875   -1.0375    0.0000 C   0  0  0  0  0  0           0  0  0
    0.2125    0.0000    0.0000 C   0  0  0  0  0  0           0  0  0
    3.7875   -1.1167    0.0000 C   0  0  0  0  0  0           0  0  0
    3.9917   -0.6917    0.0000 C   0  0  0  0  0  0           0  0  0
   -0.3875    0.0125    0.0000 C   0  0  0  0  0  0           0  0  0
    2.2750   -1.6042    0.0000 C   0  0  0  0  0  0           0  0  0
    1.9875   -1.0792    0.0000 C   0  0  3  0  0  0           0  0  0
    4.7042   -0.3667    0.0000 C   0  0  0  0  0  0           0  0  0
    4.5417   -0.7917    0.0000 C   0  0  0  0  0  0           0  0  0
    1.3875   -1.0625    0.0000 C   0  0  0  0  0  0           0  0  0
    6.9917   -1.0292    0.0000 Br  0  0  0  0  0  0           0  0  0
    2.1667   -0.4667    0.0000 O   0  0  0  0  0  0           0  0  0
    6.5250   -1.3042    0.0000 C   0  0  0  0  0  0           0  0  0
    0.5000   -0.5250    0.0000 C   0  0  0  0  0  0           0  0  0
    2.9000   -0.5792    0.0000 C   0  0  0  0  0  0           0  0  0
    3.6042   -1.5250    0.0000 C   0  0  0  0  0  0           0  0  0
    5.6000   -0.6500    0.0000 C   0  0  0  0  0  0           0  0  0
    0.1625   -2.0792    0.0000 C   0  0  0  0  0  0           0  0  0
   -0.4083   -1.0250    0.0000 C   0  0  0  0  0  0           0  0  0
   -0.7250   -1.5375    0.0000 C   0  0  0  0  0  0           0  0  0
   -0.4375   -2.0667    0.0000 C   0  0  0  0  0  0           0  0  0
  2  1  1  0     0  0
  3  5  1  0     0  0
  4  3  1  0     0  0
  5 17  1  0     0  0
  6 19  1  0     0  0
  7  1  1  0     0  0
  8  6  1  0     0  0
  9  4  2  0     0  0
 10  8  2  0     0  0
 11 23  1  0     0  0
 12  7  1  0     0  0
 13  7  1  0     0  0
 14 11  2  0     0  0
 15  2  1  0     0  0
 16 15  1  0     0  0
 17 13  1  0     0  0
 18 12  1  0     0  0
 19 16  1  0     0  0
 20 22  1  0     0  0
 21 16  1  0     0  0
 22  4  1  0     0  0
 23 10  1  0     0  0
 24  1  1  0     0  0
 25  1  1  0     0  0
 26  5  1  0     0  0
 27  8  1  0     0  0
 28 10  1  0     0  0
 29 30  1  0     0  0
 30 27  2  0     0  0
 18  5  1  0     0  0
 28 29  2  0     0  0
M  END