
  SciTegic11201309402D

111119  0  0  0  0            999 V2000
   -2.1908    0.6445    0.0000 C   0  0
   -2.9778   -0.8111    0.0000 O   0  0
   11.4027   -0.7796    0.0000 C   0  0
   12.2277   -0.7830    0.0000 N   0  0
   10.9873   -1.4924    0.0000 O   0  0
   12.6373   -1.4991    0.0000 C   0  0  2  0  0  0
   13.4623   -1.5025    0.0000 C   0  0
   12.2219   -2.2119    0.0000 C   0  0  1  0  0  0
   11.3969   -2.2085    0.0000 C   0  0
   12.6315   -2.9280    0.0000 O   0  0
   13.8719   -2.2186    0.0000 N   0  0
   13.8777   -0.7897    0.0000 O   0  0
   10.1732   -0.0592    0.0000 N   0  0
   10.9936   -0.0637    0.0000 C   0  0  1  0  0  0
   11.2512    0.7153    0.0000 C   0  0
   10.5898    1.2010    0.0000 C   0  0
    9.9237    0.7221    0.0000 C   0  0
   14.6969   -2.2220    0.0000 C   0  0  2  0  0  0
   15.1064   -2.9381    0.0000 C   0  0
   15.1123   -1.5092    0.0000 C   0  0
   14.6910   -3.6509    0.0000 O   0  0
   15.9290   -2.9414    0.0000 N   0  0
   15.9216   -3.7651    0.0000 C   0  0
   16.7025   -4.0314    0.0000 C   0  0
   17.1970   -3.3710    0.0000 C   0  0
   16.7221   -2.6951    0.0000 C   0  0  1  0  0  0
   17.1112   -1.9677    0.0000 C   0  0
   17.9351   -1.9411    0.0000 N   0  0
   16.6758   -1.2669    0.0000 O   0  0
   18.2145   -2.7166    0.0000 C   0  0
   19.0392   -2.6926    0.0000 C   0  0
   19.2712   -1.9008    0.0000 C   0  0
   18.5902   -1.4344    0.0000 C   0  0  1  0  0  0
   18.3002   -0.6621    0.0000 C   0  0
   18.8226   -0.0162    0.0000 N   0  0
   17.4863   -0.5271    0.0000 O   0  0
   11.6373   -1.4951    0.0000 H   0  0
    9.7635   -0.7753    0.0000 C   0  0
    8.9385   -0.7785    0.0000 C   0  0  1  0  0  0
   10.1788   -1.4881    0.0000 O   0  0
    8.5232   -0.0656    0.0000 N   0  0
    8.5288   -1.4946    0.0000 C   0  0
   18.4198    0.7037    0.0000 C   0  0  2  0  0  0
   17.5949    0.7153    0.0000 C   0  0
   18.8414    1.4122    0.0000 C   0  0
   19.6663    1.4262    0.0000 C   0  0
   20.0908    0.7188    0.0000 C   0  0
   19.6921   -0.0036    0.0000 O   0  0
   20.9173    0.7318    0.0000 O   0  0
   17.1921    1.4354    0.0000 N   0  0
   17.1724    0.0067    0.0000 O   0  0
   17.5120    2.1969    0.0000 C   0  0
   18.3309    2.2972    0.0000 C   0  0
   18.6535    3.0565    0.0000 N   0  0
   18.8272    1.6382    0.0000 O   0  0
    8.9441   -2.2074    0.0000 C   0  0
    7.6982   -0.0688    0.0000 C   0  0
    7.2830    0.6440    0.0000 C   0  0
    7.2885   -0.7849    0.0000 O   0  0
    5.7366    1.0433    0.0000 C   0  0
    5.0291    0.6189    0.0000 C   0  0
    5.7228    1.8682    0.0000 O   0  0
    4.3079    1.0194    0.0000 C   0  0
    3.6004    0.5950    0.0000 C   0  0
    2.8791    0.9955    0.0000 C   0  0
    2.1716    0.5711    0.0000 N   0  0
    1.4504    0.9716    0.0000 C   0  0
    0.7429    0.5472    0.0000 N   0  0
    1.4366    1.7965    0.0000 S   0  0
    0.0216    0.9477    0.0000 C   0  0
    0.0131    1.7701    0.0000 C   0  0
   -0.7074    2.1705    0.0000 C   0  0
   -0.6783    0.5203    0.0000 C   0  0
   -1.3993    0.9170    0.0000 C   0  0
   -1.4151    1.7507    0.0000 C   0  0
   -2.2129    1.9933    0.0000 C   0  0
   -2.6903    1.3095    0.0000 O   0  0
   -2.4827    2.7730    0.0000 O   0  0
   -1.7536   -0.0569    0.0000 C   0  0
   -2.1517   -0.7847    0.0000 C   0  0
   -1.7205   -1.4912    0.0000 C   0  0
   -0.8914   -1.4711    0.0000 C   0  0
   -0.4954   -0.7386    0.0000 C   0  0
   -0.9288   -0.0351    0.0000 C   0  0
   -3.4106   -0.1050    0.0000 C   0  0
   -3.0179    0.6177    0.0000 C   0  0
   -3.4473    1.3169    0.0000 C   0  0
   -4.2692    1.2947    0.0000 C   0  0
   -4.6598    0.5674    0.0000 C   0  0
   -4.2282   -0.1288    0.0000 C   0  0
   -0.4604   -2.1746    0.0000 O   0  0
   -5.4844    0.5418    0.0000 O   0  0
    8.5344   -2.9235    0.0000 C   0  0
    7.7076   -2.9278    0.0000 O   0  0
    8.9479   -3.6375    0.0000 O   0  0
    7.6875    1.3668    0.0000 C   0  0
    8.0926    2.0854    0.0000 C   0  0
    8.9176    2.0939    0.0000 C   0  0
   16.3671    1.4400    0.0000 C   0  0
   15.9587    2.1568    0.0000 C   0  0
   15.1337    2.1615    0.0000 C   0  0
   14.7172    1.4494    0.0000 C   0  0
   13.8922    1.4541    0.0000 C   0  0
   13.4824    2.1710    0.0000 C   0  0
   12.7241    2.5371    0.0000 C   0  0
    9.6292    2.5125    0.0000 C   0  0
    6.8625    1.3583    0.0000 C   0  0
    6.4573    0.6397    0.0000 N   0  0
   19.3773   -0.8175    0.0000 H   0  0
   17.7203   -2.6345    0.0000 H   0  0
   11.9886    0.0360    0.0000 H   0  0
 50 52  1  0
 23 24  1  0
 52 53  1  0
 24 25  1  0
 53 54  1  0
 25 26  1  0
 53 55  2  0
 26 22  1  0
 42 56  1  0
  7 12  2  0
 41 57  1  0
 26 27  1  0
 57 58  1  0
 13 14  1  0
 57 59  2  0
 58108  1  0
 27 28  1  0
108 60  1  0
  3  5  2  0
 60 61  1  0
 27 29  2  0
 60 62  2  0
 28 30  1  0
 61 63  1  0
 85  2  1  0
 63 64  1  0
  4  6  1  0
 64 65  1  0
  2 80  1  0
 65 66  1  0
  6  7  1  0
 66 67  1  0
 30 31  1  0
 67 68  1  0
 31 32  1  0
 67 69  2  0
 32 33  1  0
 68 70  1  0
 33 28  1  0
 70 71  2  0
 14 15  1  0
 71 72  1  0
 72 75  2  0
 33 34  1  0
 74 73  2  0
 73 70  1  0
 74 75  1  0
 15 16  1  0
 34 35  1  0
 16 17  1  0
 34 36  2  0
 75 76  1  0
 76 77  1  0
 77  1  1  0
  1 74  1  0
 17 13  1  0
 76 78  2  0
  6 37  1  1
 79 80  2  0
 13 38  1  0
 80 81  1  0
 11 18  1  0
 81 82  2  0
 38 39  1  0
 82 83  1  0
  6  8  1  0
 83 84  2  0
 84 79  1  0
 38 40  2  0
 18 19  1  0
 85 86  2  0
 39 41  1  0
 86 87  1  0
 14  3  1  0
 87 88  2  0
 39 42  1  6
 88 89  1  0
 18 20  1  1
 89 90  2  0
 90 85  1  0
 35 43  1  0
 82 91  1  0
  8  9  1  6
 89 92  1  0
 43 44  1  0
 56 93  1  0
 19 21  2  0
 43 45  1  6
 93 94  1  0
 93 95  2  0
  1 86  1  0
 45 46  1  0
 96 97  1  0
 19 22  1  0
 97 98  1  0
 46 47  1  0
 50 99  1  0
 22 23  1  0
 99100  1  0
  8 10  1  0
100101  1  0
 47 48  1  0
101102  1  0
 47 49  2  0
102103  1  0
  3  4  1  0
103104  1  0
 44 50  1  0
104105  1  0
  7 11  1  0
 98106  1  0
106105  2  0
 44 51  2  0
 96107  1  0
  1 79  1  0
107108  1  0
 33109  1  1
 26110  1  1
 14111  1  6
M  END