
  SciTegic09261414532D

 46 53  0  0  0  0            999 V2000
   24.6546   -1.1845    0.0000 C   0  0
   24.6535   -2.0040    0.0000 C   0  0
   25.3615   -2.4130    0.0000 C   0  0
   25.3598   -0.7756    0.0000 C   0  0
   26.0684   -1.1809    0.0000 C   0  0
   26.0686   -2.0041    0.0000 C   0  0
   26.8516   -2.2582    0.0000 N   0  0
   27.3353   -1.5921    0.0000 C   0  0
   26.8512   -0.9263    0.0000 N   0  0
   27.1043   -3.0354    0.0000 C   0  0
   28.1493   -1.5904    0.0000 C   0  0
   28.5575   -2.2996    0.0000 C   0  0
   29.3739   -2.2996    0.0000 C   0  0
   29.7831   -1.5913    0.0000 C   0  0
   29.3699   -0.8813    0.0000 C   0  0
   28.5548   -0.8848    0.0000 C   0  0
   30.6003   -1.5899    0.0000 O   0  0
   31.0101   -2.2969    0.0000 C   0  0
   31.8273   -2.2955    0.0000 C   0  0
   32.2370   -3.0026    0.0000 N   0  0
   31.9059   -3.7446    0.0000 C   0  0
   32.5136   -4.2911    0.0000 N   0  0
   33.0493   -3.0823    0.0000 C   0  0
   33.2169   -3.8785    0.0000 C   0  0
   33.9888   -4.1300    0.0000 C   0  0
   34.5938   -3.5862    0.0000 C   0  0
   34.4217   -2.7878    0.0000 C   0  0
   33.6500   -2.5400    0.0000 C   0  0
   31.1995   -4.1518    0.0000 C   0  0
   30.4929   -3.7391    0.0000 C   0  0
   29.7843   -4.1446    0.0000 C   0  0
   29.7811   -4.9627    0.0000 C   0  0
   30.4924   -5.3735    0.0000 C   0  0
   31.1981   -4.9656    0.0000 C   0  0
   26.5577   -3.6428    0.0000 C   0  0
   25.7601   -3.4717    0.0000 C   0  0
   25.2137   -4.0784    0.0000 C   0  0
   25.4663   -4.8565    0.0000 C   0  0
   26.2704   -5.0245    0.0000 C   0  0
   26.8133   -4.4165    0.0000 C   0  0
   32.2367   -1.5883    0.0000 C   0  0
   33.0548   -1.5889    0.0000 C   0  0
   33.4622   -0.8845    0.0000 C   0  0
   33.0559   -0.1751    0.0000 C   0  0
   32.2377   -0.1745    0.0000 C   0  0
   31.8259   -0.8833    0.0000 C   0  0
  1  2  2  0
  2  3  1  0
  3  6  2  0
  5  4  2  0
  4  1  1  0
  5  6  1  0
  6  7  1  0
  7  8  1  0
  8  9  2  0
  9  5  1  0
  7 10  1  0
 11 12  2  0
 12 13  1  0
 13 14  2  0
 14 15  1  0
 15 16  2  0
 16 11  1  0
  8 11  1  0
 14 17  1  0
 17 18  1  0
 18 19  1  0
 19 20  1  0
 20 21  1  0
 21 22  2  0
 22 24  1  0
 23 20  1  0
 23 24  2  0
 24 25  1  0
 25 26  2  0
 26 27  1  0
 27 28  2  0
 28 23  1  0
 29 30  2  0
 30 31  1  0
 31 32  2  0
 32 33  1  0
 33 34  2  0
 34 29  1  0
 21 29  1  0
 10 35  1  0
 35 36  2  0
 36 37  1  0
 37 38  2  0
 38 39  1  0
 39 40  2  0
 40 35  1  0
 41 42  1  0
 41 46  1  0
 42 43  1  0
 43 44  1  0
 44 45  1  0
 45 46  1  0
 19 41  1  0
M  END