
  SciTegic01161211252D

 22 20  0  0  0  0            999 V2000
    4.6375   -5.3292    0.0000 C   0  0
    4.6292   -6.9792    0.0000 C   0  0
    3.9167   -6.5667    0.0000 C   0  0
    3.9250   -5.7417    0.0000 C   0  0
    5.3500   -5.7417    0.0000 O   0  0
    5.3417   -6.5667    0.0000 O   0  0
    5.3292   -3.1167    0.0000 N   0  0
    4.6250   -7.8042    0.0000 O   0  0
    4.6375   -4.5042    0.0000 O   0  0
    6.0542   -2.7042    0.0000 C   0  0
    4.6167   -2.6917    0.0000 C   0  0
    3.9042   -3.1042    0.0000 C   0  0
    2.4792   -3.1042    0.0000 O   0  0
    3.9042   -3.9292    0.0000 O   0  0
    3.1917   -2.6917    0.0000 C   0  0
    6.7667   -3.1167    0.0000 C   0  0
    6.0542   -1.8792    0.0000 C   0  0
    6.6292   -2.1167    0.0000 C   0  0
    1.7667   -2.6917    0.0000 C   0  0
    1.0542   -3.1042    0.0000 C   0  0
    1.0417   -3.9292    0.0000 C   0  0
    0.3292   -2.6917    0.0000 C   0  0
  2  3  1  0
  3  4  2  0
  4  1  1  0
  5  1  1  0
  6  2  1  0
  8  2  2  0
  9  1  2  0
 10  7  1  0
 11  7  1  0
 12 11  1  0
 13 15  1  0
 14 12  1  0
 15 12  1  0
 16 10  1  0
 17 10  1  0
 18 10  1  0
 19 13  1  0
 20 19  1  0
 21 20  1  0
 22 20  1  0
M  END