
          11280714552D 1   1.00000     0.00000     0

 33 37  0     0  0            999 V2000
    0.3917   -2.2542    0.0000 C   0  0  0  0  0  0           0  0  0
   -0.4000   -2.0292    0.0000 N   0  0  0  0  0  0           0  0  0
   -0.3500   -3.3667    0.0000 N   0  0  3  0  0  0           0  0  0
    0.4292   -3.0875    0.0000 C   0  0  0  0  0  0           0  0  0
   -0.8583   -2.7167    0.0000 C   0  0  0  0  0  0           0  0  0
    3.1667   -5.8500    0.0000 C   0  0  0  0  0  0           0  0  0
    3.9542   -4.7667    0.0000 N   0  0  0  0  0  0           0  0  0
    3.1750   -5.0167    0.0000 N   0  0  0  0  0  0           0  0  0
    4.4417   -5.4417    0.0000 N   0  0  0  0  0  0           0  0  0
    3.9542   -6.1042    0.0000 N   0  0  0  0  0  0           0  0  0
    2.5000   -6.3292    0.0000 C   0  0  0  0  0  0           0  0  0
    1.7042   -6.5292    0.0000 C   0  0  0  0  0  0           0  0  0
    1.0125   -1.7167    0.0000 C   0  0  0  0  0  0           0  0  0
   -0.5833   -4.1542    0.0000 C   0  0  0  0  0  0           0  0  0
    1.1292   -5.9417    0.0000 C   0  0  0  0  0  0           0  0  0
    0.7917   -0.9250    0.0000 O   0  0  0  0  0  0           0  0  0
    0.3292   -6.1375    0.0000 C   0  0  0  0  0  0           0  0  0
    1.3625   -5.1417    0.0000 C   0  0  0  0  0  0           0  0  0
   -0.0083   -4.7542    0.0000 C   0  0  0  0  0  0           0  0  0
    1.1042   -3.5667    0.0000 C   0  0  0  0  0  0           0  0  0
   -1.6833   -2.7500    0.0000 C   0  0  0  0  0  0           0  0  0
    0.7875   -4.5500    0.0000 C   0  0  0  0  0  0           0  0  0
   -0.2458   -5.5417    0.0000 C   0  0  0  0  0  0           0  0  0
    3.0667   -6.9167    0.0000 C   0  0  0  0  0  0           0  0  0
    1.4667   -7.3250    0.0000 C   0  0  0  0  0  0           0  0  0
    1.8250   -1.8625    0.0000 C   0  0  0  0  0  0           0  0  0
   -2.1208   -2.0500    0.0000 C   0  0  0  0  0  0           0  0  0
    1.8917   -3.3417    0.0000 C   0  0  0  0  0  0           0  0  0
   -2.9458   -2.0792    0.0000 C   0  0  0  0  0  0           0  0  0
    2.8417   -7.7167    0.0000 C   0  0  0  0  0  0           0  0  0
    2.0417   -7.9167    0.0000 C   0  0  0  0  0  0           0  0  0
    2.2125   -2.5792    0.0000 C   0  0  0  0  0  0           0  0  0
   -3.3833   -1.3792    0.0000 C   0  0  0  0  0  0           0  0  0
  2  1  1  0     0  0
  3  4  1  0     0  0
  4  1  2  0     0  0
  5  2  2  0     0  0
  6 11  1  0     0  0
  7  8  2  0     0  0
  8  6  1  0     0  0
  9 10  1  0     0  0
 10  6  2  0     0  0
 11 12  2  0     0  0
 12 15  1  0     0  0
 13  1  1  0     0  0
 14  3  1  0     0  0
 15 17  2  0     0  0
 16 13  2  0     0  0
 17 23  1  0     0  0
 18 22  2  0     0  0
 19 14  1  0     0  0
 20  4  1  0     0  0
 21  5  1  0     0  0
 22 19  1  0     0  0
 23 19  2  0     0  0
 24 11  1  0     0  0
 25 12  1  0     0  0
 26 13  1  0     0  0
 27 21  1  0     0  0
 28 20  1  0     0  0
 29 27  1  0     0  0
 30 31  1  0     0  0
 31 25  2  0     0  0
 32 26  1  0     0  0
 33 29  1  0     0  0
  5  3  1  0     0  0
 32 28  1  0     0  0
 18 15  1  0     0  0
 24 30  2  0     0  0
  9  7  1  0     0  0
M  END