
  SciTegic04091415032D

 38 41  0  0  0  0            999 V2000
    6.7739   -7.5419    0.0000 C   0  0
    6.7726   -8.3693    0.0000 C   0  0
    7.4875   -8.7821    0.0000 C   0  0
    7.4857   -7.1291    0.0000 C   0  0
    8.2011   -7.5382    0.0000 C   0  0
    8.2018   -8.3652    0.0000 C   0  0
    8.9172   -8.7761    0.0000 N   0  0
    9.6322   -8.3613    0.0000 C   0  0
    9.6275   -7.5314    0.0000 C   0  0
    8.9116   -7.1241    0.0000 C   0  0
    6.0633   -7.1253    0.0000 C   0  0
    8.9072   -6.2990    0.0000 C   0  0
    9.6195   -5.8828    0.0000 O   0  0
    8.1905   -5.8904    0.0000 O   0  0
   10.3483   -8.7710    0.0000 C   0  0
   10.3515   -9.5961    0.0000 N   0  0
   11.0612   -8.3558    0.0000 O   0  0
   11.0676  -10.0059    0.0000 C   0  0  2  0  0  0
   11.0709  -10.8309    0.0000 C   0  0
   11.7805   -9.5905    0.0000 C   0  0
   12.4966  -10.0003    0.0000 C   0  0
   12.4967  -10.8223    0.0000 C   0  0
   13.2119  -11.2320    0.0000 C   0  0
   13.9258  -10.8167    0.0000 C   0  0
   13.9199   -9.9874    0.0000 C   0  0
   13.2041   -9.5814    0.0000 C   0  0
    5.3528   -7.5320    0.0000 C   0  0
   14.6425  -11.2254    0.0000 O   0  0
    4.6399   -7.1167    0.0000 C   0  0
    4.6479   -6.2946    0.0000 C   0  0
    3.9358   -5.8795    0.0000 C   0  0
    3.2188   -6.2894    0.0000 C   0  0
    3.2183   -7.1186    0.0000 C   0  0
    3.9309   -7.5300    0.0000 C   0  0
    2.5103   -5.8758    0.0000 Cl  0  0
   10.3580  -11.2461    0.0000 N   0  0
   11.7870  -11.2406    0.0000 O   0  0
   10.3611  -12.0712    0.0000 C   0  0
  1  2  2  0
  2  3  1  0
  3  6  2  0
  5  4  2  0
  4  1  1  0
  5  6  1  0
  6  7  1  0
  7  8  2  0
  8  9  1  0
  9 10  2  0
 10  5  1  0
  1 11  1  0
 10 12  1  0
 12 13  2  0
 12 14  1  0
  8 15  1  0
 15 16  1  0
 15 17  2  0
 16 18  1  0
 18 19  1  1
 18 20  1  0
 20 21  1  0
 21 22  2  0
 22 23  1  0
 23 24  2  0
 24 25  1  0
 25 26  2  0
 26 21  1  0
 27 11  2  0
 24 28  1  0
 27 29  1  0
 29 30  2  0
 30 31  1  0
 31 32  2  0
 32 33  1  0
 33 34  2  0
 34 29  1  0
 32 35  1  0
 19 36  1  0
 19 37  2  0
 36 38  1  0
M  END