
  CDK    9/16/09,10:4

 34 37  0  0  0  0  0  0  0  0999 V2000
   17.9481  -17.0313    0.0000 Br  0  0  0  0  0  0  0  0  0  0  0  0
   17.2275  -22.1089    0.0000 C   0  0  0  0  0  0  0  0  0  0  0  0
   18.0567  -22.0900    0.0000 C   0  0  0  0  0  0  0  0  0  0  0  0
   18.4528  -21.3662    0.0000 C   0  0  0  0  0  0  0  0  0  0  0  0
   18.0241  -20.6569    0.0000 C   0  0  0  0  0  0  0  0  0  0  0  0
   17.1947  -20.6758    0.0000 C   0  0  0  0  0  0  0  0  0  0  0  0
   16.7942  -21.4042    0.0000 N   0  0  0  0  0  0  0  0  0  0  0  0
   17.4296  -21.7284    0.0000 C   0  0  0  0  0  0  0  0  0  0  0  0
   17.7530  -21.0333    0.0000 C   0  0  0  0  0  0  0  0  0  0  0  0
   15.9695  -21.4316    0.0000 C   0  0  0  0  0  0  0  0  0  0  0  0
   19.2778  -21.3561    0.0000 C   0  0  0  0  0  0  0  0  0  0  0  0
   20.1027  -21.3418    0.0000 C   0  0  0  0  0  0  0  0  0  0  0  0
   19.2900  -22.1810    0.0000 O   0  0  0  0  0  0  0  0  0  0  0  0
   19.2656  -20.5312    0.0000 C   0  0  0  0  0  0  0  0  0  0  0  0
   19.9747  -20.1109    0.0000 C   0  0  0  0  0  0  0  0  0  0  0  0
   19.9629  -19.2868    0.0000 C   0  0  0  0  0  0  0  0  0  0  0  0
   19.2419  -18.8841    0.0000 C   0  0  0  0  0  0  0  0  0  0  0  0
   18.5313  -19.3116    0.0000 C   0  0  0  0  0  0  0  0  0  0  0  0
   18.5466  -20.1343    0.0000 C   0  0  0  0  0  0  0  0  0  0  0  0
   20.5256  -22.0514    0.0000 C   0  0  0  0  0  0  0  0  0  0  0  0
   21.3497  -22.0376    0.0000 C   0  0  0  0  0  0  0  0  0  0  0  0
   21.7507  -21.3155    0.0000 C   0  0  0  0  0  0  0  0  0  0  0  0
   21.3215  -20.6060    0.0000 C   0  0  0  0  0  0  0  0  0  0  0  0
   20.4987  -20.6234    0.0000 C   0  0  0  0  0  0  0  0  0  0  0  0
   15.5335  -20.7312    0.0000 C   0  0  0  0  0  0  0  0  0  0  0  0
   14.7089  -20.7587    0.0000 C   0  0  0  0  0  0  0  0  0  0  0  0
   14.2729  -20.0584    0.0000 C   0  0  0  0  0  0  0  0  0  0  0  0
   14.6614  -19.3306    0.0000 O   0  0  0  0  0  0  0  0  0  0  0  0
   14.2254  -18.6303    0.0000 C   0  0  0  0  0  0  0  0  0  0  0  0
   14.6143  -17.9055    0.0000 C   0  0  0  0  0  0  0  0  0  0  0  0
   14.1790  -17.2057    0.0000 C   0  0  0  0  0  0  0  0  0  0  0  0
   13.3535  -17.2327    0.0000 C   0  0  0  0  0  0  0  0  0  0  0  0
   12.9655  -17.9655    0.0000 C   0  0  0  0  0  0  0  0  0  0  0  0
   13.4030  -18.6624    0.0000 C   0  0  0  0  0  0  0  0  0  0  0  0
  7  8  1  0  0  0  0 
 16 17  2  0  0  0  0 
 17 18  1  0  0  0  0 
  8  9  1  0  0  0  0 
 18 19  2  0  0  0  0 
 19 14  1  0  0  0  0 
  4  9  1  0  0  0  0 
 12 20  2  0  0  0  0 
  2  3  1  0  0  0  0 
 20 21  1  0  0  0  0 
  7 10  1  0  0  0  0 
 21 22  2  0  0  0  0 
  2  7  1  0  0  0  0 
 22 23  1  0  0  0  0 
  4 11  1  0  0  0  0 
 23 24  2  0  0  0  0 
 24 12  1  0  0  0  0 
  3  4  1  0  0  0  0 
 10 25  1  0  0  0  0 
 11 12  1  0  0  0  0 
 25 26  1  0  0  0  0 
  4  5  1  0  0  0  0 
 26 27  1  0  0  0  0 
 11 13  1  0  0  0  0 
 27 28  1  0  0  0  0 
  5  6  1  0  0  0  0 
 28 29  1  0  0  0  0 
 11 14  1  0  0  0  0 
 29 30  2  0  0  0  0 
  6  7  1  0  0  0  0 
 30 31  1  0  0  0  0 
 14 15  2  0  0  0  0 
 31 32  2  0  0  0  0 
 32 33  1  0  0  0  0 
 15 16  1  0  0  0  0 
 33 34  2  0  0  0  0 
 34 29  1  0  0  0  0 
M  CHG  1   1  -1
M  CHG  1   7   1
M  END