
  CDK    9/16/09,10:0

 18 19  0  0  0  0  0  0  0  0999 V2000
   -1.8806  -11.9083    0.0000 C   0  0  0  0  0  0  0  0  0  0  0  0
   -1.8818  -12.7357    0.0000 C   0  0  0  0  0  0  0  0  0  0  0  0
   -1.1669  -13.1485    0.0000 C   0  0  0  0  0  0  0  0  0  0  0  0
   -0.4505  -12.7352    0.0000 C   0  0  0  0  0  0  0  0  0  0  0  0
   -0.4534  -11.9047    0.0000 C   0  0  0  0  0  0  0  0  0  0  0  0
   -1.1687  -11.4955    0.0000 C   0  0  0  0  0  0  0  0  0  0  0  0
    0.2565  -11.4908    0.0000 C   0  0  0  0  0  0  0  0  0  0  0  0
    0.9728  -11.9023    0.0000 C   0  0  0  0  0  0  0  0  0  0  0  0
    1.6852  -11.4878    0.0000 C   0  0  0  0  0  0  0  0  0  0  0  0
    1.6826  -10.6619    0.0000 C   0  0  0  0  0  0  0  0  0  0  0  0
    0.9615  -10.2523    0.0000 C   0  0  0  0  0  0  0  0  0  0  0  0
    0.2521  -10.6692    0.0000 C   0  0  0  0  0  0  0  0  0  0  0  0
    2.3949  -10.2458    0.0000 O   0  0  0  0  0  0  0  0  0  0  0  0
   -2.5966  -13.1476    0.0000 O   0  0  0  0  0  0  0  0  0  0  0  0
   -2.5952  -11.4960    0.0000 C   0  0  0  0  0  0  0  0  0  0  0  0
   -3.3095  -11.9086    0.0000 N   0  0  0  0  0  0  0  0  0  0  0  0
   -4.0241  -11.4963    0.0000 O   0  0  0  0  0  0  0  0  0  0  0  0
    2.4011  -11.8980    0.0000 F   0  0  0  0  0  0  0  0  0  0  0  0
  4  5  1  0  0  0  0 
  9 10  2  0  0  0  0 
  2  3  1  0  0  0  0 
 10 11  1  0  0  0  0 
  5  6  2  0  0  0  0 
 11 12  2  0  0  0  0 
 12  7  1  0  0  0  0 
  5  7  1  0  0  0  0 
  6  1  1  0  0  0  0 
 10 13  1  0  0  0  0 
  1  2  2  0  0  0  0 
  2 14  1  0  0  0  0 
  3  4  2  0  0  0  0 
  1 15  1  0  0  0  0 
  7  8  2  0  0  0  0 
 15 16  2  0  0  0  0 
 16 17  1  0  0  0  0 
  8  9  1  0  0  0  0 
  9 18  1  0  0  0  0 
M  END