
  SciTegic06051315212D

 23 26  0  0  0  0            999 V2000
   17.7250  -18.7459    0.0000 N   0  0
   17.0115  -18.3373    0.0000 C   0  0
   18.4386  -18.3331    0.0000 C   0  0
   18.4386  -17.5118    0.0000 C   0  0
   17.7250  -17.1032    0.0000 C   0  0
   17.0115  -17.5118    0.0000 C   0  0
   16.3021  -17.1032    0.0000 C   0  0
   15.5885  -17.5118    0.0000 C   0  0
   15.5885  -18.3373    0.0000 C   0  0
   16.3021  -18.7459    0.0000 C   0  0
   19.1489  -18.7382    0.0000 C   0  0
   17.7238  -16.2853    0.0000 C   0  0
   18.4315  -15.8767    0.0000 O   0  0
   17.0161  -15.8767    0.0000 O   0  0
   19.1455  -17.1020    0.0000 O   0  0
   19.2390  -19.5478    0.0000 C   0  0
   20.0398  -19.7135    0.0000 N   0  0
   19.8943  -18.3985    0.0000 C   0  0
   20.4419  -19.0015    0.0000 C   0  0
   21.2358  -18.8282    0.0000 C   0  0
   21.4833  -18.0524    0.0000 C   0  0
   20.9307  -17.4498    0.0000 C   0  0
   20.1388  -17.6262    0.0000 C   0  0
 10  2  1  0
  2  6  2  0
  2  1  1  0
  1  3  2  0
  3  4  1  0
  4  5  2  0
  5  6  1  0
  6  7  1  0
  7  8  2  0
  8  9  1  0
  9 10  2  0
  3 11  1  0
 12 13  1  0
 12 14  2  0
  5 12  1  0
  4 15  1  0
 11 16  2  0
 16 17  1  0
 17 19  1  0
 18 11  1  0
 18 19  2  0
 19 20  1  0
 20 21  2  0
 21 22  1  0
 22 23  2  0
 23 18  1  0
M  END