
  Mrv0541 05211314572D          

 24 24  0  0  0  0            999 V2000
    2.8516    2.7026    0.0000 C   0  0  0  0  0  0  0  0  0  0  0  0
    3.2641    1.9881    0.0000 C   0  0  0  0  0  0  0  0  0  0  0  0
    2.8516    1.2736    0.0000 C   0  0  0  0  0  0  0  0  0  0  0  0
    2.0266    1.2736    0.0000 C   0  0  0  0  0  0  0  0  0  0  0  0
    1.6141    1.9881    0.0000 C   0  0  0  0  0  0  0  0  0  0  0  0
    2.0266    2.7026    0.0000 N   0  0  0  0  0  0  0  0  0  0  0  0
    1.6141    0.5592    0.0000 C   0  0  0  0  0  0  0  0  0  0  0  0
    2.0266   -0.1553    0.0000 O   0  0  0  0  0  0  0  0  0  0  0  0
    0.7891    0.5592    0.0000 C   0  0  0  0  0  0  0  0  0  0  0  0
    0.3766   -0.1553    0.0000 N   0  0  0  0  0  0  0  0  0  0  0  0
   -0.4484   -0.1553    0.0000 C   0  0  0  0  0  0  0  0  0  0  0  0
   -0.8609   -0.8698    0.0000 C   0  0  0  0  0  0  0  0  0  0  0  0
   -1.6859   -0.8698    0.0000 C   0  0  0  0  0  0  0  0  0  0  0  0
   -2.0984   -1.5843    0.0000 C   0  0  0  0  0  0  0  0  0  0  0  0
   -2.9234   -1.5843    0.0000 C   0  0  0  0  0  0  0  0  0  0  0  0
   -3.3359   -0.8698    0.0000 C   0  0  0  0  0  0  0  0  0  0  0  0
   -2.9234   -0.1553    0.0000 C   0  0  0  0  0  0  0  0  0  0  0  0
   -2.0984   -0.1553    0.0000 C   0  0  0  0  0  0  0  0  0  0  0  0
    0.7891   -0.8698    0.0000 C   0  0  0  0  0  0  0  0  0  0  0  0
    1.6141   -0.8698    0.0000 C   0  0  0  0  0  0  0  0  0  0  0  0
    2.0266   -1.5843    0.0000 C   0  0  0  0  0  0  0  0  0  0  0  0
   -3.3359   -2.2987    0.0000 F   0  0  0  0  0  0  0  0  0  0  0  0
   -4.1609   -0.8698    0.0000 F   0  0  0  0  0  0  0  0  0  0  0  0
    5.5034    0.0000    0.0000 Br  0  0  0  0  0  0  0  0  0  0  0  0
  1  2  2  0  0  0  0
  2  3  1  0  0  0  0
  3  4  2  0  0  0  0
  4  5  1  0  0  0  0
  1  6  1  0  0  0  0
  5  6  2  0  0  0  0
  4  7  1  0  0  0  0
  7  8  1  0  0  0  0
  7  9  1  0  0  0  0
  9 10  1  0  0  0  0
 10 11  1  0  0  0  0
 11 12  1  0  0  0  0
 12 13  1  0  0  0  0
 13 14  2  0  0  0  0
 14 15  1  0  0  0  0
 15 16  2  0  0  0  0
 16 17  1  0  0  0  0
 13 18  1  0  0  0  0
 17 18  2  0  0  0  0
 10 19  1  0  0  0  0
 19 20  1  0  0  0  0
 20 21  1  0  0  0  0
 15 22  1  0  0  0  0
 16 23  1  0  0  0  0
M  END