
  SciTegic01161211242D

 40 45  0  0  0  0            999 V2000
   12.9508  -10.5422    0.0000 C   0  0
   13.6367  -10.0842    0.0000 C   0  0
   14.4083  -10.3732    0.0000 N   0  0
   13.6671   -9.2630    0.0000 C   0  0
   14.4612   -9.0393    0.0000 N   0  0
   14.9140   -9.7249    0.0000 C   0  0
   15.7060   -9.5062    0.0000 S   0  0
   14.9734   -8.3968    0.0000 C   0  0
   15.7434   -8.6895    0.0000 C   0  0
   16.3798   -8.1694    0.0000 C   0  0
   16.2465   -7.3570    0.0000 C   0  0
   15.4730   -7.0665    0.0000 C   0  0
   14.8399   -7.5885    0.0000 C   0  0
   11.5236  -10.5458    0.0000 C   0  0
   11.5224  -11.3732    0.0000 C   0  0
   12.2372  -11.7860    0.0000 C   0  0
   12.9537  -11.3727    0.0000 C   0  0
   12.2354  -10.1330    0.0000 C   0  0
   10.8076  -11.7851    0.0000 N   0  0
   10.0935  -11.3720    0.0000 C   0  0
    9.3787  -11.7840    0.0000 N   0  0
   10.0941  -10.5470    0.0000 O   0  0
    8.6645  -11.3709    0.0000 C   0  0
    8.5832  -10.5476    0.0000 C   0  0
    7.7763  -10.3754    0.0000 C   0  0
    7.3633  -11.0896    0.0000 O   0  0
    7.9149  -11.7030    0.0000 N   0  0
    7.4414   -9.6215    0.0000 C   0  0
    7.9268   -8.9544    0.0000 C   0  0
    6.6125   -9.6208    0.0000 C   0  0
    7.0208   -8.9042    0.0000 C   0  0
   16.9368   -6.9051    0.0000 C   0  0
   17.6732   -7.2770    0.0000 N   0  0
   17.7147   -8.0997    0.0000 C   0  0
   18.4470   -8.4717    0.0000 C   0  0
   19.1399   -8.0233    0.0000 N   0  0
   19.0957   -7.1985    0.0000 C   0  0
   18.3586   -6.8222    0.0000 C   0  0
   19.8750   -8.3980    0.0000 C   0  0
   19.9180   -9.2218    0.0000 C   0  0
  5  4  1  0
 15 19  1  0
  8  9  2  0
 19 20  1  0
  4  2  2  0
 20 21  1  0
  9 10  1  0
 20 22  2  0
  5  6  1  0
 21 23  1  0
 23 24  1  0
 10 11  2  0
  2  3  1  0
 11 12  1  0
 24 25  2  0
 25 26  1  0
 26 27  1  0
 27 23  2  0
 12 13  2  0
 25 28  1  0
 13  8  1  0
 28 29  1  0
  1  2  1  0
 28 30  1  0
  6  7  1  0
 28 31  1  0
 14 15  2  0
 11 32  1  0
  7  9  1  0
 32 33  1  0
 33 34  1  0
 15 16  1  0
  8  5  1  0
 16 17  2  0
 17  1  1  0
  3  6  2  0
 33 38  1  0
 34 35  1  0
 35 36  1  0
 36 37  1  0
 37 38  1  0
  1 18  2  0
 36 39  1  0
 18 14  1  0
 39 40  1  0
M  END