
  SciTegic04191617032D

 29 32  0  0  0  0            999 V2000
   -2.3155    0.7475    0.0000 C   0  0
   -2.3155   -0.7475    0.0000 C   0  0
   -1.0028   -1.5132    0.0000 C   0  0
   -1.0028    1.5132    0.0000 C   0  0
    0.2917    0.7475    0.0000 C   0  0
    0.2917   -0.7475    0.0000 C   0  0
    1.7138   -1.2033    0.0000 C   0  0
    2.5889    0.0182    0.0000 N   0  0
    1.7138    1.2033    0.0000 C   0  0
    2.0825    2.3453    0.0000 O   0  0
   -0.9971    3.0138    0.0000 C   0  0
    0.0446    3.6095    0.0000 N   0  0
   -2.0337    3.6184    0.0000 O   0  0
    4.0872    0.0320    0.0000 C   0  0
    4.8506   -1.2602    0.0000 C   0  0
    6.3513   -1.2462    0.0000 C   0  0
    7.1146   -2.5384    0.0000 N   0  0
    8.6146   -2.5267    0.0000 C   0  0
    9.3749   -3.8197    0.0000 C   0  0
    8.6352   -5.1247    0.0000 C   0  0
    7.1352   -5.1365    0.0000 C   0  0
    6.3749   -3.8435    0.0000 C   0  0
    9.3932   -6.4200    0.0000 C   0  0
    8.6512   -7.7246    0.0000 C   0  0
    9.4069   -9.0204    0.0000 C   0  0
    8.6627  -10.3227    0.0000 C   0  0
    7.1627  -10.3294    0.0000 C   0  0
    6.4069   -9.0337    0.0000 C   0  0
    7.1512   -7.7314    0.0000 C   0  0
  1  2  2  0
  2  3  1  0
  3  6  2  0
  5  4  2  0
  4  1  1  0
  5  6  1  0
  6  7  1  0
  7  8  1  0
  8  9  1  0
  9  5  1  0
  9 10  2  0
 11 12  1  0
 11 13  2  0
  4 11  1  0
  8 14  1  0
 14 15  1  0
 15 16  1  0
 16 17  1  0
 17 18  1  0
 17 22  1  0
 18 19  1  0
 19 20  1  0
 20 21  1  0
 21 22  1  0
 20 23  1  0
 23 24  1  0
 24 25  2  0
 25 26  1  0
 26 27  2  0
 27 28  1  0
 28 29  2  0
 29 24  1  0
M  END