
          11280715142D 1   1.00000     0.00000     0

 59 64  0     1  0            999 V2000
   13.6042   -3.3750    0.0000 O   0  0  0  0  0  0           0  0  0
    1.3667   -8.6792    0.0000 O   0  0  0  0  0  0           0  0  0
   12.8792   -3.7625    0.0000 C   0  0  2  0  0  0           0  0  0
   13.6292   -2.5500    0.0000 C   0  0  2  0  0  0           0  0  0
    0.6417   -8.2667    0.0000 C   0  0  2  0  0  0           0  0  0
   12.8542   -4.5875    0.0000 C   0  0  0  0  0  0           0  0  0
    2.0792   -8.2667    0.0000 C   0  0  1  0  0  0           0  0  0
   12.9417   -2.1125    0.0000 O   0  0  0  0  0  0           0  0  0
    0.6417   -7.4417    0.0000 O   0  0  0  0  0  0           0  0  0
   17.2667   -0.6000    0.0000 N   0  0  0  0  0  0           0  0  0
   -2.9333  -10.3292    0.0000 N   0  0  0  0  0  0           0  0  0
   12.1792   -3.3250    0.0000 C   0  0  1  0  0  0           0  0  0
   16.5542   -1.0167    0.0000 C   0  0  0  0  0  0           0  0  0
   -2.2083   -9.9167    0.0000 C   0  0  0  0  0  0           0  0  0
    2.0792   -7.4417    0.0000 C   0  0  1  0  0  0           0  0  0
    2.7917   -8.6792    0.0000 C   0  0  0  0  0  0           0  0  0
   14.3667   -2.1667    0.0000 C   0  0  0  0  0  0           0  0  0
   -0.0708   -8.6792    0.0000 C   0  0  0  0  0  0           0  0  0
    9.2292   -5.8167    0.0000 C   0  0  0  0  0  0           0  0  0
    6.3667   -7.4417    0.0000 C   0  0  0  0  0  0           0  0  0
   13.5542   -5.0167    0.0000 C   0  0  0  0  0  0           0  0  0
   12.2167   -2.5000    0.0000 C   0  0  0  0  0  0           0  0  0
    1.3542   -7.0292    0.0000 C   0  0  0  0  0  0           0  0  0
    3.4917   -9.9167    0.0000 N   0  0  0  0  0  0           0  0  0
    9.9292   -6.2542    0.0000 O   0  0  0  0  0  0           0  0  0
    6.3667   -8.2667    0.0000 O   0  0  0  0  0  0           0  0  0
   14.4042   -1.3500    0.0000 C   0  0  0  0  0  0           0  0  0
   15.0667   -2.6125    0.0000 C   0  0  0  0  0  0           0  0  0
   -0.7833   -8.2667    0.0000 C   0  0  0  0  0  0           0  0  0
   -0.0708   -9.5042    0.0000 C   0  0  0  0  0  0           0  0  0
   10.7042   -3.4000    0.0000 C   0  0  0  0  0  0           0  0  0
    3.5042   -7.4417    0.0000 C   0  0  0  0  0  0           0  0  0
   10.0167   -3.7792    0.0000 C   0  0  0  0  0  0           0  0  0
    4.2417   -7.4542    0.0000 C   0  0  0  0  0  0           0  0  0
   15.8292   -1.4000    0.0000 C   0  0  0  0  0  0           0  0  0
   -1.4958   -9.5042    0.0000 C   0  0  0  0  0  0           0  0  0
    7.0792   -7.0292    0.0000 N   0  0  0  0  0  0           0  0  0
    8.5042   -6.2042    0.0000 N   0  0  0  0  0  0           0  0  0
   -0.7833   -9.9167    0.0000 C   0  0  0  0  0  0           0  0  0
   -1.4958   -8.6792    0.0000 C   0  0  0  0  0  0           0  0  0
   15.1292   -0.9625    0.0000 C   0  0  0  0  0  0           0  0  0
   15.7917   -2.2250    0.0000 C   0  0  0  0  0  0           0  0  0
    2.7792   -9.5042    0.0000 C   0  0  0  0  0  0           0  0  0
   14.2792   -4.6292    0.0000 O   0  0  0  0  0  0           0  0  0
   12.1292   -4.9625    0.0000 C   0  0  0  0  0  0           0  0  0
   11.4167   -3.8042    0.0000 C   0  0  0  0  0  0           0  0  0
    2.7917   -7.0292    0.0000 C   0  0  0  0  0  0           0  0  0
    5.6417   -7.0292    0.0000 C   0  0  0  0  0  0           0  0  0
    9.2542   -4.9917    0.0000 C   0  0  0  0  0  0           0  0  0
    3.4917   -8.2667    0.0000 C   0  0  0  0  0  0           0  0  0
    4.2167   -9.5042    0.0000 C   0  0  0  0  0  0           0  0  0
    9.9917   -4.6042    0.0000 C   0  0  0  0  0  0           0  0  0
    4.9292   -7.0167    0.0000 C   0  0  0  0  0  0           0  0  0
   13.5167   -5.8417    0.0000 C   0  0  0  0  0  0           0  0  0
    8.5042   -7.0292    0.0000 C   0  0  0  0  0  0           0  0  0
    7.7917   -7.4417    0.0000 C   0  0  0  0  0  0           0  0  0
    4.2042   -8.6792    0.0000 C   0  0  0  0  0  0           0  0  0
   12.0917   -5.7875    0.0000 C   0  0  0  0  0  0           0  0  0
   12.7917   -6.2250    0.0000 C   0  0  0  0  0  0           0  0  0
  2  7  1  0     0  0
  3  1  1  0     0  0
  4  1  1  0     0  0
  5  9  1  0     0  0
  3  6  1  6     0  0
  7 15  1  0     0  0
  8  4  1  0     0  0
  9 23  1  0     0  0
 10 13  3  0     0  0
 11 14  3  0     0  0
 12  3  1  0     0  0
 13 35  1  0     0  0
 14 36  1  0     0  0
 15 47  1  1     0  0
  7 16  1  1     0  0
  4 17  1  6     0  0
  5 18  1  1     0  0
 19 49  1  0     0  0
 20 37  1  0     0  0
 21  6  2  0     0  0
 22  8  1  0     0  0
 23 15  1  0     0  0
 24 43  1  0     0  0
 25 19  2  0     0  0
 26 20  2  0     0  0
 27 17  2  0     0  0
 28 17  1  0     0  0
 29 18  2  0     0  0
 30 18  1  0     0  0
 31 46  1  0     0  0
 32 34  2  0     0  0
 33 31  2  0     0  0
 34 53  1  0     0  0
 35 42  1  0     0  0
 36 39  1  0     0  0
 37 56  1  0     0  0
 38 19  1  0     0  0
 39 30  2  0     0  0
 40 29  1  0     0  0
 41 27  1  0     0  0
 42 28  2  0     0  0
 43 16  2  0     0  0
 44 21  1  0     0  0
 45  6  1  0     0  0
 12 46  1  6     0  0
 47 32  1  0     0  0
 48 20  1  0     0  0
 49 52  1  0     0  0
 50 16  1  0     0  0
 51 57  1  0     0  0
 52 33  1  0     0  0
 53 48  1  0     0  0
 54 21  1  0     0  0
 55 38  1  0     0  0
 56 55  1  0     0  0
 57 50  2  0     0  0
 58 45  2  0     0  0
 59 58  1  0     0  0
 12 22  1  0     0  0
 35 41  2  0     0  0
 59 54  2  0     0  0
  5  2  1  0     0  0
 24 51  2  0     0  0
 40 36  2  0     0  0
M  END