
  SciTegic04091416462D

 35 36  0  0  0  0            999 V2000
   18.0543   -5.2323    0.0000 S   0  0
   18.8471   -5.0042    0.0000 C   0  0
   18.8771   -4.1797    0.0000 C   0  0
   18.0992   -3.8970    0.0000 N   0  0
   17.5947   -4.5487    0.0000 C   0  0
   16.7702   -4.5210    0.0000 C   0  0
   19.5612   -3.7186    0.0000 C   0  0
   16.3818   -3.7931    0.0000 C   0  0
   16.3340   -5.2212    0.0000 C   0  0
   20.3025   -4.0807    0.0000 N   0  0
   20.9866   -3.6196    0.0000 C   0  0
   20.3091   -4.9056    0.0000 C   0  0
   21.7280   -3.9816    0.0000 N   0  0
   20.9838   -2.7947    0.0000 O   0  0
   22.4363   -3.5585    0.0000 C   0  0  2  0  0  0
   23.1568   -3.9602    0.0000 C   0  0
   22.4238   -2.7335    0.0000 C   0  0
   23.1321   -2.3103    0.0000 C   0  0
   21.7033   -2.3317    0.0000 C   0  0
   23.1692   -4.7851    0.0000 O   0  0
   23.8650   -3.5371    0.0000 N   0  0
   24.5857   -3.9388    0.0000 C   0  0
   25.2939   -3.5157    0.0000 C   0  0
   26.0144   -3.9174    0.0000 C   0  0
   26.7226   -3.4943    0.0000 C   0  0
   27.4431   -3.8960    0.0000 N   0  0
   28.1614   -3.4900    0.0000 C   0  0
   28.8720   -3.9091    0.0000 O   0  0
   28.1689   -2.6651    0.0000 O   0  0
   29.5902   -3.5031    0.0000 C   0  0
   30.3009   -3.9222    0.0000 C   0  0
   30.3789   -4.7418    0.0000 C   0  0
   31.1844   -4.9208    0.0000 N   0  0
   31.6034   -4.2100    0.0000 C   0  0
   31.0569   -3.5920    0.0000 S   0  0
  1  2  1  0
  2  3  2  0
  3  4  1  0
  4  5  2  0
  5  1  1  0
  5  6  1  0
  3  7  1  0
  6  8  1  0
  6  9  1  0
  7 10  1  0
 10 11  1  0
 10 12  1  0
 11 13  1  0
 11 14  2  0
 13 15  1  0
 15 16  1  0
 15 17  1  1
 17 18  1  0
 17 19  1  0
 16 20  2  0
 16 21  1  0
 21 22  1  0
 22 23  1  0
 23 24  1  0
 24 25  1  0
 25 26  1  0
 26 27  1  0
 27 28  1  0
 27 29  2  0
 28 30  1  0
 30 31  1  0
 31 32  2  0
 32 33  1  0
 33 34  2  0
 34 35  1  0
 35 31  1  0
M  END