
  SciTegic02011310422D

 22 25  0  0  0  0            999 V2000
   -3.2566  -17.1703    0.0000 C   0  0
   -2.5384  -17.5783    0.0000 C   0  0
   -1.8271  -17.1603    0.0000 C   0  0
   -1.8343  -16.3341    0.0000 C   0  0
   -2.5527  -15.9261    0.0000 C   0  0
   -3.2638  -16.3441    0.0000 C   0  0
    0.3236  -18.3771    0.0000 C   0  0
    0.3185  -17.5546    0.0000 C   0  0
   -0.3998  -17.1467    0.0000 C   0  0
   -1.1110  -17.5647    0.0000 C   0  0
   -1.1038  -18.3907    0.0000 C   0  0
   -0.3876  -18.7952    0.0000 N   0  0
    1.1127  -18.6282    0.0000 N   0  0
    1.1042  -17.2927    0.0000 C   0  0
    1.5919  -17.9550    0.0000 C   0  0
    1.5246  -16.5831    0.0000 C   0  0
    2.3489  -16.5923    0.0000 C   0  0
    2.7698  -15.8828    0.0000 N   0  0
    2.3665  -15.1640    0.0000 C   0  0
    1.5422  -15.1548    0.0000 C   0  0
    1.1212  -15.8644    0.0000 C   0  0
   -3.9678  -17.5915    0.0000 N   0  0
  1  2  1  0
  2  3  2  0
  3  4  1  0
  4  5  2  0
  5  6  1  0
  1  6  2  0
  7  8  1  0
  8  9  2  0
  9 10  1  0
 10 11  2  0
 11 12  1  0
  7 12  2  0
 14 15  2  0
 13 15  1  0
  7 13  1  0
  8 14  1  0
 16 17  1  0
 17 18  2  0
 18 19  1  0
 19 20  2  0
 20 21  1  0
 16 21  2  0
 14 16  1  0
  3 10  1  0
  1 22  1  0
M  END