
  CDK    9/16/09,9:19

 11 12  0  0  0  0  0  0  0  0999 V2000
   12.4967   -0.0045    0.0000 C   0  0  0  0  0  0  0  0  0  0  0  0
   12.4953   -0.8303    0.0000 C   0  0  0  0  0  0  0  0  0  0  0  0
   13.2068   -1.2423    0.0000 C   0  0  0  0  0  0  0  0  0  0  0  0
   13.2048    0.4073    0.0000 C   0  0  0  0  0  0  0  0  0  0  0  0
   13.9213   -0.0005    0.0000 C   0  0  0  0  0  0  0  0  0  0  0  0
   13.9250   -0.8278    0.0000 C   0  0  0  0  0  0  0  0  0  0  0  0
   14.6392   -1.2358    0.0000 N   0  0  0  0  0  0  0  0  0  0  0  0
   15.3543   -0.8214    0.0000 C   0  0  0  0  0  0  0  0  0  0  0  0
   15.3507    0.0058    0.0000 N   0  0  0  0  0  0  0  0  0  0  0  0
   14.6319    0.4185    0.0000 C   0  0  0  0  0  0  0  0  0  0  0  0
   14.6271    1.2416    0.0000 O   0  0  0  0  0  0  0  0  0  0  0  0
  2  3  1  0  0  0  0 
  3  6  2  0  0  0  0 
  1  2  2  0  0  0  0 
  5  4  2  0  0  0  0 
  4  1  1  0  0  0  0 
  5 10  1  0  0  0  0 
  6  7  1  0  0  0  0 
  7  8  2  0  0  0  0 
  8  9  1  0  0  0  0 
  9 10  1  0  0  0  0 
  5  6  1  0  0  0  0 
 10 11  2  0  0  0  0 
M  END