
  CDK    9/16/09,9:57

 27 29  0  0  0  0  0  0  0  0999 V2000
   -2.8763    0.9054    0.0000 C   0  0  0  0  0  0  0  0  0  0  0  0
   -2.8516    0.0807    0.0000 C   0  0  0  0  0  0  0  0  0  0  0  0
   -2.1251   -0.3102    0.0000 N   0  0  0  0  0  0  0  0  0  0  0  0
   -1.4233    0.1235    0.0000 C   0  0  0  0  0  0  0  0  0  0  0  0
   -0.6968   -0.2675    0.0000 N   0  0  0  0  0  0  0  0  0  0  0  0
   -1.4480    0.9481    0.0000 N   0  0  0  0  0  0  0  0  0  0  0  0
    0.0050    0.1662    0.0000 C   0  0  0  0  0  0  0  0  0  0  0  0
    0.7315   -0.2247    0.0000 C   0  0  0  0  0  0  0  0  0  0  0  0
   -0.0197    0.9908    0.0000 O   0  0  0  0  0  0  0  0  0  0  0  0
    1.4333    0.2089    0.0000 C   0  0  0  0  0  0  0  0  0  0  0  0
    2.1598   -0.1820    0.0000 C   0  0  0  0  0  0  0  0  0  0  0  0
    2.1802   -1.0050    0.0000 C   0  0  0  0  0  0  0  0  0  0  0  0
    2.9058   -1.3959    0.0000 C   0  0  0  0  0  0  0  0  0  0  0  0
    3.6086   -0.9621    0.0000 C   0  0  0  0  0  0  0  0  0  0  0  0
    3.5812   -0.1333    0.0000 C   0  0  0  0  0  0  0  0  0  0  0  0
    2.8551    0.2538    0.0000 C   0  0  0  0  0  0  0  0  0  0  0  0
   -3.6028    1.2963    0.0000 C   0  0  0  0  0  0  0  0  0  0  0  0
   -3.6275    2.1210    0.0000 C   0  0  0  0  0  0  0  0  0  0  0  0
   -3.2130    3.3899    0.0000 C   0  0  0  0  0  0  0  0  0  0  0  0
   -4.0380    3.3909    0.0000 N   0  0  0  0  0  0  0  0  0  0  0  0
   -4.2958    2.6071    0.0000 C   0  0  0  0  0  0  0  0  0  0  0  0
   -2.9615    2.6054    0.0000 N   0  0  0  0  0  0  0  0  0  0  0  0
    1.4086    1.0336    0.0000 C   0  0  0  0  0  0  0  0  0  0  0  0
    2.0611    1.5378    0.0000 N   0  0  0  0  0  0  0  0  0  0  0  0
    1.7828    2.3145    0.0000 C   0  0  0  0  0  0  0  0  0  0  0  0
    0.9582    2.2898    0.0000 C   0  0  0  0  0  0  0  0  0  0  0  0
    0.7269    1.4979    0.0000 S   0  0  0  0  0  0  0  0  0  0  0  0
  5  7  1  0  0  0  0 
 13 14  2  0  0  0  0 
  3  4  1  0  0  0  0 
 14 15  1  0  0  0  0 
  7  8  1  0  0  0  0 
 15 16  2  0  0  0  0 
 16 11  1  0  0  0  0 
  1 17  1  0  0  0  0 
  7  9  2  0  0  0  0 
 17 18  1  0  0  0  0 
 19 20  1  0  0  0  0 
  4  5  1  0  0  0  0 
  8 10  1  0  0  0  0 
  2  3  1  0  0  0  0 
 10 11  1  0  0  0  0 
 20 21  1  0  0  0  0 
 21 18  2  0  0  0  0 
 18 22  1  0  0  0  0 
 22 19  2  0  0  0  0 
 10 23  1  0  0  0  0 
 23 24  2  0  0  0  0 
  4  6  2  0  0  0  0 
 11 12  2  0  0  0  0 
  1  2  1  0  0  0  0 
 12 13  1  0  0  0  0 
 24 25  1  0  0  0  0 
 25 26  2  0  0  0  0 
 26 27  1  0  0  0  0 
 27 23  1  0  0  0  0 
M  END