
  SciTegic01161211252D

 38 43  0  0  0  0            999 V2000
    1.1369   -1.0775    0.0000 N   0  0
    2.5628   -1.0846    0.0000 C   0  0
    1.8517   -0.6674    0.0000 C   0  0
   -0.2365    0.6151    0.0000 C   0  0
    0.4640    0.1793    0.0000 C   0  0
    0.4403   -0.6472    0.0000 C   0  0
    3.2975   -0.7289    0.0000 C   0  0
    3.9980   -1.1606    0.0000 N   0  0
    3.3169    0.0976    0.0000 O   0  0
    3.9700   -1.9835    0.0000 C   0  0
    4.6664   -2.4190    0.0000 C   0  0
    5.3927   -2.0277    0.0000 N   0  0
    5.4224   -1.2002    0.0000 C   0  0
    4.7176   -0.7641    0.0000 C   0  0
    6.0886   -2.4653    0.0000 C   0  0
    6.0605   -3.2928    0.0000 C   0  0
    6.7626   -3.7311    0.0000 C   0  0
    7.4891   -3.3389    0.0000 C   0  0
    7.5133   -2.5080    0.0000 C   0  0
    6.8146   -2.0776    0.0000 C   0  0
    1.1880    0.5742    0.0000 C   0  0
   -0.9605    0.2202    0.0000 C   0  0
   -1.6616    0.6582    0.0000 C   0  0
   -1.7037   -0.9951    0.0000 C   0  0
   -0.9789   -0.6026    0.0000 C   0  0
    1.1327   -1.9044    0.0000 C   0  0
    2.5586   -1.9116    0.0000 C   0  0
    1.8407   -2.3226    0.0000 C   0  0
    1.8362   -3.1439    0.0000 C   0  0
    2.5479   -3.5602    0.0000 C   0  0
    3.2660   -3.1534    0.0000 C   0  0
    3.2721   -2.3259    0.0000 C   0  0
   -2.4063   -0.5696    0.0000 C   0  0
   -2.3859    0.2621    0.0000 C   0  0
   -3.1706    0.5385    0.0000 O   0  0
   -3.6760   -0.1224    0.0000 C   0  0
   -3.2036   -0.8071    0.0000 O   0  0
    8.1913   -3.7718    0.0000 F   0  0
 22 23  2  0
 23 34  1  0
  1  3  1  0
 33 24  1  0
  5  6  1  0
 24 25  2  0
 25 22  1  0
  6  1  1  0
  8 14  1  0
 28 26  1  0
 10 11  1  0
 11 12  1  0
 27 28  1  0
 12 13  1  0
 13 14  1  0
 27  2  1  0
  2  7  1  0
 15 16  2  0
  2  3  1  0
 27 32  1  0
 28 29  1  0
 29 30  1  0
 30 31  1  0
 31 32  1  0
 16 17  1  0
  7  8  1  0
 17 18  2  0
  1 26  1  0
 18 19  1  0
  7  9  2  0
 19 20  2  0
 20 15  1  0
 33 34  2  0
 12 15  1  0
  8 10  1  0
  5 21  1  0
  4 22  1  0
 34 35  1  0
 35 36  1  0
 36 37  1  0
 37 33  1  0
  4  5  1  0
 18 38  1  0
M  END