
          11290711592D 1   1.00000     0.00000     0

 90 96  0     1  0            999 V2000
   10.4950  -13.0374    0.0000 C   0  0  0  0  0  0           0  0  0
   10.8805  -13.7668    0.0000 C   0  0  3  0  0  0           0  0  0
   11.7008  -13.7951    0.0000 C   0  0  0  0  0  0           0  0  0
   12.1395  -13.1014    0.0000 C   0  0  0  0  0  0           0  0  0
   11.7540  -12.3720    0.0000 C   0  0  0  0  0  0           0  0  0
   10.9298  -12.3363    0.0000 C   0  0  0  0  0  0           0  0  0
    7.4183  -17.2132    0.0000 N   0  0  0  0  0  0           0  0  0
    8.1621  -17.5795    0.0000 N   0  0  0  0  0  0           0  0  0
    8.7407  -16.9855    0.0000 N   0  0  3  0  0  0           0  0  0
    8.3552  -16.2515    0.0000 C   0  0  0  0  0  0           0  0  0
   11.2618  -14.4883    0.0000 N   0  0  0  0  0  0           0  0  0
   10.7179  -15.1095    0.0000 C   0  0  0  0  0  0           0  0  0
   11.1556  -15.7917    0.0000 C   0  0  1  0  0  0           0  0  0
   10.6822  -16.4664    0.0000 N   0  0  0  0  0  0           0  0  0
    9.8611  -16.3113    0.0000 C   0  0  0  0  0  0           0  0  0
    9.5059  -17.0588    0.0000 C   0  0  0  0  0  0           0  0  0
    7.7371  -13.7015    0.0000 N   0  0  0  0  0  0           0  0  0
    8.5528  -13.8556    0.0000 C   0  0  0  0  0  0           0  0  0
    8.9096  -13.0972    0.0000 C   0  0  1  0  0  0           0  0  0
    9.7413  -13.1081    0.0000 N   0  0  0  0  0  0           0  0  0
   10.1055  -13.8361    0.0000 C   0  0  0  0  0  0           0  0  0
    9.4873  -15.5758    0.0000 O   0  0  0  0  0  0           0  0  0
    8.9281  -14.5904    0.0000 O   0  0  0  0  0  0           0  0  0
   11.9804  -15.8088    0.0000 C   0  0  0  0  0  0           0  0  0
   12.4076  -15.1030    0.0000 C   0  0  0  0  0  0           0  0  0
   13.2306  -15.1243    0.0000 C   0  0  0  0  0  0           0  0  0
   13.6577  -14.4193    0.0000 C   0  0  0  0  0  0           0  0  0
   13.2600  -13.6955    0.0000 C   0  0  0  0  0  0           0  0  0
   12.4309  -13.6810    0.0000 C   0  0  0  0  0  0           0  0  0
   12.0075  -14.3866    0.0000 C   0  0  0  0  0  0           0  0  0
    9.8952  -15.0483    0.0000 O   0  0  0  0  0  0           0  0  0
    9.6378  -14.5725    0.0000 O   0  0  0  0  0  0           0  0  0
    8.5314  -12.3852    0.0000 C   0  0  0  0  0  0           0  0  0
    8.8590  -11.6691    0.0000 C   0  0  0  0  0  0           0  0  0
    8.4297  -10.9229    0.0000 O   0  0  0  0  0  0           0  0  0
    9.6834  -11.6399    0.0000 N   0  0  0  0  0  0           0  0  0
   13.6863  -12.9891    0.0000 C   0  0  0  0  0  0           0  0  0
   14.5111  -13.0051    0.0000 P   0  0  3  0  0  0           0  0  0
   15.3294  -13.0371    0.0000 O   0  0  0  0  0  0           0  0  0
   14.5352  -12.1805    0.0000 O   0  0  0  0  0  0           0  0  0
   14.4933  -13.8299    0.0000 O   0  0  0  0  0  0           0  0  0
    7.1991  -14.3269    0.0000 C   0  0  0  0  0  0           0  0  0
    0.4620  -15.8375    0.0000 C   0  0  0  0  0  0           0  0  0
    0.4648  -15.0125    0.0000 C   0  0  3  0  0  0           0  0  0
   -0.2457  -14.6017    0.0000 C   0  0  0  0  0  0           0  0  0
   -0.9592  -15.0076    0.0000 C   0  0  0  0  0  0           0  0  0
   -0.9621  -15.8326    0.0000 C   0  0  0  0  0  0           0  0  0
   -0.2515  -16.2517    0.0000 C   0  0  0  0  0  0           0  0  0
    4.6476  -14.2679    0.0000 N   0  0  0  0  0  0           0  0  0
    5.1412  -13.5995    0.0000 C   0  0  0  0  0  0           0  0  0
    4.6571  -12.9265    0.0000 C   0  0  0  0  0  0           0  0  0
    3.8671  -13.1785    0.0000 N   0  0  3  0  0  0           0  0  0
    3.8620  -14.0076    0.0000 N   0  0  0  0  0  0           0  0  0
    0.4677  -14.1965    0.0000 N   0  0  0  0  0  0           0  0  0
    1.2398  -13.9040    0.0000 C   0  0  0  0  0  0           0  0  0
    1.1744  -13.0962    0.0000 C   0  0  1  0  0  0           0  0  0
    1.9095  -12.7234    0.0000 N   0  0  0  0  0  0           0  0  0
    2.5612  -13.2465    0.0000 C   0  0  0  0  0  0           0  0  0
    3.2263  -12.7539    0.0000 C   0  0  0  0  0  0           0  0  0
    3.2081  -16.5486    0.0000 N   0  0  0  0  0  0           0  0  0
    2.5607  -16.0289    0.0000 C   0  0  0  0  0  0           0  0  0
    1.8892  -16.5305    0.0000 C   0  0  1  0  0  0           0  0  0
    1.1603  -16.1296    0.0000 N   0  0  0  0  0  0           0  0  0
    1.2372  -15.3174    0.0000 C   0  0  0  0  0  0           0  0  0
    2.5452  -14.0714    0.0000 O   0  0  0  0  0  0           0  0  0
    2.5752  -15.2041    0.0000 O   0  0  0  0  0  0           0  0  0
    0.4546  -12.6931    0.0000 C   0  0  0  0  0  0           0  0  0
   -0.2544  -13.1151    0.0000 C   0  0  0  0  0  0           0  0  0
   -0.9706  -12.7092    0.0000 C   0  0  0  0  0  0           0  0  0
   -1.6791  -13.1304    0.0000 C   0  0  0  0  0  0           0  0  0
   -1.6686  -13.9562    0.0000 C   0  0  0  0  0  0           0  0  0
   -0.9437  -14.3590    0.0000 C   0  0  0  0  0  0           0  0  0
   -0.2382  -13.9354    0.0000 C   0  0  0  0  0  0           0  0  0
    1.9371  -14.3450    0.0000 O   0  0  0  0  0  0           0  0  0
    1.9405  -14.8860    0.0000 O   0  0  0  0  0  0           0  0  0
    1.8880  -17.3366    0.0000 C   0  0  0  0  0  0           0  0  0
    1.2621  -17.8145    0.0000 C   0  0  0  0  0  0           0  0  0
    1.2900  -18.6749    0.0000 O   0  0  0  0  0  0           0  0  0
    0.5208  -17.4525    0.0000 N   0  0  0  0  0  0           0  0  0
   -2.3770  -14.3791    0.0000 C   0  0  0  0  0  0           0  0  0
   -3.1042  -13.9769    0.0000 P   0  0  3  0  0  0           0  0  0
   -3.8042  -13.5642    0.0000 O   0  0  0  0  0  0           0  0  0
   -3.5077  -14.6934    0.0000 O   0  0  0  0  0  0           0  0  0
   -2.6937  -13.2575    0.0000 O   0  0  0  0  0  0           0  0  0
    5.9662  -13.6047    0.0000 C   0  0  0  0  0  0           0  0  0
    6.3742  -14.3218    0.0000 C   0  0  0  0  0  0           0  0  0
    4.2375  -16.0542    0.0000 C   0  0  0  0  0  0           0  0  0
    5.2981  -16.6755    0.0000 C   0  0  0  0  0  0           0  0  0
    6.1455  -16.1178    0.0000 C   0  0  0  0  0  0           0  0  0
    7.5394  -16.3892    0.0000 C   0  0  0  0  0  0           0  0  0
 18 19  1  0     0  0
  2 21  1  0     0  0
 10 90  2  0     0  0
 15 22  2  0     0  0
  3  4  1  0     0  0
 43 48  1  0     0  0
 44 45  1  0     0  0
 45 46  1  0     0  0
 46 47  1  0     0  0
 47 48  1  0     0  0
 50 51  2  0     0  0
 18 23  2  0     0  0
  4  5  1  0     0  0
 13 24  1  6     0  0
  5  6  1  0     0  0
 24 25  1  0     0  0
 49 50  1  0     0  0
 51 52  1  0     0  0
 52 53  1  0     0  0
 53 49  2  0     0  0
  7  8  2  0     0  0
 25 26  2  0     0  0
 26 27  1  0     0  0
  1  2  1  0     0  0
 27 28  2  0     0  0
  1  6  1  0     0  0
 28 29  1  0     0  0
  2  3  1  0     0  0
 29 30  2  0     0  0
 30 25  1  0     0  0
 44 54  1  0     0  0
 54 55  1  0     0  0
 56 57  1  0     0  0
 57 58  1  0     0  0
 58 59  1  0     0  0
 55 56  1  0     0  0
 59 52  1  0     0  0
 60 61  1  0     0  0
 62 63  1  0     0  0
 63 64  1  0     0  0
 61 62  1  0     0  0
 44 64  1  0     0  0
 90  7  1  0     0  0
 58 65  2  0     0  0
 12 31  2  0     0  0
 61 66  2  0     0  0
  8  9  1  0     0  0
 56 67  1  6     0  0
 21 32  2  0     0  0
 67 68  1  0     0  0
  9 10  1  0     0  0
 68 69  2  0     0  0
 19 33  1  6     0  0
 69 70  1  0     0  0
  2 11  1  0     0  0
 70 71  2  0     0  0
 33 34  1  0     0  0
 71 72  1  0     0  0
 11 12  1  0     0  0
 72 73  2  0     0  0
 73 68  1  0     0  0
 34 35  2  0     0  0
 55 74  2  0     0  0
 13 14  1  0     0  0
 64 75  2  0     0  0
 34 36  1  0     0  0
 62 76  1  6     0  0
 14 15  1  0     0  0
 76 77  1  0     0  0
 28 37  1  0     0  0
 77 78  2  0     0  0
 15 16  1  0     0  0
 77 79  1  0     0  0
 37 38  1  0     0  0
 71 80  1  0     0  0
 12 13  1  0     0  0
 80 81  1  0     0  0
 38 39  1  0     0  0
 81 82  1  0     0  0
 16  9  1  0     0  0
 81 83  1  0     0  0
 38 40  1  0     0  0
 81 84  2  0     0  0
 17 18  1  0     0  0
 50 85  1  0     0  0
 38 41  2  0     0  0
 85 86  1  0     0  0
 86 42  1  0     0  0
 19 20  1  0     0  0
 60 87  1  0     0  0
 17 42  1  0     0  0
 87 88  1  0     0  0
 43 44  1  0     0  0
 88 89  1  0     0  0
 20 21  1  0     0  0
 89 90  1  0     0  0
M  END