
  SciTegic01161211242D

 45 50  0  0  0  0            999 V2000
    1.0633   -2.2213    0.0000 C   0  0
    1.7492   -1.7633    0.0000 C   0  0
    2.5208   -2.0523    0.0000 N   0  0
    1.7796   -0.9422    0.0000 C   0  0
    2.5737   -0.7184    0.0000 N   0  0
    3.0265   -1.4040    0.0000 C   0  0
    3.8185   -1.1853    0.0000 S   0  0
    3.0859   -0.0760    0.0000 C   0  0
    3.8559   -0.3687    0.0000 C   0  0
    4.4923    0.1514    0.0000 C   0  0
    4.3599    0.9643    0.0000 C   0  0
    3.5855    1.2543    0.0000 C   0  0
    2.9524    0.7324    0.0000 C   0  0
   -0.3639   -2.2250    0.0000 C   0  0
   -0.3651   -3.0523    0.0000 C   0  0
    0.3497   -3.4652    0.0000 C   0  0
    1.0662   -3.0519    0.0000 C   0  0
    0.3479   -1.8122    0.0000 C   0  0
   -1.0799   -3.4643    0.0000 N   0  0
   -1.7940   -3.0512    0.0000 C   0  0
   -2.5088   -3.4631    0.0000 N   0  0
   -1.7934   -2.2262    0.0000 O   0  0
   -3.2230   -3.0501    0.0000 C   0  0
   -3.3043   -2.2268    0.0000 C   0  0
   -4.1112   -2.0546    0.0000 C   0  0
   -4.5242   -2.7688    0.0000 O   0  0
   -3.9726   -3.3822    0.0000 N   0  0
   -4.4461   -1.3007    0.0000 C   0  0
   -3.9607   -0.6336    0.0000 C   0  0
   -5.2750   -1.3000    0.0000 C   0  0
   -4.8667   -0.5833    0.0000 C   0  0
    4.9978    1.4875    0.0000 O   0  0
    5.7698    1.1967    0.0000 C   0  0
    6.4560    1.6539    0.0000 C   0  0
    7.1955    1.2882    0.0000 C   0  0
    7.8971    1.7218    0.0000 N   0  0
    8.6219    1.3261    0.0000 C   0  0
    9.3217    1.7563    0.0000 C   0  0
    9.3012    2.5814    0.0000 N   0  0
    8.5748    2.9744    0.0000 C   0  0
    7.8688    2.5424    0.0000 C   0  0
   10.0046    3.0124    0.0000 S   0  0
   10.7296    2.6188    0.0000 C   0  0
   10.4349    3.7154    0.0000 O   0  0
    9.6104    3.7436    0.0000 O   0  0
 20 21  1  0
  9 10  1  0
 20 22  2  0
  5  6  1  0
 21 23  1  0
 23 24  1  0
 10 11  2  0
  2  3  1  0
 11 12  1  0
 24 25  2  0
 25 26  1  0
 26 27  1  0
 27 23  2  0
 12 13  2  0
 25 28  1  0
 13  8  1  0
 28 29  1  0
  1  2  1  0
 28 30  1  0
  6  7  1  0
 28 31  1  0
 14 15  2  0
 11 32  1  0
  7  9  1  0
 32 33  1  0
 15 16  1  0
 33 34  1  0
  8  5  1  0
 34 35  1  0
 16 17  2  0
 35 36  1  0
 36 37  1  0
 17  1  1  0
  3  6  2  0
  1 18  2  0
 18 14  1  0
  5  4  1  0
 36 41  1  0
 37 38  1  0
 38 39  1  0
 39 40  1  0
 40 41  1  0
 15 19  1  0
 39 42  1  0
  8  9  2  0
 42 43  1  0
 19 20  1  0
 42 44  2  0
  4  2  2  0
 42 45  2  0
M  END