
  SciTegic05061116452D

 33 35  0  0  0  0            999 V2000
   -1.3625   -8.7640    0.0000 N   0  0
   -0.6508   -8.3554    0.0000 C   0  0
   -0.6508   -7.5304    0.0000 N   0  0
   -1.3625   -7.1140    0.0000 C   0  0
   -2.0742   -8.3554    0.0000 C   0  0
   -2.0742   -7.5258    0.0000 C   0  0
   -2.8632   -7.2694    0.0000 N   0  0
   -3.3509   -7.9406    0.0000 C   0  0
   -2.8633   -8.6117    0.0000 N   0  0
   -3.1183   -9.3964    0.0000 C   0  0
   -3.9252   -9.5679    0.0000 C   0  0
   -4.1802  -10.3525    0.0000 O   0  0
   -4.4773   -8.9548    0.0000 O   0  0
    0.0632   -8.7688    0.0000 N   0  0
    0.7782   -8.3572    0.0000 C   0  0
    1.4922   -8.7706    0.0000 C   0  0
    2.2072   -8.3589    0.0000 C   0  0
    2.9212   -8.7723    0.0000 C   0  0
    3.6362   -8.3607    0.0000 C   0  0
    0.0622   -9.5939    0.0000 C   0  0
   -0.6528  -10.0055    0.0000 O   0  0
    0.7762  -10.0072    0.0000 O   0  0
    0.7752  -10.8323    0.0000 C   0  0
    1.4892  -11.2457    0.0000 C   0  0
    0.0602  -11.2439    0.0000 C   0  0
    0.7706  -11.6556    0.0000 C   0  0
   -1.3606   -6.2889    0.0000 N   0  0
   -0.6451   -5.8782    0.0000 C   0  0
    0.0683   -6.2906    0.0000 C   0  0
    0.7817   -5.8833    0.0000 C   0  0
    0.7878   -5.0579    0.0000 O   0  0
    0.0745   -4.6414    0.0000 C   0  0
   -0.6451   -5.0504    0.0000 C   0  0
 15 16  1  0
  6  7  1  0
 16 17  1  0
  7  8  2  0
 17 18  1  0
  8  9  1  0
 18 19  1  0
  9  5  1  0
 14 20  1  0
  3  4  2  0
 20 21  2  0
  9 10  1  0
 20 22  1  0
  5  6  2  0
 22 23  1  0
 10 11  1  0
 23 24  1  0
 23 25  1  0
 11 12  1  0
 23 26  1  0
  6  4  1  0
  4 27  1  0
 11 13  2  0
 27 28  1  0
 28 29  1  0
  5  1  1  0
  2 14  1  0
  1  2  2  0
 14 15  1  0
  2  3  1  0
 28 33  1  0
 29 30  1  0
 30 31  1  0
 31 32  1  0
 32 33  1  0
M  END