
  SciTegic04091414352D

 50 54  0  0  0  0            999 V2000
    0.7250   -3.8961    0.0000 C   0  0
    0.7238   -4.7156    0.0000 C   0  0
    1.4319   -5.1246    0.0000 C   0  0
    1.4301   -3.4872    0.0000 C   0  0
    2.1387   -3.8925    0.0000 C   0  0
    2.1390   -4.7156    0.0000 C   0  0
    2.9219   -4.9698    0.0000 S   0  0
    3.4056   -4.3037    0.0000 C   0  0
    2.9215   -3.6379    0.0000 N   0  0
    4.2212   -4.3036    0.0000 C   0  0
    4.7018   -4.9645    0.0000 C   0  0
    5.4789   -4.7117    0.0000 N   0  0
    5.4786   -3.8945    0.0000 C   0  0
    4.7013   -3.6424    0.0000 S   0  0
    6.1395   -3.4139    0.0000 C   0  0
    6.0537   -2.6012    0.0000 C   0  0
    4.4495   -5.7418    0.0000 O   0  0
    3.1738   -2.8606    0.0000 C   0  0
    6.1402   -5.1919    0.0000 C   0  0
    6.0550   -6.0046    0.0000 C   0  0
    6.7157   -2.1221    0.0000 N   0  3
    6.6304   -1.3101    0.0000 C   0  0
    5.8831   -0.9773    0.0000 C   0  0
    5.2203   -1.4625    0.0000 C   0  0
    5.3090   -2.2728    0.0000 C   0  0
    7.4620   -2.4551    0.0000 C   0  0
    8.1235   -1.9754    0.0000 C   0  0
    8.8698   -2.3085    0.0000 C   0  0
    9.5313   -1.8287    0.0000 C   0  0
   10.2776   -2.1618    0.0000 C   0  0
   10.9391   -1.6821    0.0000 C   0  0
   11.6854   -2.0151    0.0000 N   0  0
   12.3469   -1.5354    0.0000 C   0  0
   13.0932   -1.8685    0.0000 C   0  0
   12.2623   -0.7226    0.0000 O   0  0
   13.7547   -1.3887    0.0000 C   0  0
   14.5010   -1.7218    0.0000 C   0  0
   15.1625   -1.2421    0.0000 C   0  0
   15.9088   -1.5751    0.0000 C   0  0  2  0  0  0
   16.0758   -2.3723    0.0000 S   0  0
   16.8884   -2.4585    0.0000 C   0  0
   16.6147   -1.1649    0.0000 C   0  0  2  0  0  0
   17.2188   -1.7107    0.0000 C   0  0  1  0  0  0
   17.9246   -1.3048    0.0000 N   0  0
   17.7566   -0.5081    0.0000 C   0  0
   16.9471   -0.4218    0.0000 N   0  0
   18.3044    0.0998    0.0000 O   0  0
   16.0302   -0.5819    0.0000 H   0  0
   17.7925   -2.2865    0.0000 H   0  0
    9.5009   -3.9828    0.0000 Cl  0  5
  1  2  2  0
  2  3  1  0
  3  6  2  0
  5  4  2  0
  4  1  1  0
  5  6  1  0
  6  7  1  0
  7  8  1  0
  8  9  1  0
  9  5  1  0
 10 11  1  0
 11 12  1  0
 12 13  1  0
 13 14  1  0
 14 10  1  0
  8 10  2  0
 13 15  2  0
 15 16  1  0
 11 17  2  0
  9 18  1  0
 12 19  1  0
 19 20  1  0
 16 21  2  0
 21 22  1  0
 22 23  2  0
 23 24  1  0
 24 25  2  0
 25 16  1  0
 21 26  1  0
 26 27  1  0
 27 28  1  0
 28 29  1  0
 29 30  1  0
 30 31  1  0
 31 32  1  0
 32 33  1  0
 33 34  1  0
 33 35  2  0
 34 36  1  0
 36 37  1  0
 37 38  1  0
 39 38  1  1
 39 40  1  0
 40 41  1  0
 41 43  1  0
 42 39  1  0
 42 43  1  0
 43 44  1  0
 44 45  1  0
 45 46  1  0
 46 42  1  0
 45 47  2  0
 42 48  1  6
 43 49  1  6
M  CHG  2  21   1  50  -1
M  END