
  SciTegic11201309402D

 58 63  0  0  0  0            999 V2000
    6.7261   -5.9085    0.0000 N   0  0
    4.3408   -6.0434    0.0000 N   0  0
    5.9549   -6.2120    0.0000 C   0  0
    5.1331   -6.2583    0.0000 C   0  0  1  0  0  0
    7.3709   -5.3986    0.0000 C   0  0  2  0  0  0
    3.6538   -5.6009    0.0000 C   0  0
    7.8176   -4.7075    0.0000 C   0  0
    2.8363   -4.1764    0.0000 N   0  0
    3.1271   -4.9477    0.0000 C   0  0  1  0  0  0
    8.0283   -3.9067    0.0000 N   0  0
    2.7815   -3.3547    0.0000 C   0  0
    3.7592   -6.6292    0.0000 C   0  0
    7.0295   -6.6798    0.0000 C   0  0
    3.4515   -1.8754    0.0000 N   0  0
    3.0006   -2.5581    0.0000 C   0  0  1  0  0  0
    8.0579   -5.8453    0.0000 C   0  0
    5.3480   -7.0548    0.0000 C   0  0
    7.6996   -2.3179    0.0000 C   0  0
    7.8513   -6.6502    0.0000 C   0  0
    9.5497   -0.5605    0.0000 C   0  0
    7.9946   -3.0849    0.0000 C   0  0  2  0  0  0
    4.0963   -1.3528    0.0000 C   0  0
    2.2505   -2.2252    0.0000 C   0  0
    3.9615   -7.4215    0.0000 C   0  0
    4.7664   -7.6406    0.0000 C   0  0
    2.1662   -1.4034    0.0000 C   0  0
    2.7731   -0.8513    0.0000 S   0  0
    6.1235   -7.0295    0.0000 O   0  0
    7.1728   -1.6731    0.0000 N   0  0
    3.0891   -6.1993    0.0000 O   0  0
    9.8110    0.2233    0.0000 N   0  0
    8.5720   -5.0362    0.0000 O   0  0
    1.9723   -3.2745    0.0000 O   0  0
    8.4076   -1.9007    0.0000 O   0  0
    2.4401   -0.0927    0.0000 C   0  0
    1.4456   -0.9904    0.0000 C   0  0
    3.6707   -0.6322    0.0000 O   0  0
    1.6183   -0.1813    0.0000 C   0  0
   10.1144   -1.1800    0.0000 N   0  0
    8.7490   -0.7333    0.0000 N   0  0
    2.4064   -5.3649    0.0000 C   0  0
    6.6502   -7.4215    0.0000 C   0  0
    2.4064   -6.1867    0.0000 O   0  0
    8.2981   -7.3372    0.0000 C   0  0
    4.8592   -1.0620    0.0000 C   0  0
    6.4859   -1.2306    0.0000 C   0  0
    8.7995   -2.9121    0.0000 C   0  0
    4.9730   -8.4329    0.0000 C   0  0
    3.3799   -8.0073    0.0000 C   0  0
    9.8532   -1.9639    0.0000 C   0  0
    9.0524   -2.1367    0.0000 C   0  0
    5.6810   -1.0114    0.0000 C   0  0
    7.0970   -8.1211    0.0000 C   0  0
    7.9272   -8.0705    0.0000 C   0  0
    4.3914   -9.0187    0.0000 C   0  0
    3.5949   -8.8038    0.0000 C   0  0
    8.3489   -5.1899    0.0000 H   0  0
    5.9438   -6.8438    0.0000 H   0  0
  4  2  1  0
  3  1  1  0
  4  3  1  0
  5  1  1  0
  6  2  1  0
  7  5  1  0
  8  9  1  0
  9  6  1  0
 10  7  1  0
 11  8  1  0
 12  2  1  0
 13  1  1  0
 14 15  1  0
 15 11  1  0
 16  5  1  0
 17  4  1  0
 18 21  1  0
 19 13  1  0
 20 39  1  0
 21 10  1  0
 22 45  1  0
 15 23  1  6
 24 25  2  0
 25 17  1  0
 26 23  1  0
 27 26  1  0
 28  3  2  0
 29 18  1  0
 30  6  2  0
 31 20  2  0
 32  7  2  0
 33 11  2  0
 34 18  2  0
 35 27  1  0
 36 26  2  0
 37 22  2  0
 38 36  1  0
 39 50  1  0
 40 20  1  0
  9 41  1  6
 42 13  1  0
 43 41  1  0
 44 19  1  0
 45 52  1  0
 46 29  1  0
 21 47  1  6
 48 25  1  0
 49 24  1  0
 50 51  1  0
 51 47  1  0
 52 46  1  0
 53 42  1  0
 54 53  1  0
 55 48  2  0
 56 55  1  0
 16 19  1  0
 44 54  1  0
 12 24  1  0
 49 56  2  0
 14 22  1  0
 35 38  2  0
  5 57  1  1
  4 58  1  6
M  END