
          11280714502D 1   1.00000     0.00000     0

 52 58  0     1  0            999 V2000
    3.8875   -3.6167    0.0000 S   0  0  3  0  0  0           0  0  0
    2.4542    0.5250    0.0000 S   0  0  3  0  0  0           0  0  0
    2.4542   -3.6167    0.0000 C   0  0  2  0  0  0           0  0  0
    3.1667   -3.2042    0.0000 N   0  0  3  0  0  0           0  0  0
    2.4417   -4.4417    0.0000 C   0  0  0  0  0  0           0  0  0
    4.6000   -3.1917    0.0000 C   0  0  0  0  0  0           0  0  0
    2.4417    1.3583    0.0000 C   0  0  0  0  0  0           0  0  0
    1.7292   -4.8542    0.0000 N   0  0  3  0  0  0           0  0  0
    0.2792   -5.6750    0.0000 N   0  0  3  0  0  0           0  0  0
    1.7375    0.1125    0.0000 O   0  0  0  0  0  0           0  0  0
    4.5917   -2.3667    0.0000 C   0  0  0  0  0  0           0  0  0
    3.1667   -4.0250    0.0000 O   0  0  0  0  0  0           0  0  0
    4.6042   -4.0292    0.0000 O   0  0  0  0  0  0           0  0  0
    3.1667    1.7833    0.0000 C   0  0  0  0  0  0           0  0  0
   -0.4458   -6.0875    0.0000 C   0  0  0  0  0  0           0  0  0
    3.2792    0.5250    0.0000 O   0  0  0  0  0  0           0  0  0
    2.4417   -0.3042    0.0000 O   0  0  0  0  0  0           0  0  0
    1.7292   -3.2042    0.0000 C   0  0  0  0  0  0           0  0  0
    3.1625   -4.8625    0.0000 O   0  0  0  0  0  0           0  0  0
    1.7167   -5.6875    0.0000 C   0  0  0  0  0  0           0  0  0
    1.0042   -4.4417    0.0000 C   0  0  0  0  0  0           0  0  0
    0.2917   -4.8417    0.0000 C   0  0  0  0  0  0           0  0  0
    1.0000   -6.0917    0.0000 C   0  0  0  0  0  0           0  0  0
    4.6042    2.6208    0.0000 N   0  0  0  0  0  0           0  0  0
    4.5667   -0.7125    0.0000 N   0  0  0  0  0  0           0  0  0
   -0.4458   -6.9125    0.0000 C   0  0  0  0  0  0           0  0  0
    5.3042   -1.9417    0.0000 C   0  0  0  0  0  0           0  0  0
    3.1667    2.6125    0.0000 C   0  0  0  0  0  0           0  0  0
    1.7375   -0.7167    0.0000 C   0  0  0  0  0  0           0  0  0
    1.7292   -2.3750    0.0000 C   0  0  0  0  0  0           0  0  0
    3.1667   -2.3750    0.0000 C   0  0  0  0  0  0           0  0  0
    5.3167   -3.6000    0.0000 C   0  0  0  0  0  0           0  0  0
    1.7292    1.7708    0.0000 C   0  0  0  0  0  0           0  0  0
    2.4542   -1.1375    0.0000 C   0  0  0  0  0  0           0  0  0
    1.0167   -1.1375    0.0000 C   0  0  0  0  0  0           0  0  0
    2.4542   -1.9625    0.0000 C   0  0  0  0  0  0           0  0  0
    1.0250   -1.9667    0.0000 C   0  0  0  0  0  0           0  0  0
    3.8792    3.0458    0.0000 C   0  0  0  0  0  0           0  0  0
    5.2917   -1.1167    0.0000 C   0  0  0  0  0  0           0  0  0
    3.8750   -1.9667    0.0000 C   0  0  0  0  0  0           0  0  0
    3.8917    1.3708    0.0000 C   0  0  0  0  0  0           0  0  0
    6.0292   -3.1750    0.0000 C   0  0  0  0  0  0           0  0  0
    1.7167    2.5958    0.0000 C   0  0  0  0  0  0           0  0  0
   -1.1583   -5.6625    0.0000 C   0  0  0  0  0  0           0  0  0
    3.8542   -1.1417    0.0000 C   0  0  0  0  0  0           0  0  0
    4.6042    1.7875    0.0000 C   0  0  0  0  0  0           0  0  0
    6.0167   -2.3417    0.0000 C   0  0  0  0  0  0           0  0  0
    2.4417    3.0208    0.0000 C   0  0  0  0  0  0           0  0  0
    0.2667   -7.3250    0.0000 C   0  0  0  0  0  0           0  0  0
   -1.1625   -7.3250    0.0000 C   0  0  0  0  0  0           0  0  0
   -1.8833   -6.0667    0.0000 C   0  0  0  0  0  0           0  0  0
   -1.8833   -6.9042    0.0000 C   0  0  0  0  0  0           0  0  0
  2 10  1  0     0  0
  3  4  1  0     0  0
  4  1  1  0     0  0
  3  5  1  6     0  0
  6  1  1  0     0  0
  7  2  1  0     0  0
  8  5  1  0     0  0
  9 22  1  0     0  0
 10 29  1  0     0  0
 11  6  2  0     0  0
 12  1  2  0     0  0
 13  1  2  0     0  0
 14  7  2  0     0  0
 15  9  1  0     0  0
 16  2  2  0     0  0
 17  2  2  0     0  0
 18  3  1  0     0  0
 19  5  2  0     0  0
 20  8  1  0     0  0
 21  8  1  0     0  0
 22 21  1  0     0  0
 23 20  1  0     0  0
 24 46  1  0     0  0
 25 45  1  0     0  0
 26 15  1  0     0  0
 27 11  1  0     0  0
 28 14  1  0     0  0
 29 35  1  0     0  0
 30 18  1  0     0  0
 31  4  1  0     0  0
 32  6  1  0     0  0
 33  7  1  0     0  0
 34 36  1  0     0  0
 35 37  2  0     0  0
 36 30  2  0     0  0
 37 30  1  0     0  0
 38 28  1  0     0  0
 39 27  1  0     0  0
 40 11  1  0     0  0
 41 14  1  0     0  0
 42 32  2  0     0  0
 43 33  2  0     0  0
 44 15  2  0     0  0
 45 40  2  0     0  0
 46 41  2  0     0  0
 47 42  1  0     0  0
 48 43  1  0     0  0
 49 26  1  0     0  0
 50 26  2  0     0  0
 51 44  1  0     0  0
 52 51  2  0     0  0
 47 27  2  0     0  0
 39 25  2  0     0  0
 34 29  2  0     0  0
 23  9  1  0     0  0
 50 52  1  0     0  0
 28 48  2  0     0  0
 24 38  2  0     0  0
M  END