
  CDK    9/16/09,9:50

 39 43  0  0  0  0  0  0  0  0999 V2000
   11.5152  -12.4000    0.0000 C   0  0  0  0  0  0  0  0  0  0  0  0
   11.5141  -13.2273    0.0000 C   0  0  0  0  0  0  0  0  0  0  0  0
   12.2289  -13.6402    0.0000 C   0  0  0  0  0  0  0  0  0  0  0  0
   12.2271  -11.9872    0.0000 C   0  0  0  0  0  0  0  0  0  0  0  0
   12.9425  -12.3963    0.0000 C   0  0  0  0  0  0  0  0  0  0  0  0
   12.9427  -13.2274    0.0000 C   0  0  0  0  0  0  0  0  0  0  0  0
   13.7332  -13.4840    0.0000 N   0  0  0  0  0  0  0  0  0  0  0  0
   14.2215  -12.8115    0.0000 C   0  0  0  0  0  0  0  0  0  0  0  0
   13.7328  -12.1393    0.0000 N   0  0  0  0  0  0  0  0  0  0  0  0
   15.0465  -12.8112    0.0000 C   0  0  0  0  0  0  0  0  0  0  0  0
   15.4588  -12.0966    0.0000 C   0  0  0  0  0  0  0  0  0  0  0  0
   16.2838  -12.0963    0.0000 C   0  0  0  0  0  0  0  0  0  0  0  0
   16.6960  -11.3817    0.0000 C   0  0  0  0  0  0  0  0  0  0  0  0
   14.1375  -14.1958    0.0000 C   0  0  0  0  0  0  0  0  0  0  0  0
   14.9625  -14.2017    0.0000 C   0  0  0  0  0  0  0  0  0  0  0  0
   15.3672  -14.9199    0.0000 C   0  0  0  0  0  0  0  0  0  0  0  0
   16.1914  -14.9261    0.0000 C   0  0  0  0  0  0  0  0  0  0  0  0
   16.6098  -14.2140    0.0000 C   0  0  0  0  0  0  0  0  0  0  0  0
   16.1980  -13.4942    0.0000 C   0  0  0  0  0  0  0  0  0  0  0  0
   15.3751  -13.4916    0.0000 C   0  0  0  0  0  0  0  0  0  0  0  0
   17.4313  -14.2183    0.0000 C   0  0  0  0  0  0  0  0  0  0  0  0
   17.8390  -14.9368    0.0000 C   0  0  0  0  0  0  0  0  0  0  0  0
   18.6632  -14.9419    0.0000 C   0  0  0  0  0  0  0  0  0  0  0  0
   19.0807  -14.2292    0.0000 C   0  0  0  0  0  0  0  0  0  0  0  0
   18.6679  -13.5100    0.0000 C   0  0  0  0  0  0  0  0  0  0  0  0
   17.8450  -13.5085    0.0000 C   0  0  0  0  0  0  0  0  0  0  0  0
   17.4215  -15.6523    0.0000 C   0  0  0  0  0  0  0  0  0  0  0  0
   16.5965  -15.6467    0.0000 O   0  0  0  0  0  0  0  0  0  0  0  0
   17.8292  -16.3695    0.0000 O   0  0  0  0  0  0  0  0  0  0  0  0
   10.8007  -11.9876    0.0000 N   0  0  0  0  0  0  0  0  0  0  0  0
   10.0863  -12.4003    0.0000 C   0  0  0  0  0  0  0  0  0  0  0  0
    9.3717  -11.9880    0.0000 C   0  0  0  0  0  0  0  0  0  0  0  0
   10.0865  -13.2253    0.0000 O   0  0  0  0  0  0  0  0  0  0  0  0
    9.3710  -11.1624    0.0000 C   0  0  0  0  0  0  0  0  0  0  0  0
    8.6573  -10.7501    0.0000 C   0  0  0  0  0  0  0  0  0  0  0  0
    7.9497  -11.1628    0.0000 C   0  0  0  0  0  0  0  0  0  0  0  0
    7.9469  -11.9921    0.0000 C   0  0  0  0  0  0  0  0  0  0  0  0
    8.6591  -12.4006    0.0000 C   0  0  0  0  0  0  0  0  0  0  0  0
    8.6608  -13.2256    0.0000 Cl  0  0  0  0  0  0  0  0  0  0  0  0
 18 19  1  0  0  0  0 
  9  5  1  0  0  0  0 
 19 20  2  0  0  0  0 
 20 15  1  0  0  0  0 
  4  1  1  0  0  0  0 
  8 10  1  0  0  0  0 
 21 22  2  0  0  0  0 
  5  6  1  0  0  0  0 
 22 23  1  0  0  0  0 
 10 11  1  0  0  0  0 
 23 24  2  0  0  0  0 
 24 25  1  0  0  0  0 
 11 12  1  0  0  0  0 
 25 26  2  0  0  0  0 
 26 21  1  0  0  0  0 
 18 21  1  0  0  0  0 
  2  3  1  0  0  0  0 
 12 13  1  0  0  0  0 
  3  6  2  0  0  0  0 
 27 28  1  0  0  0  0 
 27 29  2  0  0  0  0 
 22 27  1  0  0  0  0 
  7 14  1  0  0  0  0 
  1 30  1  0  0  0  0 
  1  2  2  0  0  0  0 
 30 31  1  0  0  0  0 
 14 15  1  0  0  0  0 
 31 32  1  0  0  0  0 
  5  4  2  0  0  0  0 
 31 33  2  0  0  0  0 
 15 16  2  0  0  0  0 
 32 34  2  0  0  0  0 
  6  7  1  0  0  0  0 
 34 35  1  0  0  0  0 
 16 17  1  0  0  0  0 
 35 36  2  0  0  0  0 
  7  8  1  0  0  0  0 
 36 37  1  0  0  0  0 
 17 18  2  0  0  0  0 
 37 38  2  0  0  0  0 
 38 32  1  0  0  0  0 
  8  9  2  0  0  0  0 
 38 39  1  0  0  0  0 
M  END