
  Mrv0541 05211314572D          

 18 20  0  0  0  0            999 V2000
    2.9385    0.2899    0.0000 N   0  0  0  0  0  0  0  0  0  0  0  0
    2.9385   -0.5351    0.0000 C   0  0  0  0  0  0  0  0  0  0  0  0
    2.2241   -0.9476    0.0000 C   0  0  0  0  0  0  0  0  0  0  0  0
    2.2241    0.7024    0.0000 C   0  0  0  0  0  0  0  0  0  0  0  0
    1.5096    0.2899    0.0000 C   0  0  0  0  0  0  0  0  0  0  0  0
    1.5096   -0.5351    0.0000 C   0  0  0  0  0  0  0  0  0  0  0  0
    0.7250   -0.7900    0.0000 O   0  0  0  0  0  0  0  0  0  0  0  0
    0.2401   -0.1226    0.0000 C   0  0  0  0  0  0  0  0  0  0  0  0
    0.7250    0.5448    0.0000 N   0  0  0  0  0  0  0  0  0  0  0  0
   -0.5849   -0.1226    0.0000 N   0  0  0  0  0  0  0  0  0  0  0  0
   -0.9974   -0.8371    0.0000 C   0  0  0  0  0  0  0  0  0  0  0  0
   -1.8224   -0.8371    0.0000 C   0  0  0  0  0  0  0  0  0  0  0  0
   -2.2349   -0.1226    0.0000 N   0  0  0  0  0  0  0  0  0  0  0  0
   -1.8224    0.5919    0.0000 C   0  0  0  0  0  0  0  0  0  0  0  0
   -0.9974    0.5919    0.0000 C   0  0  0  0  0  0  0  0  0  0  0  0
   -3.0599   -0.1226    0.0000 C   0  0  0  0  0  0  0  0  0  0  0  0
   -3.4724    0.5919    0.0000 C   0  0  0  0  0  0  0  0  0  0  0  0
   -4.2974    0.5919    0.0000 C   0  0  0  0  0  0  0  0  0  0  0  0
  8  9  2  0  0  0  0
  9  5  1  0  0  0  0
  4  1  1  0  0  0  0
  8 10  1  0  0  0  0
 10 11  1  0  0  0  0
  5  6  1  0  0  0  0
  2  3  1  0  0  0  0
  3  6  2  0  0  0  0
  1  2  2  0  0  0  0
 10 15  1  0  0  0  0
 11 12  1  0  0  0  0
 12 13  1  0  0  0  0
 13 14  1  0  0  0  0
 14 15  1  0  0  0  0
  5  4  2  0  0  0  0
 13 16  1  0  0  0  0
  6  7  1  0  0  0  0
 16 17  1  0  0  0  0
  7  8  1  0  0  0  0
 17 18  1  0  0  0  0
M  END