
          11280715222D 1   1.00000     0.00000     0

 31 36  0     0  0            999 V2000
    2.9167   -3.4667    0.0000 C   0  0  0  0  0  0           0  0  0
    2.9167   -4.2167    0.0000 C   0  0  0  0  0  0           0  0  0
    7.5417   -2.3750    0.0000 N   0  0  0  0  0  0           0  0  0
    2.2667   -4.5917    0.0000 N   0  0  0  0  0  0           0  0  0
    3.5667   -3.0917    0.0000 C   0  0  0  0  0  0           0  0  0
    7.4625   -3.1250    0.0000 C   0  0  0  0  0  0           0  0  0
    8.1625   -3.4500    0.0000 C   0  0  0  0  0  0           0  0  0
    8.2792   -2.2292    0.0000 O   0  0  0  0  0  0           0  0  0
    8.6500   -2.8792    0.0000 C   0  0  0  0  0  0           0  0  0
    1.6167   -3.4667    0.0000 C   0  0  0  0  0  0           0  0  0
    1.6167   -4.2167    0.0000 C   0  0  0  0  0  0           0  0  0
    5.5042   -4.2292    0.0000 N   0  0  3  0  0  0           0  0  0
    3.5542   -4.5917    0.0000 C   0  0  0  0  0  0           0  0  0
    8.4125   -4.1542    0.0000 C   0  0  0  0  0  0           0  0  0
    9.3917   -3.0167    0.0000 C   0  0  0  0  0  0           0  0  0
    4.2125   -3.4667    0.0000 C   0  0  0  0  0  0           0  0  0
    4.2125   -4.2167    0.0000 C   0  0  3  0  0  0           0  0  0
    6.8125   -3.4917    0.0000 C   0  0  3  0  0  0           0  0  0
    3.5667   -2.3417    0.0000 O   0  0  0  0  0  0           0  0  0
    4.8542   -4.6000    0.0000 C   0  0  0  0  0  0           0  0  0
    9.6375   -3.7292    0.0000 C   0  0  0  0  0  0           0  0  0
    6.1625   -3.1125    0.0000 C   0  0  0  0  0  0           0  0  0
    6.8042   -4.2417    0.0000 C   0  0  0  0  0  0           0  0  0
    5.5042   -3.4792    0.0000 C   0  0  0  0  0  0           0  0  0
    6.1542   -4.6042    0.0000 C   0  0  0  0  0  0           0  0  0
    9.1500   -4.2917    0.0000 C   0  0  0  0  0  0           0  0  0
   10.3667   -3.8542    0.0000 F   0  0  0  0  0  0           0  0  0
    0.9750   -3.0917    0.0000 C   0  0  0  0  0  0           0  0  0
    0.9750   -4.5875    0.0000 C   0  0  0  0  0  0           0  0  0
    0.3250   -3.4625    0.0000 C   0  0  0  0  0  0           0  0  0
    0.3292   -4.2167    0.0000 C   0  0  0  0  0  0           0  0  0
  2  1  2  0     0  0
  3  6  2  0     0  0
  4  2  1  0     0  0
  5  1  1  0     0  0
  6 18  1  0     0  0
  7  6  1  0     0  0
  8  3  1  0     0  0
  9  7  2  0     0  0
 10  1  1  0     0  0
 11 10  2  0     0  0
 12 20  1  0     0  0
 13  2  1  0     0  0
 14  7  1  0     0  0
 15  9  1  0     0  0
 16  5  1  0     0  0
 17 16  1  0     0  0
 18 23  1  0     0  0
 19  5  2  0     0  0
 20 17  1  0     0  0
 21 26  1  0     0  0
 22 24  1  0     0  0
 23 25  1  0     0  0
 24 12  1  0     0  0
 25 12  1  0     0  0
 26 14  2  0     0  0
 27 21  1  0     0  0
 28 10  1  0     0  0
 29 11  1  0     0  0
 30 28  2  0     0  0
 31 30  1  0     0  0
  4 11  1  0     0  0
 17 13  1  0     0  0
 29 31  2  0     0  0
 18 22  1  0     0  0
  8  9  1  0     0  0
 15 21  2  0     0  0
M  END