
  CDK    9/16/09,9:46

 22 24  0  0  0  0  0  0  0  0999 V2000
   12.5883  -22.6698    0.0000 C   0  0  0  0  0  0  0  0  0  0  0  0
   12.5871  -23.4790    0.0000 C   0  0  0  0  0  0  0  0  0  0  0  0
   13.2842  -23.8828    0.0000 C   0  0  0  0  0  0  0  0  0  0  0  0
   13.2823  -22.2661    0.0000 C   0  0  0  0  0  0  0  0  0  0  0  0
   11.8893  -22.2670    0.0000 O   0  0  0  0  0  0  0  0  0  0  0  0
   15.7470  -23.0404    0.0000 C   0  0  0  0  0  0  0  0  0  0  0  0
   13.9837  -23.4765    0.0000 C   0  0  0  0  0  0  0  0  0  0  0  0
   13.9862  -22.6693    0.0000 C   0  0  0  0  0  0  0  0  0  0  0  0
   14.6465  -22.1462    0.0000 C   0  0  0  0  0  0  0  0  0  0  0  0
   15.4017  -22.3232    0.0000 C   0  0  0  0  0  0  0  0  0  0  0  0
   15.4356  -23.7676    0.0000 N   0  0  0  0  0  0  0  0  0  0  0  0
   14.6304  -23.9747    0.0000 C   0  0  0  0  0  0  0  0  0  0  0  0
   15.7934  -25.1589    0.0000 C   0  0  0  0  0  0  0  0  0  0  0  0
   16.0187  -24.3569    0.0000 C   0  0  0  0  0  0  0  0  0  0  0  0
   16.2068  -23.5527    0.0000 C   0  0  0  0  0  0  0  0  0  0  0  0
   11.8887  -21.4602    0.0000 C   0  0  0  0  0  0  0  0  0  0  0  0
   14.9883  -25.3660    0.0000 C   0  0  0  0  0  0  0  0  0  0  0  0
   14.4105  -24.7708    0.0000 C   0  0  0  0  0  0  0  0  0  0  0  0
   13.6081  -24.9741    0.0000 C   0  0  0  0  0  0  0  0  0  0  0  0
   13.3825  -25.7722    0.0000 C   0  0  0  0  0  0  0  0  0  0  0  0
   13.9656  -26.3669    0.0000 C   0  0  0  0  0  0  0  0  0  0  0  0
   14.7656  -26.1603    0.0000 C   0  0  0  0  0  0  0  0  0  0  0  0
  7  8  1  0  0  0  0 
  1  5  1  0  0  0  0 
  2  3  1  0  0  0  0 
  3  7  2  0  0  0  0 
 11 14  1  0  0  0  0 
 12 18  1  0  0  0  0 
 17 13  1  0  0  0  0 
 13 14  1  0  0  0  0 
  1  2  2  0  0  0  0 
 11 15  1  0  0  0  0 
  8  4  2  0  0  0  0 
  5 16  1  0  0  0  0 
  4  1  1  0  0  0  0 
 11  6  1  0  0  0  0 
 17 18  2  0  0  0  0 
 12  7  1  0  0  0  0 
 18 19  1  0  0  0  0 
  8  9  1  0  0  0  0 
 19 20  2  0  0  0  0 
  9 10  1  0  0  0  0 
 20 21  1  0  0  0  0 
 10  6  1  0  0  0  0 
 21 22  2  0  0  0  0 
 22 17  1  0  0  0  0 
M  END