
  SciTegic05281310212D

 27 28  0  0  0  0            999 V2000
   -4.1223  -13.4666    0.0000 C   0  0
   -4.1234  -14.2940    0.0000 C   0  0
   -3.4086  -14.7069    0.0000 C   0  0
   -3.4104  -13.0539    0.0000 C   0  0
   -2.6950  -13.4630    0.0000 C   0  0
   -2.6943  -14.2898    0.0000 C   0  0
   -1.9790  -14.7008    0.0000 O   0  0
   -1.2639  -14.2860    0.0000 C   0  0
   -1.2687  -13.4561    0.0000 C   0  0  1  0  0  0
   -1.9846  -13.0488    0.0000 O   0  0
   -0.5568  -13.0392    0.0000 C   0  0
    0.1602  -13.4474    0.0000 N   0  0
    0.8722  -13.0305    0.0000 C   0  0
    1.5891  -13.4387    0.0000 C   0  0
    2.3011  -13.0218    0.0000 O   0  0
    3.0180  -13.4300    0.0000 C   0  0
    3.0189  -14.2553    0.0000 C   0  0
    3.7350  -14.6633    0.0000 C   0  0
    4.4480  -14.2464    0.0000 C   0  0
    4.4403  -13.4172    0.0000 C   0  0
    3.7236  -13.0129    0.0000 C   0  0
    2.3058  -14.6701    0.0000 O   0  0
    2.3086  -15.4951    0.0000 C   0  0
    3.7152  -12.1879    0.0000 O   0  0
    4.4255  -11.7682    0.0000 C   0  0
   -3.4129  -12.2289    0.0000 Cl  0  0
    0.4167  -11.9375    0.0000 Cl  0  0
 12 13  1  0
  5  6  1  0
 13 14  1  0
  2  3  1  0
 14 15  1  0
  6  7  1  0
 15 16  1  0
  3  6  2  0
 16 17  2  0
  7  8  1  0
 17 18  1  0
 18 19  2  0
  8  9  1  0
 19 20  1  0
  5  4  2  0
 20 21  2  0
 21 16  1  0
  9 10  1  0
 17 22  1  0
 10  5  1  0
 22 23  1  0
  4  1  1  0
 21 24  1  0
  9 11  1  1
 24 25  1  0
  1  2  2  0
  4 26  1  0
 11 12  1  0
M  END