
  SciTegic12121614122D

 40 44  0  0  0  0            999 V2000
   -1.2913    7.5063    0.0000 C   0  0
   -2.5882    8.2616    0.0000 C   0  0
   -2.5845    9.4615    0.0000 C   0  0
   -0.2500    8.1028    0.0000 O   0  0
   -1.2959    6.0055    0.0000 N   0  0
    0.0011    5.2503    0.0000 C   0  0
   -0.0014    3.7503    0.0000 C   0  0
    1.2964    2.9980    0.0000 C   0  0
    2.5967    3.7460    0.0000 C   0  0
    2.5992    5.2460    0.0000 C   0  0
    1.3014    5.9981    0.0000 C   0  0
   -2.6111    0.7486    0.0000 C   0  0
   -1.2964    1.4973    0.0000 N   0  0
    0.0000    0.7486    0.0000 C   0  0
    0.0000   -0.7486    0.0000 C   0  0
   -1.2964   -1.4973    0.0000 C   0  0
   -2.6111   -0.7486    0.0000 N   0  0
    1.2964   -1.4973    0.0000 C   0  0
    2.5929   -0.7486    0.0000 C   0  0
    2.5929    0.7486    0.0000 C   0  0
    1.2964    1.4973    0.0000 N   0  0
    3.6321    1.3486    0.0000 O   0  0
   -3.9122    1.4966    0.0000 N   0  0
   -5.2109    0.7445    0.0000 C   0  0
   -6.5125    1.4901    0.0000 C   0  0
   -7.8091    0.7359    0.0000 C   0  0
   -7.8042   -0.7641    0.0000 C   0  0
   -6.5027   -1.5098    0.0000 C   0  0
   -5.2061   -0.7556    0.0000 C   0  0
   -9.1014   -1.5188    0.0000 N   0  0
  -10.4041   -0.7752    0.0000 C   0  0
  -11.6995   -1.5315    0.0000 C   0  0
  -11.6922   -3.0315    0.0000 N   0  0
  -10.3895   -3.7751    0.0000 C   0  0
   -9.0942   -3.0188    0.0000 C   0  0
  -12.7285   -3.6365    0.0000 C   0  0
   -6.5206    2.9910    0.0000 O   0  0
   -7.5627    3.5860    0.0000 C   0  0
    1.2995   -2.9981    0.0000 C   0  0
    2.3396   -3.5967    0.0000 C   0  0
  1  2  1  0
  2  3  2  0
  1  4  2  0
  1  5  1  0
  6  7  1  0
  7  8  2  0
  8  9  1  0
  9 10  2  0
 10 11  1  0
  6 11  2  0
 12 13  1  0
 13 14  2  0
 14 15  1  0
 15 16  2  0
 16 17  1  0
 12 17  2  0
 18 19  2  0
 19 20  1  0
 20 21  1  0
 14 21  1  0
 15 18  1  0
 20 22  2  0
 24 25  1  0
 25 26  2  0
 26 27  1  0
 27 28  2  0
 28 29  1  0
 24 29  2  0
 30 31  1  0
 31 32  1  0
 32 33  1  0
 33 34  1  0
 34 35  1  0
 30 35  1  0
 33 36  1  0
 27 30  1  0
 37 38  1  0
 25 37  1  0
 23 24  1  0
 12 23  1  0
 39 40  1  0
 18 39  1  0
  8 21  1  0
  5  6  1  0
M  END