
          05270816392D 1   1.00000     0.00000     0

 35 40  0     1  0            999 V2000
   -4.6720  -28.1185    0.0000 C   0  0  0  0  0  0           0  0  0
   -4.6732  -28.9415    0.0000 C   0  0  0  0  0  0           0  0  0
   -3.2487  -28.1144    0.0000 C   0  0  0  0  0  0           0  0  0
   -3.9577  -27.7057    0.0000 C   0  0  0  0  0  0           0  0  0
   -3.2455  -28.9410    0.0000 C   0  0  0  0  0  0           0  0  0
   -3.9569  -29.3554    0.0000 C   0  0  0  0  0  0           0  0  0
   -3.9582  -30.1776    0.0000 C   0  0  0  0  0  0           0  0  0
   -3.2453  -30.5915    0.0000 C   0  0  0  0  0  0           0  0  0
   -5.2891  -29.4935    0.0000 N   0  0  0  0  0  0           0  0  0
   -4.7427  -30.4321    0.0000 C   0  0  0  0  0  0           0  0  0
   -2.5309  -29.3531    0.0000 C   0  0  2  0  0  0           0  0  0
   -2.5300  -30.1810    0.0000 C   0  0  2  0  0  0           0  0  0
   -1.8166  -30.5918    0.0000 N   0  0  3  0  0  0           0  0  0
   -1.0994  -30.1794    0.0000 C   0  0  0  0  0  0           0  0  0
   -1.1003  -29.3517    0.0000 C   0  0  1  0  0  0           0  0  0
   -1.8183  -28.9362    0.0000 C   0  0  0  0  0  0           0  0  0
   -2.5391  -31.0014    0.0000 H   0  0  0  0  0  0           0  0  0
   -2.5391  -28.5264    0.0000 H   0  0  0  0  0  0           0  0  0
   -0.3859  -28.9391    0.0000 C   0  0  0  0  0  0           0  0  0
   -0.3859  -28.1141    0.0000 O   0  0  0  0  0  0           0  0  0
    0.3286  -29.3516    0.0000 N   0  0  3  0  0  0           0  0  0
    0.3235  -30.1819    0.0000 C   0  0  0  0  0  0           0  0  0
    1.0339  -30.5943    0.0000 C   0  0  0  0  0  0           0  0  0
    1.7507  -30.1853    0.0000 N   0  0  3  0  0  0           0  0  0
    1.7526  -29.3594    0.0000 C   0  0  0  0  0  0           0  0  0
    1.0377  -28.9424    0.0000 C   0  0  0  0  0  0           0  0  0
    2.4636  -30.6005    0.0000 C   0  0  0  0  0  0           0  0  0
    2.4556  -31.4243    0.0000 C   0  0  0  0  0  0           0  0  0
    3.1676  -31.8394    0.0000 C   0  0  0  0  0  0           0  0  0
    3.8846  -31.4296    0.0000 C   0  0  0  0  0  0           0  0  0
    3.8851  -30.6003    0.0000 C   0  0  0  0  0  0           0  0  0
    3.1725  -30.1889    0.0000 C   0  0  0  0  0  0           0  0  0
   -1.8169  -31.4168    0.0000 C   0  0  0  0  0  0           0  0  0
    4.5981  -31.8438    0.0000 Cl  0  0  0  0  0  0           0  0  0
   -5.0371  -31.2028    0.0000 Br  0  0  0  0  0  0           0  0  0
 15 16  1  0     0  0
  6  7  1  0     0  0
 12 17  1  1     0  0
  7  8  1  0     0  0
 11 18  1  6     0  0
  8 12  1  0     0  0
 15 19  1  1     0  0
  3  4  2  0     0  0
 19 20  2  0     0  0
  2  9  1  0     0  0
 19 21  1  0     0  0
 21 22  1  0     0  0
  4  1  1  0     0  0
  7 10  2  0     0  0
  9 10  1  0     0  0
 11 12  1  0     0  0
  5  6  2  0     0  0
 21 26  1  0     0  0
 22 23  1  0     0  0
 23 24  1  0     0  0
 24 25  1  0     0  0
 25 26  1  0     0  0
  2  6  1  0     0  0
 24 27  1  0     0  0
 27 28  2  0     0  0
  5  3  1  0     0  0
 28 29  1  0     0  0
  1  2  2  0     0  0
 29 30  2  0     0  0
  5 11  1  0     0  0
 30 31  1  0     0  0
 11 16  1  0     0  0
 31 32  2  0     0  0
 32 27  1  0     0  0
 12 13  1  0     0  0
 13 33  1  0     0  0
 13 14  1  0     0  0
 30 34  1  0     0  0
 14 15  1  0     0  0
 10 35  1  0     0  0
M  END