
  SciTegic12011114592D

 23 25  0  0  0  0            999 V2000
   18.3069   -9.1583    0.0000 C   0  0
   18.3057   -9.9857    0.0000 C   0  0
   19.0206  -10.3985    0.0000 C   0  0
   19.0188   -8.7455    0.0000 C   0  0
   19.7341   -9.1547    0.0000 C   0  0
   19.7329   -9.9877    0.0000 C   0  0
   20.4498  -10.4030    0.0000 C   0  0
   21.1725   -9.9898    0.0000 C   0  0
   21.1737   -9.1567    0.0000 C   0  0
   20.4522   -8.7369    0.0000 O   0  0
   20.4475  -11.2280    0.0000 O   0  0
   21.8875   -8.7486    0.0000 C   0  0
   22.6012   -9.1645    0.0000 C   0  0
   23.3162   -8.7545    0.0000 C   0  0
   23.3187   -7.9286    0.0000 C   0  0
   22.6002   -7.5145    0.0000 C   0  0
   21.8881   -7.9270    0.0000 C   0  0
   19.0203  -11.2235    0.0000 O   0  0
   17.5923   -8.7460    0.0000 O   0  0
   17.5909  -10.3976    0.0000 C   0  0
   17.5903  -11.2226    0.0000 C   0  0
   16.8755  -11.6345    0.0000 C   0  0
   18.3044  -11.6357    0.0000 C   0  0
  7 11  2  0
  2  3  1  0
 12 13  2  0
  3  6  2  0
 13 14  1  0
  1  2  2  0
 14 15  2  0
  5  4  2  0
 15 16  1  0
  4  1  1  0
 16 17  2  0
 17 12  1  0
  9 12  1  0
  5 10  1  0
  3 18  1  0
  6  7  1  0
  1 19  1  0
  7  8  1  0
  2 20  1  0
  8  9  2  0
 20 21  2  0
  9 10  1  0
 21 22  1  0
  5  6  1  0
 21 23  1  0
M  END