
  SciTegic02101214292D

 42 46  0  0  0  0            999 V2000
    5.5764    0.6534    0.0000 C   0  0
    5.9839   -0.0639    0.0000 O   0  0
    5.9939    1.3650    0.0000 N   0  0
    5.5865    2.0823    0.0000 C   0  0
    6.0040    2.7939    0.0000 C   0  0
    6.8290    2.7881    0.0000 N   0  0
    7.2364    2.0707    0.0000 C   0  0
    6.8189    1.3592    0.0000 C   0  0
    7.2465    3.4996    0.0000 C   0  0
    4.2712    1.3301    0.0000 N   0  0
    4.7514    0.6592    0.0000 C   0  0
    4.2618   -0.0048    0.0000 C   0  0
    3.4790    0.2557    0.0000 C   0  0
    2.7617   -0.1518    0.0000 C   0  0
    2.0501    0.2658    0.0000 C   0  0
    2.0559    1.0907    0.0000 C   0  0
    2.7733    1.4982    0.0000 C   0  0
    3.4848    1.0807    0.0000 C   0  0
    1.3327   -0.1417    0.0000 N   0  0
   -0.0962   -0.1316    0.0000 C   0  0
    0.6212    0.2758    0.0000 C   0  0
    0.6270    1.1008    0.0000 C   0  0
   -0.8077    0.2859    0.0000 N   0  0
   -0.8019    1.1109    0.0000 C   0  0
   -1.5251   -0.1216    0.0000 C   0  0
   -2.2366    0.2960    0.0000 C   0  0
   -2.9540   -0.1115    0.0000 N   0  0
   -2.9598   -0.9365    0.0000 C   0  0
   -2.2482   -1.3540    0.0000 C   0  0
   -2.2541   -2.1790    0.0000 C   0  0
   -2.9714   -2.5864    0.0000 C   0  0
   -3.6830   -2.1689    0.0000 C   0  0
   -3.6771   -1.3439    0.0000 N   0  0
   -3.6655    0.3060    0.0000 C   0  0
   -4.3829   -0.1014    0.0000 C   0  0
   -4.3887   -0.9264    0.0000 C   0  0
   -5.1061   -1.3339    0.0000 C   0  0
   -5.8176   -0.9163    0.0000 C   0  0
   -5.8118   -0.0913    0.0000 C   0  0
   -5.0944    0.3161    0.0000 C   0  0
   -6.5350   -1.3238    0.0000 O   0  0
   -7.2465   -0.9063    0.0000 C   0  0
  1  2  2  0
  3  4  1  0
  4  5  1  0
  5  6  1  0
  6  7  1  0
  7  8  1  0
  3  8  1  0
  6  9  1  0
  1  3  1  0
 10 11  1  0
 11 12  2  0
 12 13  1  0
 13 14  1  0
 14 15  2  0
 15 16  1  0
 16 17  2  0
 17 18  1  0
 10 18  1  0
 13 18  2  0
 20 21  1  0
 21 22  1  0
 23 24  1  0
 25 26  1  0
 28 29  1  0
 29 30  2  0
 30 31  1  0
 31 32  2  0
 32 33  1  0
 28 33  2  0
 27 28  1  0
 34 35  1  0
 35 36  1  0
 36 37  2  0
 37 38  1  0
 38 39  2  0
 39 40  1  0
 35 40  2  0
 41 42  1  0
 38 41  1  0
 27 34  1  0
 26 27  1  0
 23 25  1  0
 20 23  1  0
 19 21  1  0
 15 19  1  0
  1 11  1  0
M  END