
  SciTegic11201309402D

 53 55  0  0  1  0            999 V2000
    1.1917   -0.6292    0.0000 N   0  0
    0.4792   -0.2167    0.0000 C   0  0
    1.1917   -1.4542    0.0000 N   0  0
    1.9042   -0.2167    0.0000 C   0  0  2  0  0  0
    1.9042   -1.8667    0.0000 C   0  0
   -0.2333   -0.6292    0.0000 C   0  0  1  0  0  0
    2.6167   -0.6292    0.0000 C   0  0
    5.4792   -0.6292    0.0000 N   0  0
    6.1917   -0.2167    0.0000 C   0  0  2  0  0  0
   -0.2333   -1.4542    0.0000 N   0  0
    1.9042   -2.6917    0.0000 C   0  0  1  0  0  0
    4.7625   -0.2167    0.0000 C   0  0
    3.3375   -0.2167    0.0000 N   0  0
    6.9042   -0.6417    0.0000 C   0  0
    4.0500   -0.6292    0.0000 C   0  0  1  0  0  0
    0.4792   -1.8667    0.0000 C   0  0
    1.1917   -3.1042    0.0000 C   0  0
    7.6167   -0.2292    0.0000 N   0  0
    1.9042    0.6083    0.0000 C   0  0
    0.4792    0.6083    0.0000 O   0  0
    1.1917   -2.2667    0.0000 O   0  0
    2.6167   -1.4542    0.0000 O   0  0
    4.7667    0.6083    0.0000 O   0  0
    6.9042   -1.4667    0.0000 O   0  0
    4.0417   -1.4542    0.0000 C   0  0
   -0.2375   -2.2667    0.0000 O   0  0
    6.1917    0.6000    0.0000 C   0  0  2  0  0  0
    2.6167   -3.1042    0.0000 C   0  0  1  0  0  0
    0.4792   -2.6917    0.0000 C   0  0
    8.3292   -0.6417    0.0000 C   0  0
   -0.9500   -0.2167    0.0000 C   0  0
    2.6167   -3.9292    0.0000 N   0  0
    1.3167    1.1958    0.0000 C   0  0
    6.9125    1.0083    0.0000 O   0  0
    9.0500   -0.2375    0.0000 C   0  0
   -1.6625   -0.6292    0.0000 O   0  0
    4.0500   -3.1042    0.0000 O   0  0
    4.6292   -2.0375    0.0000 C   0  0
    3.3292   -2.6917    0.0000 C   0  0
    5.4792    1.0208    0.0000 C   0  0
    0.5167    0.9833    0.0000 C   0  0
    1.5292    2.0000    0.0000 C   0  0
    9.7625   -0.6542    0.0000 C   0  0
    9.0500    0.5833    0.0000 C   0  0
    4.4125   -2.8292    0.0000 C   0  0
    5.4250   -2.2500    0.0000 C   0  0
    0.9417    2.5875    0.0000 C   0  0
   10.4792   -0.2417    0.0000 C   0  0
    9.7625    0.9958    0.0000 C   0  0
   -0.0708    1.5708    0.0000 C   0  0
    0.1417    2.3750    0.0000 C   0  0
   10.4792    0.5833    0.0000 C   0  0
    1.9042   -3.6917    0.0000 H   0  0
  2  1  1  0
  3  1  1  0
  4  1  1  0
  5  3  1  0
  6  2  1  0
  7  4  1  0
  8 12  1  0
  9  8  1  1
 10  6  1  0
 11  5  1  0
 12 15  1  0
 13  7  1  0
 14  9  1  0
 15 13  1  6
 16 10  1  0
 17 11  1  0
 18 14  1  0
  4 19  1  1
 20  2  2  0
 21  5  2  0
 22  7  2  0
 23 12  2  0
 24 14  2  0
 15 25  1  0
 26 16  2  0
  9 27  1  0
 11 28  1  0
 29 17  1  0
 30 18  1  0
  6 31  1  1
 28 32  1  6
 33 19  1  0
 27 34  1  1
 35 30  1  0
 36 31  1  0
 37 39  1  0
 38 25  1  0
 28 39  1  0
 40 27  1  0
 41 33  1  0
 42 33  2  0
 43 35  2  0
 44 35  1  0
 45 38  1  0
 46 38  1  0
 47 42  1  0
 48 43  1  0
 49 44  2  0
 50 41  2  0
 51 47  2  0
 52 49  1  0
 16 29  1  0
 51 50  1  0
 52 48  2  0
 11 53  1  1
M  END