
          11280715422D 1   1.00000     0.00000     0

 49 51  0     1  0            999 V2000
   -2.9458   -4.7042    0.0000 P   0  0  3  0  0  0           0  0  0
    3.1167    3.3583    0.0000 C   0  0  0  0  0  0           0  0  0
    2.4625    3.0083    0.0000 C   0  0  1  0  0  0           0  0  0
    1.8292    3.4000    0.0000 C   0  0  0  0  0  0           0  0  0
    0.8875   -2.0667    0.0000 C   0  0  0  0  0  0           0  0  0
    2.4375    2.2708    0.0000 N   0  0  0  0  0  0           0  0  0
    0.4167   -2.6417    0.0000 C   0  0  1  0  0  0           0  0  0
    3.7417    2.9625    0.0000 C   0  0  0  0  0  0           0  0  0
    2.6167    1.5583    0.0000 C   0  0  0  0  0  0           0  0  0
    0.6792   -4.1167    0.0000 C   0  0  0  0  0  0           0  0  0
   -2.8208   -3.9750    0.0000 O   0  0  0  0  0  0           0  0  0
    0.5500   -3.3792    0.0000 C   0  0  0  0  0  0           0  0  0
   -2.0458    3.5458    0.0000 C   0  0  0  0  0  0           0  0  0
   -0.3208   -2.5292    0.0000 C   0  0  0  0  0  0           0  0  0
   -2.2083   -4.8250    0.0000 C   0  0  0  0  0  0           0  0  0
    1.8542    4.1417    0.0000 O   0  0  0  0  0  0           0  0  0
    0.6292   -1.3792    0.0000 O   0  0  0  0  0  0           0  0  0
    3.7167    2.2208    0.0000 O   0  0  0  0  0  0           0  0  0
    3.3375    1.3500    0.0000 O   0  0  0  0  0  0           0  0  0
    0.1042   -4.6000    0.0000 O   0  0  0  0  0  0           0  0  0
   -1.4000    3.1458    0.0000 C   0  0  0  0  0  0           0  0  0
   -3.0708   -5.4417    0.0000 O   0  0  0  0  0  0           0  0  0
   -3.6833   -4.5792    0.0000 O   0  0  0  0  0  0           0  0  0
    1.1750    3.0500    0.0000 N   0  0  0  0  0  0           0  0  0
    1.6167   -2.1917    0.0000 N   0  0  0  0  0  0           0  0  0
   -2.6958    3.1875    0.0000 C   0  0  0  0  0  0           0  0  0
    4.4042    3.3125    0.0000 N   0  0  0  0  0  0           0  0  0
   -0.7958   -3.1042    0.0000 C   0  0  0  0  0  0           0  0  0
   -1.7375   -4.2500    0.0000 C   0  0  0  0  0  0           0  0  0
    1.3667   -4.3792    0.0000 O   0  0  0  0  0  0           0  0  0
   -0.5333   -3.7917    0.0000 C   0  0  0  0  0  0           0  0  0
   -1.5333   -2.9792    0.0000 C   0  0  0  0  0  0           0  0  0
   -1.0000   -4.3750    0.0000 C   0  0  0  0  0  0           0  0  0
   -2.0000   -3.5542    0.0000 C   0  0  0  0  0  0           0  0  0
   -2.0958    2.0500    0.0000 C   0  0  0  0  0  0           0  0  0
    2.1000    1.0208    0.0000 C   0  0  0  0  0  0           0  0  0
   -1.4333    2.4000    0.0000 C   0  0  0  0  0  0           0  0  0
   -2.0083    4.2792    0.0000 C   0  0  0  0  0  0           0  0  0
   -2.7250    2.4458    0.0000 C   0  0  0  0  0  0           0  0  0
   -0.7458    3.4958    0.0000 C   0  0  0  0  0  0           0  0  0
    0.5500    3.4583    0.0000 C   0  0  0  0  0  0           0  0  0
    1.4250   -1.4750    0.0000 C   0  0  0  0  0  0           0  0  0
   -3.3250    3.5958    0.0000 C   0  0  0  0  0  0           0  0  0
   -0.1208    3.0958    0.0000 C   0  0  0  0  0  0           0  0  0
    2.2917    0.3000    0.0000 C   0  0  0  0  0  0           0  0  0
    1.9542   -0.9417    0.0000 C   0  0  0  0  0  0           0  0  0
    1.7625   -0.2167    0.0000 C   0  0  0  0  0  0           0  0  0
   -2.6375    4.6792    0.0000 C   0  0  0  0  0  0           0  0  0
   -3.3000    4.3292    0.0000 C   0  0  0  0  0  0           0  0  0
  3  2  1  6     0  0
  3  6  1  0     0  0
  4  3  1  0     0  0
  5  7  1  0     0  0
  6  9  1  0     0  0
  7 14  1  0     0  0
  8  2  1  0     0  0
  9 36  1  0     0  0
 10 12  1  0     0  0
 11  1  2  0     0  0
  7 12  1  1     0  0
 13 21  1  0     0  0
 14 28  1  0     0  0
 15  1  1  0     0  0
 16  4  2  0     0  0
 17  5  2  0     0  0
 18  8  2  0     0  0
 19  9  2  0     0  0
 20 10  2  0     0  0
 21 40  1  0     0  0
 22  1  1  0     0  0
 23  1  1  0     0  0
 24  4  1  0     0  0
 25  5  1  0     0  0
 26 13  1  0     0  0
 27  8  1  0     0  0
 28 32  2  0     0  0
 29 15  1  0     0  0
 30 10  1  0     0  0
 31 33  2  0     0  0
 32 34  1  0     0  0
 33 29  1  0     0  0
 34 29  2  0     0  0
 35 37  1  0     0  0
 36 45  1  0     0  0
 37 21  2  0     0  0
 38 13  2  0     0  0
 39 35  2  0     0  0
 40 44  1  0     0  0
 41 24  1  0     0  0
 42 25  1  0     0  0
 43 26  2  0     0  0
 44 41  1  0     0  0
 45 47  1  0     0  0
 46 42  1  0     0  0
 47 46  1  0     0  0
 48 38  1  0     0  0
 49 48  2  0     0  0
 31 28  1  0     0  0
 39 26  1  0     0  0
 49 43  1  0     0  0
M  END