
  SciTegic02231516502D

 33 38  0  0  0  0            999 V2000
    3.5217   -7.7101    0.0000 N   0  0
    4.3422   -7.6239    0.0000 C   0  0
    4.0647   -8.9296    0.0000 N   0  0
    3.3502   -8.5171    0.0000 C   0  0
    4.6778   -8.3776    0.0000 C   0  0
    0.8037   -6.8270    0.0000 C   0  0
    0.1363   -6.3421    0.0000 C   0  0
    0.5488   -7.6116    0.0000 C   0  0
   -1.4714   -4.1126    0.0000 N   0  0
   -1.8839   -4.8270    0.0000 N   0  0
   -0.6644   -4.2841    0.0000 N   0  0
   -0.5312   -6.8270    0.0000 C   0  0
   -0.2762   -7.6116    0.0000 C   0  0
    4.8271   -6.9565    0.0000 N   0  0
   -0.5782   -5.1046    0.0000 C   0  0
   -1.3319   -5.4401    0.0000 N   0  0
    5.4982   -8.4638    0.0000 C   0  0
    2.9697   -7.0970    0.0000 C   0  0
    0.1363   -5.5171    0.0000 C   0  0
    1.1008   -8.2247    0.0000 C   0  0
    1.6107   -6.6555    0.0000 C   0  0
    5.6476   -7.0427    0.0000 C   0  0
    5.9832   -7.7964    0.0000 C   0  0
    2.1627   -7.2686    0.0000 C   0  0
    1.9078   -8.0532    0.0000 C   0  0
    2.5965   -8.8527    0.0000 C   0  0
   -1.3381   -6.6555    0.0000 C   0  0
   -0.8283   -8.2247    0.0000 C   0  0
    5.8338   -9.2175    0.0000 C   0  0
    6.1325   -6.3753    0.0000 C   0  0
    2.5103   -9.6732    0.0000 C   0  0
   -1.6352   -8.0532    0.0000 C   0  0
   -1.8902   -7.2686    0.0000 C   0  0
  2  1  1  0
  3  4  2  0
  4  1  1  0
  5  2  2  0
  6 21  2  0
  7  6  1  0
  8 20  2  0
  9 11  1  0
 10 16  1  0
 11 15  1  0
 12  7  1  0
 13  8  1  0
 14  2  1  0
 15 19  1  0
 16 15  2  0
 17  5  1  0
 18  1  1  0
 19  7  1  0
 20 25  1  0
 21 24  1  0
 22 14  2  0
 23 22  1  0
 24 18  1  0
 25 24  2  0
 26  4  1  0
 27 12  1  0
 28 13  1  0
 29 17  1  0
 30 22  1  0
 31 26  1  0
 32 28  2  0
 33 27  2  0
  5  3  1  0
 23 17  2  0
  6  8  1  0
 12 13  2  0
 32 33  1  0
  9 10  2  0
M  END