
  SciTegic05071317032D

 35 33  0  0  0  0            999 V2000
   17.6444  -22.1499    0.0000 C   0  0
   17.6433  -22.9772    0.0000 C   0  0
   18.3580  -23.3902    0.0000 C   0  0
   19.0745  -22.9768    0.0000 C   0  0
   19.0716  -22.1463    0.0000 C   0  0
   18.3562  -21.7371    0.0000 C   0  0
   19.7845  -21.7312    0.0000 O   0  0
   20.5005  -22.1409    0.0000 C   0  0
   21.2135  -21.7257    0.0000 C   0  0
   21.9294  -22.1355    0.0000 C   0  0
   22.6424  -21.7203    0.0000 C   0  0
   23.3583  -22.1301    0.0000 C   0  0
   24.0713  -21.7150    0.0000 C   0  0
   24.7874  -22.1248    0.0000 C   0  0
   25.5002  -21.7095    0.0000 C   0  0
   26.2163  -22.1193    0.0000 C   0  0
   26.9291  -21.7042    0.0000 N   0  0
   27.6449  -22.1162    0.0000 C   0  0
   28.3557  -21.7045    0.0000 C   0  0
   28.3569  -20.8792    0.0000 N   0  0
   27.6411  -20.4672    0.0000 C   0  0
   26.9240  -20.8805    0.0000 C   0  0
   29.0714  -20.4667    0.0000 C   0  0
   29.7859  -20.8792    0.0000 C   0  0
   30.5003  -20.4667    0.0000 C   0  0
   31.2148  -20.8792    0.0000 C   0  0
   31.9293  -20.4667    0.0000 N   0  0
   31.9293  -19.6417    0.0000 C   0  0
   32.6437  -20.8792    0.0000 C   0  0
   32.6437  -21.7042    0.0000 C   0  0
   33.3582  -22.1167    0.0000 C   0  0
   33.3582  -22.9417    0.0000 C   0  0
   27.7765  -23.8839    0.0000 Cl  0  0
   29.9357  -23.1295    0.0000 Cl  0  0
   29.8473  -24.4848    0.0000 Cl  0  0
  1  2  2  0
  2  3  1  0
  3  4  2  0
  4  5  1  0
  5  6  2  0
  6  1  1  0
  5  7  1  0
  7  8  1  0
  8  9  1  0
  9 10  1  0
 10 11  1  0
 11 12  1  0
 12 13  1  0
 13 14  1  0
 14 15  1  0
 15 16  1  0
 16 17  1  0
 17 18  1  0
 17 22  1  0
 18 19  1  0
 19 20  1  0
 20 21  1  0
 21 22  1  0
 20 23  1  0
 23 24  1  0
 24 25  1  0
 25 26  1  0
 26 27  1  0
 27 28  1  0
 27 29  1  0
 29 30  1  0
 30 31  1  0
 31 32  1  0
M  END