
  SciTegic06051315212D

 18 18  0  0  0  0            999 V2000
   35.1337   -3.1779    0.0000 C   0  0
   35.1325   -3.9975    0.0000 C   0  0
   35.8406   -4.4064    0.0000 C   0  0
   36.5502   -3.9970    0.0000 C   0  0
   36.5474   -3.1743    0.0000 C   0  0
   35.8388   -2.7691    0.0000 C   0  0
   35.8364   -1.9519    0.0000 S   0  0
   36.5428   -1.5412    0.0000 N   0  0
   35.0402   -2.1585    0.0000 O   0  0
   35.4199   -1.2382    0.0000 O   0  0
   37.2536   -2.7631    0.0000 F   0  0
   34.4259   -2.7695    0.0000 F   0  0
   34.4245   -4.4055    0.0000 F   0  0
   37.2586   -4.4045    0.0000 F   0  0
   35.8404   -5.2236    0.0000 S   0  0
   35.1326   -5.6320    0.0000 C   0  0
   34.4250   -5.2233    0.0000 C   0  0
   33.7172   -5.6317    0.0000 C   0  0
  1  2  2  0
  2  3  1  0
  3  4  2  0
  4  5  1  0
  5  6  2  0
  6  1  1  0
  6  7  1  0
  7  8  1  0
  7  9  2  0
  7 10  2  0
  5 11  1  0
  1 12  1  0
  2 13  1  0
  4 14  1  0
  3 15  1  0
 15 16  1  0
 16 17  1  0
 17 18  1  0
M  END