
  CDK    9/16/09,9:54
 
 18 18  0  0  0  0  0  0  0  0999 V2000
   -0.4204   -1.8543    0.0000 O   0  0  0  0  0  0  0  0  0  0  0  0
   -0.0079   -1.1399    0.0000 P   0  0  0  0  0  0  0  0  0  0  0  0
    0.4046   -0.4254    0.0000 O   0  0  0  0  0  0  0  0  0  0  0  0
    0.7066   -1.5524    0.0000 O   0  0  0  0  0  0  0  0  0  0  0  0
    1.4210   -1.1399    0.0000 C   0  0  0  0  0  0  0  0  0  0  0  0
   -0.7224   -0.7274    0.0000 O   0  0  0  0  0  0  0  0  0  0  0  0
    2.1355   -1.5524    0.0000 C   0  0  0  0  0  0  0  0  0  0  0  0
   -0.7224    0.0976    0.0000 C   0  0  0  0  0  0  0  0  0  0  0  0
    0.0018    0.4988    0.0000 C   0  0  0  0  0  0  0  0  0  0  0  0
    0.0109    1.3267    0.0000 C   0  0  0  0  0  0  0  0  0  0  0  0
   -0.6986    1.7438    0.0000 C   0  0  0  0  0  0  0  0  0  0  0  0
   -1.4210    1.3369    0.0000 C   0  0  0  0  0  0  0  0  0  0  0  0
   -1.4258    0.5117    0.0000 N   0  0  0  0  0  0  0  0  0  0  0  0
    0.7163    0.0863    0.0000 Cl  0  0  0  0  0  0  0  0  0  0  0  0
   -0.6986    2.5688    0.0000 Cl  0  0  0  0  0  0  0  0  0  0  0  0
   -2.1355    1.7494    0.0000 Cl  0  0  0  0  0  0  0  0  0  0  0  0
   -1.2454   -1.8543    0.0000 C   0  0  0  0  0  0  0  0  0  0  0  0
   -1.6579   -2.5688    0.0000 C   0  0  0  0  0  0  0  0  0  0  0  0
  1  2  1  0  0  0  0 
  2  3  2  0  0  0  0 
  2  4  1  0  0  0  0 
  4  5  1  0  0  0  0 
  2  6  1  0  0  0  0 
  5  7  1  0  0  0  0 
  6  8  1  0  0  0  0 
  8  9  2  0  0  0  0 
  9 10  1  0  0  0  0 
 10 11  2  0  0  0  0 
 11 12  1  0  0  0  0 
 12 13  2  0  0  0  0 
 13  8  1  0  0  0  0 
  9 14  1  0  0  0  0 
 11 15  1  0  0  0  0 
 12 16  1  0  0  0  0 
  1 17  1  0  0  0  0 
 17 18  1  0  0  0  0 
M  END