
  Mrv0541 05211314572D          

 23 25  0  0  0  0            999 V2000
    1.4240   -1.4063    0.0000 C   0  0  0  0  0  0  0  0  0  0  0  0
    0.7096   -1.8188    0.0000 C   0  0  0  0  0  0  0  0  0  0  0  0
   -0.0049   -1.4063    0.0000 C   0  0  0  0  0  0  0  0  0  0  0  0
   -0.0049   -0.5813    0.0000 C   0  0  0  0  0  0  0  0  0  0  0  0
    0.7096   -0.1688    0.0000 C   0  0  0  0  0  0  0  0  0  0  0  0
    1.4240   -0.5813    0.0000 C   0  0  0  0  0  0  0  0  0  0  0  0
    0.7096    0.6562    0.0000 Cl  0  0  0  0  0  0  0  0  0  0  0  0
   -0.7194   -0.1688    0.0000 N   0  0  0  0  0  0  0  0  0  0  0  0
   -1.4339   -0.5813    0.0000 C   0  0  0  0  0  0  0  0  0  0  0  0
   -2.1483   -0.1688    0.0000 C   0  0  0  0  0  0  0  0  0  0  0  0
   -2.1483    0.6562    0.0000 N   0  0  0  0  0  0  0  0  0  0  0  0
   -1.4339    1.0687    0.0000 N   0  0  0  0  0  0  0  0  0  0  0  0
   -0.7194    0.6562    0.0000 C   0  0  0  0  0  0  0  0  0  0  0  0
   -1.4339   -1.4063    0.0000 O   0  0  0  0  0  0  0  0  0  0  0  0
   -1.4339    1.8937    0.0000 C   0  0  0  0  0  0  0  0  0  0  0  0
   -2.1483    2.3062    0.0000 C   0  0  0  0  0  0  0  0  0  0  0  0
   -2.1483    3.1312    0.0000 C   0  0  0  0  0  0  0  0  0  0  0  0
   -1.4339    3.5437    0.0000 C   0  0  0  0  0  0  0  0  0  0  0  0
   -0.7194    3.1312    0.0000 C   0  0  0  0  0  0  0  0  0  0  0  0
   -0.7194    2.3062    0.0000 C   0  0  0  0  0  0  0  0  0  0  0  0
   -2.8628   -0.5813    0.0000 N   0  0  0  0  0  0  0  0  0  0  0  0
   -3.5773   -0.1688    0.0000 C   0  0  0  0  0  0  0  0  0  0  0  0
   -2.8628   -1.4063    0.0000 C   0  0  0  0  0  0  0  0  0  0  0  0
  9 10  1  0  0  0  0
 10 11  2  0  0  0  0
 11 12  1  0  0  0  0
 12 13  1  0  0  0  0
  4  8  1  0  0  0  0
  1  2  2  0  0  0  0
  9 14  2  0  0  0  0
  5  7  1  0  0  0  0
  8  9  1  0  0  0  0
 15 16  2  0  0  0  0
  3  4  2  0  0  0  0
 16 17  1  0  0  0  0
 17 18  2  0  0  0  0
  4  5  1  0  0  0  0
 18 19  1  0  0  0  0
  2  3  1  0  0  0  0
 19 20  2  0  0  0  0
 20 15  1  0  0  0  0
 12 15  1  0  0  0  0
  5  6  2  0  0  0  0
 10 21  1  0  0  0  0
  6  1  1  0  0  0  0
 21 22  1  0  0  0  0
  8 13  1  0  0  0  0
 21 23  1  0  0  0  0
M  END