
  CDK    9/16/09,10:8

 33 35  0  0  0  0  0  0  0  0999 V2000
    9.3250  -22.5750    0.0000 C   0  0  0  0  0  0  0  0  0  0  0  0
    9.3250  -23.4000    0.0000 C   0  0  0  0  0  0  0  0  0  0  0  0
   10.0370  -23.8083    0.0000 C   0  0  0  0  0  0  0  0  0  0  0  0
   10.0370  -22.1583    0.0000 C   0  0  0  0  0  0  0  0  0  0  0  0
   10.7490  -22.5750    0.0000 C   0  0  0  0  0  0  0  0  0  0  0  0
   10.7455  -23.4000    0.0000 C   0  0  0  0  0  0  0  0  0  0  0  0
   11.4543  -23.8132    0.0000 C   0  0  0  0  0  0  0  0  0  0  0  0
   12.1711  -23.4060    0.0000 C   0  0  0  0  0  0  0  0  0  0  0  0
   11.4497  -24.6382    0.0000 O   0  0  0  0  0  0  0  0  0  0  0  0
   11.4613  -22.1632    0.0000 C   0  0  0  0  0  0  0  0  0  0  0  0
   12.1770  -22.5820    0.0000 C   0  0  0  0  0  0  0  0  0  0  0  0
   12.8908  -19.6747    0.0000 C   0  0  0  0  0  0  0  0  0  0  0  0
   12.1760  -20.0938    0.0000 C   0  0  0  0  0  0  0  0  0  0  0  0
   12.1848  -20.9265    0.0000 C   0  0  0  0  0  0  0  0  0  0  0  0
   11.4621  -21.3364    0.0000 C   0  0  0  0  0  0  0  0  0  0  0  0
   11.4542  -22.9875    0.0000 H   0  0  0  0  0  0  0  0  0  0  0  0
   11.4582  -19.6871    0.0000 C   0  0  0  0  0  0  0  0  0  0  0  0
   11.4515  -18.8621    0.0000 C   0  0  0  0  0  0  0  0  0  0  0  0
   10.6431  -17.6384    0.0000 O   0  0  0  0  0  0  0  0  0  0  0  0
    9.8347  -17.4784    0.0000 C   0  0  0  0  0  0  0  0  0  0  0  0
    9.4280  -18.1939    0.0000 C   0  0  0  0  0  0  0  0  0  0  0  0
    9.9851  -18.7979    0.0000 C   0  0  0  0  0  0  0  0  0  0  0  0
    9.4931  -16.7210    0.0000 O   0  0  0  0  0  0  0  0  0  0  0  0
   10.7417  -21.7500    0.0000 C   0  0  0  0  0  0  0  0  0  0  0  0
    9.8225  -19.6067    0.0000 C   0  0  0  0  0  0  0  0  0  0  0  0
   10.7375  -24.2208    0.0000 H   0  0  0  0  0  0  0  0  0  0  0  0
   10.2458  -24.6042    0.0000 C   0  0  0  0  0  0  0  0  0  0  0  0
    9.3167  -24.2167    0.0000 C   0  0  0  0  0  0  0  0  0  0  0  0
    9.3101  -25.0416    0.0000 O   0  0  0  0  0  0  0  0  0  0  0  0
   12.8941  -22.1741    0.0000 C   0  0  0  0  0  0  0  0  0  0  0  0
   12.1626  -18.4438    0.0000 O   0  0  0  0  0  0  0  0  0  0  0  0
   10.7337  -18.4554    0.0000 C   0  0  0  0  0  0  0  0  0  0  0  0
   11.4482  -18.0429    0.0000 H   0  0  0  0  0  0  0  0  0  0  0  0
  5 10  1  0  0  0  0 
 10 16  1  6  0  0  0 
  6  7  1  0  0  0  0 
 13 17  2  0  0  0  0 
  7  8  1  0  0  0  0 
 18 17  1  0  0  0  0 
  8 11  1  0  0  0  0 
 18 32  1  0  0  0  0 
 32 19  1  0  0  0  0 
  3  6  1  0  0  0  0 
  7  9  1  6  0  0  0 
 10 11  1  0  0  0  0 
  5  4  1  0  0  0  0 
 19 20  1  0  0  0  0 
 20 21  1  0  0  0  0 
 21 22  2  0  0  0  0 
 32 22  1  0  0  0  0 
  5  6  1  0  0  0  0 
 20 23  2  0  0  0  0 
  5 24  1  1  0  0  0 
  1  2  1  0  0  0  0 
 22 25  1  0  0  0  0 
  1  4  1  0  0  0  0 
  6 26  1  6  0  0  0 
  2  3  1  0  0  0  0 
  3 27  1  1  0  0  0 
 10 15  1  0  0  0  0 
  3 28  1  0  0  0  0 
 12 13  1  0  0  0  0 
 28 29  1  0  0  0  0 
 13 14  1  0  0  0  0 
 11 30  2  0  0  0  0 
 14 15  1  0  0  0  0 
 18 31  1  1  0  0  0 
 32 33  1  1  0  0  0 
M  END