
  SciTegic04021211102D

 26 29  0  0  0  0            999 V2000
    9.2047  -21.8204    0.0000 C   0  0
    9.6122  -22.5340    0.0000 C   0  0
   10.4321  -22.5367    0.0000 C   0  0
   10.8453  -21.8268    0.0000 C   0  0
   10.4327  -21.1125    0.0000 C   0  0
    9.6142  -21.1133    0.0000 C   0  0
   11.6716  -21.8270    0.0000 C   0  0
   12.0834  -22.5456    0.0000 C   0  0
   12.9100  -22.5473    0.0000 C   0  0
   13.3256  -21.8311    0.0000 C   0  0
   12.0835  -21.1134    0.0000 C   0  0
   12.9075  -21.1123    0.0000 C   0  0
   13.3167  -20.3994    0.0000 C   0  0
   12.9031  -19.6871    0.0000 N   0  0
   12.0761  -19.6921    0.0000 N   0  0
   11.6706  -20.4056    0.0000 C   0  0
   14.1440  -20.3974    0.0000 N   0  0
   14.5558  -19.6800    0.0000 C   0  0
   15.3833  -19.6799    0.0000 C   0  0
   15.7951  -18.9632    0.0000 C   0  0
   15.3796  -18.2468    0.0000 C   0  0
   14.5481  -18.2515    0.0000 C   0  0
   14.1400  -18.9687    0.0000 C   0  0
   15.7906  -17.5288    0.0000 O   0  0
    8.3774  -21.8180    0.0000 O   0  0
   16.6178  -17.5257    0.0000 C   0  0
  6  1  1  0
 12 13  1  0
  1  2  2  0
 13 14  2  0
  3  4  2  0
 14 15  1  0
  7  8  2  0
 15 16  2  0
 16 11  1  0
 13 17  1  0
  8  9  1  0
 17 18  1  0
  4  5  1  0
 18 19  2  0
  9 10  2  0
 19 20  1  0
 10 12  1  0
 20 21  2  0
 11  7  1  0
 21 22  1  0
  4  7  1  0
 22 23  2  0
 23 18  1  0
  2  3  1  0
 21 24  1  0
  5  6  2  0
  1 25  1  0
 11 12  2  0
 24 26  1  0
M  END