
  SciTegic05221516342D

 17 19  0  0  0  0            999 V2000
    2.5300   -7.9697    0.0000 N   0  0
    3.3471   -7.9697    0.0000 N   0  0
    3.6022   -7.1924    0.0000 C   0  0
    2.9386   -6.7109    0.0000 O   0  0
    2.2792   -7.1932    0.0000 C   0  0
    1.5574   -6.8163    0.0000 C   0  0
    4.3027   -6.7776    0.0000 C   0  0
    5.0139   -7.1823    0.0000 C   0  0
    5.7178   -6.7687    0.0000 C   0  0
    5.7118   -5.9507    0.0000 C   0  0
    4.9959   -5.5479    0.0000 C   0  0
    4.2948   -5.9638    0.0000 C   0  0
    1.4352   -6.0083    0.0000 S   0  0
    0.6323   -5.8728    0.0000 C   0  0
    0.2553   -6.5947    0.0000 C   0  0
    0.8254   -7.1761    0.0000 C   0  0
    4.9865   -4.7308    0.0000 N   0  0
  1  2  1  0
  2  3  2  0
  3  4  1  0
  4  5  1  0
  5  1  2  0
  5  6  1  0
  7  8  2  0
  8  9  1  0
  9 10  2  0
 10 11  1  0
 11 12  2  0
 12  7  1  0
  3  7  1  0
  6 13  1  0
 13 14  1  0
 14 15  2  0
 15 16  1  0
 16  6  2  0
 11 17  1  0
M  END