
  SciTegic05221516342D

 35 37  0  0  0  0            999 V2000
    4.9727   -6.1710    0.0000 C   0  0
    2.0223   -4.9527    0.0000 O   0  0
    2.8395   -4.9527    0.0000 S   0  0
    2.4309   -4.2450    0.0000 O   0  0
    2.1406   -6.1826    0.0000 C   0  0
    2.1395   -7.0021    0.0000 C   0  0
    2.8475   -7.4111    0.0000 C   0  0
    3.5572   -7.0016    0.0000 C   0  0
    3.5543   -6.1790    0.0000 C   0  0
    2.8457   -5.7737    0.0000 C   0  0
    3.5498   -4.5458    0.0000 N   0  0
    1.4328   -5.7741    0.0000 F   0  0
    1.4314   -7.4101    0.0000 F   0  0
    2.8473   -8.2282    0.0000 S   0  0
    4.2655   -7.4091    0.0000 F   0  0
    2.1395   -8.6367    0.0000 C   0  0
    2.1393   -9.4539    0.0000 C   0  0
    4.2605   -5.7677    0.0000 N   0  0
    1.4315   -9.8623    0.0000 C   0  0
    0.7260   -9.4523    0.0000 C   0  0
    0.0187   -9.8601    0.0000 C   0  0
    0.0181  -10.6781    0.0000 C   0  0
    0.7307  -11.0867    0.0000 C   0  0
    1.4351  -10.6766    0.0000 C   0  0
    4.9796   -6.9882    0.0000 C   0  0
    5.6770   -5.7566    0.0000 C   0  0
    5.6702   -4.9394    0.0000 C   0  0
    6.3745   -4.5249    0.0000 C   0  0
    7.0856   -4.9276    0.0000 C   0  0
    7.0924   -5.7448    0.0000 C   0  0
    7.8035   -6.1475    0.0000 C   0  0
    7.8103   -6.9646    0.0000 C   0  0
    7.1060   -7.3791    0.0000 C   0  0
    5.6906   -7.3909    0.0000 C   0  0
    6.2651   -6.8058    0.0000 C   0  0
  3  2  2  0
  4  3  2  0
  5  6  2  0
  6  7  1  0
  7  8  2  0
  8  9  1  0
  9 10  2  0
 10  5  1  0
 10  3  1  0
  3 11  1  0
  5 12  1  0
  6 13  1  0
  7 14  1  0
  8 15  1  0
 14 16  1  0
 16 17  1  0
  9 18  1  0
 18  1  1  0
 17 19  1  0
 19 20  2  0
 20 21  1  0
 21 22  2  0
 22 23  1  0
 23 24  2  0
 24 19  1  0
  1 25  1  0
  1 26  1  0
 26 27  1  0
 27 28  1  0
 28 29  1  0
 29 30  1  0
 30 31  1  0
 31 32  1  0
 32 33  1  0
 25 34  1  0
 34 35  1  0
 35 33  1  0
M  END