
  SciTegic01161211222D

 18 19  0  0  0  0            999 V2000
   11.4668   -5.5706    0.0000 C   0  0
   10.7422   -5.1760    0.0000 N   0  0
   10.0382   -5.6061    0.0000 C   0  0
    9.3139   -5.2089    0.0000 C   0  0
    8.6103   -5.6383    0.0000 C   0  0
    8.6305   -6.4639    0.0000 C   0  0
    9.3600   -6.8583    0.0000 C   0  0
   10.0604   -6.4265    0.0000 C   0  0
    9.2947   -4.3841    0.0000 C   0  0
    9.9995   -3.9552    0.0000 O   0  0
    8.5709   -3.9883    0.0000 O   0  0
   12.2145   -6.7860    0.0000 C   0  0
   12.9214   -6.3556    0.0000 C   0  0
   12.9020   -5.5319    0.0000 C   0  0
   12.1743   -5.1336    0.0000 C   0  0
   11.4923   -6.3955    0.0000 C   0  0
   12.1526   -4.3090    0.0000 C   0  0
   13.6068   -5.1030    0.0000 Cl  0  0
  4  9  1  0
  4  5  1  0
  9 10  2  0
  2  3  1  0
  9 11  1  0
  5  6  2  0
  1  2  1  0
 12 13  2  0
  6  7  1  0
 13 14  1  0
  3  4  2  0
 14 15  2  0
 15  1  1  0
  7  8  2  0
  1 16  2  0
 16 12  1  0
  8  3  1  0
 15 17  1  0
 14 18  1  0
M  END