
          05270816392D 1   1.00000     0.00000     0

 36 41  0     1  0            999 V2000
    8.5875    2.0212    0.0000 C   0  0  0  0  0  0           0  0  0
    8.5862    1.1982    0.0000 C   0  0  0  0  0  0           0  0  0
   10.0108    2.0253    0.0000 C   0  0  0  0  0  0           0  0  0
    9.3018    2.4341    0.0000 C   0  0  0  0  0  0           0  0  0
   10.0140    1.1988    0.0000 C   0  0  0  0  0  0           0  0  0
    9.3025    0.7843    0.0000 C   0  0  0  0  0  0           0  0  0
    9.3012   -0.0378    0.0000 C   0  0  0  0  0  0           0  0  0
   10.0142   -0.4518    0.0000 C   0  0  0  0  0  0           0  0  0
    7.9703    0.6462    0.0000 N   0  0  0  0  0  0           0  0  0
    8.5168   -0.2924    0.0000 C   0  0  0  0  0  0           0  0  0
   10.7286    0.7866    0.0000 C   0  0  2  0  0  0           0  0  0
   10.7295   -0.0412    0.0000 C   0  0  2  0  0  0           0  0  0
   11.4429   -0.4521    0.0000 N   0  0  3  0  0  0           0  0  0
   12.1599   -0.0397    0.0000 C   0  0  0  0  0  0           0  0  0
   12.1591    0.7880    0.0000 C   0  0  1  0  0  0           0  0  0
   11.4411    1.2035    0.0000 C   0  0  0  0  0  0           0  0  0
   10.7203   -0.8616    0.0000 H   0  0  0  0  0  0           0  0  0
   10.7203    1.6134    0.0000 H   0  0  0  0  0  0           0  0  0
   12.8735    1.2006    0.0000 C   0  0  0  0  0  0           0  0  0
   12.8735    2.0256    0.0000 O   0  0  0  0  0  0           0  0  0
   13.5881    0.7881    0.0000 N   0  0  3  0  0  0           0  0  0
   13.5829   -0.0421    0.0000 C   0  0  0  0  0  0           0  0  0
   14.2933   -0.4545    0.0000 C   0  0  0  0  0  0           0  0  0
   15.0101   -0.0455    0.0000 N   0  0  3  0  0  0           0  0  0
   15.0121    0.7803    0.0000 C   0  0  0  0  0  0           0  0  0
   14.2972    1.1973    0.0000 C   0  0  0  0  0  0           0  0  0
   15.7230   -0.4608    0.0000 C   0  0  0  0  0  0           0  0  0
   15.7150   -1.2846    0.0000 C   0  0  0  0  0  0           0  0  0
   16.4271   -1.6997    0.0000 C   0  0  0  0  0  0           0  0  0
   17.1441   -1.2898    0.0000 C   0  0  0  0  0  0           0  0  0
   17.1446   -0.4606    0.0000 C   0  0  0  0  0  0           0  0  0
   16.4319   -0.0492    0.0000 C   0  0  0  0  0  0           0  0  0
    8.2223   -1.0630    0.0000 Br  0  0  0  0  0  0           0  0  0
   11.4425   -1.2771    0.0000 C   0  0  0  0  0  0           0  0  0
   17.8591   -0.0482    0.0000 F   0  0  0  0  0  0           0  0  0
   17.8576   -1.7041    0.0000 F   0  0  0  0  0  0           0  0  0
  6  7  1  0     0  0
 12 17  1  1     0  0
  7  8  1  0     0  0
 11 18  1  6     0  0
  8 12  1  0     0  0
 15 19  1  1     0  0
  3  4  2  0     0  0
 19 20  2  0     0  0
  2  9  1  0     0  0
 19 21  1  0     0  0
 21 22  1  0     0  0
  4  1  1  0     0  0
  7 10  2  0     0  0
  9 10  1  0     0  0
 11 12  1  0     0  0
  5  6  2  0     0  0
 21 26  1  0     0  0
 22 23  1  0     0  0
 23 24  1  0     0  0
 24 25  1  0     0  0
 25 26  1  0     0  0
  2  6  1  0     0  0
 24 27  1  0     0  0
 27 28  2  0     0  0
  5  3  1  0     0  0
 28 29  1  0     0  0
  1  2  2  0     0  0
 29 30  2  0     0  0
  5 11  1  0     0  0
 30 31  1  0     0  0
 11 16  1  0     0  0
 31 32  2  0     0  0
 32 27  1  0     0  0
 12 13  1  0     0  0
 10 33  1  0     0  0
 13 14  1  0     0  0
 13 34  1  0     0  0
 14 15  1  0     0  0
 31 35  1  0     0  0
 15 16  1  0     0  0
 30 36  1  0     0  0
M  END