
  SciTegic01161211212D

 40 45  0  0  0  0            999 V2000
    6.0292   -6.8625    0.0000 C   0  0
    6.0292   -7.6917    0.0000 C   0  0
    5.3167   -6.4542    0.0000 C   0  0
    6.7417   -6.4500    0.0000 O   0  0
    2.4750   -3.1375    0.0000 C   0  0
    6.7417   -8.1042    0.0000 C   0  0
    2.4542   -3.9667    0.0000 C   0  0
    5.3125   -5.6292    0.0000 C   0  0
    7.4625   -6.8667    0.0000 C   0  0
    3.8875   -3.9875    0.0000 C   0  0
    7.4542   -7.6917    0.0000 C   0  0
    3.1625   -4.3917    0.0000 C   0  0
    3.2000   -2.7417    0.0000 C   0  0
    3.9000   -3.1667    0.0000 O   0  0
    5.3167   -8.1042    0.0000 C   0  0
    4.6042   -6.8667    0.0000 C   0  0
    1.7667   -2.7125    0.0000 C   0  0
    4.6042   -7.6917    0.0000 C   0  0
    4.6000   -5.2250    0.0000 C   0  0
    4.6000   -4.4000    0.0000 C   0  0
    3.2167   -1.9125    0.0000 C   0  0
    1.7792   -1.8875    0.0000 C   0  0
    8.1750   -6.4542    0.0000 C   0  0
    6.0292   -5.2167    0.0000 C   0  0
    2.5042   -1.4875    0.0000 C   0  0
    6.7375   -8.9292    0.0000 O   0  0
    1.7292   -4.3625    0.0000 O   0  0
    5.3167   -3.9875    0.0000 C   0  0
    6.0292   -4.4000    0.0000 C   0  0
    8.1792   -5.6375    0.0000 C   0  0
    8.8917   -6.8750    0.0000 C   0  0
    5.3167   -8.9292    0.0000 O   0  0
    3.8875   -6.4542    0.0000 O   0  0
    1.0417   -3.1125    0.0000 O   0  0
    9.6125   -5.6417    0.0000 C   0  0
    9.6042   -6.4667    0.0000 C   0  0
    8.9000   -5.2292    0.0000 C   0  0
    6.7417   -5.6292    0.0000 O   0  0
    2.5167   -0.6542    0.0000 O   0  0
   10.3292   -5.2375    0.0000 O   0  0
  2  1  1  0
  3  1  2  0
  4  1  1  0
  5 13  2  0
  6  2  1  0
  7 12  1  0
  8  3  1  0
  9  4  1  0
 10 20  1  0
 11  9  2  0
 12 10  2  0
 13 14  1  0
 14 10  1  0
 15  2  2  0
 16  3  1  0
 17  5  1  0
 18 16  2  0
 19  8  1  0
 20 19  2  0
 21 13  1  0
 22 25  1  0
 23  9  1  0
 24  8  2  0
 25 21  2  0
 26  6  2  0
 27  7  2  0
 28 29  2  0
 29 24  1  0
 30 23  1  0
 31 23  2  0
 32 15  1  0
 33 16  1  0
 34 17  1  0
 35 36  2  0
 36 31  1  0
 37 30  2  0
 38 24  1  0
 39 25  1  0
 40 35  1  0
  6 11  1  0
 15 18  1  0
 37 35  1  0
 20 28  1  0
  5  7  1  0
 22 17  2  0
M  END