
  SciTegic04091511462D

 71 75  0  0  1  0            999 V2000
    4.4422   -0.9733    0.0000 N   0  0
    2.7743   -6.8755    0.0000 N   0  0
    3.3941   -6.3181    0.0000 C   0  0
    4.9580   -1.6222    0.0000 C   0  0  2  0  0  0
    2.1213   -0.3619    0.0000 N   0  0
    5.2575   -2.3875    0.0000 C   0  0
    3.7476   -0.5241    0.0000 C   0  0
    3.2236   -5.5153    0.0000 C   0  0  1  0  0  0
    3.9930   -5.2201    0.0000 N   0  0
    5.2949   -3.2111    0.0000 N   0  0
    1.3518   -0.6531    0.0000 C   0  0
    4.6336   -4.7043    0.0000 C   0  0
    3.5812   -8.1108    0.0000 C   0  0
   -0.1206    0.1830    0.0000 C   0  0
    2.9490   -0.3120    0.0000 C   0  0  2  0  0  0
    5.0828   -4.0097    0.0000 C   0  0  2  0  0  0
    0.3993    0.8236    0.0000 N   0  0
    0.2620   -1.8634    0.0000 N   0  0
    2.8617   -7.6990    0.0000 C   0  0  2  0  0  0
    0.7113   -1.1729    0.0000 C   0  0  2  0  0  0
    0.0499   -2.6578    0.0000 C   0  0
    3.5812   -8.9344    0.0000 N   0  0
    5.8398   -4.3466    0.0000 C   0  0
   -0.8942    0.4742    0.0000 C   0  0
    0.0998   -0.6156    0.0000 C   0  0
    0.0915   -3.4814    0.0000 C   0  0
    1.6014   -5.3531    0.0000 S   0  0
   -0.0499    1.5181    0.0000 C   0  0
    4.2967  -10.1697    0.0000 C   0  0
    0.9026   -4.9039    0.0000 S   0  0
   -0.8568    1.3060    0.0000 C   0  0
    5.9188   -5.1660    0.0000 C   0  0
    0.3868   -4.2468    0.0000 C   0  0
    4.2967   -9.3461    0.0000 C   0  0  2  0  0  0
    4.1719   -6.5760    0.0000 O   0  0
    6.0561   -2.2128    0.0000 O   0  0
    4.0845    0.2246    0.0000 O   0  0
    2.4000   -5.5570    0.0000 C   0  0
    4.2967   -7.6990    0.0000 O   0  0
    0.9401    0.0624    0.0000 O   0  0
    5.2450   -5.2533    0.0000 O   0  0
   -0.7695   -2.5705    0.0000 O   0  0
    5.6693   -1.2021    0.0000 C   0  0  2  0  0  0
    3.5812  -10.5857    0.0000 O   0  0
    5.2575   -5.6526    0.0000 O   0  0
    3.0364    0.5116    0.0000 C   0  0  2  0  0  0
    1.9715   -6.7050    0.0000 C   0  0
    6.6758   -5.5029    0.0000 N   0  0
    5.0079  -10.5857    0.0000 O   0  0
    7.1542   -9.3461    0.0000 N   0  0
    5.6693   -0.3785    0.0000 O   0  0
    2.1130   -8.0359    0.0000 C   0  0
    1.5640   -7.4245    0.0000 C   0  0
    0.1622    2.3292    0.0000 C   0  0
   -1.4350    1.8925    0.0000 C   0  0
    0.4866   -5.0287    0.0000 C   0  0
   -0.2329   -3.7851    0.0000 C   0  0
    5.0079   -8.9344    0.0000 C   0  0
    6.4387   -8.9344    0.0000 C   0  0
    3.7851    0.8443    0.0000 C   0  0
    6.3888   -1.6222    0.0000 C   0  0
    2.3708    0.9941    0.0000 C   0  0
    5.7192   -9.3461    0.0000 C   0  0
    3.8724    1.6679    0.0000 C   0  0
   -1.2311    2.6828    0.0000 C   0  0
   -0.4243    2.9074    0.0000 C   0  0
   -0.9441   -4.1844    0.0000 C   0  0
   -0.2329   -5.4405    0.0000 C   0  0
   -0.9441   -5.0287    0.0000 C   0  0
    2.2593    0.4098    0.0000 H   0  0
    5.1395   -0.6406    0.0000 H   0  0
  2  3  1  0
  8  3  1  6
  4  1  1  0
  5 15  1  0
  6  4  1  0
  7  1  1  0
  8  9  1  0
  9 12  1  0
 10  6  1  0
 11  5  1  0
 12 16  1  0
 19 13  1  6
 14 25  1  0
 15  7  1  0
 16 10  1  0
 17 14  1  0
 18 20  1  0
 19  2  1  0
 20 11  1  0
 21 18  1  0
 22 13  1  0
 16 23  1  1
 24 14  2  0
 20 25  1  6
 26 21  1  0
 27 38  1  0
 28 17  1  0
 29 34  1  0
 30 33  1  0
 31 24  1  0
 32 23  1  0
 33 26  1  0
 34 22  1  1
 35  3  2  0
 36  6  2  0
 37  7  2  0
  8 38  1  0
 39 13  2  0
 40 11  2  0
 41 12  2  0
 42 21  2  0
  4 43  1  0
 44 29  2  0
 45 32  2  0
 15 46  1  0
 47  2  1  0
 48 32  1  0
 49 29  1  0
 50 59  1  0
 43 51  1  6
 19 52  1  0
 53 47  1  0
 54 28  1  0
 55 31  1  0
 56 33  1  0
 57 33  1  0
 34 58  1  0
 59 63  1  0
 60 46  1  0
 43 61  1  0
 46 62  1  1
 63 58  1  0
 64 60  1  0
 65 55  2  0
 66 54  2  0
 67 57  1  0
 68 56  1  0
 69 67  1  0
 28 31  2  0
 30 27  1  0
 65 66  1  0
 52 53  1  0
 69 68  1  0
 15 70  1  6
  4 71  1  6
M  END