
  SciTegic01161211252D

 32 32  0  0  0  0            999 V2000
    3.5704   -1.9263    0.0000 Na  0  3
    0.3470    1.0746    0.0000 C   0  0  2  0  0  0
    0.3470    0.2484    0.0000 C   0  0  2  0  0  0
    1.0567   -0.1604    0.0000 C   0  0  1  0  0  0
    1.7704    0.2484    0.0000 C   0  0
    1.7704    1.0746    0.0000 C   0  0  2  0  0  0
    1.0567    1.4919    0.0000 O   0  0
    2.4800    0.6594    0.0000 O   0  0
    2.1744    1.7871    0.0000 C   0  0
    3.0005    1.7984    0.0000 O   0  0
    1.7578    2.4988    0.0000 O   0  5
   -0.3680    1.4825    0.0000 C   0  0  2  0  0  0
   -1.0836    1.0684    0.0000 C   0  0  2  0  0  0
   -2.5099    0.2368    0.0000 C   0  0
   -3.2255   -0.1773    0.0000 C   0  0
   -2.5136    1.0630    0.0000 O   0  0
   -3.9356    0.2361    0.0000 C   0  0
   -4.6505   -0.1770    0.0000 C   0  0
   -4.6475   -1.0046    0.0000 C   0  0
   -3.9248   -1.4122    0.0000 C   0  0
   -3.2186   -0.9954    0.0000 C   0  0
   -1.0837    0.2453    0.0000 C   0  0
   -0.3662   -0.9882    0.0000 C   0  0
   -1.0785   -1.4008    0.0000 O   0  0
    0.3522   -1.3976    0.0000 C   0  0
    2.4761   -0.1626    0.0000 C   0  0
    0.3258    1.8964    0.0000 H   0  0
   -0.3701    2.3096    0.0000 O   0  0
   -1.8001    1.4796    0.0000 O   0  0
   -1.7943   -0.1738    0.0000 N   0  0
    1.0582   -0.9815    0.0000 O   0  0
   -0.3679   -0.1632    0.0000 N   0  0
  4  5  1  0
  5  6  1  0
  6  7  1  0
  6  8  1  0
  6  9  1  1
  9 10  2  0
  9 11  1  0
  2 12  1  0
 12 13  1  0
 13 22  1  0
 14 15  1  0
 14 16  2  0
 15 17  2  0
 17 18  1  0
 18 19  2  0
 19 20  1  0
 20 21  2  0
 21 15  1  0
 23 24  2  0
 23 25  1  0
  8 26  1  0
  2 27  1  1
  2  3  1  0
  2  7  1  0
  3  4  1  0
 13 29  1  1
 22 30  1  0
 30 14  1  0
 12 28  1  6
  4 31  1  6
  3 32  1  1
 32 23  1  0
M  CHG  2   1   1  11  -1
M  END