
          11280714462D 1   1.00000     0.00000     0

 19 19  0     0  0            999 V2000
    3.8792   -4.1042    0.0000 C   0  0  0  0  0  0           0  0  0
    3.8750   -3.5042    0.0000 C   0  0  0  0  0  0           0  0  0
    4.4125   -4.3792    0.0000 O   0  0  0  0  0  0           0  0  0
    5.9500   -1.6917    0.0000 N   0  0  0  0  0  0           0  0  0
    3.3542   -3.2042    0.0000 C   0  0  0  0  0  0           0  0  0
    4.3917   -3.2042    0.0000 C   0  0  0  0  0  0           0  0  0
    3.8667   -1.7042    0.0000 O   0  0  0  0  0  0           0  0  0
    4.9125   -1.7000    0.0000 C   0  0  3  0  0  0           0  0  0
    3.8750   -2.3042    0.0000 C   0  0  0  0  0  0           0  0  0
    5.4292   -2.0000    0.0000 C   0  0  0  0  0  0           0  0  0
    3.3667   -4.4250    0.0000 O   0  0  0  0  0  0           0  0  0
    4.3917   -2.0042    0.0000 C   0  0  0  0  0  0           0  0  0
    4.3917   -2.6042    0.0000 C   0  0  0  0  0  0           0  0  0
    3.3542   -2.6042    0.0000 C   0  0  0  0  0  0           0  0  0
    4.9042   -1.1000    0.0000 O   0  0  0  0  0  0           0  0  0
    6.4667   -1.9917    0.0000 C   0  0  3  0  0  0           0  0  0
    3.3667   -5.0167    0.0000 C   0  0  0  0  0  0           0  0  0
    6.4667   -2.5917    0.0000 C   0  0  0  0  0  0           0  0  0
    6.9917   -1.6917    0.0000 C   0  0  0  0  0  0           0  0  0
  2  1  1  0     0  0
  3  1  2  0     0  0
  4 10  1  0     0  0
  5  2  1  0     0  0
  6  2  2  0     0  0
  7  9  1  0     0  0
  8 12  1  0     0  0
  9 13  2  0     0  0
 10  8  1  0     0  0
 11  1  1  0     0  0
 12  7  1  0     0  0
 13  6  1  0     0  0
 14  5  2  0     0  0
 15  8  1  0     0  0
 16  4  1  0     0  0
 17 11  1  0     0  0
 18 16  1  0     0  0
 19 16  1  0     0  0
 14  9  1  0     0  0
M  END