
  SciTegic10311316242D

 19 21  0  0  0  0            999 V2000
    4.2767   -7.9067    0.0000 C   0  0
    4.2756   -8.7340    0.0000 C   0  0
    4.9904   -9.1469    0.0000 C   0  0
    4.9886   -7.4939    0.0000 N   0  0
    5.7040   -7.9030    0.0000 C   0  0
    5.7048   -8.7299    0.0000 C   0  0
    6.4201   -9.1408    0.0000 N   0  0
    7.1351   -8.7261    0.0000 C   0  0
    7.1303   -7.8961    0.0000 N   0  0
    6.4144   -7.4889    0.0000 C   0  0
    7.8512   -9.1358    0.0000 N   0  0
    3.5608   -9.1460    0.0000 C   0  0
    2.8467   -8.7329    0.0000 C   0  0
    6.4101   -6.6639    0.0000 N   0  0
    6.9820   -6.0733    0.0000 C   0  0
    5.8208   -6.0696    0.0000 C   0  0
    6.3867   -5.4896    0.0000 C   0  0
    6.3775   -4.6646    0.0000 N   0  0
    7.0874   -4.2442    0.0000 C   0  0
  1  2  2  0
  2  3  1  0
  3  6  2  0
  5  4  2  0
  4  1  1  0
  5  6  1  0
  6  7  1  0
  7  8  2  0
  8  9  1  0
  9 10  2  0
 10  5  1  0
  8 11  1  0
  2 12  1  0
 12 13  1  0
 10 14  1  0
 14 15  1  0
 14 16  1  0
 15 17  1  0
 16 17  1  0
 17 18  1  0
 18 19  1  0
M  END