
  SciTegic10041313192D

 21 23  0  0  0  0            999 V2000
   -1.3833   -2.2417    0.0000 C   0  0
   -3.0208   -2.2167    0.0000 C   0  0
   -1.7875   -1.5125    0.0000 O   0  0
   -1.7958   -2.9292    0.0000 O   0  0
   -2.4375   -1.9750    0.0000 O   0  0
    2.7375   -2.2375    0.0000 C   0  0
   -3.8458   -2.2167    0.0000 C   0  0
   -0.5583   -2.2292    0.0000 C   0  0
   -2.4375   -2.8000    0.0000 C   0  0
   -2.6125   -1.5042    0.0000 C   0  0
   -2.6125   -2.9292    0.0000 C   0  0
    1.9167   -2.2417    0.0000 N   0  0
    3.5392   -2.2334    0.0000 S   0  0
   -0.1458   -1.5167    0.0000 C   0  0
   -0.1500   -2.9417    0.0000 C   0  0
    1.0917   -2.2375    0.0000 C   0  0
    0.6750   -2.9500    0.0000 C   0  0
    0.6792   -1.5167    0.0000 C   0  0
   -4.2583   -1.5042    0.0000 C   0  0
   -4.2583   -2.9292    0.0000 C   0  0
   -3.6333   -1.4167    0.0000 C   0  0
  2  9  1  0
  3  1  1  0
  4  1  1  0
  5  1  1  0
  6 12  2  0
  7  2  1  0
  8  1  1  0
  9  5  1  0
 10  3  1  0
 11  4  1  0
 12 16  1  0
 13  6  2  0
 14  8  1  0
 15  8  2  0
 16 17  2  0
 17 15  1  0
 18 14  2  0
 19  7  1  0
 20  7  1  0
 21  7  1  0
  2 11  1  0
 10  2  1  0
 18 16  1  0
M  END