
  SciTegic12231509382D

 18 19  0  0  0  0            999 V2000
   16.3142  -11.9075    0.0000 C   0  0
   16.3131  -12.7349    0.0000 C   0  0
   17.0278  -13.1477    0.0000 C   0  0
   17.0260  -11.4948    0.0000 C   0  0
   17.7414  -11.9039    0.0000 C   0  0
   17.7402  -12.7323    0.0000 C   0  0
   18.4531  -13.1453    0.0000 C   0  0
   19.1717  -12.7344    0.0000 C   0  0
   19.1729  -11.9059    0.0000 C   0  0
   18.4554  -11.4884    0.0000 C   0  0
   15.5997  -11.4953    0.0000 O   0  0
   19.8883  -11.4952    0.0000 N   0  0
   20.6017  -11.9093    0.0000 C   0  0
   19.8903  -10.6702    0.0000 C   0  0
   20.6057  -10.2594    0.0000 C   0  0
   21.3191  -10.6737    0.0000 C   0  0
   21.3171  -11.4987    0.0000 C   0  0
   22.0306  -11.9128    0.0000 C   0  0
  6  7  1  0
  7  8  1  0
  8  9  1  0
  9 10  1  0
  5  6  1  0
  1 11  1  0
  9 12  1  0
  2  3  1  0
 12 13  1  0
  3  6  2  0
 12 14  1  0
  1  2  2  0
 14 15  1  0
  5  4  2  0
 15 16  1  0
  4  1  1  0
 13 17  1  0
  5 10  1  0
 17 18  1  0
M  END