
  SciTegic07091215302D

 39 44  0  0  0  0            999 V2000
   -6.4527   -2.1509    0.0000 C   0  0
   -6.8652   -1.4364    0.0000 C   0  0
   -7.6902   -1.4364    0.0000 C   0  0
   -8.1027   -2.1509    0.0000 C   0  0
   -7.6902   -2.8654    0.0000 C   0  0
   -6.8652   -2.8654    0.0000 C   0  0
   -5.6276   -2.1509    0.0000 N   0  0
   -5.2151   -2.8654    0.0000 C   0  0
   -5.6276   -3.5798    0.0000 N   0  0
   -6.4527   -3.5798    0.0000 C   0  0
   -4.3901   -2.8654    0.0000 N   0  0
   -3.9776   -3.5798    0.0000 C   0  0  1  0  0  0
   -3.1526   -3.5798    0.0000 C   0  0  1  0  0  0
   -2.7401   -2.8654    0.0000 N   0  0
   -3.1526   -2.1509    0.0000 C   0  0
   -3.9776   -2.1509    0.0000 C   0  0
   -4.3901   -4.2943    0.0000 C   0  0
   -3.9777   -5.0088    0.0000 C   0  0
   -3.1527   -5.0088    0.0000 C   0  0
   -2.7401   -4.2943    0.0000 C   0  0
   -1.9151   -2.8654    0.0000 C   0  0
   -1.5026   -2.1509    0.0000 C   0  0
   -1.5026   -3.5798    0.0000 O   0  0
   -0.6776   -2.1509    0.0000 C   0  0
   -0.2651   -1.4364    0.0000 O   0  0
   -0.6776   -0.7219    0.0000 C   0  0
   -1.5026   -0.7219    0.0000 C   0  0
   -1.9151   -1.4364    0.0000 O   0  0
   -1.9151   -0.0074    0.0000 C   0  0
   -1.5026    0.7070    0.0000 C   0  0
   -0.6776    0.7070    0.0000 C   0  0
   -0.2651   -0.0074    0.0000 C   0  0
   -8.1027   -0.7220    0.0000 O   0  0
   -8.9277   -2.1509    0.0000 O   0  0
   -9.3402   -2.8654    0.0000 C   0  0
   -8.9277   -0.7220    0.0000 C   0  0
   -6.8652   -4.2943    0.0000 N   0  0
   -4.8026   -3.5798    0.0000 H   0  0
   -2.3276   -3.5798    0.0000 H   0  0
  1  2  1  0
  2  3  2  0
  3  4  1  0
  4  5  2  0
  5  6  1  0
 10  6  2  0
  6  1  1  0
  1  7  2  0
  7  8  1  0
  8  9  2  0
  9 10  1  0
  8 11  1  0
 11 12  1  0
 16 11  1  0
 13 14  1  0
 14 15  1  0
 15 16  1  0
 12 17  1  0
 13 12  1  0
 20 13  1  0
 17 18  1  0
 18 19  1  0
 19 20  1  0
 14 21  1  0
 21 22  1  0
 21 23  2  0
 22 24  1  0
 28 22  1  0
 24 25  1  0
 25 26  1  0
 27 28  1  0
 32 26  2  0
 26 27  1  0
 27 29  2  0
 29 30  1  0
 30 31  2  0
 31 32  1  0
  3 33  1  0
  4 34  1  0
 34 35  1  0
 33 36  1  0
 10 37  1  0
 12 38  1  6
 13 39  1  6
M  END