
  SciTegic04201616412D

 25 27  0  0  0  0            999 V2000
   11.5558    2.7315    0.0000 C   0  0
   10.8207    1.4240    0.0000 C   0  0
    9.3208    1.4068    0.0000 C   0  0
    8.5559    2.6972    0.0000 C   0  0
    9.2911    4.0047    0.0000 C   0  0
   10.7910    4.0219    0.0000 C   0  0
    7.0552    2.6770    0.0000 O   0  0
    6.3215    1.3677    0.0000 C   0  0
    4.8208    1.3475    0.0000 C   0  0
    4.0872    0.0382    0.0000 S   0  0
    2.5889    0.0182    0.0000 C   0  0
    1.7138    1.2033    0.0000 N   0  0
    1.7138   -1.2033    0.0000 N   0  0
    0.2917   -0.7475    0.0000 C   0  0
    0.2917    0.7475    0.0000 C   0  0
   -1.0028    1.5132    0.0000 C   0  0
   -2.3155    0.7475    0.0000 C   0  0
   -2.3155   -0.7475    0.0000 C   0  0
   -1.0028   -1.5132    0.0000 C   0  0
    2.1855   -2.6254    0.0000 C   0  0
    3.6552   -2.9294    0.0000 C   0  0
    4.0330   -4.0684    0.0000 O   0  0
    4.4530   -2.0330    0.0000 O   0  0
    8.6793    5.0370    0.0000 C   0  0
   11.3791    5.0679    0.0000 C   0  0
  1  2  2  0
  2  3  1  0
  3  4  2  0
  4  5  1  0
  5  6  2  0
  6  1  1  0
  4  7  1  0
  7  8  1  0
  8  9  1  0
  9 10  1  0
 10 11  1  0
 11 12  2  0
 12 15  1  0
 14 13  1  0
 13 11  1  0
 14 15  2  0
 15 16  1  0
 16 17  2  0
 17 18  1  0
 18 19  2  0
 19 14  1  0
 13 20  1  0
 20 21  1  0
 21 22  2  0
 21 23  1  0
  5 24  1  0
  6 25  1  0
M  END