
          11280714452D 1   1.00000     0.00000     0

 32 35  0     0  0            999 V2000
    7.5542   -2.8667    0.0000 C   0  0  0  0  0  0           0  0  0
    7.5542   -2.0417    0.0000 C   0  0  0  0  0  0           0  0  0
    0.4250   -2.0542    0.0000 N   0  0  0  0  0  0           0  0  0
    8.2667   -1.6292    0.0000 C   0  0  0  0  0  0           0  0  0
    8.2625   -0.8042    0.0000 C   0  0  0  0  0  0           0  0  0
    6.8375   -3.2792    0.0000 C   0  0  0  0  0  0           0  0  0
    6.1250   -2.8667    0.0000 C   0  0  0  0  0  0           0  0  0
   -0.2958   -1.6417    0.0000 C   0  0  0  0  0  0           0  0  0
    8.2667   -3.2792    0.0000 C   0  0  0  0  0  0           0  0  0
    5.4042   -3.2792    0.0000 C   0  0  0  0  0  0           0  0  0
    1.8417   -2.0500    0.0000 C   0  0  0  0  0  0           0  0  0
    2.5542   -1.6292    0.0000 C   0  0  0  0  0  0           0  0  0
    1.1292   -1.6375    0.0000 C   0  0  0  0  0  0           0  0  0
    7.5417   -0.3917    0.0000 O   0  0  0  0  0  0           0  0  0
    8.9792   -2.0417    0.0000 C   0  0  0  0  0  0           0  0  0
    6.8375   -4.1042    0.0000 O   0  0  0  0  0  0           0  0  0
    8.9792   -2.8667    0.0000 C   0  0  0  0  0  0           0  0  0
   -0.2958   -0.8167    0.0000 C   0  0  0  0  0  0           0  0  0
    0.4167   -0.4042    0.0000 C   0  0  0  0  0  0           0  0  0
    4.6917   -2.8667    0.0000 C   0  0  0  0  0  0           0  0  0
    3.2750   -2.0417    0.0000 C   0  0  0  0  0  0           0  0  0
    8.9750   -0.3875    0.0000 O   0  0  0  0  0  0           0  0  0
    1.1292   -0.8125    0.0000 C   0  0  0  0  0  0           0  0  0
    8.2667   -4.1042    0.0000 O   0  0  0  0  0  0           0  0  0
    3.9875   -3.2792    0.0000 C   0  0  0  0  0  0           0  0  0
    4.7000   -2.0417    0.0000 C   0  0  0  0  0  0           0  0  0
    3.2750   -2.8667    0.0000 C   0  0  0  0  0  0           0  0  0
    3.9875   -1.6292    0.0000 C   0  0  0  0  0  0           0  0  0
   -1.0000   -2.0625    0.0000 C   0  0  0  0  0  0           0  0  0
   -1.0125   -0.4042    0.0000 C   0  0  0  0  0  0           0  0  0
   -1.7208   -1.6542    0.0000 C   0  0  0  0  0  0           0  0  0
   -1.7333   -0.8250    0.0000 C   0  0  0  0  0  0           0  0  0
  2  1  2  0     0  0
  3 13  1  0     0  0
  4  2  1  0     0  0
  5  4  1  0     0  0
  6  1  1  0     0  0
  7  6  1  0     0  0
  8  3  2  0     0  0
  9  1  1  0     0  0
 10  7  2  0     0  0
 11 12  2  0     0  0
 12 21  1  0     0  0
 13 11  1  0     0  0
 14  5  2  0     0  0
 15 17  1  0     0  0
 16  6  2  0     0  0
 17  9  2  0     0  0
 18 19  2  0     0  0
 19 23  1  0     0  0
 20 10  1  0     0  0
 21 28  2  0     0  0
 22  5  1  0     0  0
 23 13  2  0     0  0
 24  9  1  0     0  0
 25 20  1  0     0  0
 26 20  2  0     0  0
 27 25  2  0     0  0
 28 26  1  0     0  0
 29  8  1  0     0  0
 30 18  1  0     0  0
 31 29  2  0     0  0
 32 30  2  0     0  0
 15  4  2  0     0  0
 21 27  1  0     0  0
 18  8  1  0     0  0
 32 31  1  0     0  0
M  END