
  SciTegic10301317112D

 28 28  0  0  0  0            999 V2000
   -0.4958   -2.6875    0.0000 S   0  0
    2.7917   -2.6667    0.0000 C   0  0
    7.8917   -5.3250    0.0000 C   0  0  1  0  0  0
    8.3125   -6.0375    0.0000 C   0  0
    7.0667   -5.3292    0.0000 N   0  0
    0.3250   -2.6792    0.0000 C   0  0
    6.5875   -4.6625    0.0000 C   0  0
    3.2125   -3.3792    0.0000 N   0  0
   -0.5000   -3.5042    0.0000 O   0  0
   -0.4958   -1.8625    0.0000 O   0  0
    4.4542   -4.0875    0.0000 C   0  0
    1.9667   -2.6750    0.0000 C   0  0
   -1.3250   -2.6792    0.0000 N   0  0
    5.2792   -4.0792    0.0000 N   0  0
    3.2042   -1.9542    0.0000 O   0  0
    7.9042   -6.7542    0.0000 O   0  0
    6.9167   -3.9042    0.0000 O   0  0
    4.0417   -4.8042    0.0000 O   0  0
    0.7292   -1.9667    0.0000 C   0  0
    0.7417   -3.3917    0.0000 C   0  0
    1.5625   -3.3917    0.0000 C   0  0
    1.5500   -1.9625    0.0000 C   0  0
    4.0375   -3.3750    0.0000 C   0  0
    5.7667   -4.7500    0.0000 C   0  0
    8.3042   -4.6042    0.0000 C   0  0
    9.1375   -6.0292    0.0000 O   0  0
    9.1292   -4.6000    0.0000 C   0  0
    7.8875   -3.8917    0.0000 C   0  0
  2 12  1  0
  3  5  1  0
  4  3  1  0
  5  7  1  0
  6  1  1  0
  7 24  1  0
  8  2  1  0
  9  1  2  0
 10  1  2  0
 11 23  1  0
 12 21  2  0
 13  1  1  0
 14 11  1  0
 15  2  2  0
 16  4  2  0
 17  7  2  0
 18 11  2  0
 19  6  1  0
 20  6  2  0
 21 20  1  0
 22 19  2  0
 23  8  1  0
 24 14  1  0
  3 25  1  1
 26  4  1  0
 27 25  1  0
 28 25  1  0
 22 12  1  0
M  END