
          11280715362D 1   1.00000     0.00000     0

 26 28  0     0  0            999 V2000
    4.3292   -6.7792    0.0000 C   0  0  0  0  0  0           0  0  0
    3.8167   -6.4792    0.0000 C   0  0  3  0  0  0           0  0  0
    4.3292   -7.3792    0.0000 C   0  0  0  0  0  0           0  0  0
    3.8167   -7.6792    0.0000 O   0  0  0  0  0  0           0  0  0
    3.2917   -7.3875    0.0000 C   0  0  3  0  0  0           0  0  0
    3.2917   -6.7792    0.0000 C   0  0  3  0  0  0           0  0  0
    4.8417   -6.4792    0.0000 C   0  0  0  0  0  0           0  0  0
    2.7667   -6.4792    0.0000 C   0  0  0  0  0  0           0  0  0
    3.8167   -5.8750    0.0000 C   0  0  0  0  0  0           0  0  0
    2.7667   -5.8750    0.0000 C   0  0  0  0  0  0           0  0  0
    3.2917   -5.5750    0.0000 C   0  0  0  0  0  0           0  0  0
    4.8417   -7.6792    0.0000 C   0  0  0  0  0  0           0  0  0
    5.3667   -6.7792    0.0000 C   0  0  0  0  0  0           0  0  0
    5.3667   -7.3792    0.0000 C   0  0  0  0  0  0           0  0  0
    7.4542   -7.3417    0.0000 C   0  0  0  0  0  0           0  0  0
    7.9792   -7.6375    0.0000 C   0  0  0  0  0  0           0  0  0
    4.8417   -5.8792    0.0000 O   0  0  0  0  0  0           0  0  0
    3.0917   -7.9542    0.0000 C   0  0  0  0  0  0           0  0  0
    2.7167   -7.1875    0.0000 C   0  0  0  0  0  0           0  0  0
    3.3167   -4.9750    0.0000 C   0  0  0  0  0  0           0  0  0
    8.4917   -7.3292    0.0000 C   0  0  0  0  0  0           0  0  0
    6.9417   -7.6542    0.0000 C   0  0  0  0  0  0           0  0  0
    5.9042   -7.6667    0.0000 C   0  0  0  0  0  0           0  0  0
    6.4167   -7.3625    0.0000 C   0  0  0  0  0  0           0  0  0
    9.0167   -7.6167    0.0000 C   0  0  0  0  0  0           0  0  0
    9.5292   -7.3125    0.0000 C   0  0  0  0  0  0           0  0  0
  2  1  1  0     0  0
  3  1  1  0     0  0
  4  3  1  0     0  0
  5  4  1  0     0  0
  6  2  1  0     0  0
  7  1  2  0     0  0
  8  6  1  0     0  0
  9  2  1  0     0  0
 10 11  2  0     0  0
 11  9  1  0     0  0
 12  3  2  0     0  0
 13  7  1  0     0  0
 14 13  2  0     0  0
 15 22  1  0     0  0
 16 15  2  0     0  0
 17  7  1  0     0  0
 18  5  1  0     0  0
 19  5  1  0     0  0
 20 11  1  0     0  0
 21 16  1  0     0  0
 22 24  1  0     0  0
 23 14  1  0     0  0
 24 23  1  0     0  0
 25 21  1  0     0  0
 26 25  1  0     0  0
  5  6  1  0     0  0
 14 12  1  0     0  0
 10  8  1  0     0  0
M  END