
  SciTegic07101214422D

108109  0  0  0  0            999 V2000
   18.7275  -16.5049    0.0000 N   0  0
   19.4429  -16.0941    0.0000 C   0  0  1  0  0  0
   20.1564  -16.5084    0.0000 C   0  0
   20.8719  -16.0976    0.0000 N   0  0
   20.1544  -17.3334    0.0000 O   0  0
   19.4449  -15.2691    0.0000 C   0  0
   18.7314  -14.8549    0.0000 C   0  0
   18.7334  -14.0299    0.0000 C   0  0
   18.0199  -13.6157    0.0000 N   0  0
   18.0219  -12.7907    0.0000 C   0  0
   17.3085  -12.3765    0.0000 N   0  0
   18.7374  -12.3799    0.0000 N   0  0
   21.5853  -16.5118    0.0000 C   0  0  1  0  0  0
   22.3008  -16.1010    0.0000 C   0  0
   21.5833  -17.3368    0.0000 C   0  0
   20.8679  -17.7476    0.0000 C   0  0
   20.8659  -18.5726    0.0000 C   0  0
   20.1504  -18.9834    0.0000 N   0  0
   20.1485  -19.8084    0.0000 C   0  0
   19.4330  -20.2191    0.0000 N   0  0
   20.8619  -20.2226    0.0000 N   0  0
   23.0143  -16.5152    0.0000 N   0  0
   22.3028  -15.2760    0.0000 O   0  0
   14.4406  -16.4946    0.0000 N   0  0
   15.1561  -16.0838    0.0000 C   0  0  1  0  0  0
   15.8696  -16.4980    0.0000 C   0  0
   16.5850  -16.0873    0.0000 N   0  0
   15.8676  -17.3230    0.0000 O   0  0
   15.1581  -15.2588    0.0000 C   0  0
   14.4446  -14.8446    0.0000 C   0  0
   14.4466  -14.0196    0.0000 C   0  0
   13.7331  -13.6054    0.0000 N   0  0
   13.7351  -12.7804    0.0000 C   0  0
   13.0216  -12.3662    0.0000 N   0  0
   14.4506  -12.3696    0.0000 N   0  0
   17.2985  -16.5015    0.0000 C   0  0  1  0  0  0
   18.0140  -16.0907    0.0000 C   0  0
   17.2965  -17.3265    0.0000 C   0  0
   16.5811  -17.7373    0.0000 C   0  0
   16.5791  -18.5623    0.0000 C   0  0
   15.8636  -18.9730    0.0000 N   0  0
   15.8616  -19.7980    0.0000 C   0  0
   15.1462  -20.2088    0.0000 N   0  0
   16.5751  -20.2122    0.0000 N   0  0
   18.0160  -15.2657    0.0000 O   0  0
   10.1538  -16.4843    0.0000 N   0  0
   10.8693  -16.0735    0.0000 C   0  0  1  0  0  0
   11.5828  -16.4877    0.0000 C   0  0
   12.2982  -16.0769    0.0000 N   0  0
   11.5808  -17.3127    0.0000 O   0  0
   10.8713  -15.2485    0.0000 C   0  0
   10.1578  -14.8343    0.0000 C   0  0
   10.1598  -14.0093    0.0000 C   0  0
    9.4463  -13.5951    0.0000 N   0  0
    9.4483  -12.7701    0.0000 C   0  0
    8.7348  -12.3558    0.0000 N   0  0
   10.1638  -12.3593    0.0000 N   0  0
   13.0117  -16.4912    0.0000 C   0  0  1  0  0  0
   13.7272  -16.0804    0.0000 C   0  0
   13.0097  -17.3162    0.0000 C   0  0
   12.2943  -17.7269    0.0000 C   0  0
   12.2923  -18.5519    0.0000 C   0  0
   11.5768  -18.9627    0.0000 N   0  0
   11.5748  -19.7877    0.0000 C   0  0
   10.8594  -20.1985    0.0000 N   0  0
   12.2883  -20.2019    0.0000 N   0  0
   13.7292  -15.2554    0.0000 O   0  0
   -4.7260  -15.8639    0.0000 O   0  0
   -4.1385  -16.4473    0.0000 S   0  0
   -4.9374  -16.6644    0.0000 O   0  0
   -6.2851  -18.5056    0.0000 N   0  0
   -6.2839  -17.6783    0.0000 C   0  0
   -5.5679  -17.2654    0.0000 C   0  0
   -5.5697  -18.9184    0.0000 C   0  0
   -4.8543  -18.5093    0.0000 C   0  0
   -4.8536  -17.6824    0.0000 C   0  0
   -4.1383  -17.2715    0.0000 C   0  0
   -3.4232  -17.6862    0.0000 C   0  0
   -3.4280  -18.5162    0.0000 C   0  0
   -4.1439  -18.9234    0.0000 C   0  0
   -3.4212  -16.0355    0.0000 N   0  0
   -2.7077  -16.4497    0.0000 C   0  0
   -1.9923  -16.0389    0.0000 C   0  0
   -1.2788  -16.4531    0.0000 N   0  0
   -0.5633  -16.0423    0.0000 C   0  0
    0.1501  -16.4566    0.0000 C   0  0
    0.8656  -16.0458    0.0000 N   0  0
    1.5791  -16.4600    0.0000 C   0  0
   -0.5614  -15.2173    0.0000 O   0  0
    2.2945  -16.0492    0.0000 C   0  0
    3.0080  -16.4634    0.0000 N   0  0
    2.2965  -15.2242    0.0000 O   0  0
    3.7235  -16.0527    0.0000 C   0  0  1  0  0  0
    4.4369  -16.4669    0.0000 C   0  0
    5.1524  -16.0561    0.0000 N   0  0
    4.4350  -17.2919    0.0000 O   0  0
    3.7255  -15.2277    0.0000 C   0  0
    3.0120  -14.8134    0.0000 C   0  0
    3.0140  -13.9885    0.0000 C   0  0
    5.8659  -16.4703    0.0000 C   0  0
    6.5813  -16.0595    0.0000 C   0  0
    2.3005  -13.5742    0.0000 C   0  0
    2.3025  -12.7492    0.0000 N   0  0
    7.2948  -16.4738    0.0000 C   0  0
    8.0103  -16.0630    0.0000 C   0  0
    8.7238  -16.4772    0.0000 C   0  0
    9.4392  -16.0664    0.0000 C   0  0
    9.4412  -15.2414    0.0000 O   0  0
 54 55  1  0
  3  4  1  0
 55 56  1  0
 25 29  1  6
 55 57  2  0
 13 15  1  1
 49 58  1  0
 29 30  1  0
 58 59  1  0
  7  8  1  0
 58 60  1  1
 30 31  1  0
 60 61  1  0
 15 16  1  0
 61 62  1  0
 31 32  1  0
 62 63  1  0
 63 64  1  0
 32 33  1  0
 64 65  1  0
 16 17  1  0
 64 66  2  0
 59 24  1  0
 33 34  1  0
 59 67  2  0
 69 68  2  0
 70 69  2  0
  8  9  1  0
 33 35  2  0
 17 18  1  0
 27 36  1  0
  3  5  2  0
 71 72  2  0
 36 37  1  0
 72 73  1  0
 73 76  2  0
 18 19  1  0
 75 74  2  0
 74 71  1  0
 36 38  1  1
  9 10  1  0
 75 76  1  0
 38 39  1  0
 76 77  1  0
 19 20  1  0
 77 78  2  0
 39 40  1  0
 78 79  1  0
  2  3  1  0
 79 80  2  0
 80 75  1  0
 77 69  1  0
 40 41  1  0
 69 81  1  0
 19 21  2  0
 81 82  1  0
 41 42  1  0
 82 83  1  0
 10 11  1  0
 83 84  1  0
 42 43  1  0
 84 85  1  0
 14 22  1  0
 85 86  1  0
 42 44  2  0
 86 87  1  0
 37  1  1  0
 87 88  1  0
  2  6  1  6
 85 89  2  0
 37 45  2  0
 88 90  1  0
 14 23  2  0
 90 91  1  0
 10 12  2  0
 90 92  2  0
 46 47  1  0
 91 93  1  0
  1  2  1  0
 93 94  1  0
 47 48  1  0
 94 95  1  0
 24 25  1  0
 94 96  2  0
 48 49  1  0
 93 97  1  6
  4 13  1  0
 97 98  1  0
 48 50  2  0
 98 99  1  0
 25 26  1  0
 95100  1  0
 47 51  1  6
100101  1  0
  6  7  1  0
 99102  1  0
 51 52  1  0
102103  1  0
 26 27  1  0
101104  1  0
 52 53  1  0
104105  1  0
 13 14  1  0
105106  1  0
 53 54  1  0
106107  1  0
107 46  1  0
 26 28  2  0
107108  2  0
M  END