
  CDK    9/16/09,10:6

 33 36  0  0  0  0  0  0  0  0999 V2000
   10.9631   -6.6982    0.0000 N   0  0  0  0  0  0  0  0  0  0  0  0
   11.6792   -6.2830    0.0000 C   0  0  0  0  0  0  0  0  0  0  0  0
   12.3955   -6.6982    0.0000 N   0  0  0  0  0  0  0  0  0  0  0  0
   11.6792   -5.4566    0.0000 O   0  0  0  0  0  0  0  0  0  0  0  0
   13.1117   -6.2830    0.0000 C   0  0  0  0  0  0  0  0  0  0  0  0
   14.5386   -5.4609    0.0000 C   0  0  0  0  0  0  0  0  0  0  0  0
   13.8174   -5.0499    0.0000 C   0  0  0  0  0  0  0  0  0  0  0  0
   13.1087   -5.4627    0.0000 C   0  0  0  0  0  0  0  0  0  0  0  0
   14.5382   -6.2881    0.0000 C   0  0  0  0  0  0  0  0  0  0  0  0
   13.8239   -6.7009    0.0000 C   0  0  0  0  0  0  0  0  0  0  0  0
   13.8237   -7.5225    0.0000 C   0  0  0  0  0  0  0  0  0  0  0  0
   14.5371   -7.9324    0.0000 C   0  0  0  0  0  0  0  0  0  0  0  0
   15.2522   -7.5187    0.0000 C   0  0  0  0  0  0  0  0  0  0  0  0
   15.2488   -6.6984    0.0000 C   0  0  0  0  0  0  0  0  0  0  0  0
   10.2468   -6.2825    0.0000 C   0  0  0  0  0  0  0  0  0  0  0  0
   15.2543   -5.0488    0.0000 O   0  0  0  0  0  0  0  0  0  0  0  0
   15.2532   -4.2224    0.0000 C   0  0  0  0  0  0  0  0  0  0  0  0
   15.9689   -3.8062    0.0000 C   0  0  0  0  0  0  0  0  0  0  0  0
   16.6857   -4.2205    0.0000 N   0  0  0  0  0  0  0  0  0  0  0  0
   16.6846   -5.0509    0.0000 C   0  0  0  0  0  0  0  0  0  0  0  0
   17.3972   -5.4609    0.0000 C   0  0  0  0  0  0  0  0  0  0  0  0
   18.1153   -5.0524    0.0000 O   0  0  0  0  0  0  0  0  0  0  0  0
   18.1161   -4.2251    0.0000 C   0  0  0  0  0  0  0  0  0  0  0  0
   17.3990   -3.8063    0.0000 C   0  0  0  0  0  0  0  0  0  0  0  0
    9.9868   -5.4999    0.0000 C   0  0  0  0  0  0  0  0  0  0  0  0
    9.1595   -5.5063    0.0000 C   0  0  0  0  0  0  0  0  0  0  0  0
    8.9086   -6.2960    0.0000 N   0  0  0  0  0  0  0  0  0  0  0  0
    9.5842   -6.7765    0.0000 N   0  0  0  0  0  0  0  0  0  0  0  0
    9.5935   -7.6028    0.0000 C   0  0  0  0  0  0  0  0  0  0  0  0
    8.6715   -4.8446    0.0000 C   0  0  0  0  0  0  0  0  0  0  0  0
    8.2555   -4.1278    0.0000 C   0  0  0  0  0  0  0  0  0  0  0  0
    7.9841   -5.2957    0.0000 C   0  0  0  0  0  0  0  0  0  0  0  0
    9.3630   -4.3998    0.0000 C   0  0  0  0  0  0  0  0  0  0  0  0
  6 16  1  0  0  0  0 
  7  8  2  0  0  0  0 
 16 17  1  0  0  0  0 
  8  5  1  0  0  0  0 
 17 18  1  0  0  0  0 
 18 19  1  0  0  0  0 
 19 20  1  0  0  0  0 
  3  5  1  0  0  0  0 
  9 10  1  0  0  0  0 
  5 10  2  0  0  0  0 
 10 11  1  0  0  0  0 
  2  3  1  0  0  0  0 
 19 24  1  0  0  0  0 
 20 21  1  0  0  0  0 
 21 22  1  0  0  0  0 
 22 23  1  0  0  0  0 
 23 24  1  0  0  0  0 
 25 26  1  0  0  0  0 
 11 12  2  0  0  0  0 
  9  6  2  0  0  0  0 
 12 13  1  0  0  0  0 
  1  2  1  0  0  0  0 
 15 25  2  0  0  0  0 
 26 27  2  0  0  0  0 
 27 28  1  0  0  0  0 
 28 15  1  0  0  0  0 
 13 14  2  0  0  0  0 
 28 29  1  0  0  0  0 
 14  9  1  0  0  0  0 
 26 30  1  0  0  0  0 
  6  7  1  0  0  0  0 
 30 31  1  0  0  0  0 
  1 15  1  0  0  0  0 
 30 32  1  0  0  0  0 
  2  4  2  0  0  0  0 
 30 33  1  0  0  0  0 
M  END