
          11280715052D 1   1.00000     0.00000     0

 19 20  0     0  0            999 V2000
    5.3542   -3.1500    0.0000 C   0  0  0  0  0  0           0  0  0
    1.0917   -3.9667    0.0000 N   0  0  0  0  0  0           0  0  0
   -0.1875   -3.6000    0.0000 N   0  0  0  0  0  0           0  0  0
    0.3167   -4.2500    0.0000 C   0  0  0  0  0  0           0  0  0
    1.0667   -3.1500    0.0000 C   0  0  0  0  0  0           0  0  0
    6.0667   -2.7375    0.0000 N   0  0  0  0  0  0           0  0  0
    5.3542   -3.9750    0.0000 S   0  0  0  0  0  0           0  0  0
    0.2750   -2.9167    0.0000 C   0  0  0  0  0  0           0  0  0
    4.6417   -2.7375    0.0000 N   0  0  0  0  0  0           0  0  0
    6.7792   -3.1500    0.0000 C   0  0  3  0  0  0           0  0  0
    1.7792   -2.7375    0.0000 C   0  0  0  0  0  0           0  0  0
    3.9250   -3.1500    0.0000 C   0  0  0  0  0  0           0  0  0
    6.7792   -3.9667    0.0000 C   0  0  0  0  0  0           0  0  0
    7.4917   -2.7292    0.0000 C   0  0  0  0  0  0           0  0  0
    2.5000   -3.1500    0.0000 C   0  0  0  0  0  0           0  0  0
    3.2125   -2.7375    0.0000 C   0  0  0  0  0  0           0  0  0
    8.2042   -3.1417    0.0000 C   0  0  0  0  0  0           0  0  0
    7.4875   -4.3792    0.0000 C   0  0  0  0  0  0           0  0  0
    8.2042   -3.9667    0.0000 C   0  0  0  0  0  0           0  0  0
  2  5  1  0     0  0
  3  8  1  0     0  0
  4  2  2  0     0  0
  5 11  1  0     0  0
  6  1  1  0     0  0
  7  1  2  0     0  0
  8  5  2  0     0  0
  9  1  1  0     0  0
 10  6  1  0     0  0
 11 15  1  0     0  0
 12  9  1  0     0  0
 13 10  1  0     0  0
 14 10  1  0     0  0
 15 16  1  0     0  0
 16 12  1  0     0  0
 17 14  1  0     0  0
 18 13  1  0     0  0
 19 17  1  0     0  0
 18 19  1  0     0  0
  3  4  1  0     0  0
M  END