
          11280715372D 1   1.00000     0.00000     0

 35 38  0     0  0            999 V2000
    4.2917   -3.9500    0.0000 C   0  0  0  0  0  0           0  0  0
    4.3000   -4.8292    0.0000 C   0  0  0  0  0  0           0  0  0
    3.5292   -5.2667    0.0000 N   0  0  3  0  0  0           0  0  0
    2.7750   -3.9500    0.0000 N   0  0  3  0  0  0           0  0  0
    2.7750   -4.8292    0.0000 C   0  0  0  0  0  0           0  0  0
    3.5292   -3.5000    0.0000 C   0  0  0  0  0  0           0  0  0
    5.1375   -3.6667    0.0000 N   0  0  0  0  0  0           0  0  0
    5.1417   -5.1000    0.0000 N   0  0  0  0  0  0           0  0  0
    5.6625   -4.3792    0.0000 C   0  0  0  0  0  0           0  0  0
    3.5292   -6.1500    0.0000 C   0  0  0  0  0  0           0  0  0
    6.5417   -4.3792    0.0000 C   0  0  0  0  0  0           0  0  0
    2.0042   -5.2750    0.0000 O   0  0  0  0  0  0           0  0  0
    3.5042   -8.8042    0.0000 C   0  0  0  0  0  0           0  0  0
    3.5292   -2.6167    0.0000 O   0  0  0  0  0  0           0  0  0
   10.5167   -5.1167    0.0000 C   0  0  0  0  0  0           0  0  0
    2.7250   -9.2375    0.0000 C   0  0  0  0  0  0           0  0  0
    3.5167   -7.9292    0.0000 C   0  0  0  0  0  0           0  0  0
   10.9542   -4.3500    0.0000 O   0  0  0  0  0  0           0  0  0
    2.0042   -3.5042    0.0000 C   0  0  0  0  0  0           0  0  0
    6.9875   -5.1417    0.0000 C   0  0  0  0  0  0           0  0  0
    6.9750   -3.6125    0.0000 C   0  0  0  0  0  0           0  0  0
    1.9667   -8.7792    0.0000 C   0  0  0  0  0  0           0  0  0
    9.1917   -4.3625    0.0000 O   0  0  0  0  0  0           0  0  0
    2.7625   -7.4750    0.0000 C   0  0  0  0  0  0           0  0  0
    2.7667   -6.5917    0.0000 C   0  0  0  0  0  0           0  0  0
    9.6375   -5.1250    0.0000 C   0  0  0  0  0  0           0  0  0
    4.2667   -9.2500    0.0000 I   0  0  0  0  0  0           0  0  0
    8.3042   -4.3667    0.0000 C   0  0  0  0  0  0           0  0  0
    2.7042  -10.1167    0.0000 N   0  0  0  0  0  0           0  0  0
   10.9667   -5.8792    0.0000 O   0  0  0  0  0  0           0  0  0
    1.9917   -7.8917    0.0000 C   0  0  0  0  0  0           0  0  0
    7.8667   -5.1375    0.0000 C   0  0  0  0  0  0           0  0  0
    7.8542   -3.6042    0.0000 C   0  0  0  0  0  0           0  0  0
    2.0042   -2.6250    0.0000 C   0  0  0  0  0  0           0  0  0
    1.2375   -2.1875    0.0000 C   0  0  0  0  0  0           0  0  0
  2  1  2  0     0  0
  3  2  1  0     0  0
  4  6  1  0     0  0
  5  4  1  0     0  0
  6  1  1  0     0  0
  7  1  1  0     0  0
  8  2  1  0     0  0
  9  7  2  0     0  0
 10  3  1  0     0  0
 11  9  1  0     0  0
 12  5  2  0     0  0
 13 17  2  0     0  0
 14  6  2  0     0  0
 15 26  1  0     0  0
 16 22  2  0     0  0
 17 24  1  0     0  0
 18 15  2  0     0  0
 19  4  1  0     0  0
 20 11  2  0     0  0
 21 11  1  0     0  0
 22 31  1  0     0  0
 23 28  1  0     0  0
 24 25  1  0     0  0
 25 10  1  0     0  0
 26 23  1  0     0  0
 27 13  1  0     0  0
 28 33  1  0     0  0
 29 16  1  0     0  0
 30 15  1  0     0  0
 31 24  2  0     0  0
 32 20  1  0     0  0
 33 21  2  0     0  0
 34 19  1  0     0  0
 35 34  1  0     0  0
  8  9  1  0     0  0
  3  5  1  0     0  0
 32 28  2  0     0  0
 16 13  1  0     0  0
M  END