
  SciTegic12231509382D

 21 22  0  0  0  0            999 V2000
   -0.4208   -1.2625    0.0000 C   0  0
   -0.4208   -0.2042    0.0000 C   0  0
   -1.3375   -1.7917    0.0000 C   0  0
    1.4125    2.9625    0.0000 N   0  0
    0.4875    0.3208    0.0000 N   0  0
   -1.3458   -2.8542    0.0000 C   0  0
    0.5000   -1.7917    0.0000 C   0  0
   -2.2625   -3.4000    0.0000 I   0  0
    1.4042    1.9083    0.0000 C   0  0
   -1.3375    0.3208    0.0000 O   0  0
    0.4917    1.3833    0.0000 C   0  0
   -0.4208   -3.3792    0.0000 C   0  0
    0.5000   -2.8542    0.0000 C   0  0
   -2.2583   -1.2500    0.0000 O   0  0
    2.4167    3.2958    0.0000 C   0  0
    1.4167   -1.2667    0.0000 O   0  0
    0.5542    3.5958    0.0000 C   0  0
    3.0292    2.4375    0.0000 C   0  0
    2.4042    1.5833    0.0000 C   0  0
    1.4250   -0.2042    0.0000 C   0  0
   -0.4208    3.1708    0.0000 C   0  0
  2  1  1  0
  3  1  1  0
  4  9  1  0
  5  2  1  0
  6  3  2  0
  7  1  2  0
  8  6  1  0
  9 11  1  0
 10  2  2  0
 11  5  1  0
 12 13  2  0
 13  7  1  0
 14  3  1  0
 15  4  1  0
 16  7  1  0
 17  4  1  0
 18 19  1  0
 19  9  1  0
 20 16  1  0
 21 17  1  0
  6 12  1  0
 15 18  1  0
M  END