
  SciTegic11111309142D

 51 55  0  0  1  0            999 V2000
   -1.8933  -12.8084    0.0000 C   0  0
   -0.9846  -19.8230    0.0000 C   0  0
   -0.1977  -20.0743    0.0000 C   0  0
    0.2841  -19.4058    0.0000 C   0  0
   -0.2015  -18.7436    0.0000 C   0  0
   -0.9846  -18.9980    0.0000 C   0  0
   -3.0158  -15.5635    0.0000 O   0  0
   -3.5010  -16.2314    0.0000 C   0  0
   -3.1982  -16.9994    0.0000 C   0  0
   -3.7000  -17.6114    0.0000 C   0  0
   -3.4193  -18.3457    0.0000 C   0  0
   -2.6422  -18.4494    0.0000 C   0  0
   -2.1804  -17.8150    0.0000 C   0  0
   -2.5029  -17.0924    0.0000 C   0  0
   -4.5148  -17.4793    0.0000 Cl  0  0
   -2.0086  -16.4313    0.0000 Cl  0  0
   -1.3594  -17.9012    0.0000 S   0  0
   -1.2731  -17.0804    0.0000 O   0  0
   -1.4456  -18.7222    0.0000 O   0  0
    0.5134  -18.3309    0.0000 C   0  0
    1.2276  -18.7432    0.0000 N   0  0
    0.5134  -17.5045    0.0000 O   0  0
    1.2276  -19.5703    0.0000 C   0  0
    1.9378  -19.9803    0.0000 C   0  0
    2.6486  -19.5700    0.0000 N   0  0
    2.6486  -18.7477    0.0000 C   0  0
    1.9380  -18.3330    0.0000 C   0  0
    3.3600  -19.9807    0.0000 C   0  0
    3.3600  -20.8018    0.0000 O   0  0
    4.0787  -19.5658    0.0000 C   0  0  2  0  0  0
    4.7897  -19.9762    0.0000 C   0  0
    5.5086  -19.5612    0.0000 C   0  0
    6.2194  -19.9716    0.0000 C   0  0
    6.9384  -19.5564    0.0000 C   0  0
   -3.3525  -14.8071    0.0000 C   0  0
   -4.0240  -13.2988    0.0000 C   0  0
   -4.5110  -13.9737    0.0000 C   0  0
   -4.1722  -14.7269    0.0000 C   0  0
   -3.1997  -13.3858    0.0000 C   0  0
   -2.8675  -14.1429    0.0000 C   0  0
   -2.0476  -14.2325    0.0000 N   0  0
   -1.5589  -13.5660    0.0000 C   0  0
   -2.7150  -12.7217    0.0000 C   0  0
   -0.7356  -13.6545    0.0000 C   0  0
   -3.0510  -11.9650    0.0000 C   0  0
    7.6555  -19.9705    0.0000 N   0  0
    8.3725  -19.5564    0.0000 C   0  0
    4.0787  -18.7378    0.0000 N   0  0
    9.0896  -19.9705    0.0000 N   0  0
    8.3725  -18.7284    0.0000 N   0  0
   -0.5393  -17.9909    0.0000 N   0  0
 17 18  2  0
 17 19  2  0
  5 20  1  0
 20 21  1  0
 20 22  2  0
 21 23  1  0
 21 27  1  0
 23 24  1  0
 24 25  1  0
 25 26  1  0
 26 27  1  0
 25 28  1  0
 28 29  2  0
 28 30  1  0
 30 31  1  0
 31 32  1  0
 32 33  1  0
 33 34  1  0
  7 35  1  0
 35 40  2  0
  2  3  1  0
 39 36  2  0
  3  4  1  0
 36 37  1  0
  4  5  1  0
 37 38  2  0
 38 35  1  0
  5  6  1  0
  6  2  1  0
 39 40  1  0
  7  8  1  0
 40 41  1  0
  8  9  1  0
 41 42  2  0
 42  1  1  0
  9 10  2  0
  1 43  2  0
 43 39  1  0
 10 11  1  0
 42 44  1  0
 11 12  2  0
 43 45  1  0
 12 13  1  0
 34 46  1  0
 13 14  2  0
 46 47  1  0
 14  9  1  0
 30 48  1  1
 10 15  1  0
 47 49  1  0
 14 16  1  0
 47 50  2  0
 13 17  1  0
 17 51  1  0
 51  5  1  0
M  END