
  SciTegic12231509382D

 19 19  0  0  0  0            999 V2000
   -1.0598  -25.8375    0.0000 C   0  0
   -1.0609  -26.6648    0.0000 C   0  0
   -0.3461  -27.0777    0.0000 C   0  0
    0.3703  -26.6644    0.0000 C   0  0
    0.3675  -25.8338    0.0000 C   0  0
   -0.3479  -25.4247    0.0000 C   0  0
    1.0804  -25.4186    0.0000 C   0  0
    1.7964  -25.8284    0.0000 O   0  0
    1.0773  -24.5936    0.0000 O   0  0
    2.5093  -25.4133    0.0000 C   0  0
    3.2253  -25.8231    0.0000 C   0  0
    3.9383  -25.4079    0.0000 N   0  0
    4.6543  -25.8177    0.0000 C   0  0
    3.9351  -24.5829    0.0000 C   0  0
   -1.7757  -27.0768    0.0000 N   0  0
   -2.4899  -26.6637    0.0000 C   0  0
   -3.2047  -27.0756    0.0000 C   0  0
   -3.9188  -26.6626    0.0000 C   0  0
   -4.6331  -27.0745    0.0000 C   0  0
  3  4  2  0
  8 10  1  0
 10 11  1  0
  4  5  1  0
 11 12  1  0
  1  2  2  0
 12 13  1  0
  5  6  2  0
 12 14  1  0
  6  1  1  0
  2 15  1  0
 15 16  1  0
  5  7  1  0
 16 17  1  0
  2  3  1  0
 17 18  1  0
  7  8  1  0
 18 19  1  0
  7  9  2  0
M  END