
          11280716012D 1   1.00000     0.00000     0

 73 74  0     1  0            999 V2000
   -4.8208   -0.1542    0.0000 C   0  0  0  0  0  0           0  0  0
   -5.3333   -0.4542    0.0000 C   0  0  2  0  0  0           0  0  0
   -4.3083   -0.4542    0.0000 N   0  0  0  0  0  0           0  0  0
   -3.2833   -0.4542    0.0000 C   0  0  0  0  0  0           0  0  0
    0.1750    3.0208    0.0000 P   0  0  3  0  0  0           0  0  0
    1.3167   -0.1542    0.0000 C   0  0  0  0  0  0           0  0  0
   -0.2208   -0.4542    0.0000 C   0  0  0  0  0  0           0  0  0
   -1.7500   -0.1542    0.0000 C   0  0  0  0  0  0           0  0  0
    0.2917   -0.1542    0.0000 N   0  0  0  0  0  0           0  0  0
   -3.7958   -0.1542    0.0000 C   0  0  2  0  0  0           0  0  0
   -2.7708   -0.1542    0.0000 N   0  0  0  0  0  0           0  0  0
   -1.2458   -0.4542    0.0000 N   0  0  0  0  0  0           0  0  0
    1.8292   -0.4542    0.0000 N   0  0  0  0  0  0           0  0  0
    0.8042   -0.4542    0.0000 C   0  0  1  0  0  0           0  0  0
    0.8042   -1.0792    0.0000 C   0  0  0  0  0  0           0  0  0
    2.8542   -0.4542    0.0000 C   0  0  0  0  0  0           0  0  0
   -0.7250   -0.1542    0.0000 C   0  0  1  0  0  0           0  0  0
    2.3375   -0.1542    0.0000 C   0  0  2  0  0  0           0  0  0
   -5.3333   -1.0542    0.0000 C   0  0  3  0  0  0           0  0  0
    5.9167   -0.4542    0.0000 C   0  0  0  0  0  0           0  0  0
    4.8917   -0.4542    0.0000 N   0  0  0  0  0  0           0  0  0
    1.1000   -1.6167    0.0000 C   0  0  0  0  0  0           0  0  0
   -2.2625   -0.4542    0.0000 C   0  0  2  0  0  0           0  0  0
    4.3875   -0.1542    0.0000 C   0  0  0  0  0  0           0  0  0
    3.3625   -0.1542    0.0000 N   0  0  0  0  0  0           0  0  0
    5.4042   -0.1542    0.0000 C   0  0  1  0  0  0           0  0  0
    0.4625    2.5000    0.0000 O   0  0  0  0  0  0           0  0  0
    5.9167    1.3125    0.0000 C   0  0  0  0  0  0           0  0  0
   -0.3458    2.7208    0.0000 O   0  0  0  0  0  0           0  0  0
   -4.8208    0.4333    0.0000 O   0  0  0  0  0  0           0  0  0
   -3.2833   -1.0500    0.0000 O   0  0  0  0  0  0           0  0  0
   -0.2208   -1.0500    0.0000 O   0  0  0  0  0  0           0  0  0
    1.3167    0.4333    0.0000 O   0  0  0  0  0  0           0  0  0
   -1.7500    0.4333    0.0000 O   0  0  0  0  0  0           0  0  0
   -0.7250    0.4333    0.0000 C   0  0  0  0  0  0           0  0  0
    2.8542   -1.0542    0.0000 O   0  0  0  0  0  0           0  0  0
    5.9167   -1.0500    0.0000 O   0  0  0  0  0  0           0  0  0
    2.3375    0.4333    0.0000 C   0  0  0  0  0  0           0  0  0
    1.7167   -1.6375    0.0000 O   0  0  0  0  0  0           0  0  0
    4.3875    0.4333    0.0000 O   0  0  0  0  0  0           0  0  0
   -4.8083   -1.3542    0.0000 C   0  0  0  0  0  0           0  0  0
   -5.8458   -0.1542    0.0000 N   0  0  0  0  0  0           0  0  0
    6.4292    1.6083    0.0000 O   0  0  0  0  0  0           0  0  0
    5.4042    0.4333    0.0000 C   0  0  0  0  0  0           0  0  0
    0.6792    3.3083    0.0000 O   0  0  0  0  0  0           0  0  0
   -0.1250    3.5208    0.0000 O   0  0  0  0  0  0           0  0  0
    3.8792   -0.4542    0.0000 C   0  0  0  0  0  0           0  0  0
   -3.7958    0.4333    0.0000 C   0  0  3  0  0  0           0  0  0
    0.7667   -2.1542    0.0000 N   0  0  0  0  0  0           0  0  0
    5.9167    0.7208    0.0000 C   0  0  0  0  0  0           0  0  0
    0.1625    1.9958    0.0000 C   0  0  0  0  0  0           0  0  0
   -0.4208    0.9708    0.0000 C   0  0  0  0  0  0           0  0  0
    6.4292   -0.1542    0.0000 O   0  0  0  0  0  0           0  0  0
   -5.8458   -1.3542    0.0000 O   0  0  0  0  0  0           0  0  0
   -2.2625   -1.0542    0.0000 C   0  0  0  0  0  0           0  0  0
    5.4042    1.6083    0.0000 O   0  0  0  0  0  0           0  0  0
   -1.7458   -1.9542    0.0000 S   0  0  0  0  0  0           0  0  0
   -0.7208    1.4833    0.0000 C   0  0  0  0  0  0           0  0  0
    0.1625    0.9708    0.0000 C   0  0  0  0  0  0           0  0  0
    0.4625    1.4750    0.0000 C   0  0  0  0  0  0           0  0  0
   -0.4208    1.9958    0.0000 C   0  0  0  0  0  0           0  0  0
    2.6375    0.9500    0.0000 C   0  0  3  0  0  0           0  0  0
   -1.7458   -1.3542    0.0000 C   0  0  0  0  0  0           0  0  0
   -4.8083   -1.9542    0.0000 C   0  0  0  0  0  0           0  0  0
   -4.2958   -1.0542    0.0000 C   0  0  0  0  0  0           0  0  0
   -1.2333   -2.2542    0.0000 C   0  0  0  0  0  0           0  0  0
   -4.3083    0.7208    0.0000 C   0  0  0  0  0  0           0  0  0
   -3.2833    0.7208    0.0000 C   0  0  0  0  0  0           0  0  0
    2.3292    1.4708    0.0000 C   0  0  0  0  0  0           0  0  0
    3.2292    0.9583    0.0000 C   0  0  0  0  0  0           0  0  0
   -4.2958   -2.2542    0.0000 C   0  0  0  0  0  0           0  0  0
   -3.7833   -1.3500    0.0000 C   0  0  0  0  0  0           0  0  0
   -3.7750   -1.9542    0.0000 C   0  0  0  0  0  0           0  0  0
  2  1  1  0     0  0
  3  1  1  0     0  0
  4 10  1  0     0  0
  5 27  1  0     0  0
  6 14  1  0     0  0
  7 17  1  0     0  0
  8 23  1  0     0  0
  9  7  1  0     0  0
 10  3  1  0     0  0
 11  4  1  0     0  0
 12  8  1  0     0  0
 13  6  1  0     0  0
 14  9  1  0     0  0
 14 15  1  6     0  0
 16 18  1  0     0  0
 17 12  1  0     0  0
 18 13  1  0     0  0
  2 19  1  6     0  0
 20 26  1  0     0  0
 21 24  1  0     0  0
 22 15  1  0     0  0
 23 11  1  0     0  0
 24 47  1  0     0  0
 25 16  1  0     0  0
 26 21  1  0     0  0
 27 51  1  0     0  0
 28 50  1  0     0  0
 29  5  2  0     0  0
 30  1  2  0     0  0
 31  4  2  0     0  0
 32  7  2  0     0  0
 33  6  2  0     0  0
 34  8  2  0     0  0
 17 35  1  1     0  0
 36 16  2  0     0  0
 37 20  2  0     0  0
 18 38  1  1     0  0
 39 22  2  0     0  0
 40 24  2  0     0  0
 41 19  1  0     0  0
 42  2  1  0     0  0
 43 28  2  0     0  0
 26 44  1  1     0  0
 45  5  1  0     0  0
 46  5  1  0     0  0
 47 25  1  0     0  0
 10 48  1  1     0  0
 49 22  1  0     0  0
 50 44  1  0     0  0
 51 60  1  0     0  0
 52 35  1  0     0  0
 53 20  1  0     0  0
 54 19  1  0     0  0
 23 55  1  1     0  0
 56 28  1  0     0  0
 57 63  1  0     0  0
 58 52  2  0     0  0
 59 52  1  0     0  0
 60 59  2  0     0  0
 61 58  1  0     0  0
 62 38  1  0     0  0
 63 55  1  0     0  0
 64 41  2  0     0  0
 65 41  1  0     0  0
 66 57  1  0     0  0
 67 48  1  0     0  0
 68 48  1  0     0  0
 69 62  1  0     0  0
 70 62  1  0     0  0
 71 64  1  0     0  0
 72 65  2  0     0  0
 73 72  1  0     0  0
 73 71  2  0     0  0
 51 61  2  0     0  0
M  END