
  SciTegic12091611112D

 44 49  0  0  0  0            999 V2000
    2.5889    0.0182    0.0000 C   0  0
    1.7138    1.2033    0.0000 N   0  0
    0.2917    0.7475    0.0000 C   0  0
    0.2917   -0.7475    0.0000 C   0  0
    1.7138   -1.2033    0.0000 N   0  0
   -1.0028    1.5132    0.0000 C   0  0
   -2.3155    0.7475    0.0000 C   0  0
   -2.3155   -0.7475    0.0000 C   0  0
   -1.0028   -1.5132    0.0000 C   0  0
   -3.6187   -1.4919    0.0000 C   0  0
   -4.6549   -0.8867    0.0000 O   0  0
   -3.6267   -2.9927    0.0000 N   0  0
    4.0872    0.0382    0.0000 C   0  0
    4.8208    1.3475    0.0000 C   0  0
    6.0207    1.3637    0.0000 C   0  0
   -0.9991    2.7132    0.0000 C   0  0
    2.1855   -2.6254    0.0000 C   0  0
    6.5944   -3.5310    0.0000 C   0  0
    5.5991   -4.6533    0.0000 C   0  0
    4.1295   -4.3524    0.0000 C   0  0
    3.6552   -2.9294    0.0000 C   0  0
    4.6506   -1.8071    0.0000 C   0  0
    6.1201   -2.1080    0.0000 C   0  0
    8.0646   -3.8320    0.0000 C   0  0
    8.5412   -5.2544    0.0000 C   0  0
   10.0112   -5.5528    0.0000 C   0  0
   11.0047   -4.4290    0.0000 C   0  0
   10.5282   -3.0067    0.0000 C   0  0
    9.0582   -2.7082    0.0000 C   0  0
    7.8892   -7.8262    0.0000 N   0  0
    6.5983   -8.5900    0.0000 N   0  0
    5.4729   -7.5983    0.0000 N   0  0
    6.0683   -6.2216    0.0000 N   0  0
    7.5473   -6.3788    0.0000 C   0  0
   -4.9300   -3.7369    0.0000 C   0  0  1  0  0  0
   -6.2244   -2.9773    0.0000 C   0  0
   -4.9380   -5.2378    0.0000 C   0  0
   -6.2396   -5.9835    0.0000 C   0  0
   -6.2445   -7.4835    0.0000 C   0  0
   -4.9480   -8.2378    0.0000 C   0  0
   -3.6465   -7.4922    0.0000 C   0  0
   -3.6415   -5.9922    0.0000 C   0  0
   -6.2147   -1.4765    0.0000 O   0  0
   -7.2496   -0.8692    0.0000 C   0  0
  1  2  2  0
  2  3  1  0
  3  4  1  0
  4  5  1  0
  1  5  1  0
  6  7  1  0
  7  8  2  0
  8  9  1  0
  4  9  2  0
  3  6  2  0
 10 11  2  0
 10 12  1  0
  8 10  1  0
 13 14  1  0
 14 15  1  0
  1 13  1  0
  6 16  1  0
 18 19  1  0
 19 20  2  0
 20 21  1  0
 21 22  2  0
 22 23  1  0
 18 23  2  0
 24 25  1  0
 25 26  2  0
 26 27  1  0
 27 28  2  0
 28 29  1  0
 24 29  2  0
 18 24  1  0
 30 31  1  0
 31 32  2  0
 32 33  1  0
 33 34  2  0
 30 34  1  0
 25 34  1  0
 17 21  1  0
  5 17  1  0
 35 36  1  0
 37 38  1  0
 38 39  2  0
 39 40  1  0
 40 41  2  0
 41 42  1  0
 37 42  2  0
 35 37  1  0
 43 44  1  0
 36 43  1  0
 35 12  1  6
M  END