
          11280715492D 1   1.00000     0.00000     0

 25 28  0     0  0            999 V2000
   -3.2092  -22.7305    0.0000 C   0  0  0  0  0  0           0  0  0
   -2.3170  -23.7272    0.0000 N   0  0  0  0  0  0           0  0  0
   -1.9049  -23.0150    0.0000 C   0  0  0  0  0  0           0  0  0
   -2.4661  -22.3920    0.0000 N   0  0  0  0  0  0           0  0  0
   -3.1248  -23.5486    0.0000 C   0  0  0  0  0  0           0  0  0
   -3.7410  -24.0973    0.0000 C   0  0  0  0  0  0           0  0  0
   -4.4632  -23.6944    0.0000 C   0  0  0  0  0  0           0  0  0
   -5.1710  -24.1183    0.0000 C   0  0  0  0  0  0           0  0  0
   -5.1579  -24.9448    0.0000 C   0  0  0  0  0  0           0  0  0
   -4.4311  -25.3456    0.0000 C   0  0  0  0  0  0           0  0  0
   -3.7262  -24.9195    0.0000 C   0  0  0  0  0  0           0  0  0
   -5.8656  -25.3703    0.0000 Cl  0  0  0  0  0  0           0  0  0
   -4.4146  -26.1713    0.0000 O   0  0  0  0  0  0           0  0  0
   -1.0794  -22.9954    0.0000 C   0  0  0  0  0  0           0  0  0
   -0.6538  -23.7007    0.0000 C   0  0  0  0  0  0           0  0  0
    0.1710  -23.6814    0.0000 C   0  0  0  0  0  0           0  0  0
    0.5676  -22.9561    0.0000 C   0  0  0  0  0  0           0  0  0
    0.1333  -22.2487    0.0000 C   0  0  0  0  0  0           0  0  0
   -0.6899  -22.2714    0.0000 C   0  0  0  0  0  0           0  0  0
   -3.9255  -22.3231    0.0000 C   0  0  0  0  0  0           0  0  0
   -5.3528  -21.5097    0.0000 N   0  0  0  0  0  0           0  0  0
   -5.3463  -22.3347    0.0000 C   0  0  0  0  0  0           0  0  0
   -4.6327  -22.7394    0.0000 N   0  0  0  0  0  0           0  0  0
   -3.9273  -21.4985    0.0000 C   0  0  0  0  0  0           0  0  0
   -4.6456  -21.0894    0.0000 C   0  0  0  0  0  0           0  0  0
  9 12  1  0     0  0
  2  3  1  0     0  0
 10 13  1  0     0  0
  6  7  2  0     0  0
  3 14  1  0     0  0
  3  4  2  0     0  0
 14 15  2  0     0  0
  7  8  1  0     0  0
 15 16  1  0     0  0
  4  1  1  0     0  0
 16 17  2  0     0  0
  8  9  2  0     0  0
 17 18  1  0     0  0
  1  5  2  0     0  0
 18 19  2  0     0  0
 19 14  1  0     0  0
  9 10  1  0     0  0
  1 20  1  0     0  0
  5  2  1  0     0  0
 10 11  2  0     0  0
 11  6  1  0     0  0
  5  6  1  0     0  0
 21 25  2  0     0  0
 21 22  1  0     0  0
 22 23  2  0     0  0
 23 20  1  0     0  0
 20 24  2  0     0  0
 24 25  1  0     0  0
M  END