
  SciTegic10041313232D

 29 30  0  0  1  0            999 V2000
    2.1042   -9.8167    0.0000 C   0  0
    2.8167  -10.2375    0.0000 N   0  0
    4.2500  -10.2417    0.0000 C   0  0
    1.3917  -10.2292    0.0000 N   0  0
    3.5375   -9.8250    0.0000 C   0  0  2  0  0  0
    7.2129   -9.3519    0.0000 N   0  0
    4.9667   -9.8375    0.0000 N   0  0
    6.3875   -9.8375    0.0000 C   0  0
    2.1000   -8.9917    0.0000 O   0  0
    3.5417   -9.0000    0.0000 C   0  0
    4.2417  -11.0667    0.0000 O   0  0
    3.1250   -8.2792    0.0000 C   0  0
   -0.0333  -11.0542    0.0000 O   0  0
    5.6792  -10.2542    0.0000 C   0  0  2  0  0  0
    6.3792  -11.4917    0.0000 C   0  0
    0.6792   -9.8125    0.0000 C   0  0
    1.3917  -11.0542    0.0000 C   0  0
    5.6750  -11.0750    0.0000 C   0  0
    6.3792  -12.3167    0.0000 C   0  0
   -0.0333  -10.2292    0.0000 C   0  0
    0.6792  -11.4625    0.0000 C   0  0
    2.3000   -8.2792    0.0000 C   0  0
    3.5292   -7.5667    0.0000 C   0  0
    2.9125   -9.0792    0.0000 C   0  0
    5.6667  -12.7250    0.0000 C   0  0
    7.0917  -12.7292    0.0000 C   0  0
    7.0917  -13.5500    0.0000 C   0  0
    5.6625  -13.5417    0.0000 C   0  0
    6.3750  -13.9667    0.0000 C   0  0
  2  1  1  0
  3  5  1  0
  4  1  1  0
  5  2  1  0
  6  8  3  0
  7  3  1  0
  8 14  1  0
  9  1  2  0
  5 10  1  1
 11  3  2  0
 12 10  1  0
 13 21  1  0
 14  7  1  0
 15 18  1  0
 16  4  1  0
 17  4  1  0
 14 18  1  6
 19 15  1  0
 20 16  1  0
 21 17  1  0
 22 12  1  0
 23 12  1  0
 24 12  1  0
 25 19  2  0
 26 19  1  0
 27 26  2  0
 28 25  1  0
 29 27  1  0
 20 13  1  0
 29 28  2  0
M  END