
  SciTegic12231509382D

 29 30  0  0  0  0            999 V2000
   11.9361   -5.8583    0.0000 C   0  0
   11.9349   -6.6857    0.0000 C   0  0
   12.6497   -7.0985    0.0000 C   0  0
   13.3662   -6.6852    0.0000 C   0  0
   13.3633   -5.8547    0.0000 C   0  0
   12.6479   -5.4455    0.0000 C   0  0
   12.6495   -7.9235    0.0000 C   0  0
   12.6417   -8.7458    0.0000 F   0  0
   13.4745   -7.9276    0.0000 F   0  0
   11.8245   -7.9222    0.0000 F   0  0
   11.2201   -7.0976    0.0000 C   0  0
   10.5056   -7.5116    0.0000 N   0  0
   14.0762   -5.4395    0.0000 N   0  0
   14.7922   -5.8493    0.0000 C   0  0
   15.5052   -5.4341    0.0000 C   0  0
   14.7953   -6.6743    0.0000 O   0  0
   15.0889   -4.7218    0.0000 O   0  0
   16.9340   -5.4242    0.0000 S   0  0
   17.5167   -6.0042    0.0000 C   0  0
   17.4332   -4.7673    0.0000 O   0  0
   16.4348   -6.0810    0.0000 O   0  0
   17.3028   -6.7991    0.0000 C   0  0
   17.8847   -7.3788    0.0000 C   0  0
   18.6792   -7.1644    0.0000 C   0  0
   18.8887   -6.3650    0.0000 C   0  0
   18.3053   -5.7887    0.0000 C   0  0
   16.2174   -5.0178    0.0000 C   0  0
   15.9125   -6.1458    0.0000 C   0  0
   19.2647   -7.7456    0.0000 Br  0  0
  3  7  1  0
 14 15  1  0
  3  4  2  0
 14 16  2  0
  7  8  1  0
 15 17  1  0
 27 18  1  0
  7  9  1  0
 18 19  1  0
  4  5  1  0
 18 20  2  0
  7 10  1  0
 18 21  2  0
  2  3  1  0
 19 22  2  0
  2 11  1  0
 22 23  1  0
  5  6  2  0
 23 24  2  0
 11 12  3  0
 24 25  1  0
  6  1  1  0
 25 26  2  0
 26 19  1  0
  5 13  1  0
 15 27  1  0
  1  2  2  0
 15 28  1  0
 13 14  1  0
 24 29  1  0
M  END