
          11280715452D 1   1.00000     0.00000     0

 30 33  0     0  0            999 V2000
   -0.4583   -0.2375    0.0000 N   0  0  3  0  0  0           0  0  0
   -0.6958    0.5000    0.0000 C   0  0  0  0  0  0           0  0  0
   -0.0833    0.9625    0.0000 N   0  0  3  0  0  0           0  0  0
   -1.0708   -0.6875    0.0000 C   0  0  0  0  0  0           0  0  0
    0.5167    0.5125    0.0000 C   0  0  0  0  0  0           0  0  0
    0.2917   -0.2375    0.0000 C   0  0  3  0  0  0           0  0  0
   -1.4333    0.5125    0.0000 N   0  0  0  0  0  0           0  0  0
   -1.0708   -1.4625    0.0000 S   0  0  3  0  0  0           0  0  0
   -1.6708   -0.2167    0.0000 C   0  0  0  0  0  0           0  0  0
   -0.0833    1.7500    0.0000 C   0  0  0  0  0  0           0  0  0
    0.5667    2.1458    0.0000 C   0  0  0  0  0  0           0  0  0
   -0.7333    2.1458    0.0000 C   0  0  0  0  0  0           0  0  0
    1.0042   -0.4375    0.0000 C   0  0  0  0  0  0           0  0  0
    1.2292    0.7500    0.0000 O   0  0  0  0  0  0           0  0  0
   -0.3333   -1.4667    0.0000 O   0  0  0  0  0  0           0  0  0
   -1.8208   -1.4625    0.0000 O   0  0  0  0  0  0           0  0  0
    0.5667    2.9125    0.0000 C   0  0  0  0  0  0           0  0  0
   -0.7333    2.9125    0.0000 C   0  0  0  0  0  0           0  0  0
   -0.0833    3.3000    0.0000 C   0  0  0  0  0  0           0  0  0
    0.2792   -1.0125    0.0000 C   0  0  0  0  0  0           0  0  0
    1.0042   -1.2125    0.0000 C   0  0  0  0  0  0           0  0  0
   -1.0708   -2.2417    0.0000 C   0  0  0  0  0  0           0  0  0
    0.9917   -2.7625    0.0000 C   0  0  0  0  0  0           0  0  0
   -1.3833    3.3000    0.0000 Cl  0  0  0  0  0  0           0  0  0
    1.2042    3.3000    0.0000 Cl  0  0  0  0  0  0           0  0  0
    0.9792   -3.5375    0.0000 Br  0  0  0  0  0  0           0  0  0
    1.6417   -1.6000    0.0000 C   0  0  0  0  0  0           0  0  0
    0.3417   -1.5875    0.0000 C   0  0  0  0  0  0           0  0  0
    1.6417   -2.3792    0.0000 C   0  0  0  0  0  0           0  0  0
    0.3417   -2.3667    0.0000 C   0  0  0  0  0  0           0  0  0
  2  1  1  0     0  0
  3  2  1  0     0  0
  4  1  1  0     0  0
  5  6  1  0     0  0
  6  1  1  0     0  0
  7  2  2  0     0  0
  8  4  1  0     0  0
  9  4  2  0     0  0
 10  3  1  0     0  0
 11 10  2  0     0  0
 12 10  1  0     0  0
 13  6  1  0     0  0
 14  5  2  0     0  0
 15  8  2  0     0  0
 16  8  2  0     0  0
 17 11  1  0     0  0
 18 12  2  0     0  0
 19 18  1  0     0  0
 20  6  1  0     0  0
 21 13  1  0     0  0
 22  8  1  0     0  0
 23 30  2  0     0  0
 24 18  1  0     0  0
 25 17  1  0     0  0
 26 23  1  0     0  0
 27 21  1  0     0  0
 28 21  2  0     0  0
 29 27  2  0     0  0
 30 28  1  0     0  0
  3  5  1  0     0  0
  7  9  1  0     0  0
 29 23  1  0     0  0
 17 19  2  0     0  0
M  END