
  SciTegic02271515012D

 37 39  0  0  0  0            999 V2000
   14.2761   -5.3778    0.0000 O   0  0
   13.8716   -4.6720    0.0000 S   0  0
   13.4626   -5.3752    0.0000 O   0  0
   11.7488   -3.4462    0.0000 C   0  0
   11.7477   -4.2657    0.0000 C   0  0
   12.4557   -4.6747    0.0000 C   0  0
   13.1654   -4.2653    0.0000 C   0  0
   13.1625   -3.4426    0.0000 C   0  0
   12.4539   -3.0373    0.0000 C   0  0
   11.0410   -3.0378    0.0000 C   0  0
   10.3334   -3.4465    0.0000 C   0  0
    9.6256   -3.0381    0.0000 N   0  0
    8.9180   -3.4469    0.0000 C   0  0
    8.2102   -3.0384    0.0000 C   0  0
    8.9182   -4.2641    0.0000 O   0  0
   14.5808   -4.2630    0.0000 N   0  0
   15.2891   -4.6705    0.0000 C   0  0
   15.9962   -4.2608    0.0000 N   0  0
   15.2904   -5.4877    0.0000 O   0  0
   16.7045   -4.6683    0.0000 C   0  0
   16.7021   -5.4905    0.0000 C   0  0
   17.4063   -5.8979    0.0000 C   0  0
   18.1158   -5.4917    0.0000 C   0  0
   18.1165   -4.6735    0.0000 C   0  0
   17.4077   -4.2616    0.0000 C   0  0
    8.2138   -2.2210    0.0000 C   0  0
    7.5068   -1.8127    0.0000 C   0  0
    6.7983   -2.2215    0.0000 C   0  0
    6.8011   -3.0429    0.0000 C   0  0
    7.5086   -3.4475    0.0000 C   0  0
    6.0899   -1.8140    0.0000 N   0  0
    7.5070   -0.9955    0.0000 Cl  0  0
    7.5121   -4.2647    0.0000 O   0  0
    6.8061   -4.6763    0.0000 C   0  0
    5.3828   -2.2237    0.0000 C   0  0
    4.6745   -1.8162    0.0000 C   0  0
    5.3841   -3.0409    0.0000 O   0  0
  2  1  2  0
  3  2  2  0
  4  5  2  0
  5  6  1  0
  6  7  2  0
  7  8  1  0
  8  9  2  0
  9  4  1  0
  4 10  1  0
 10 11  1  0
 11 12  1  0
 12 13  1  0
 13 14  1  0
 13 15  2  0
  7  2  1  0
  2 16  1  0
 16 17  1  0
 17 18  1  0
 17 19  2  0
 18 20  1  0
 20 21  1  0
 20 25  1  0
 21 22  1  0
 22 23  1  0
 23 24  1  0
 24 25  1  0
 14 26  2  0
 26 27  1  0
 27 28  2  0
 28 29  1  0
 29 30  2  0
 30 14  1  0
 28 31  1  0
 27 32  1  0
 30 33  1  0
 33 34  1  0
 31 35  1  0
 35 36  1  0
 35 37  2  0
M  END