
  SciTegic12231509382D

 24 27  0  0  0  0            999 V2000
   12.4424   -8.5747    0.0000 C   0  0  1  0  0  0
   14.5820   -7.3533    0.0000 C   0  0  2  0  0  0
   12.4300   -9.4097    0.0000 C   0  0
   13.1612   -8.1634    0.0000 C   0  0  2  0  0  0
   14.5820   -8.1759    0.0000 C   0  0  2  0  0  0
   13.8590   -8.5747    0.0000 C   0  0  2  0  0  0
   11.7154   -9.8210    0.0000 C   0  0
   13.8590   -6.9295    0.0000 C   0  0
   13.1403   -7.3408    0.0000 C   0  0
   11.7320   -8.1759    0.0000 C   0  0
   13.8590   -9.4097    0.0000 C   0  0
   15.3671   -8.4376    0.0000 C   0  0
   13.1403   -9.8210    0.0000 C   0  0
   15.3671   -7.0791    0.0000 C   0  0  2  0  0  0
   11.0092   -9.3973    0.0000 C   0  0
   15.8573   -7.7646    0.0000 C   0  0
   10.2821   -9.8044    0.0000 O   0  0
   11.0216   -8.5747    0.0000 C   0  0
   14.5820   -6.5307    0.0000 C   0  0
   15.7784   -6.3686    0.0000 O   0  0
   13.1528   -8.9860    0.0000 H   0  0
   14.5695   -8.9984    0.0000 H   0  0
   13.8590   -7.7521    0.0000 H   0  0
   12.4424   -7.7497    0.0000 H   0  0
  2  8  1  0
  3  1  1  0
  4  1  1  0
  5  6  1  0
  6  4  1  0
  7  3  2  0
  8  9  1  0
  9  4  1  0
 10  1  1  0
 11  6  1  0
 12  5  1  0
 13  3  1  0
 14  2  1  0
 15 18  1  0
 16 12  1  0
 17 15  2  0
 18 10  1  0
  2 19  1  1
 14 20  1  1
  4 21  1  6
  5 22  1  6
  6 23  1  1
 13 11  1  0
  7 15  1  0
  5  2  1  0
 16 14  1  0
  1 24  1  1
M  END