
          11280714442D 1   1.00000     0.00000     0

 18 18  0     0  0            999 V2000
    4.3625   -2.6750    0.0000 C   0  0  0  0  0  0           0  0  0
    3.6667   -3.1167    0.0000 C   0  0  0  0  0  0           0  0  0
    5.0917   -3.0542    0.0000 O   0  0  0  0  0  0           0  0  0
    4.3250   -1.8542    0.0000 O   0  0  0  0  0  0           0  0  0
    7.9500   -2.9250    0.0000 N   0  0  0  0  0  0           0  0  0
    3.7042   -3.9417    0.0000 C   0  0  0  0  0  0           0  0  0
    2.9292   -2.7375    0.0000 C   0  0  0  0  0  0           0  0  0
    6.5167   -2.9917    0.0000 C   0  0  3  0  0  0           0  0  0
    5.7875   -2.6125    0.0000 C   0  0  0  0  0  0           0  0  0
    7.2167   -2.5417    0.0000 C   0  0  0  0  0  0           0  0  0
    3.0167   -4.3792    0.0000 C   0  0  0  0  0  0           0  0  0
    2.2417   -3.1875    0.0000 C   0  0  0  0  0  0           0  0  0
    2.2792   -4.0042    0.0000 C   0  0  0  0  0  0           0  0  0
    6.5542   -3.8167    0.0000 O   0  0  0  0  0  0           0  0  0
    8.6417   -2.4792    0.0000 C   0  0  3  0  0  0           0  0  0
    1.5792   -4.4542    0.0000 C   0  0  0  0  0  0           0  0  0
    8.6042   -1.6542    0.0000 C   0  0  0  0  0  0           0  0  0
    9.3750   -2.8625    0.0000 C   0  0  0  0  0  0           0  0  0
  2  1  1  0     0  0
  3  1  1  0     0  0
  4  1  2  0     0  0
  5 10  1  0     0  0
  6  2  1  0     0  0
  7  2  2  0     0  0
  8  9  1  0     0  0
  9  3  1  0     0  0
 10  8  1  0     0  0
 11  6  2  0     0  0
 12  7  1  0     0  0
 13 12  2  0     0  0
 14  8  1  0     0  0
 15  5  1  0     0  0
 16 13  1  0     0  0
 17 15  1  0     0  0
 18 15  1  0     0  0
 11 13  1  0     0  0
M  END