
          11280715252D 1   1.00000     0.00000     0

 23 25  0     0  0            999 V2000
   -0.9625   -6.7250    0.0000 N   0  0  3  0  0  0           0  0  0
    2.6667   -2.8625    0.0000 N   0  0  3  0  0  0           0  0  0
   -2.3958   -7.5417    0.0000 O   0  0  0  0  0  0           0  0  0
   -0.2500   -6.3125    0.0000 C   0  0  0  0  0  0           0  0  0
   -0.2500   -5.4875    0.0000 C   0  0  0  0  0  0           0  0  0
   -0.2500   -3.8292    0.0000 C   0  0  0  0  0  0           0  0  0
   -0.9625   -5.0750    0.0000 C   0  0  0  0  0  0           0  0  0
    0.4667   -5.0750    0.0000 C   0  0  0  0  0  0           0  0  0
   -0.9625   -4.2500    0.0000 C   0  0  0  0  0  0           0  0  0
    0.4667   -4.2417    0.0000 C   0  0  0  0  0  0           0  0  0
    1.8875   -2.5917    0.0000 C   0  0  0  0  0  0           0  0  0
    1.1750   -3.0042    0.0000 C   0  0  0  0  0  0           0  0  0
   -0.2583   -3.0042    0.0000 O   0  0  0  0  0  0           0  0  0
   -1.6750   -6.3125    0.0000 C   0  0  0  0  0  0           0  0  0
   -0.9583   -7.5500    0.0000 C   0  0  0  0  0  0           0  0  0
    3.2875   -2.3167    0.0000 C   0  0  0  0  0  0           0  0  0
    2.8250   -3.6750    0.0000 C   0  0  0  0  0  0           0  0  0
   -1.6750   -7.9542    0.0000 C   0  0  0  0  0  0           0  0  0
   -2.3875   -6.7167    0.0000 C   0  0  0  0  0  0           0  0  0
    0.4625   -2.5917    0.0000 C   0  0  0  0  0  0           0  0  0
    4.0667   -2.5917    0.0000 C   0  0  0  0  0  0           0  0  0
    3.6042   -3.9417    0.0000 C   0  0  0  0  0  0           0  0  0
    4.2250   -3.4042    0.0000 C   0  0  0  0  0  0           0  0  0
  2 11  1  0     0  0
  3 18  1  0     0  0
  4  1  1  0     0  0
  5  4  1  0     0  0
  6 10  2  0     0  0
  7  5  1  0     0  0
  8  5  2  0     0  0
  9  7  2  0     0  0
 10  8  1  0     0  0
 11 12  1  0     0  0
 12 20  1  0     0  0
 13  6  1  0     0  0
 14  1  1  0     0  0
 15  1  1  0     0  0
 16  2  1  0     0  0
 17  2  1  0     0  0
 18 15  1  0     0  0
 19 14  1  0     0  0
 20 13  1  0     0  0
 21 16  1  0     0  0
 22 17  1  0     0  0
 23 22  1  0     0  0
 19  3  1  0     0  0
  6  9  1  0     0  0
 21 23  1  0     0  0
M  END