
  SciTegic02181312462D

 47 51  0  0  0  0            999 V2000
   18.9479  -22.8204    0.0000 C   0  0
   19.6306  -22.4174    0.0000 C   0  0
   19.6263  -21.6237    0.0000 C   0  0
   18.9352  -21.2323    0.0000 C   0  0
   18.2525  -21.6352    0.0000 C   0  0
   18.2576  -22.4249    0.0000 C   0  0
   20.3217  -22.8089    0.0000 C   0  0
   18.9309  -20.4386    0.0000 F   0  0
   21.8000  -25.9524    0.0000 C   0  0
   21.7958  -26.7696    0.0000 O   0  0
   22.5718  -27.0261    0.0000 C   0  0
   23.0555  -26.3673    0.0000 C   0  0
   22.5784  -25.7039    0.0000 S   0  0
   18.3308  -24.8496    0.0000 C   0  0
   18.3035  -24.0558    0.0000 C   0  0
   18.9766  -23.6371    0.0000 C   0  0
   19.6782  -24.0081    0.0000 C   0  0
   19.7055  -24.8019    0.0000 C   0  0
   19.0324  -25.2207    0.0000 N   0  0
   20.4067  -25.1822    0.0000 N   0  0
   17.5824  -23.6713    0.0000 N   0  0
   17.5549  -22.8545    0.0000 C   0  0
   16.8889  -24.1035    0.0000 C   0  0
   16.1678  -23.7189    0.0000 C   0  0
   16.9164  -24.9202    0.0000 O   0  0
   15.4743  -24.1511    0.0000 C   0  0
   14.7541  -23.7634    0.0000 C   0  0
   14.0610  -24.1949    0.0000 C   0  0
   14.0881  -25.0125    0.0000 C   0  0
   14.8141  -25.3967    0.0000 C   0  0
   15.5042  -24.9630    0.0000 C   0  0
   16.7287  -23.1175    0.0000 C   0  0
   15.7381  -23.0193    0.0000 C   0  0
   14.8445  -26.2134    0.0000 C   0  0
   14.1525  -26.6480    0.0000 F   0  0
   15.5669  -26.5954    0.0000 F   0  0
   14.8673  -27.0240    0.0000 F   0  0
   13.3401  -23.8100    0.0000 C   0  0
   13.3130  -22.9933    0.0000 F   0  0
   12.6463  -24.2419    0.0000 F   0  0
   12.7448  -23.2418    0.0000 F   0  0
   20.4217  -25.9822    0.0000 C   0  0
   21.1191  -26.3626    0.0000 C   0  0
   21.7822  -25.1502    0.0000 C   0  0
   21.0803  -24.7655    0.0000 C   0  0
   23.2817  -25.2875    0.0000 O   0  0
   22.5718  -24.8831    0.0000 O   0  0
  1  2  1  0
  2  3  2  0
  3  4  1  0
  4  5  2  0
  5  6  1  0
  1  6  2  0
  2  7  1  0
  4  8  1  0
  9 10  1  0
 10 11  1  0
 11 12  1  0
 12 13  1  0
 13  9  1  0
 14 15  1  0
 15 16  2  0
 16 17  1  0
 17 18  2  0
 18 19  1  0
 14 19  2  0
 18 20  1  0
 15 21  1  0
 21 22  1  0
 21 23  1  0
 23 24  1  0
 23 25  2  0
 24 26  1  0
 26 27  2  0
 27 28  1  0
 28 29  2  0
 29 30  1  0
 30 31  2  0
 31 26  1  0
 24 32  1  0
 24 33  1  0
 30 34  1  0
 34 35  1  0
 34 36  1  0
 34 37  1  0
 28 38  1  0
 38 39  1  0
 38 40  1  0
 38 41  1  0
 20 42  1  0
 20 45  1  0
 42 43  1  0
 43  9  1  0
  9 44  1  0
 44 45  1  0
 13 46  2  0
 13 47  2  0
 16  1  1  0
M  END