
  CDK    9/16/09,9:54

 37 40  0  0  0  0  0  0  0  0999 V2000
   -4.1407   -6.9413    0.0000 C   0  0  0  0  0  0  0  0  0  0  0  0
   -4.1407   -7.7670    0.0000 C   0  0  0  0  0  0  0  0  0  0  0  0
   -3.4317   -8.1736    0.0000 C   0  0  0  0  0  0  0  0  0  0  0  0
   -2.7186   -7.7670    0.0000 C   0  0  0  0  0  0  0  0  0  0  0  0
   -2.7186   -6.9413    0.0000 O   0  0  0  0  0  0  0  0  0  0  0  0
   -3.4317   -6.5223    0.0000 C   0  0  0  0  0  0  0  0  0  0  0  0
   -3.4317   -5.6966    0.0000 C   0  0  0  0  0  0  0  0  0  0  0  0
   -2.7162   -5.2859    0.0000 O   0  0  0  0  0  0  0  0  0  0  0  0
   -4.8576   -6.5286    0.0000 O   0  0  0  0  0  0  0  0  0  0  0  0
   -4.8558   -8.1788    0.0000 O   0  0  0  0  0  0  0  0  0  0  0  0
   -3.4317   -8.9993    0.0000 O   0  0  0  0  0  0  0  0  0  0  0  0
   -2.0036   -8.1788    0.0000 O   0  0  0  0  0  0  0  0  0  0  0  0
   -1.2874   -7.7691    0.0000 C   0  0  0  0  0  0  0  0  0  0  0  0
   -0.5762   -8.1848    0.0000 C   0  0  0  0  0  0  0  0  0  0  0  0
    0.1379   -7.7785    0.0000 O   0  0  0  0  0  0  0  0  0  0  0  0
    0.1434   -6.9525    0.0000 C   0  0  0  0  0  0  0  0  0  0  0  0
   -0.5715   -6.5344    0.0000 C   0  0  0  0  0  0  0  0  0  0  0  0
   -1.2917   -6.9464    0.0000 C   0  0  0  0  0  0  0  0  0  0  0  0
   -1.2945   -8.5927    0.0000 H   0  0  0  0  0  0  0  0  0  0  0  0
   -2.0073   -6.5313    0.0000 O   0  0  0  0  0  0  0  0  0  0  0  0
   -0.5675   -5.7088    0.0000 O   0  0  0  0  0  0  0  0  0  0  0  0
    0.1501   -5.3014    0.0000 C   0  0  0  0  0  0  0  0  0  0  0  0
    0.8616   -5.7133    0.0000 O   0  0  0  0  0  0  0  0  0  0  0  0
    0.8587   -6.5388    0.0000 O   0  0  0  0  0  0  0  0  0  0  0  0
    0.1535   -4.4758    0.0000 C   0  0  0  0  0  0  0  0  0  0  0  0
    1.5696   -6.9546    0.0000 C   0  0  0  0  0  0  0  0  0  0  0  0
   -0.5809   -9.0104    0.0000 C   0  0  0  0  0  0  0  0  0  0  0  0
   -1.2989   -9.4211    0.0000 O   0  0  0  0  0  0  0  0  0  0  0  0
    0.1599   -2.8279    0.0000 C   0  0  0  0  0  0  0  0  0  0  0  0
   -0.5597   -3.2400    0.0000 C   0  0  0  0  0  0  0  0  0  0  0  0
   -0.5600   -4.0636    0.0000 C   0  0  0  0  0  0  0  0  0  0  0  0
    0.8744   -3.2424    0.0000 C   0  0  0  0  0  0  0  0  0  0  0  0
    0.8687   -4.0643    0.0000 C   0  0  0  0  0  0  0  0  0  0  0  0
    1.5729   -4.4803    0.0000 C   0  0  0  0  0  0  0  0  0  0  0  0
    2.2874   -4.0715    0.0000 C   0  0  0  0  0  0  0  0  0  0  0  0
    2.2890   -3.2465    0.0000 C   0  0  0  0  0  0  0  0  0  0  0  0
    1.5801   -2.8384    0.0000 C   0  0  0  0  0  0  0  0  0  0  0  0
 17 18  1  0  0  0  0 
  1  9  1  1  0  0  0 
 13 19  1  6  0  0  0 
  2  3  1  0  0  0  0 
 18 20  1  6  0  0  0 
  2 10  1  1  0  0  0 
 17 21  1  1  0  0  0 
  3  4  1  0  0  0  0 
 21 22  1  0  0  0  0 
  3 11  1  6  0  0  0 
 22 23  2  0  0  0  0 
 16 24  1  6  0  0  0 
  4  5  1  0  0  0  0 
  4 12  1  1  0  0  0 
 22 25  1  0  0  0  0 
  5  6  1  0  0  0  0 
 24 26  1  0  0  0  0 
 12 13  1  0  0  0  0 
 14 27  1  6  0  0  0 
 13 14  1  0  0  0  0 
 27 28  1  0  0  0  0 
 25 33  2  0  0  0  0 
 32 29  2  0  0  0  0 
  6  7  1  1  0  0  0 
 29 30  1  0  0  0  0 
  1  2  1  0  0  0  0 
 30 31  2  0  0  0  0 
 31 25  1  0  0  0  0 
  7  8  1  0  0  0  0 
  1  6  1  0  0  0  0 
 32 33  1  0  0  0  0 
 13 18  1  0  0  0  0 
 33 34  1  0  0  0  0 
 14 15  1  0  0  0  0 
 34 35  2  0  0  0  0 
 15 16  1  0  0  0  0 
 35 36  1  0  0  0  0 
 16 17  1  0  0  0  0 
 36 37  2  0  0  0  0 
 37 32  1  0  0  0  0 
M  END