
  Mrv0541 04051115152D          

 36 39  0  0  0  0            999 V2000
   -1.8320   -0.8146    0.0000 C   0  0  2  0  0  0  0  0  0  0  0  0
   -1.1646   -1.2995    0.0000 C   0  0  2  0  0  0  0  0  0  0  0  0
   -1.4195   -2.0841    0.0000 C   0  0  0  0  0  0  0  0  0  0  0  0
   -2.2445   -2.0841    0.0000 N   0  0  0  0  0  0  0  0  0  0  0  0
   -2.4995   -1.2995    0.0000 C   0  0  0  0  0  0  0  0  0  0  0  0
   -1.8320    0.0104    0.0000 C   0  0  0  0  0  0  0  0  0  0  0  0
   -0.3800   -1.0446    0.0000 C   0  0  0  0  0  0  0  0  0  0  0  0
   -0.2084   -0.2376    0.0000 N   0  0  0  0  0  0  0  0  0  0  0  0
    0.2331   -1.5966    0.0000 O   0  0  0  0  0  0  0  0  0  0  0  0
   -1.1175    0.4229    0.0000 O   0  0  0  0  0  0  0  0  0  0  0  0
   -2.5465    0.4229    0.0000 N   0  0  0  0  0  0  0  0  0  0  0  0
   -2.5465    1.2479    0.0000 C   0  0  0  0  0  0  0  0  0  0  0  0
   -3.2610    1.6604    0.0000 N   0  0  0  0  0  0  0  0  0  0  0  0
   -2.5465    2.8979    0.0000 C   0  0  0  0  0  0  0  0  0  0  0  0
   -1.8320    2.4854    0.0000 C   0  0  0  0  0  0  0  0  0  0  0  0
   -3.2610    2.4854    0.0000 C   0  0  0  0  0  0  0  0  0  0  0  0
   -1.8320    1.6604    0.0000 C   0  0  0  0  0  0  0  0  0  0  0  0
   -2.5465    3.7229    0.0000 Cl  0  0  0  0  0  0  0  0  0  0  0  0
    0.5762    0.0174    0.0000 C   0  0  0  0  0  0  0  0  0  0  0  0
    0.7477    0.8243    0.0000 C   0  0  0  0  0  0  0  0  0  0  0  0
    2.1454    0.5272    0.0000 C   0  0  0  0  0  0  0  0  0  0  0  0
    1.9739   -0.2797    0.0000 C   0  0  0  0  0  0  0  0  0  0  0  0
    1.5323    1.0793    0.0000 C   0  0  0  0  0  0  0  0  0  0  0  0
    1.1893   -0.5347    0.0000 C   0  0  0  0  0  0  0  0  0  0  0  0
    2.9301    0.7822    0.0000 N   0  0  0  0  0  0  0  0  0  0  0  0
    3.5432    0.2301    0.0000 C   0  0  0  0  0  0  0  0  0  0  0  0
    4.4993    1.2921    0.0000 C   0  0  0  0  0  0  0  0  0  0  0  0
    3.8862    1.8441    0.0000 C   0  0  0  0  0  0  0  0  0  0  0  0
    4.3278    0.4851    0.0000 C   0  0  0  0  0  0  0  0  0  0  0  0
    3.1016    1.5891    0.0000 C   0  0  0  0  0  0  0  0  0  0  0  0
    2.4885    2.1412    0.0000 O   0  0  0  0  0  0  0  0  0  0  0  0
    1.0178   -1.3416    0.0000 F   0  0  0  0  0  0  0  0  0  0  0  0
   -2.7294   -2.7516    0.0000 C   0  0  0  0  0  0  0  0  0  0  0  0
   -2.3939   -3.5052    0.0000 C   0  0  0  0  0  0  0  0  0  0  0  0
   -1.5734   -3.5915    0.0000 F   0  0  0  0  0  0  0  0  0  0  0  0
   -2.8788   -4.1727    0.0000 F   0  0  0  0  0  0  0  0  0  0  0  0
  1  2  1  0  0  0  0
  1  5  1  0  0  0  0
  1  6  1  6  0  0  0
  2  3  1  0  0  0  0
  2  7  1  1  0  0  0
  3  4  1  0  0  0  0
  5  4  1  0  0  0  0
 33  4  1  0  0  0  0
  6 10  2  0  0  0  0
  6 11  1  0  0  0  0
  7  8  1  0  0  0  0
  7  9  2  0  0  0  0
 19  8  1  0  0  0  0
 12 11  1  0  0  0  0
 12 13  2  0  0  0  0
 12 17  1  0  0  0  0
 16 13  1  0  0  0  0
 14 15  1  0  0  0  0
 14 16  2  0  0  0  0
 14 18  1  0  0  0  0
 15 17  2  0  0  0  0
 19 20  1  0  0  0  0
 19 24  2  0  0  0  0
 20 23  2  0  0  0  0
 21 22  2  0  0  0  0
 21 23  1  0  0  0  0
 21 25  1  0  0  0  0
 22 24  1  0  0  0  0
 24 32  1  0  0  0  0
 26 25  1  0  0  0  0
 30 25  1  0  0  0  0
 26 29  2  0  0  0  0
 27 28  2  0  0  0  0
 27 29  1  0  0  0  0
 28 30  1  0  0  0  0
 30 31  2  0  0  0  0
 33 34  1  0  0  0  0
 34 35  1  0  0  0  0
 34 36  1  0  0  0  0
M  END