
          11280715192D 1   1.00000     0.00000     0

 24 26  0     0  0            999 V2000
    4.2417   -3.2750    0.0000 C   0  0  0  0  0  0           0  0  0
    4.9542   -2.8542    0.0000 C   0  0  0  0  0  0           0  0  0
    2.8250   -4.1000    0.0000 C   0  0  0  0  0  0           0  0  0
    3.5292   -2.8667    0.0000 C   0  0  0  0  0  0           0  0  0
    3.5375   -4.5042    0.0000 C   0  0  0  0  0  0           0  0  0
    4.2417   -4.0917    0.0000 C   0  0  0  0  0  0           0  0  0
    2.8250   -3.2792    0.0000 C   0  0  0  0  0  0           0  0  0
    7.8042   -4.4917    0.0000 C   0  0  0  0  0  0           0  0  0
    2.1125   -4.5042    0.0000 C   0  0  3  0  0  0           0  0  0
    5.6667   -3.2667    0.0000 C   0  0  0  0  0  0           0  0  0
    7.0917   -4.0875    0.0000 C   0  0  0  0  0  0           0  0  0
    4.9500   -2.0292    0.0000 C   0  0  0  0  0  0           0  0  0
    7.8042   -5.3167    0.0000 O   0  0  0  0  0  0           0  0  0
    6.3750   -2.8542    0.0000 C   0  0  0  0  0  0           0  0  0
    5.6667   -4.0917    0.0000 C   0  0  0  0  0  0           0  0  0
    6.3792   -4.5000    0.0000 C   0  0  0  0  0  0           0  0  0
    7.0792   -3.2625    0.0000 C   0  0  0  0  0  0           0  0  0
    8.5167   -4.0792    0.0000 O   0  0  0  0  0  0           0  0  0
    2.1125   -2.8625    0.0000 C   0  0  0  0  0  0           0  0  0
    1.4042   -4.1042    0.0000 C   0  0  0  0  0  0           0  0  0
    4.9542   -4.5042    0.0000 C   0  0  0  0  0  0           0  0  0
    1.3917   -4.9167    0.0000 C   0  0  0  0  0  0           0  0  0
    2.8250   -4.9250    0.0000 C   0  0  0  0  0  0           0  0  0
    1.4042   -3.2792    0.0000 C   0  0  0  0  0  0           0  0  0
  2  1  1  0     0  0
  3  5  1  0     0  0
  4  1  2  0     0  0
  5  6  2  0     0  0
  6  1  1  0     0  0
  7  4  1  0     0  0
  8 11  1  0     0  0
  9  3  1  0     0  0
 10  2  1  0     0  0
 11 16  2  0     0  0
 12  2  2  0     0  0
 13  8  2  0     0  0
 14 10  1  0     0  0
 15 10  2  0     0  0
 16 15  1  0     0  0
 17 14  2  0     0  0
 18  8  1  0     0  0
 19  7  1  0     0  0
 20  9  1  0     0  0
 21  6  1  0     0  0
 22  9  1  0     0  0
 23  9  1  0     0  0
 24 19  1  0     0  0
  7  3  2  0     0  0
 24 20  1  0     0  0
 17 11  1  0     0  0
M  END