
  SciTegic12121611282D

 32 33  0  0  0  0            999 V2000
    1.2990   -0.7500    0.0000 C   0  0
    1.2990    0.7500    0.0000 C   0  0
    0.0000    1.5000    0.0000 C   0  0
   -1.2990    0.7500    0.0000 C   0  0
   -1.2990   -0.7500    0.0000 C   0  0
    0.0000   -1.5000    0.0000 C   0  0
   -2.5972   -1.5031    0.0000 O   0  0
   -2.5951   -3.0039    0.0000 C   0  0
   -3.8933   -3.7570    0.0000 C   0  0
   -3.8916   -4.9570    0.0000 C   0  0
    2.5972    1.5031    0.0000 C   0  0
    3.6375    0.9049    0.0000 O   0  0
    2.5951    3.0039    0.0000 O   0  0
    3.8933    3.7570    0.0000 C   0  0
    3.8912    5.2578    0.0000 C   0  0
    5.1894    6.0109    0.0000 N   0  0
    5.1872    7.5118    0.0000 C   0  0
    6.2252    8.1139    0.0000 C   0  0
    6.4920    5.2655    0.0000 C   0  0
    7.5293    5.8688    0.0000 C   0  0
   -2.5973    1.5031    0.0000 N   0  0
   -2.5951    3.0039    0.0000 S   0  0
   -3.8933    3.7570    0.0000 C   0  0
   -3.8912    5.2578    0.0000 C   0  0
   -5.1894    6.0109    0.0000 C   0  0
   -5.1895    7.5109    0.0000 C   0  0
   -6.4885    8.2609    0.0000 C   0  0
   -7.7876    7.5110    0.0000 C   0  0
   -7.7876    6.0110    0.0000 C   0  0
   -6.4886    5.2609    0.0000 C   0  0
   -1.5549    3.6021    0.0000 O   0  0
   -1.5568    2.4023    0.0000 O   0  0
  1  2  2  0
  2  3  1  0
  3  4  2  0
  4  5  1  0
  5  6  2  0
  6  1  1  0
  5  7  1  0
  7  8  1  0
  8  9  1  0
  9 10  1  0
  2 11  1  0
 11 12  2  0
 11 13  1  0
 13 14  1  0
 14 15  1  0
 15 16  1  0
 16 17  1  0
 17 18  1  0
 16 19  1  0
 19 20  1  0
  4 21  1  0
 21 22  1  0
 22 23  1  0
 23 24  2  0
 24 25  1  0
 25 26  2  0
 26 27  1  0
 27 28  2  0
 28 29  1  0
 29 30  2  0
 30 25  1  0
 22 31  2  0
 22 32  2  0
M  END