
  SciTegic10311316262D

 19 21  0  0  0  0            999 V2000
    3.5315  -10.9701    0.0000 C   0  0
    3.5303  -11.7897    0.0000 C   0  0
    4.2384  -12.1986    0.0000 C   0  0
    4.2366  -10.5613    0.0000 C   0  0
    4.9452  -10.9665    0.0000 C   0  0
    4.9486  -11.7917    0.0000 C   0  0
    5.6610  -12.1991    0.0000 C   0  0
    6.3745  -11.7859    0.0000 C   0  0
    6.3712  -10.9607    0.0000 C   0  0
    5.6542  -10.5487    0.0000 N   0  0
    7.0776  -10.5499    0.0000 O   0  0
    2.8258  -10.5578    0.0000 C   0  0
    2.8269   -9.7395    0.0000 C   0  0
    2.1199   -9.3311    0.0000 C   0  0
    1.4113   -9.7399    0.0000 C   0  0
    1.4142  -10.5614    0.0000 C   0  0
    2.1217  -10.9660    0.0000 C   0  0
    5.6632  -13.0163    0.0000 C   0  0
    3.5349   -9.3314    0.0000 Cl  0  0
  1  2  2  0
  2  3  1  0
  3  6  2  0
  5  4  2  0
  4  1  1  0
  5  6  1  0
  5 10  1  0
  6  7  1  0
  7  8  2  0
  8  9  1  0
  9 10  1  0
  9 11  2  0
 12 13  2  0
 13 14  1  0
 14 15  2  0
 15 16  1  0
 16 17  2  0
 17 12  1  0
  1 12  1  0
  7 18  1  0
 13 19  1  0
M  END