
  SciTegic01161211252D

 32 35  0  0  0  0            999 V2000
    4.6875   -3.5333    0.0000 N   0  0
    5.4750   -3.2958    0.0000 C   0  0
    4.7125   -2.1958    0.0000 N   0  3
    5.4917   -2.4667    0.0000 C   0  0
    4.4125   -4.3083    0.0000 C   0  0  1  0  0  0
    6.1792   -3.7250    0.0000 N   0  0
    4.2167   -2.8542    0.0000 C   0  0
    6.2167   -2.0667    0.0000 C   0  0
    6.9250   -2.5000    0.0000 N   0  0
    4.8792   -4.9917    0.0000 C   0  0  1  0  0  0
    6.9083   -3.3292    0.0000 C   0  0
    3.6208   -4.5500    0.0000 O   0  0
    1.5000   -5.9625    0.0000 P   0  0
    3.6000   -5.3750    0.0000 C   0  0  1  0  0  0
    4.3792   -5.6500    0.0000 C   0  0  1  0  0  0
    4.4708   -1.4083    0.0000 C   0  0
    5.0333   -0.8042    0.0000 C   0  0
    2.9208   -5.8458    0.0000 C   0  0
    2.1792   -5.4917    0.0000 O   0  0
    6.2333   -1.2417    0.0000 O   0  0
    0.9125   -6.5458    0.0000 O   0  0
    2.0292   -6.5958    0.0000 O   0  5
    0.9708   -5.3250    0.0000 O   0  0
    4.7917   -0.0208    0.0000 C   0  0
    7.6125   -3.7583    0.0000 N   0  0
    5.7042   -5.0125    0.0000 O   0  0
    4.6167   -6.4375    0.0000 O   0  0
    3.9833    0.1625    0.0000 Cl  0  0
    5.8375   -0.9917    0.0000 C   0  0
    5.3500    0.5833    0.0000 C   0  0
    6.4000   -0.3917    0.0000 C   0  0
    6.1583    0.4000    0.0000 C   0  0
  2  1  1  0
  3  7  2  0
  4  2  2  0
  5  1  1  1
  6  2  1  0
  7  1  1  0
  8  4  1  0
  9  8  1  0
 10  5  1  0
 11  6  2  0
 12  5  1  0
 13 19  1  0
 14 12  1  0
 15 10  1  0
 16  3  1  0
 17 16  1  0
 14 18  1  1
 19 18  1  0
 20  8  2  0
 21 13  1  0
 22 13  1  0
 23 13  2  0
 24 17  1  0
 25 11  1  0
 10 26  1  6
 15 27  1  6
 28 24  1  0
 29 17  2  0
 30 24  2  0
 31 29  1  0
 32 30  1  0
  3  4  1  0
 15 14  1  0
  9 11  1  0
 32 31  2  0
M  CHG  2   3   1  22  -1
M  END