
          02060813482D 1   1.00000     0.00000     0

 25 27  0     1  0            999 V2000
   10.0801   -8.9381    0.0000 N   0  0  0  0  0  0           0  0  0
   10.7961   -8.5250    0.0000 C   0  0  0  0  0  0           0  0  0
   10.7932   -7.6951    0.0000 N   0  0  0  0  0  0           0  0  0
   10.0783   -7.2863    0.0000 C   0  0  0  0  0  0           0  0  0
    9.3658   -8.5255    0.0000 C   0  0  0  0  0  0           0  0  0
    9.3671   -7.6972    0.0000 C   0  0  0  0  0  0           0  0  0
    8.5797   -7.4400    0.0000 S   0  0  0  0  0  0           0  0  0
    8.0917   -8.1094    0.0000 C   0  0  0  0  0  0           0  0  0
    8.5777   -8.7802    0.0000 N   0  0  0  0  0  0           0  0  0
    7.2673   -8.1082    0.0000 N   0  0  0  0  0  0           0  0  0
   11.5107   -8.9361    0.0000 S   0  0  0  0  0  0           0  0  0
   12.2240   -8.5228    0.0000 C   0  0  0  0  0  0           0  0  0
   12.2266  -10.1717    0.0000 F   0  0  0  0  0  0           0  0  0
   12.9365   -8.9309    0.0000 C   0  0  0  0  0  0           0  0  0
   12.9399   -9.7584    0.0000 C   0  0  0  0  0  0           0  0  0
   13.6541  -10.1668    0.0000 C   0  0  0  0  0  0           0  0  0
   14.3695   -9.7525    0.0000 C   0  0  0  0  0  0           0  0  0
   14.3662   -8.9251    0.0000 C   0  0  0  0  0  0           0  0  0
   13.6474   -8.5121    0.0000 C   0  0  0  0  0  0           0  0  0
   13.6564  -10.9912    0.0000 F   0  0  0  0  0  0           0  0  0
   10.0765   -6.4619    0.0000 N   0  0  0  0  0  0           0  0  0
   10.7896   -6.0481    0.0000 C   0  0  2  0  0  0           0  0  0
   10.7878   -5.2236    0.0000 C   0  0  0  0  0  0           0  0  0
   11.5044   -6.4587    0.0000 C   0  0  0  0  0  0           0  0  0
   12.2175   -6.0450    0.0000 O   0  0  0  0  0  0           0  0  0
 11 12  1  0     0  0
 12 14  1  0     0  0
  5  1  1  0     0  0
 15 13  1  0     0  0
 14 15  2  0     0  0
  2  3  1  0     0  0
  3  4  2  0     0  0
  6  7  1  0     0  0
  7  8  1  0     0  0
  8  9  2  0     0  0
 14 19  1  0     0  0
 15 16  1  0     0  0
 16 17  2  0     0  0
 17 18  1  0     0  0
 18 19  2  0     0  0
  9  5  1  0     0  0
 16 20  1  0     0  0
  4  6  1  0     0  0
  4 21  1  0     0  0
  8 10  1  0     0  0
 22 21  1  6     0  0
  5  6  2  0     0  0
 22 23  1  0     0  0
  2 11  1  0     0  0
 22 24  1  0     0  0
  1  2  2  0     0  0
 24 25  1  0     0  0
M  END