
          11280715502D 1   1.00000     0.00000     0

 29 32  0     0  0            999 V2000
    1.4386  -24.4383    0.0000 C   0  0  0  0  0  0           0  0  0
   -0.7048  -25.6758    0.0000 C   0  0  3  0  0  0           0  0  0
    0.0110  -26.0883    0.0000 C   0  0  0  0  0  0           0  0  0
    0.7227  -25.6758    0.0000 C   0  0  0  0  0  0           0  0  0
    0.7227  -24.8508    0.0000 N   0  0  3  0  0  0           0  0  0
    0.0110  -24.4383    0.0000 C   0  0  0  0  0  0           0  0  0
   -0.7048  -24.8508    0.0000 C   0  0  0  0  0  0           0  0  0
   -1.4207  -26.0883    0.0000 C   0  0  0  0  0  0           0  0  0
   -2.1324  -25.6758    0.0000 C   0  0  0  0  0  0           0  0  0
   -2.2214  -24.8576    0.0000 C   0  0  0  0  0  0           0  0  0
   -3.0274  -24.6852    0.0000 N   0  0  0  0  0  0           0  0  0
   -3.4399  -25.3969    0.0000 C   0  0  0  0  0  0           0  0  0
   -2.8868  -26.0133    0.0000 N   0  0  0  0  0  0           0  0  0
    2.1527  -24.8514    0.0000 C   0  0  0  0  0  0           0  0  0
    2.8625  -24.4333    0.0000 C   0  0  0  0  0  0           0  0  0
    3.5805  -24.8396    0.0000 O   0  0  0  0  0  0           0  0  0
    4.2914  -24.4210    0.0000 C   0  0  0  0  0  0           0  0  0
    5.0126  -24.8320    0.0000 C   0  0  0  0  0  0           0  0  0
    5.7230  -24.4140    0.0000 C   0  0  0  0  0  0           0  0  0
    4.2858  -23.6024    0.0000 C   0  0  0  0  0  0           0  0  0
    4.9933  -23.1820    0.0000 C   0  0  0  0  0  0           0  0  0
    5.7131  -23.5888    0.0000 C   0  0  0  0  0  0           0  0  0
    6.4194  -23.1710    0.0000 C   0  0  0  0  0  0           0  0  0
    7.1385  -23.5776    0.0000 C   0  0  0  0  0  0           0  0  0
    7.8481  -23.1582    0.0000 N   0  0  0  0  0  0           0  0  0
    7.8398  -22.3324    0.0000 C   0  0  0  0  0  0           0  0  0
    7.1160  -21.9277    0.0000 N   0  0  0  0  0  0           0  0  0
    6.4094  -22.3494    0.0000 C   0  0  0  0  0  0           0  0  0
    8.5493  -21.9114    0.0000 N   0  0  0  0  0  0           0  0  0
  1 14  1  0     0  0
  4  5  1  0     0  0
 14 15  1  0     0  0
  5  6  1  0     0  0
 15 16  1  0     0  0
  6  7  1  0     0  0
 16 17  1  0     0  0
  2  8  1  0     0  0
 17 18  2  0     0  0
  8  9  1  0     0  0
 18 19  1  0     0  0
 19 22  2  0     0  0
  9 10  2  0     0  0
 21 20  2  0     0  0
 20 17  1  0     0  0
  2  3  1  0     0  0
 10 11  1  0     0  0
 21 22  1  0     0  0
 11 12  1  0     0  0
 12 13  2  0     0  0
 23 24  1  0     0  0
 13  9  1  0     0  0
 24 25  2  0     0  0
  5  1  1  0     0  0
 25 26  1  0     0  0
  2  7  1  0     0  0
 26 27  2  0     0  0
  3  4  1  0     0  0
 27 28  1  0     0  0
 28 23  2  0     0  0
 22 23  1  0     0  0
 26 29  1  0     0  0
M  END