
          11290711592D 1   1.00000     0.00000     0

 45 48  0     1  0            999 V2000
   11.6674    0.1255    0.0000 C   0  0  0  0  0  0           0  0  0
   11.6674   -0.6995    0.0000 C   0  0  3  0  0  0           0  0  0
   12.3794   -1.1079    0.0000 C   0  0  0  0  0  0           0  0  0
   13.0914   -0.6995    0.0000 C   0  0  0  0  0  0           0  0  0
   13.0914    0.1255    0.0000 C   0  0  0  0  0  0           0  0  0
   12.3794    0.5421    0.0000 C   0  0  0  0  0  0           0  0  0
    7.4873   -1.4587    0.0000 C   0  0  0  0  0  0           0  0  0
    6.9960   -2.1288    0.0000 N   0  0  0  0  0  0           0  0  0
    7.4824   -2.8001    0.0000 N   0  0  0  0  0  0           0  0  0
    8.2715   -2.5454    0.0000 N   0  0  3  0  0  0           0  0  0
    8.2737   -1.7163    0.0000 C   0  0  0  0  0  0           0  0  0
   11.6674   -1.5156    0.0000 N   0  0  0  0  0  0           0  0  0
   10.8962   -1.8107    0.0000 C   0  0  0  0  0  0           0  0  0
   10.9644   -2.6184    0.0000 C   0  0  1  0  0  0           0  0  0
   10.2306   -2.9937    0.0000 N   0  0  0  0  0  0           0  0  0
    9.5772   -2.4728    0.0000 C   0  0  0  0  0  0           0  0  0
    8.9138   -2.9678    0.0000 C   0  0  0  0  0  0           0  0  0
    7.4893   -0.6464    0.0000 C   0  0  0  0  0  0           0  0  0
    8.2025   -0.4700    0.0000 C   0  0  0  0  0  0           0  0  0
    8.1921    0.4541    0.0000 C   0  0  0  0  0  0           0  0  0
    8.9188    0.8270    0.0000 N   0  0  0  0  0  0           0  0  0
    9.5680    0.3096    0.0000 C   0  0  0  0  0  0           0  0  0
   10.2378    0.8134    0.0000 C   0  0  1  0  0  0           0  0  0
   10.9680    0.4151    0.0000 N   0  0  0  0  0  0           0  0  0
   10.8939   -0.3974    0.0000 C   0  0  0  0  0  0           0  0  0
    9.5903   -1.6479    0.0000 O   0  0  0  0  0  0           0  0  0
    9.5564   -0.5154    0.0000 O   0  0  0  0  0  0           0  0  0
   11.6857   -3.0189    0.0000 C   0  0  0  0  0  0           0  0  0
   12.3932   -2.5945    0.0000 C   0  0  0  0  0  0           0  0  0
   13.1108   -2.9979    0.0000 C   0  0  0  0  0  0           0  0  0
   13.8178   -2.5742    0.0000 C   0  0  0  0  0  0           0  0  0
   13.8045   -1.7484    0.0000 C   0  0  0  0  0  0           0  0  0
   13.0782   -1.3482    0.0000 C   0  0  0  0  0  0           0  0  0
   12.3742   -1.7742    0.0000 C   0  0  0  0  0  0           0  0  0
   10.1975   -1.3721    0.0000 O   0  0  0  0  0  0           0  0  0
   10.1922   -0.8312    0.0000 O   0  0  0  0  0  0           0  0  0
   10.2361    1.6196    0.0000 C   0  0  0  0  0  0           0  0  0
   10.8603    2.0996    0.0000 C   0  0  0  0  0  0           0  0  0
   10.8295    2.9599    0.0000 O   0  0  0  0  0  0           0  0  0
   11.6029    1.7402    0.0000 N   0  0  0  0  0  0           0  0  0
   14.5114   -1.3231    0.0000 C   0  0  0  0  0  0           0  0  0
   15.2332   -1.7227    0.0000 P   0  0  3  0  0  0           0  0  0
   15.9417   -2.1333    0.0000 O   0  0  0  0  0  0           0  0  0
   15.6398   -1.0049    0.0000 O   0  0  0  0  0  0           0  0  0
   14.8320   -2.4435    0.0000 O   0  0  0  0  0  0           0  0  0
 19 20  1  0     0  0
 20 21  1  0     0  0
 21 22  1  0     0  0
 18 19  1  0     0  0
 23 24  1  0     0  0
 24 25  1  0     0  0
 22 23  1  0     0  0
  2 25  1  0     0  0
  8  9  2  0     0  0
 16 26  2  0     0  0
 22 27  2  0     0  0
  1  2  1  0     0  0
 14 28  1  6     0  0
  1  6  1  0     0  0
 28 29  1  0     0  0
  2  3  1  0     0  0
 29 30  2  0     0  0
  3  4  1  0     0  0
 30 31  1  0     0  0
  7  8  1  0     0  0
 31 32  2  0     0  0
  9 10  1  0     0  0
 32 33  1  0     0  0
 10 11  1  0     0  0
 33 34  2  0     0  0
 34 29  1  0     0  0
 11  7  2  0     0  0
 13 35  2  0     0  0
  4  5  1  0     0  0
 25 36  2  0     0  0
  5  6  1  0     0  0
 23 37  1  6     0  0
  2 12  1  0     0  0
 37 38  1  0     0  0
 12 13  1  0     0  0
 38 39  2  0     0  0
 14 15  1  0     0  0
 38 40  1  0     0  0
 15 16  1  0     0  0
 32 41  1  0     0  0
 16 17  1  0     0  0
 41 42  1  0     0  0
 13 14  1  0     0  0
 42 43  1  0     0  0
  7 18  1  0     0  0
 42 44  1  0     0  0
 17 10  1  0     0  0
 42 45  2  0     0  0
M  END