
  CDK    9/15/10,16:21

 15 14  0  0  0  0  0  0  0  0999 V2000
    5.9812    1.1687    0.0000 C   0  0  0  0  0  0  0  0  0  0  0  0
    5.2668    1.5812    0.0000 C   0  0  0  0  0  0  0  0  0  0  0  0
    4.5523    1.1687    0.0000 N   0  0  0  0  0  0  0  0  0  0  0  0
    3.8378    1.5812    0.0000 C   0  0  0  0  0  0  0  0  0  0  0  0
    3.1233    1.1687    0.0000 N   0  0  0  0  0  0  0  0  0  0  0  0
    3.8378    2.4062    0.0000 N   0  0  0  0  0  0  0  0  0  0  0  0
    6.6916    0.7562    0.0000 C   0  0  0  0  0  0  0  0  0  0  0  0
    6.3946    1.8827    0.0000 F   0  0  0  0  0  0  0  0  0  0  0  0
    5.5709    0.4530    0.0000 F   0  0  0  0  0  0  0  0  0  0  0  0
    7.4071    1.1670    0.0000 C   0  0  0  0  0  0  0  0  0  0  0  0
    8.1206    0.7527    0.0000 C   0  0  0  0  0  0  0  0  0  0  0  0
    7.4091    1.9920    0.0000 N   0  0  0  0  0  0  0  0  0  0  0  0
    8.1214   -0.0736    0.0000 O   0  0  0  0  0  0  0  0  0  0  0  0
    8.8389    1.1621    0.0000 O   0  0  0  0  0  0  0  0  0  0  0  0
    3.1233    2.8187    0.0000 O   0  0  0  0  0  0  0  0  0  0  0  0
  1  8  1  0  0  0  0 
  1  9  1  0  0  0  0 
  4  5  1  0  0  0  0 
  7 10  1  0  0  0  0 
  2  3  1  0  0  0  0 
 10 11  1  0  0  0  0 
  4  6  2  0  0  0  0 
 10 12  1  6  0  0  0 
  1  2  1  0  0  0  0 
  1  7  1  0  0  0  0 
 11 13  2  0  0  0  0 
 11 14  1  0  0  0  0 
  3  4  1  0  0  0  0 
  6 15  1  0  0  0  0 
M  END