
          11280715372D 1   1.00000     0.00000     0

 28 30  0     0  0            999 V2000
    2.6292   -1.2042    0.0000 C   0  0  0  0  0  0           0  0  0
    1.9125   -0.7792    0.0000 C   0  0  0  0  0  0           0  0  0
    4.7667   -0.7875    0.0000 C   0  0  0  0  0  0           0  0  0
    2.6292   -2.0292    0.0000 C   0  0  3  0  0  0           0  0  0
    8.3250    1.2958    0.0000 C   0  0  0  0  0  0           0  0  0
    5.4792   -0.3667    0.0000 C   0  0  0  0  0  0           0  0  0
    1.9042    0.0458    0.0000 C   0  0  0  0  0  0           0  0  0
    3.3417   -0.7917    0.0000 C   0  0  0  0  0  0           0  0  0
    7.6125    0.8833    0.0000 C   0  0  0  0  0  0           0  0  0
    4.0542   -1.2042    0.0000 C   0  0  0  0  0  0           0  0  0
    8.3167    2.1208    0.0000 O   0  0  0  0  0  0           0  0  0
    2.6167    0.4625    0.0000 C   0  0  0  0  0  0           0  0  0
    1.1917    0.4458    0.0000 C   0  0  0  0  0  0           0  0  0
    6.1917    0.0458    0.0000 C   0  0  0  0  0  0           0  0  0
    7.6167    0.0583    0.0000 C   0  0  0  0  0  0           0  0  0
    6.8917    1.2875    0.0000 C   0  0  0  0  0  0           0  0  0
    9.0417    0.8958    0.0000 O   0  0  0  0  0  0           0  0  0
    1.2042   -1.2000    0.0000 C   0  0  0  0  0  0           0  0  0
    6.1792    0.8708    0.0000 C   0  0  0  0  0  0           0  0  0
    6.9042   -0.3625    0.0000 C   0  0  0  0  0  0           0  0  0
    1.1792    1.2708    0.0000 C   0  0  0  0  0  0           0  0  0
    2.6125    1.2875    0.0000 C   0  0  0  0  0  0           0  0  0
    1.8917    1.6958    0.0000 C   0  0  0  0  0  0           0  0  0
    1.9125   -2.4292    0.0000 C   0  0  0  0  0  0           0  0  0
    1.2042   -2.0250    0.0000 C   0  0  0  0  0  0           0  0  0
    3.4292   -1.8125    0.0000 C   0  0  0  0  0  0           0  0  0
    2.8417   -2.8250    0.0000 C   0  0  0  0  0  0           0  0  0
    1.8792    2.5208    0.0000 C   0  0  0  0  0  0           0  0  0
  2  1  2  0     0  0
  3 10  1  0     0  0
  4  1  1  0     0  0
  5  9  1  0     0  0
  6  3  3  0     0  0
  7  2  1  0     0  0
  8  1  1  0     0  0
  9 15  2  0     0  0
 10  8  2  0     0  0
 11  5  2  0     0  0
 12  7  2  0     0  0
 13  7  1  0     0  0
 14  6  1  0     0  0
 15 20  1  0     0  0
 16 19  2  0     0  0
 17  5  1  0     0  0
 18  2  1  0     0  0
 19 14  1  0     0  0
 20 14  2  0     0  0
 21 13  2  0     0  0
 22 12  1  0     0  0
 23 21  1  0     0  0
 24  4  1  0     0  0
 25 24  1  0     0  0
 26  4  1  0     0  0
 27  4  1  0     0  0
 28 23  1  0     0  0
 18 25  1  0     0  0
 22 23  2  0     0  0
  9 16  1  0     0  0
M  END