
  SciTegic05221516342D

151163  0  0  0  0            999 V2000
   30.7479  -26.8806    0.0000 O   0  0
   31.4486  -27.3172    0.0000 C   0  0  2  0  0  0
   31.4185  -28.1422    0.0000 O   0  0
   32.1154  -28.5770    0.0000 C   0  0  1  0  0  0
   32.8449  -28.1908    0.0000 C   0  0  1  0  0  0
   32.8731  -27.3654    0.0000 C   0  0  1  0  0  0
   32.1717  -26.9259    0.0000 C   0  0  1  0  0  0
   32.1980  -26.1013    0.0000 O   0  0
   33.6016  -26.9782    0.0000 O   0  0
   33.5443  -28.6284    0.0000 O   0  0
   32.0862  -29.4013    0.0000 C   0  0
   31.3575  -29.7883    0.0000 O   0  0
   19.4150  -29.4872    0.0000 C   0  0
   19.4138  -30.3936    0.0000 C   0  0
   20.1287  -30.7274    0.0000 C   0  0
   20.8451  -30.3140    0.0000 C   0  0
   20.8422  -29.4835    0.0000 C   0  0
   20.1269  -29.0744    0.0000 C   0  0
   22.3024  -27.3038    0.0000 C   0  0
   22.3013  -28.1311    0.0000 C   0  0
   23.0161  -28.5440    0.0000 C   0  0
   23.7326  -28.1307    0.0000 C   0  0
   23.7297  -27.3002    0.0000 C   0  0
   23.0143  -26.8910    0.0000 C   0  0
   16.7567  -25.2664    0.0000 C   0  0
   16.7556  -26.0937    0.0000 C   0  0
   17.4704  -26.5066    0.0000 C   0  0
   18.1868  -26.0932    0.0000 C   0  0
   18.1839  -25.2627    0.0000 C   0  0
   17.4685  -24.8536    0.0000 C   0  0
   17.4661  -24.0286    0.0000 O   0  0
   18.8956  -24.8456    0.0000 C   0  0
   20.1608  -25.2413    0.0000 C   0  0
   20.1597  -26.0686    0.0000 C   0  0
   20.8744  -26.4815    0.0000 C   0  0
   21.5909  -26.0682    0.0000 C   0  0
   21.5881  -25.2377    0.0000 C   0  0
   20.8727  -24.8286    0.0000 C   0  0
   20.8742  -27.3065    0.0000 O   0  0
   20.8702  -24.0036    0.0000 C   0  0
   21.5834  -23.5890    0.0000 C   0  0
   20.1545  -23.5932    0.0000 C   0  0
   20.8622  -23.1747    0.0000 C   0  0
   22.2997  -26.4788    0.0000 C   0  0
   23.0118  -26.0660    0.0000 O   0  0
   23.7251  -25.6514    0.0000 C   0  0
   25.0955  -29.9538    0.0000 C   0  0
   15.0873  -25.6372    0.0000 C   0  0
   18.0498  -27.0872    0.0000 C   0  0
   18.8469  -26.8745    0.0000 C   0  0
   17.8354  -27.8838    0.0000 C   0  0
   18.6331  -27.6705    0.0000 C   0  0
   20.1643  -31.5516    0.0000 O   0  0
   23.0159  -29.3690    0.0000 C   0  0
   22.3013  -29.7813    0.0000 C   0  0
   23.7302  -29.7817    0.0000 C   0  0
   23.0081  -30.1913    0.0000 C   0  0
   19.4081  -28.6580    0.0000 C   0  0
   19.4093  -27.8330    0.0000 C   0  0
   18.6930  -29.0694    0.0000 C   0  0
   18.6914  -28.2455    0.0000 C   0  0
   16.7503  -23.6182    0.0000 C   0  0
   16.7479  -22.7933    0.0000 C   0  0
   17.4107  -22.3062    0.0000 C   0  0
   17.1534  -21.5224    0.0000 N   0  0
   16.3284  -21.5248    0.0000 N   0  0
   16.0759  -22.3102    0.0000 N   0  0
   17.6363  -20.8534    0.0000 C   0  0
   18.4570  -20.9372    0.0000 C   0  0
   18.9399  -20.2684    0.0000 O   0  0
   19.7607  -20.3522    0.0000 C   0  0
   20.2436  -19.6833    0.0000 C   0  0
   21.0643  -19.7671    0.0000 O   0  0
   21.5472  -19.0982    0.0000 C   0  0
   22.3680  -19.1820    0.0000 C   0  0
   22.8509  -18.5131    0.0000 O   0  0
   23.6716  -18.5969    0.0000 C   0  0  2  0  0  0
   24.0063  -19.3504    0.0000 O   0  0
   24.8233  -19.4358    0.0000 C   0  0  1  0  0  0
   25.3099  -18.7691    0.0000 C   0  0  1  0  0  0
   24.9735  -18.0148    0.0000 C   0  0  1  0  0  0
   24.1505  -17.9271    0.0000 C   0  0  1  0  0  0
   22.4080  -25.5163    0.0000 C   0  0
   22.8164  -24.7997    0.0000 C   0  0
   23.6356  -24.7042    0.0000 C   0  0
   23.8025  -23.8965    0.0000 N   0  0
   23.0858  -23.4881    0.0000 N   0  0
   22.4761  -24.0436    0.0000 N   0  0
   24.5542  -23.5567    0.0000 C   0  0
   24.6358  -22.7357    0.0000 C   0  0
   25.3876  -22.3958    0.0000 O   0  0
   25.4691  -21.5749    0.0000 C   0  0
   26.2209  -21.2350    0.0000 C   0  0
   26.3024  -20.4141    0.0000 O   0  0
   27.0542  -20.0743    0.0000 C   0  0
   27.1357  -19.2533    0.0000 C   0  0
   27.8874  -18.9135    0.0000 O   0  0
   27.9690  -18.0925    0.0000 C   0  0  2  0  0  0
   28.7267  -17.7552    0.0000 O   0  0
   28.8099  -16.9381    0.0000 C   0  0  1  0  0  0
   28.1418  -16.4533    0.0000 C   0  0  1  0  0  0
   27.3884  -16.7918    0.0000 C   0  0  1  0  0  0
   27.3030  -17.6150    0.0000 C   0  0  1  0  0  0
   24.4408  -26.0618    0.0000 C   0  0
   24.5331  -26.8776    0.0000 C   0  0
   25.3407  -27.0468    0.0000 N   0  0
   25.7510  -26.3310    0.0000 N   0  0
   25.1971  -25.7196    0.0000 N   0  0
   25.6785  -27.7994    0.0000 C   0  0
   26.4991  -27.8832    0.0000 C   0  0
   26.8369  -28.6358    0.0000 O   0  0
   27.6577  -28.7196    0.0000 C   0  0
   28.1406  -28.0508    0.0000 C   0  0
   28.9613  -28.1346    0.0000 O   0  0
   29.4443  -27.4656    0.0000 C   0  0
   30.2650  -27.5494    0.0000 C   0  0
   19.4683  -31.9946    0.0000 C   0  0
   18.7367  -31.6134    0.0000 C   0  0
   18.6144  -30.8016    0.0000 C   0  0
   17.8008  -30.6651    0.0000 N   0  0
   17.4195  -31.3968    0.0000 N   0  0
   17.9976  -31.9854    0.0000 N   0  0
   17.4329  -29.9267    0.0000 C   0  0
   16.6095  -29.8760    0.0000 C   0  0
   16.2416  -29.1376    0.0000 O   0  0
   15.4182  -29.0869    0.0000 C   0  0
   15.0504  -28.3484    0.0000 C   0  0
   14.2269  -28.2977    0.0000 O   0  0
   13.8591  -27.5593    0.0000 C   0  0
   13.0356  -27.5087    0.0000 C   0  0
   12.6679  -26.7702    0.0000 O   0  0
   11.8444  -26.7195    0.0000 C   0  0  2  0  0  0
   11.4822  -25.9810    0.0000 O   0  0
   10.6626  -25.9286    0.0000 C   0  0  1  0  0  0
   10.2033  -26.6143    0.0000 C   0  0  1  0  0  0
   10.5697  -27.3545    0.0000 C   0  0  1  0  0  0
   11.3955  -27.4090    0.0000 C   0  0  1  0  0  0
   11.7647  -28.1468    0.0000 O   0  0
   23.8127  -17.1745    0.0000 O   0  0
   25.4587  -17.3476    0.0000 O   0  0
   26.1303  -18.8561    0.0000 O   0  0
   25.1582  -20.1898    0.0000 C   0  0
   26.5506  -17.9534    0.0000 O   0  0
   26.7199  -16.3085    0.0000 O   0  0
   28.2265  -15.6327    0.0000 O   0  0
   29.5629  -16.6011    0.0000 C   0  0
   10.1118  -28.0408    0.0000 O   0  0
    9.3800  -26.5606    0.0000 O   0  0
   10.2975  -25.1888    0.0000 C   0  0
   24.6728  -20.8568    0.0000 O   0  0
   29.6476  -15.7805    0.0000 O   0  0
  2  1  1  1
  2  3  1  0
  2  7  1  0
  3  4  1  0
  4  5  1  0
  5  6  1  0
  6  7  1  0
  7  8  1  6
  6  9  1  1
  5 10  1  1
  4 11  1  1
 11 12  1  0
 13 14  2  0
 14 15  1  0
 15 16  2  0
 16 17  1  0
 17 18  2  0
 18 13  1  0
 19 20  2  0
 20 21  1  0
 21 22  2  0
 22 23  1  0
 23 24  2  0
 24 19  1  0
 25 26  2  0
 26 27  1  0
 27 28  2  0
 28 29  1  0
 29 30  2  0
 30 25  1  0
 30 31  1  0
 29 32  1  0
 33 34  2  0
 34 35  1  0
 35 36  2  0
 36 37  1  0
 37 38  2  0
 38 33  1  0
 32 34  1  0
 35 39  1  0
 38 40  1  0
 40 41  1  0
 40 42  1  0
 40 43  1  0
 36 44  1  0
 44 19  1  0
 24 45  1  0
 45 46  1  0
 23 47  1  0
 16 47  1  0
 25 48  1  0
 14 48  1  0
 27 49  1  0
 49 50  1  0
 49 51  1  0
 49 52  1  0
 15 53  1  0
 21 54  1  0
 54 55  1  0
 54 56  1  0
 54 57  1  0
 18 58  1  0
 58 59  1  0
 58 60  1  0
 58 61  1  0
 31 62  1  0
 62 63  1  0
 63 64  2  0
 64 65  1  0
 65 66  1  0
 66 67  2  0
 67 63  1  0
 65 68  1  0
 68 69  1  0
 69 70  1  0
 70 71  1  0
 71 72  1  0
 72 73  1  0
 73 74  1  0
 74 75  1  0
 75 76  1  0
 77 76  1  1
 77 78  1  0
 77 82  1  0
 78 79  1  0
 79 80  1  0
 80 81  1  0
 81 82  1  0
 39 83  1  0
 83 84  1  0
 84 85  2  0
 85 86  1  0
 86 87  1  0
 87 88  2  0
 88 84  1  0
 86 89  1  0
 89 90  1  0
 90 91  1  0
 91 92  1  0
 92 93  1  0
 93 94  1  0
 94 95  1  0
 95 96  1  0
 96 97  1  0
 98 97  1  1
 98 99  1  0
 98103  1  0
 99100  1  0
100101  1  0
101102  1  0
102103  1  0
 46104  1  0
104105  2  0
105106  1  0
106107  1  0
107108  2  0
108104  1  0
106109  1  0
109110  1  0
110111  1  0
111112  1  0
112113  1  0
113114  1  0
114115  1  0
115116  1  0
116  1  1  0
 53117  1  0
117118  1  0
118119  2  0
119120  1  0
120121  1  0
121122  2  0
122118  1  0
120123  1  0
123124  1  0
124125  1  0
125126  1  0
126127  1  0
127128  1  0
128129  1  0
129130  1  0
130131  1  0
132131  1  1
132133  1  0
132137  1  0
133134  1  0
134135  1  0
135136  1  0
136137  1  0
137138  1  6
 82139  1  6
 81140  1  1
 80141  1  1
 79142  1  1
103143  1  6
102144  1  1
101145  1  1
100146  1  1
136147  1  1
135148  1  1
134149  1  1
142150  1  0
146151  1  0
M  END