
  SciTegic10311316212D

 20 22  0  0  0  0            999 V2000
    1.4347   -5.6324    0.0000 C   0  0
    2.1576   -6.0317    0.0000 O   0  0
    2.1240   -4.3847    0.0000 N   0  0
    1.4142   -4.8068    0.0000 C   0  0
    2.8468   -4.7840    0.0000 C   0  0
    2.8560   -5.6056    0.0000 C   0  0
    3.5680   -6.0062    0.0000 C   0  0
    4.2756   -5.5898    0.0000 C   0  0
    4.2665   -4.7682    0.0000 C   0  0
    3.5499   -4.3631    0.0000 C   0  0
    0.6913   -4.4076    0.0000 O   0  0
    4.9775   -4.3481    0.0000 C   0  0
    5.6968   -4.7538    0.0000 N   0  0
    6.4078   -4.3337    0.0000 C   0  0
    7.1270   -4.7394    0.0000 C   0  0
    7.1335   -5.5650    0.0000 C   0  0
    7.8520   -5.9705    0.0000 C   0  0
    8.5639   -5.5504    0.0000 C   0  0
    8.5529   -4.7203    0.0000 C   0  0
    7.8339   -4.3184    0.0000 C   0  0
  1  2  1  0
  1  4  1  0
  2  6  1  0
  5  3  1  0
  3  4  1  0
  5  6  1  0
  5 10  2  0
  6  7  2  0
  7  8  1  0
  8  9  2  0
  9 10  1  0
  4 11  2  0
  9 12  1  0
 12 13  1  0
 13 14  1  0
 14 15  1  0
 15 16  2  0
 16 17  1  0
 17 18  2  0
 18 19  1  0
 19 20  2  0
 20 15  1  0
M  END