
  SciTegic12171312552D

 47 51  0  0  0  0            999 V2000
    4.3391  -16.7760    0.0000 N   0  0
    4.3372  -17.6040    0.0000 C   0  0
    5.0504  -18.0174    0.0000 N   0  0
    5.0492  -16.3629    0.0000 C   0  0
    5.7641  -16.7745    0.0000 C   0  0
    5.7715  -17.6017    0.0000 C   0  0
    6.5563  -17.8526    0.0000 N   0  0
    7.0407  -17.1773    0.0000 C   0  0
    6.5486  -16.5140    0.0000 N   0  0
    3.6213  -18.0165    0.0000 O   0  0
    5.0492  -15.5380    0.0000 O   0  0
    7.8656  -17.1773    0.0000 C   0  0
    8.2794  -17.8882    0.0000 C   0  0
    9.1074  -17.8856    0.0000 C   0  0
    9.5148  -17.1649    0.0000 C   0  0
    9.0933  -16.4538    0.0000 C   0  0
    8.2716  -16.4617    0.0000 C   0  0
   10.3397  -17.1649    0.0000 O   0  0
    3.6233  -16.3635    0.0000 C   0  0
    2.9114  -16.7760    0.0000 C   0  0
    2.1957  -16.3636    0.0000 C   0  0
    5.0504  -18.8424    0.0000 C   0  0
    4.3393  -19.2546    0.0000 C   0  0
    4.3393  -20.0799    0.0000 C   0  0
   10.7542  -16.4457    0.0000 C   0  0
   11.5772  -16.4457    0.0000 C   0  0
   11.9902  -15.7331    0.0000 N   0  0
   11.9892  -17.1606    0.0000 O   0  0
   12.8147  -15.7331    0.0000 C   0  0
   13.2273  -15.0171    0.0000 C   0  0
   14.0522  -15.0171    0.0000 N   0  0
   14.4647  -15.7329    0.0000 S   0  0
   15.2897  -15.7329    0.0000 C   0  0
   13.7488  -16.1454    0.0000 O   0  0
   14.4647  -16.5579    0.0000 O   0  0
   15.7022  -16.4446    0.0000 C   0  0
   16.5272  -16.4446    0.0000 C   0  0
   16.9397  -15.7329    0.0000 C   0  0
   16.5272  -15.0171    0.0000 C   0  0
   15.7022  -15.0171    0.0000 C   0  0
   16.9397  -14.3012    0.0000 C   0  0
   16.5272  -13.5895    0.0000 C   0  0
   15.7022  -13.5895    0.0000 C   0  0
   15.2897  -14.3012    0.0000 C   0  0
   17.7646  -14.3012    0.0000 N   0  0
   18.1771  -13.5895    0.0000 C   0  0
   18.1771  -15.0171    0.0000 C   0  0
  1  2  1  0
  2  3  1  0
  3  6  1  0
  5  4  1  0
  4  1  1  0
  5  6  2  0
  6  7  1  0
  7  8  2  0
  8  9  1  0
  9  5  1  0
  2 10  2  0
  4 11  2  0
 12 13  2  0
 13 14  1  0
 14 15  2  0
 15 16  1  0
 16 17  2  0
 17 12  1  0
  8 12  1  0
 15 18  1  0
  1 19  1  0
 19 20  1  0
 20 21  1  0
  3 22  1  0
 22 23  1  0
 23 24  1  0
 18 25  1  0
 25 26  1  0
 26 27  1  0
 26 28  2  0
 27 29  1  0
 29 30  1  0
 30 31  1  0
 31 32  1  0
 32 33  1  0
 32 34  2  0
 35 32  2  0
 33 36  2  0
 36 37  1  0
 37 38  2  0
 38 39  1  0
 39 40  2  0
 40 33  1  0
 39 41  1  0
 41 42  2  0
 42 43  1  0
 43 44  2  0
 44 40  1  0
 41 45  1  0
 45 46  1  0
 45 47  1  0
M  END