
          11280715082D 1   1.00000     0.00000     0

 34 37  0     1  0            999 V2000
    7.8167   -3.3792    0.0000 S   0  0  3  0  0  0           0  0  0
    4.3167   -2.3667    0.0000 C   0  0  0  0  0  0           0  0  0
    4.3167   -1.7667    0.0000 C   0  0  0  0  0  0           0  0  0
    4.8875   -2.5542    0.0000 S   0  0  0  0  0  0           0  0  0
    5.2417   -2.0667    0.0000 C   0  0  0  0  0  0           0  0  0
    7.8167   -3.9792    0.0000 C   0  0  0  0  0  0           0  0  0
    3.7417   -2.5500    0.0000 S   0  0  0  0  0  0           0  0  0
    7.8250   -2.7792    0.0000 N   0  0  0  0  0  0           0  0  0
    4.8917   -1.5792    0.0000 C   0  0  0  0  0  0           0  0  0
    7.4042   -2.3625    0.0000 C   0  0  2  0  0  0           0  0  0
    5.8417   -2.0667    0.0000 C   0  0  0  0  0  0           0  0  0
    3.7500   -1.5792    0.0000 C   0  0  0  0  0  0           0  0  0
    3.3917   -2.0667    0.0000 C   0  0  0  0  0  0           0  0  0
    7.9167   -2.0625    0.0000 C   0  0  0  0  0  0           0  0  0
    8.2917   -4.3417    0.0000 S   0  0  0  0  0  0           0  0  0
    6.3625   -2.3667    0.0000 N   0  0  0  0  0  0           0  0  0
    8.4167   -3.3792    0.0000 O   0  0  0  0  0  0           0  0  0
    7.2167   -3.3792    0.0000 O   0  0  0  0  0  0           0  0  0
    6.8792   -2.0667    0.0000 C   0  0  0  0  0  0           0  0  0
    7.3167   -4.3167    0.0000 C   0  0  0  0  0  0           0  0  0
    0.6875   -2.5542    0.0000 N   0  0  0  0  0  0           0  0  0
    8.1000   -4.9167    0.0000 C   0  0  0  0  0  0           0  0  0
    5.9917   -1.4917    0.0000 O   0  0  0  0  0  0           0  0  0
    7.9167   -1.4625    0.0000 O   0  0  0  0  0  0           0  0  0
    7.4917   -4.9042    0.0000 C   0  0  0  0  0  0           0  0  0
    2.7917   -2.0625    0.0000 C   0  0  0  0  0  0           0  0  0
    8.4417   -2.3542    0.0000 O   0  0  0  0  0  0           0  0  0
    2.4875   -2.5792    0.0000 C   0  0  0  0  0  0           0  0  0
    1.8875   -2.5750    0.0000 C   0  0  3  0  0  0           0  0  0
    0.9792   -3.0792    0.0000 C   0  0  0  0  0  0           0  0  0
    0.9917   -2.0417    0.0000 C   0  0  0  0  0  0           0  0  0
    1.5875   -3.0917    0.0000 C   0  0  0  0  0  0           0  0  0
    1.5917   -2.0500    0.0000 C   0  0  0  0  0  0           0  0  0
    7.1000   -2.8792    0.0000 H   0  0  0  0  0  0           0  0  0
  2  4  1  0     0  0
  3  9  1  0     0  0
  4  5  1  0     0  0
  5 11  1  0     0  0
  6  1  1  0     0  0
  7  2  1  0     0  0
  8  1  1  0     0  0
  9  5  2  0     0  0
 10  8  1  1     0  0
 11 16  1  0     0  0
 12  3  1  0     0  0
 13 12  2  0     0  0
 14 10  1  0     0  0
 15  6  1  0     0  0
 16 19  1  0     0  0
 17  1  2  0     0  0
 18  1  2  0     0  0
 19 10  1  0     0  0
 20  6  2  0     0  0
 21 31  1  0     0  0
 22 15  1  0     0  0
 23 11  2  0     0  0
 24 14  2  0     0  0
 25 20  1  0     0  0
 26 13  1  0     0  0
 27 14  1  0     0  0
 28 26  1  0     0  0
 29 28  1  0     0  0
 30 32  1  0     0  0
 31 33  1  0     0  0
 32 29  1  0     0  0
 33 29  1  0     0  0
 10 34  1  6     0  0
 25 22  2  0     0  0
  3  2  2  0     0  0
 13  7  1  0     0  0
 30 21  1  0     0  0
M  END