
  SciTegic04191610272D

 41 43  0  0  0  0            999 V2000
    2.9886   -0.3232    0.0000 O   0  0
    4.1179   -1.3118    0.0000 C   0  0
    3.8844   -2.4888    0.0000 C   0  0
    5.2541   -0.9257    0.0000 O   0  0
   -1.6885    1.6885    0.0000 C   0  0  1  0  0  0
   -1.6885    0.2287    0.0000 C   0  0
   -0.4573    2.4272    0.0000 C   0  0
    0.7739    1.6885    0.0000 C   0  0  1  0  0  0
    1.9699   -0.4749    0.0000 C   0  0  1  0  0  0
    3.2891    0.2287    0.0000 C   0  0  1  0  0  0
    3.2891    1.6709    0.0000 C   0  0  2  0  0  0
    1.9699    2.4097    0.0000 C   0  0  1  0  0  0
    0.7739    0.2462    0.0000 C   0  0  1  0  0  0
   -0.4573   -0.4573    0.0000 C   0  0
   -0.6508   -2.1282    0.0000 C   0  0  2  0  0  0
    1.3016   -2.4624    0.0000 O   0  0
    1.5654   -0.8091    0.0000 C   0  0  1  0  0  0
    1.9384   -1.6745    0.0000 O   0  0
    3.2583    3.1393    0.0000 C   0  0
    3.3080    4.6393    0.0000 C   0  0
    4.6315    5.3471    0.0000 C   0  0
    4.6812    6.8471    0.0000 C   0  0
    5.6505    4.7133    0.0000 C   0  0
    5.7394    7.4130    0.0000 C   0  0
    4.3244    2.2777    0.0000 C   0  0
    4.5815   -0.5341    0.0000 O   0  0
    5.8890    0.2028    0.0000 C   0  0
    7.1814   -0.5603    0.0000 C   0  0
    5.9011    1.4027    0.0000 O   0  0
    8.4889    0.1766    0.0000 C   0  0
    9.5222   -0.4335    0.0000 C   0  0
   -1.8646   -2.9937    0.0000 O   0  0
   -3.2300   -2.3705    0.0000 C   0  0
   -4.4529   -3.2405    0.0000 C   0  0
   -3.3439   -1.1759    0.0000 O   0  0
   -5.8182   -2.6173    0.0000 C   0  0
   -6.7960   -3.3129    0.0000 C   0  0
   -2.9933    2.4316    0.0000 O   0  0
   -4.0294    1.8263    0.0000 C   0  0
    0.7728    2.6885    0.0000 H   0  0
    2.0183    1.2106    0.0000 C   0  0
  1  2  1  0
  2  3  1  0
  2  4  2  0
  5  6  1  0
  5  7  1  0
  6 14  2  0
  8  7  1  0
  8 13  1  0
  8 12  1  0
 13  9  1  0
  9 10  1  0
 10 11  1  0
 11 12  1  0
 13 14  1  1
 14 15  1  0
 15 16  1  0
 13 17  1  0
  9 18  1  6
 12 19  1  0
 19 20  1  0
 20 21  2  0
 21 22  1  0
 21 23  1  0
 22 24  2  0
 11 25  1  6
 10 26  1  1
 26 27  1  0
 27 28  1  0
 27 29  2  0
 28 30  1  0
 30 31  1  0
 15 32  1  6
 32 33  1  0
 33 34  1  0
 33 35  2  0
 34 36  1  0
 36 37  1  0
 38 39  1  0
  5 38  1  6
  8 40  1  6
 12 41  1  1
 17 16  1  0
 17  1  1  6
M  END