
          11280715422D 1   1.00000     0.00000     0

 30 33  0     0  0            999 V2000
    0.2542    0.6625    0.0000 C   0  0  0  0  0  0           0  0  0
   -0.7458   -0.2292    0.0000 C   0  0  0  0  0  0           0  0  0
   -0.0333   -0.6500    0.0000 N   0  0  3  0  0  0           0  0  0
    0.5792   -0.0917    0.0000 C   0  0  0  0  0  0           0  0  0
   -0.5708    0.5750    0.0000 N   0  0  0  0  0  0           0  0  0
    0.6667    1.3750    0.0000 C   0  0  0  0  0  0           0  0  0
   -1.4708   -0.3125    0.0000 C   0  0  0  0  0  0           0  0  0
   -1.8833    0.4083    0.0000 C   0  0  0  0  0  0           0  0  0
    1.4542    1.1625    0.0000 N   0  0  0  0  0  0           0  0  0
   -0.0333   -1.4667    0.0000 C   0  0  0  0  0  0           0  0  0
    2.0417    1.7500    0.0000 N   0  0  3  0  0  0           0  0  0
   -1.8833   -1.0292    0.0000 C   0  0  0  0  0  0           0  0  0
   -2.7083    0.4083    0.0000 C   0  0  0  0  0  0           0  0  0
    0.6292    2.2083    0.0000 O   0  0  0  0  0  0           0  0  0
    1.3917   -0.2625    0.0000 Br  0  0  0  0  0  0           0  0  0
    0.6667   -1.8792    0.0000 C   0  0  0  0  0  0           0  0  0
   -0.7458   -1.8667    0.0000 C   0  0  0  0  0  0           0  0  0
   -3.1208   -0.3042    0.0000 C   0  0  0  0  0  0           0  0  0
   -1.4708    1.1208    0.0000 Cl  0  0  0  0  0  0           0  0  0
   -2.7083   -1.0250    0.0000 C   0  0  0  0  0  0           0  0  0
   -0.0458   -3.1042    0.0000 C   0  0  0  0  0  0           0  0  0
   -0.7583   -2.6917    0.0000 C   0  0  0  0  0  0           0  0  0
    0.6667   -2.7000    0.0000 C   0  0  0  0  0  0           0  0  0
   -3.9458   -0.3042    0.0000 Cl  0  0  0  0  0  0           0  0  0
   -0.0583   -3.9292    0.0000 Cl  0  0  0  0  0  0           0  0  0
    2.8417    1.5333    0.0000 C   0  0  0  0  0  0           0  0  0
    1.8167    2.5458    0.0000 C   0  0  0  0  0  0           0  0  0
    3.4167    2.1125    0.0000 C   0  0  0  0  0  0           0  0  0
    2.4042    3.1250    0.0000 C   0  0  0  0  0  0           0  0  0
    3.2042    2.9083    0.0000 C   0  0  0  0  0  0           0  0  0
  2  5  2  0     0  0
  3  4  1  0     0  0
  4  1  2  0     0  0
  5  1  1  0     0  0
  6  1  1  0     0  0
  7  2  1  0     0  0
  8  7  2  0     0  0
  9  6  1  0     0  0
 10  3  1  0     0  0
 11  9  1  0     0  0
 12  7  1  0     0  0
 13  8  1  0     0  0
 14  6  2  0     0  0
 15  4  1  0     0  0
 16 10  1  0     0  0
 17 10  2  0     0  0
 18 20  1  0     0  0
 19  8  1  0     0  0
 20 12  2  0     0  0
 21 22  2  0     0  0
 22 17  1  0     0  0
 23 16  2  0     0  0
 24 18  1  0     0  0
 25 21  1  0     0  0
 26 11  1  0     0  0
 27 11  1  0     0  0
 28 26  1  0     0  0
 29 27  1  0     0  0
 30 29  1  0     0  0
  3  2  1  0     0  0
 21 23  1  0     0  0
 30 28  1  0     0  0
 18 13  2  0     0  0
M  END