
          11280714442D 1   1.00000     0.00000     0

 20 20  0     0  0            999 V2000
    5.9542   -2.0875    0.0000 C   0  0  0  0  0  0           0  0  0
    6.6500   -1.6417    0.0000 C   0  0  0  0  0  0           0  0  0
    5.2167   -1.7042    0.0000 C   0  0  0  0  0  0           0  0  0
    5.9917   -2.9042    0.0000 C   0  0  0  0  0  0           0  0  0
    7.3792   -2.0250    0.0000 O   0  0  0  0  0  0           0  0  0
    4.5292   -2.1542    0.0000 C   0  0  0  0  0  0           0  0  0
   10.2375   -1.8917    0.0000 N   0  0  0  0  0  0           0  0  0
    6.6125   -0.8167    0.0000 O   0  0  0  0  0  0           0  0  0
   10.9292   -1.4500    0.0000 C   0  0  3  0  0  0           0  0  0
    4.5667   -2.9750    0.0000 C   0  0  0  0  0  0           0  0  0
    8.8042   -1.9542    0.0000 C   0  0  3  0  0  0           0  0  0
    8.0750   -1.5792    0.0000 C   0  0  0  0  0  0           0  0  0
    5.3042   -3.3542    0.0000 C   0  0  0  0  0  0           0  0  0
    9.5042   -1.5125    0.0000 C   0  0  0  0  0  0           0  0  0
    3.8667   -3.4167    0.0000 N   0  0  0  0  0  0           0  0  0
    8.8417   -2.7792    0.0000 O   0  0  0  0  0  0           0  0  0
    5.1792   -0.8792    0.0000 C   0  0  0  0  0  0           0  0  0
   11.4875   -0.8417    0.0000 C   0  0  0  0  0  0           0  0  0
   11.6625   -1.8292    0.0000 C   0  0  0  0  0  0           0  0  0
   10.8917   -0.6250    0.0000 C   0  0  0  0  0  0           0  0  0
  2  1  1  0     0  0
  3  1  2  0     0  0
  4  1  1  0     0  0
  5  2  1  0     0  0
  6  3  1  0     0  0
  7 14  1  0     0  0
  8  2  2  0     0  0
  9  7  1  0     0  0
 10 13  1  0     0  0
 11 12  1  0     0  0
 12  5  1  0     0  0
 13  4  2  0     0  0
 14 11  1  0     0  0
 15 10  1  0     0  0
 16 11  1  0     0  0
 17  3  1  0     0  0
 18  9  1  0     0  0
 19  9  1  0     0  0
 20  9  1  0     0  0
 10  6  2  0     0  0
M  END