
  CDK    9/16/09,9:50

 42 46  0  0  0  0  0  0  0  0999 V2000
    3.2464  -21.5690    0.0000 C   0  0  0  0  0  0  0  0  0  0  0  0
    3.9631  -21.9777    0.0000 C   0  0  0  0  0  0  0  0  0  0  0  0
   -1.7767  -19.5367    0.0000 C   0  0  0  0  0  0  0  0  0  0  0  0
   -1.0620  -19.1201    0.0000 C   0  0  0  0  0  0  0  0  0  0  0  0
   -1.0664  -18.2946    0.0000 C   0  0  0  0  0  0  0  0  0  0  0  0
   -1.7849  -17.8848    0.0000 C   0  0  0  0  0  0  0  0  0  0  0  0
   -2.5004  -18.3065    0.0000 C   0  0  0  0  0  0  0  0  0  0  0  0
   -2.4924  -19.1306    0.0000 C   0  0  0  0  0  0  0  0  0  0  0  0
   -3.2187  -17.9007    0.0000 O   0  0  0  0  0  0  0  0  0  0  0  0
   -0.3418  -19.5347    0.0000 C   0  0  0  0  0  0  0  0  0  0  0  0
   -1.7719  -20.3617    0.0000 C   0  0  0  0  0  0  0  0  0  0  0  0
   -0.3542  -17.8783    0.0000 C   0  0  0  0  0  0  0  0  0  0  0  0
   -0.3347  -20.3597    0.0000 C   0  0  0  0  0  0  0  0  0  0  0  0
   -1.0456  -20.7783    0.0000 N   0  0  0  0  0  0  0  0  0  0  0  0
    0.3833  -20.7660    0.0000 C   0  0  0  0  0  0  0  0  0  0  0  0
    1.0975  -20.3476    0.0000 O   0  0  0  0  0  0  0  0  0  0  0  0
    0.3895  -21.5910    0.0000 N   0  0  0  0  0  0  0  0  0  0  0  0
   -0.3282  -22.0072    0.0000 C   0  0  0  0  0  0  0  0  0  0  0  0
    1.1049  -22.8230    0.0000 C   0  0  0  0  0  0  0  0  0  0  0  0
    1.1023  -21.9954    0.0000 C   0  0  0  0  0  0  0  0  0  0  0  0
    0.3917  -23.2396    0.0000 C   0  0  0  0  0  0  0  0  0  0  0  0
   -0.3192  -22.8267    0.0000 C   0  0  0  0  0  0  0  0  0  0  0  0
   -1.0302  -23.2359    0.0000 C   0  0  0  0  0  0  0  0  0  0  0  0
   -1.0314  -24.0578    0.0000 C   0  0  0  0  0  0  0  0  0  0  0  0
   -0.3158  -24.4689    0.0000 C   0  0  0  0  0  0  0  0  0  0  0  0
    0.3923  -24.0573    0.0000 C   0  0  0  0  0  0  0  0  0  0  0  0
    1.8175  -21.5767    0.0000 C   0  0  0  0  0  0  0  0  0  0  0  0
    2.5342  -21.9854    0.0000 N   0  0  0  0  0  0  0  0  0  0  0  0
    1.8130  -20.7517    0.0000 O   0  0  0  0  0  0  0  0  0  0  0  0
    3.2420  -20.7440    0.0000 C   0  0  0  0  0  0  0  0  0  0  0  0
    3.9542  -20.3277    0.0000 C   0  0  0  0  0  0  0  0  0  0  0  0
    4.6730  -20.7338    0.0000 O   0  0  0  0  0  0  0  0  0  0  0  0
    3.9519  -19.5001    0.0000 O   0  0  0  0  0  0  0  0  0  0  0  0
    4.0566  -22.7967    0.0000 N   0  0  0  0  0  0  0  0  0  0  0  0
    4.7178  -21.6372    0.0000 N   0  0  0  0  0  0  0  0  0  0  0  0
    5.2732  -22.2472    0.0000 C   0  0  0  0  0  0  0  0  0  0  0  0
    4.8657  -22.9609    0.0000 C   0  0  0  0  0  0  0  0  0  0  0  0
    5.2800  -23.6685    0.0000 C   0  0  0  0  0  0  0  0  0  0  0  0
    6.1016  -23.6636    0.0000 C   0  0  0  0  0  0  0  0  0  0  0  0
    6.5072  -22.9451    0.0000 C   0  0  0  0  0  0  0  0  0  0  0  0
    6.0905  -22.2405    0.0000 C   0  0  0  0  0  0  0  0  0  0  0  0
    3.4485  -23.3543    0.0000 C   0  0  0  0  0  0  0  0  0  0  0  0
  5  6  2  0  0  0  0 
  3 11  1  0  0  0  0 
 21 22  2  0  0  0  0 
  3  4  2  0  0  0  0 
 22 23  1  0  0  0  0 
  5 12  1  0  0  0  0 
 23 24  2  0  0  0  0 
  6  7  1  0  0  0  0 
 24 25  1  0  0  0  0 
 13 10  1  1  0  0  0 
 25 26  2  0  0  0  0 
 26 21  1  0  0  0  0 
 13 14  1  0  0  0  0 
  7  8  2  0  0  0  0 
 27 28  1  0  0  0  0 
 27 29  2  0  0  0  0 
 20 27  1  6  0  0  0 
 28  1  1  0  0  0  0 
 13 15  1  0  0  0  0 
  1 30  1  1  0  0  0 
  8  3  1  0  0  0  0 
 30 31  1  0  0  0  0 
 15 16  2  0  0  0  0 
  4  5  1  0  0  0  0 
 31 32  1  0  0  0  0 
 31 33  2  0  0  0  0 
  2 34  1  0  0  0  0 
 15 17  1  0  0  0  0 
 17 18  1  0  0  0  0 
 34 37  1  0  0  0  0 
 36 35  1  0  0  0  0 
 35  2  2  0  0  0  0 
  7  9  1  0  0  0  0 
  1  2  1  0  0  0  0 
 36 37  2  0  0  0  0 
  4 10  1  0  0  0  0 
 37 38  1  0  0  0  0 
 17 20  1  0  0  0  0 
 38 39  2  0  0  0  0 
 18 22  1  0  0  0  0 
 39 40  1  0  0  0  0 
 21 19  1  0  0  0  0 
 40 41  2  0  0  0  0 
 41 36  1  0  0  0  0 
 19 20  1  0  0  0  0 
 34 42  1  0  0  0  0 
M  END