
          11280715362D 1   1.00000     0.00000     0

 30 34  0     0  0            999 V2000
    4.9292   -6.1875    0.0000 C   0  0  0  0  0  0           0  0  0
    4.9292   -6.7917    0.0000 C   0  0  0  0  0  0           0  0  0
    4.4042   -7.1000    0.0000 N   0  0  3  0  0  0           0  0  0
    3.8792   -6.1875    0.0000 C   0  0  0  0  0  0           0  0  0
    5.4542   -5.8875    0.0000 C   0  0  0  0  0  0           0  0  0
    3.8792   -6.7917    0.0000 C   0  0  0  0  0  0           0  0  0
    5.9792   -6.1917    0.0000 C   0  0  3  0  0  0           0  0  0
    5.4542   -7.1000    0.0000 C   0  0  0  0  0  0           0  0  0
    7.0250   -6.2000    0.0000 N   0  0  3  0  0  0           0  0  0
    8.8750   -6.1750    0.0000 C   0  0  0  0  0  0           0  0  0
    6.5042   -5.8917    0.0000 C   0  0  0  0  0  0           0  0  0
    5.9792   -6.8000    0.0000 C   0  0  0  0  0  0           0  0  0
    5.4542   -5.2875    0.0000 O   0  0  0  0  0  0           0  0  0
    8.4542   -5.7500    0.0000 C   0  0  3  0  0  0           0  0  0
    8.7167   -6.7500    0.0000 O   0  0  0  0  0  0           0  0  0
    9.4542   -6.0125    0.0000 C   0  0  0  0  0  0           0  0  0
    8.1542   -6.2750    0.0000 C   0  0  0  0  0  0           0  0  0
    7.9542   -5.9125    0.0000 C   0  0  0  0  0  0           0  0  0
    7.4875   -6.0375    0.0000 C   0  0  0  0  0  0           0  0  0
    7.3250   -5.6750    0.0000 C   0  0  0  0  0  0           0  0  0
    4.4042   -7.7000    0.0000 C   0  0  0  0  0  0           0  0  0
    3.3625   -5.8875    0.0000 C   0  0  0  0  0  0           0  0  0
    3.3625   -7.0917    0.0000 C   0  0  0  0  0  0           0  0  0
    9.8750   -6.4375    0.0000 C   0  0  0  0  0  0           0  0  0
    9.6042   -5.4375    0.0000 C   0  0  0  0  0  0           0  0  0
    2.8417   -6.1917    0.0000 C   0  0  0  0  0  0           0  0  0
    2.8417   -6.7917    0.0000 C   0  0  0  0  0  0           0  0  0
   10.1792   -5.2792    0.0000 C   0  0  0  0  0  0           0  0  0
   10.4542   -6.2875    0.0000 C   0  0  0  0  0  0           0  0  0
   10.6042   -5.7042    0.0000 C   0  0  0  0  0  0           0  0  0
  2  1  2  0     0  0
  3  2  1  0     0  0
  4  1  1  0     0  0
  5  1  1  0     0  0
  6  4  2  0     0  0
  7  5  1  0     0  0
  8  2  1  0     0  0
  9 11  1  0     0  0
 10 14  1  0     0  0
  7 11  1  0     0  0
 12  7  1  0     0  0
 13  5  2  0     0  0
 14 18  1  0     0  0
 15 10  2  0     0  0
 16 10  1  0     0  0
 17 19  1  0     0  0
 18 20  1  0     0  0
 19  9  1  0     0  0
 20  9  1  0     0  0
 21  3  1  0     0  0
 22  4  1  0     0  0
 23  6  1  0     0  0
 24 16  2  0     0  0
 25 16  1  0     0  0
 26 22  2  0     0  0
 27 26  1  0     0  0
 28 25  2  0     0  0
 29 24  1  0     0  0
 30 28  1  0     0  0
  6  3  1  0     0  0
  8 12  1  0     0  0
 23 27  2  0     0  0
 14 17  1  0     0  0
 29 30  2  0     0  0
M  END