
          11280715372D 1   1.00000     0.00000     0

 31 33  0     0  0            999 V2000
    7.9625   -5.5917    0.0000 C   0  0  0  0  0  0           0  0  0
    7.2375   -5.1667    0.0000 C   0  0  0  0  0  0           0  0  0
    6.5292   -5.5917    0.0000 C   0  0  0  0  0  0           0  0  0
    7.9625   -6.4167    0.0000 C   0  0  0  0  0  0           0  0  0
   10.0917   -5.1792    0.0000 C   0  0  0  0  0  0           0  0  0
   13.6500   -3.0917    0.0000 C   0  0  0  0  0  0           0  0  0
   10.8042   -4.7542    0.0000 C   0  0  0  0  0  0           0  0  0
    7.2375   -4.3417    0.0000 C   0  0  0  0  0  0           0  0  0
    7.2375   -6.8167    0.0000 C   0  0  3  0  0  0           0  0  0
    8.6667   -5.1792    0.0000 C   0  0  0  0  0  0           0  0  0
   12.9375   -3.5042    0.0000 C   0  0  0  0  0  0           0  0  0
    7.2125   -1.8667    0.0000 C   0  0  3  0  0  0           0  0  0
    7.2167   -2.6917    0.0000 C   0  0  0  0  0  0           0  0  0
    9.3792   -5.5917    0.0000 C   0  0  0  0  0  0           0  0  0
   13.6417   -2.2667    0.0000 O   0  0  0  0  0  0           0  0  0
    6.5292   -6.4167    0.0000 C   0  0  0  0  0  0           0  0  0
    6.5167   -3.9417    0.0000 C   0  0  0  0  0  0           0  0  0
    7.9500   -3.9292    0.0000 C   0  0  0  0  0  0           0  0  0
    7.9375   -3.1042    0.0000 C   0  0  0  0  0  0           0  0  0
    6.5042   -3.1167    0.0000 C   0  0  0  0  0  0           0  0  0
   11.5167   -4.3417    0.0000 C   0  0  0  0  0  0           0  0  0
   12.9417   -4.3292    0.0000 C   0  0  0  0  0  0           0  0  0
   12.2167   -3.1042    0.0000 C   0  0  0  0  0  0           0  0  0
   14.3667   -3.4917    0.0000 O   0  0  0  0  0  0           0  0  0
   11.5125   -3.5167    0.0000 C   0  0  0  0  0  0           0  0  0
   12.2375   -4.7542    0.0000 C   0  0  0  0  0  0           0  0  0
    7.9167   -1.4542    0.0000 C   0  0  0  0  0  0           0  0  0
    6.4917   -1.4667    0.0000 C   0  0  0  0  0  0           0  0  0
    8.0125   -2.0792    0.0000 C   0  0  0  0  0  0           0  0  0
    6.8250   -7.5292    0.0000 C   0  0  0  0  0  0           0  0  0
    7.6500   -7.5292    0.0000 C   0  0  0  0  0  0           0  0  0
  2  1  1  0     0  0
  3  2  2  0     0  0
  4  1  2  0     0  0
  5 14  1  0     0  0
  6 11  1  0     0  0
  7  5  3  0     0  0
  8  2  1  0     0  0
  9  4  1  0     0  0
 10  1  1  0     0  0
 11 22  2  0     0  0
 12 13  1  0     0  0
 13 19  2  0     0  0
 14 10  2  0     0  0
 15  6  2  0     0  0
 16  9  1  0     0  0
 17  8  1  0     0  0
 18  8  2  0     0  0
 19 18  1  0     0  0
 20 17  2  0     0  0
 21  7  1  0     0  0
 22 26  1  0     0  0
 23 25  2  0     0  0
 24  6  1  0     0  0
 25 21  1  0     0  0
 26 21  2  0     0  0
 27 12  1  0     0  0
 28 12  1  0     0  0
 29 12  1  0     0  0
 30  9  1  0     0  0
 31  9  1  0     0  0
  3 16  1  0     0  0
 20 13  1  0     0  0
 11 23  1  0     0  0
M  END