
          11280715092D 1   1.00000     0.00000     0

 18 19  0     0  0            999 V2000
   -0.7958    2.3708    0.0000 C   0  0  0  0  0  0           0  0  0
   -1.5083    2.7833    0.0000 C   0  0  0  0  0  0           0  0  0
   -0.0833    2.7833    0.0000 C   0  0  0  0  0  0           0  0  0
   -0.0833    3.6083    0.0000 C   0  0  0  0  0  0           0  0  0
   -2.2208    2.3708    0.0000 C   0  0  0  0  0  0           0  0  0
   -1.5083    3.6083    0.0000 O   0  0  0  0  0  0           0  0  0
   -0.7958    4.0167    0.0000 O   0  0  0  0  0  0           0  0  0
   -2.9333    2.7833    0.0000 C   0  0  0  0  0  0           0  0  0
   -2.2208    1.5458    0.0000 C   0  0  0  0  0  0           0  0  0
    0.6292    4.0167    0.0000 O   0  0  0  0  0  0           0  0  0
   -3.6500    1.5458    0.0000 C   0  0  0  0  0  0           0  0  0
   -2.9333    1.1333    0.0000 C   0  0  0  0  0  0           0  0  0
   -3.6500    2.3708    0.0000 C   0  0  0  0  0  0           0  0  0
   -0.7958    1.5458    0.0000 C   0  0  0  0  0  0           0  0  0
   -4.3625    1.1333    0.0000 O   0  0  0  0  0  0           0  0  0
    0.6375    2.3708    0.0000 C   0  0  0  0  0  0           0  0  0
   -0.0833    1.1333    0.0000 C   0  0  0  0  0  0           0  0  0
    0.6375    1.5458    0.0000 C   0  0  0  0  0  0           0  0  0
  2  1  1  0     0  0
  3  1  1  0     0  0
  4  3  1  0     0  0
  5  2  1  0     0  0
  6  2  2  0     0  0
  7  4  2  0     0  0
  8  5  2  0     0  0
  9  5  1  0     0  0
 10  4  1  0     0  0
 11 12  1  0     0  0
 12  9  2  0     0  0
 13  8  1  0     0  0
 14  1  2  0     0  0
 15 11  1  0     0  0
 16  3  2  0     0  0
 17 14  1  0     0  0
 18 17  2  0     0  0
 16 18  1  0     0  0
 11 13  2  0     0  0
M  END