
          11280715512D 1   1.00000     0.00000     0

 25 26  0     1  0            999 V2000
   -0.6875    0.5648    0.0000 C   0  0  0  0  0  0           0  0  0
    0.0274    0.1529    0.0000 N   0  0  3  0  0  0           0  0  0
    0.0274   -0.6710    0.0000 C   0  0  0  0  0  0           0  0  0
   -0.6875   -1.0829    0.0000 C   0  0  0  0  0  0           0  0  0
   -1.3982   -0.6710    0.0000 C   0  0  0  0  0  0           0  0  0
   -1.3982    0.1529    0.0000 N   0  0  3  0  0  0           0  0  0
   -0.6875    1.3887    0.0000 O   0  0  0  0  0  0           0  0  0
    0.7381   -1.0829    0.0000 O   0  0  0  0  0  0           0  0  0
    0.7381    0.5648    0.0000 C   0  0  0  0  0  0           0  0  0
    1.4530    0.1529    0.0000 C   0  0  0  0  0  0           0  0  0
    2.1678    0.5648    0.0000 C   0  0  0  0  0  0           0  0  0
    2.8827    0.1529    0.0000 C   0  0  0  0  0  0           0  0  0
    2.8827   -0.6710    0.0000 C   0  0  0  0  0  0           0  0  0
    2.1678   -1.0829    0.0000 C   0  0  0  0  0  0           0  0  0
    1.4530   -0.6710    0.0000 C   0  0  0  0  0  0           0  0  0
    2.1678    1.3887    0.0000 P   0  0  3  0  0  0           0  0  0
    1.3439    1.3887    0.0000 O   0  0  0  0  0  0           0  0  0
    2.1678    2.2125    0.0000 O   0  0  0  0  0  0           0  0  0
    2.9916    1.3887    0.0000 O   0  0  0  0  0  0           0  0  0
   -2.1131    0.5648    0.0000 C   0  0  0  0  0  0           0  0  0
   -2.8280    0.1529    0.0000 C   0  0  1  0  0  0           0  0  0
   -2.8280   -0.6710    0.0000 C   0  0  0  0  0  0           0  0  0
   -3.5429   -1.0829    0.0000 O   0  0  0  0  0  0           0  0  0
   -2.1131   -1.0829    0.0000 O   0  0  0  0  0  0           0  0  0
   -3.5429    0.5648    0.0000 N   0  0  0  0  0  0           0  0  0
  1  2  1  0     0  0
  2  3  1  0     0  0
  3  4  1  0     0  0
  4  5  2  0     0  0
  5  6  1  0     0  0
  1  6  1  0     0  0
  1  7  2  0     0  0
  3  8  2  0     0  0
  9 10  1  0     0  0
 10 11  1  0     0  0
 11 12  2  0     0  0
 12 13  1  0     0  0
 13 14  2  0     0  0
 14 15  1  0     0  0
 10 15  2  0     0  0
 16 17  2  0     0  0
 16 18  1  0     0  0
 16 19  1  0     0  0
 11 16  1  0     0  0
  2  9  1  0     0  0
 20 21  1  0     0  0
 22 23  2  0     0  0
 22 24  1  0     0  0
 21 22  1  0     0  0
 21 25  1  1     0  0
  6 20  1  0     0  0
M  END