
  SciTegic04091414152D

 31 35  0  0  0  0            999 V2000
   10.2062   -7.6199    0.0000 C   0  0
    9.4879   -8.0226    0.0000 C   0  0  2  0  0  0
    9.4790   -8.8423    0.0000 C   0  0
   10.2057   -9.2395    0.0000 N   0  3
   10.9060   -8.8595    0.0000 C   0  0
   10.9166   -8.0336    0.0000 C   0  0
    9.6740   -8.2476    0.0000 C   0  0
   10.4231   -8.5879    0.0000 C   0  0
    8.7796   -7.5998    0.0000 O   0  0
    7.4271   -7.1463    0.0000 C   0  0
    6.8814   -7.7699    0.0000 C   0  0
    7.9757   -7.7667    0.0000 C   0  0
    6.6675   -6.8241    0.0000 C   0  0
    6.4362   -6.0315    0.0000 C   0  0
    6.9188   -5.3591    0.0000 C   0  0
    7.7390   -5.3250    0.0000 C   0  0
    8.2868   -5.9418    0.0000 C   0  0
    8.1473   -6.7556    0.0000 C   0  0
    6.0616   -7.6997    0.0000 C   0  0
    5.7382   -8.4601    0.0000 C   0  0
    6.3576   -9.0056    0.0000 C   0  0
    7.0678   -8.5796    0.0000 C   0  0
    7.7180   -8.5485    0.0000 O   0  0
   10.0969  -10.0556    0.0000 C   0  0
   10.7498  -10.5600    0.0000 C   0  0
   10.6410  -11.3761    0.0000 C   0  0
    9.9206  -11.7656    0.0000 S   0  0
   10.0680  -12.5756    0.0000 C   0  0
   10.8842  -12.6843    0.0000 C   0  0
   11.2384  -11.9416    0.0000 C   0  0
    9.4986  -13.1726    0.0000 C   0  0
  1  2  1  0
  1  6  1  0
  2  3  1  0
  3  4  1  0
  4  5  1  0
  5  6  1  0
  1  7  1  0
  4  8  1  0
  7  8  1  0
  2  9  1  6
 11 10  1  0
 10 12  1  0
 13 14  1  0
 14 15  1  0
 15 16  1  0
 13 10  1  0
 16 17  1  0
 10 18  1  0
 17 18  1  0
 11 19  2  0
 19 20  1  0
 20 21  2  0
 21 22  1  0
 22 11  1  0
 12 23  2  0
 12  9  1  0
  4 24  1  0
 24 25  1  0
 25 26  1  0
 26 27  1  0
 27 28  1  0
 28 29  2  0
 29 30  1  0
 30 26  2  0
 28 31  1  0
M  CHG  1   4   1
M  END