
          11280715422D 1   1.00000     0.00000     0

 29 32  0     0  0            999 V2000
    0.2792    0.8333    0.0000 C   0  0  0  0  0  0           0  0  0
   -0.7125   -0.0542    0.0000 C   0  0  0  0  0  0           0  0  0
   -0.5375    0.7458    0.0000 N   0  0  0  0  0  0           0  0  0
    0.0000   -0.4792    0.0000 N   0  0  3  0  0  0           0  0  0
    0.6167    0.0833    0.0000 C   0  0  0  0  0  0           0  0  0
    0.7000    1.5458    0.0000 C   0  0  0  0  0  0           0  0  0
   -1.4375   -0.1417    0.0000 C   0  0  0  0  0  0           0  0  0
   -1.8458    0.5750    0.0000 C   0  0  0  0  0  0           0  0  0
    1.5167    1.5458    0.0000 N   0  0  0  0  0  0           0  0  0
    0.0000   -1.3000    0.0000 C   0  0  0  0  0  0           0  0  0
    2.3167    1.7625    0.0000 N   0  0  3  0  0  0           0  0  0
   -1.8458   -0.8542    0.0000 C   0  0  0  0  0  0           0  0  0
   -2.6750    0.5750    0.0000 C   0  0  0  0  0  0           0  0  0
    0.6625    2.3708    0.0000 O   0  0  0  0  0  0           0  0  0
    0.7000   -1.7042    0.0000 C   0  0  0  0  0  0           0  0  0
   -0.7208   -1.7000    0.0000 C   0  0  0  0  0  0           0  0  0
   -3.0833   -0.1375    0.0000 C   0  0  0  0  0  0           0  0  0
   -1.4375    1.2833    0.0000 Cl  0  0  0  0  0  0           0  0  0
    1.4250   -0.0917    0.0000 C   0  0  0  0  0  0           0  0  0
   -2.6750   -0.8542    0.0000 C   0  0  0  0  0  0           0  0  0
   -0.0208   -2.9375    0.0000 C   0  0  0  0  0  0           0  0  0
    0.7000   -2.5292    0.0000 C   0  0  0  0  0  0           0  0  0
   -0.7208   -2.5167    0.0000 C   0  0  0  0  0  0           0  0  0
   -3.9125   -0.1292    0.0000 Cl  0  0  0  0  0  0           0  0  0
   -0.0208   -3.7625    0.0000 Cl  0  0  0  0  0  0           0  0  0
    2.9542    1.2458    0.0000 C   0  0  0  0  0  0           0  0  0
    2.6042    2.5375    0.0000 C   0  0  0  0  0  0           0  0  0
    3.6417    1.7000    0.0000 C   0  0  0  0  0  0           0  0  0
    3.4250    2.4958    0.0000 C   0  0  0  0  0  0           0  0  0
  2  3  2  0     0  0
  3  1  1  0     0  0
  4  5  1  0     0  0
  5  1  2  0     0  0
  6  1  1  0     0  0
  7  2  1  0     0  0
  8  7  2  0     0  0
  9  6  1  0     0  0
 10  4  1  0     0  0
 11  9  1  0     0  0
 12  7  1  0     0  0
 13  8  1  0     0  0
 14  6  2  0     0  0
 15 10  1  0     0  0
 16 10  2  0     0  0
 17 20  1  0     0  0
 18  8  1  0     0  0
 19  5  1  0     0  0
 20 12  2  0     0  0
 21 23  2  0     0  0
 22 15  2  0     0  0
 23 16  1  0     0  0
 24 17  1  0     0  0
 25 21  1  0     0  0
 26 11  1  0     0  0
 27 11  1  0     0  0
 28 26  1  0     0  0
 29 27  1  0     0  0
  4  2  1  0     0  0
 29 28  1  0     0  0
 21 22  1  0     0  0
 17 13  2  0     0  0
M  END