
  SciTegic03251510122D

 34 38  0  0  1  0            999 V2000
    2.2475    3.1071    0.0000 O   0  0  0  0  0  0  0  0  0  0  0  0
   -5.2209   -2.4390    0.0000 O   0  0  0  0  0  0  0  0  0  0  0  0
   -5.6882    4.7286    0.0000 N   0  0  0  0  0  0  0  0  0  0  0  0
    2.0440    0.3467    0.0000 C   0  0  2  0  0  0  0  0  0  0  0  0
    2.0440    1.7885    0.0000 C   0  0  1  0  0  0  0  0  0  0  0  0
    0.8030   -0.3650    0.0000 C   0  0  1  0  0  0  0  0  0  0  0  0
   -0.4380    0.3285    0.0000 C   0  0  0  0  0  0  0  0  0  0  0  0
   -0.4562    1.7885    0.0000 C   0  0  2  0  0  0  0  0  0  0  0  0
    3.3032    2.5367    0.0000 C   0  0  2  0  0  0  0  0  0  0  0  0
    0.8030    2.5185    0.0000 C   0  0  0  0  0  0  0  0  0  0  0  0
    4.5625    0.3285    0.0000 C   0  0  0  0  0  0  0  0  0  0  0  0
   -1.6790   -0.3832    0.0000 C   0  0  0  0  0  0  0  0  0  0  0  0
    4.5625    1.8067    0.0000 C   0  0  0  0  0  0  0  0  0  0  0  0
    0.8212   -1.8067    0.0000 C   0  0  0  0  0  0  0  0  0  0  0  0
   -1.7613    2.5296    0.0000 C   0  0  0  0  0  0  0  0  0  0  0  0
    1.0061    1.1862    0.0000 C   0  0  0  0  0  0  0  0  0  0  0  0
   -1.6790   -1.8250    0.0000 C   0  0  0  0  0  0  0  0  0  0  0  0
    4.5984    3.2544    0.0000 C   0  0  0  0  0  0  0  0  0  0  0  0
   -0.4197   -2.5550    0.0000 C   0  0  0  0  0  0  0  0  0  0  0  0
   -2.9565    0.3102    0.0000 C   0  0  0  0  0  0  0  0  0  0  0  0
   -1.7799    4.0293    0.0000 C   0  0  0  0  0  0  0  0  0  0  0  0
   -3.0509    1.7633    0.0000 C   0  0  0  0  0  0  0  0  0  0  0  0
   -2.9382   -2.5732    0.0000 C   0  0  0  0  0  0  0  0  0  0  0  0
    5.8934    4.0130    0.0000 C   0  0  0  0  0  0  0  0  0  0  0  0
   -4.1792   -0.4015    0.0000 C   0  0  0  0  0  0  0  0  0  0  0  0
   -4.1792   -1.8432    0.0000 C   0  0  0  0  0  0  0  0  0  0  0  0
   -3.0881    4.7631    0.0000 C   0  0  0  0  0  0  0  0  0  0  0  0
   -4.3592    2.4971    0.0000 C   0  0  0  0  0  0  0  0  0  0  0  0
   -4.3778    3.9970    0.0000 C   0  0  0  0  0  0  0  0  0  0  0  0
    6.9288    4.6196    0.0000 C   0  0  0  0  0  0  0  0  0  0  0  0
   -6.7191    4.1143    0.0000 C   0  0  0  0  0  0  0  0  0  0  0  0
   -5.7052    5.9285    0.0000 C   0  0  0  0  0  0  0  0  0  0  0  0
    1.6715   -0.8608    0.0000 H   0  0  0  0  0  0  0  0  0  0  0  0
    2.2979   -0.6205    0.0000 H   0  0  0  0  0  0  0  0  0  0  0  0
  9  1  1  1  0  0  0
 26  2  2  0  0  0  0
 29  3  1  0  0  0  0
  3 31  1  0  0  0  0
  3 32  1  0  0  0  0
  5  4  1  0  0  0  0
  4  6  1  0  0  0  0
  4 11  1  0  0  0  0
  5  9  1  0  0  0  0
 10  5  1  0  0  0  0
  5 16  1  1  0  0  0
  7  6  1  0  0  0  0
  6 14  1  0  0  0  0
  7  8  1  0  0  0  0
 12  7  2  0  0  0  0
  8 10  1  0  0  0  0
  8 15  1  1  0  0  0
  9 13  1  0  0  0  0
  9 18  1  0  0  0  0
 13 11  1  0  0  0  0
 12 17  1  0  0  0  0
 20 12  1  0  0  0  0
 14 19  1  0  0  0  0
 21 15  2  0  0  0  0
 15 22  1  0  0  0  0
 19 17  1  0  0  0  0
 17 23  2  0  0  0  0
 18 24  3  0  0  0  0
 25 20  1  0  0  0  0
 27 21  1  0  0  0  0
 22 28  2  0  0  0  0
 23 26  1  0  0  0  0
 24 30  1  0  0  0  0
 26 25  1  0  0  0  0
 29 27  2  0  0  0  0
 28 29  1  0  0  0  0
  6 33  1  1  0  0  0
  4 34  1  6  0  0  0
M  END