
  SciTegic01161211242D

 18 19  0  0  0  0            999 V2000
    2.5889    0.0182    0.0000 C   0  0
    1.7138   -1.2033    0.0000 O   0  0
    3.3218   -1.2767    0.0000 C   0  0
    2.6891   -2.6226    0.0000 N   0  0
    0.2917   -0.7475    0.0000 C   0  0
    1.7138    1.2033    0.0000 C   0  0
    0.2917    0.7475    0.0000 C   0  0
    4.8013   -1.4272    0.0000 N   0  0
    3.3026    1.3234    0.0000 C   0  0
    7.6006    0.1437    0.0000 Cl  0  0
    3.7951   -3.6358    0.0000 C   0  0
    5.1006   -2.8970    0.0000 C   0  0
   -1.0028   -1.5132    0.0000 C   0  0
   -1.0028    1.5132    0.0000 C   0  0
    2.5434    2.6180    0.0000 C   0  0
   -2.3155    0.7475    0.0000 C   0  0
   -2.3155   -0.7475    0.0000 C   0  0
    3.1357    3.6616    0.0000 C   0  0
  1  2  1  0
  1  3  1  0
  3  4  2  0
  2  5  1  0
  1  6  1  0
  5  7  1  0
  6  7  1  0
  3  8  1  0
  1  9  1  0
  4 11  1  0
  8 12  1  0
 11 12  1  0
  5 13  2  0
  7 14  2  0
  9 15  1  0
 14 16  1  0
 13 17  1  0
 16 17  2  0
 15 18  1  0
M  END