
          02060813482D 1   1.00000     0.00000     0

 47 51  0     0  0            999 V2000
   11.4986   -1.6500    0.0000 C   0  0  0  0  0  0           0  0  0
   11.4974   -2.4773    0.0000 C   0  0  0  0  0  0           0  0  0
   12.2122   -2.8902    0.0000 C   0  0  0  0  0  0           0  0  0
   12.9287   -2.4769    0.0000 C   0  0  0  0  0  0           0  0  0
   12.9258   -1.6463    0.0000 C   0  0  0  0  0  0           0  0  0
   12.2104   -1.2372    0.0000 C   0  0  0  0  0  0           0  0  0
   10.7826   -2.8893    0.0000 Cl  0  0  0  0  0  0           0  0  0
   12.2080   -0.4122    0.0000 C   0  0  0  0  0  0           0  0  0
   12.9212    0.0024    0.0000 N   0  0  3  0  0  0           0  0  0
   12.9187    0.8274    0.0000 C   0  0  0  0  0  0           0  0  0
   13.6320    1.2421    0.0000 C   0  0  3  0  0  0           0  0  0
   12.2030    1.2378    0.0000 O   0  0  0  0  0  0           0  0  0
   13.6387   -1.2311    0.0000 O   0  0  0  0  0  0           0  0  0
   13.6438   -2.8882    0.0000 C   0  0  0  0  0  0           0  0  0
   13.6402   -3.7136    0.0000 C   0  0  0  0  0  0           0  0  0
   14.3545   -4.1249    0.0000 C   0  0  0  0  0  0           0  0  0
   15.0693   -3.7112    0.0000 C   0  0  0  0  0  0           0  0  0
   15.0653   -2.8819    0.0000 C   0  0  0  0  0  0           0  0  0
   14.3505   -2.4744    0.0000 N   0  0  0  0  0  0           0  0  0
   15.7777   -2.4658    0.0000 O   0  0  0  0  0  0           0  0  0
   15.7849   -4.1216    0.0000 C   0  0  0  0  0  0           0  0  0
   16.4958   -4.5333    0.0000 N   0  0  0  0  0  0           0  0  0
   14.3554   -4.9499    0.0000 C   0  0  0  0  0  0           0  0  0
   13.6419   -5.3582    0.0000 C   0  0  0  0  0  0           0  0  0
   13.6425   -6.1825    0.0000 C   0  0  0  0  0  0           0  0  0
   14.3579   -6.5950    0.0000 C   0  0  0  0  0  0           0  0  0
   15.0743   -6.1773    0.0000 C   0  0  0  0  0  0           0  0  0
   15.0702   -5.3544    0.0000 C   0  0  0  0  0  0           0  0  0
   12.9281   -4.9446    0.0000 Cl  0  0  0  0  0  0           0  0  0
   15.7907   -6.5865    0.0000 C   0  0  3  0  0  0           0  0  0
   16.5000   -6.9958    0.0000 F   0  0  0  0  0  0           0  0  0
   16.2014   -5.8710    0.0000 F   0  0  0  0  0  0           0  0  0
   15.3852   -7.3050    0.0000 F   0  0  0  0  0  0           0  0  0
   13.6369   -0.4079    0.0000 C   0  0  0  0  0  0           0  0  0
   14.3424    0.8289    0.0000 C   0  0  0  0  0  0           0  0  0
   15.0535    1.2400    0.0000 C   0  0  0  0  0  0           0  0  0
   15.0553    2.0654    0.0000 N   0  0  3  0  0  0           0  0  0
   14.3398    2.4779    0.0000 C   0  0  0  0  0  0           0  0  0
   13.6224    2.0651    0.0000 C   0  0  0  0  0  0           0  0  0
   15.7701    2.4773    0.0000 C   0  0  0  0  0  0           0  0  0
   16.4843    2.0642    0.0000 C   0  0  3  0  0  0           0  0  0
   15.7708    3.3023    0.0000 O   0  0  0  0  0  0           0  0  0
   16.4806    1.2364    0.0000 C   0  0  0  0  0  0           0  0  0
   17.1906    0.8234    0.0000 C   0  0  0  0  0  0           0  0  0
   17.9079    1.2318    0.0000 C   0  0  0  0  0  0           0  0  0
   17.9105    2.0578    0.0000 C   0  0  0  0  0  0           0  0  0
   17.1959    2.4753    0.0000 C   0  0  0  0  0  0           0  0  0
 16 23  1  0     0  0
  5  6  2  0     0  0
 23 24  2  0     0  0
 10 12  2  0     0  0
 24 25  1  0     0  0
  6  1  1  0     0  0
 25 26  2  0     0  0
  5 13  1  0     0  0
 26 27  1  0     0  0
  1  2  2  0     0  0
 27 28  2  0     0  0
 28 23  1  0     0  0
  4 14  1  0     0  0
 24 29  1  0     0  0
  2  7  1  0     0  0
 27 30  1  0     0  0
 14 15  2  0     0  0
 30 31  1  0     0  0
  3  4  2  0     0  0
 30 32  1  0     0  0
 15 16  1  0     0  0
 30 33  1  0     0  0
  6  8  1  0     0  0
  9 34  1  0     0  0
 11 35  1  0     0  0
 16 17  2  0     0  0
 17 18  1  0     0  0
  8  9  1  0     0  0
 18 19  1  0     0  0
 11 39  1  0     0  0
 35 36  1  0     0  0
 36 37  1  0     0  0
 37 38  1  0     0  0
 38 39  1  0     0  0
 19 14  1  0     0  0
 37 40  1  0     0  0
  4  5  1  0     0  0
 40 41  1  0     0  0
 18 20  2  0     0  0
 40 42  2  0     0  0
 41 43  1  0     0  0
  9 10  1  0     0  0
 17 21  1  0     0  0
  2  3  1  0     0  0
 21 22  3  0     0  0
 10 11  1  0     0  0
 41 47  1  0     0  0
 43 44  1  0     0  0
 44 45  1  0     0  0
 45 46  1  0     0  0
 46 47  1  0     0  0
M  END