
  SciTegic02011310442D

 37 41  0  0  0  0            999 V2000
   16.9626  -21.1300    0.0000 N   0  0
   17.6723  -20.7205    0.0000 C   0  0
   17.6695  -19.8979    0.0000 N   0  0
   16.9608  -19.4926    0.0000 C   0  0
   16.2546  -20.7210    0.0000 N   0  0
   16.2558  -19.8999    0.0000 C   0  0
   15.4753  -19.6450    0.0000 C   0  0
   14.9916  -20.3086    0.0000 C   0  0
   15.4733  -20.9735    0.0000 C   0  0
   18.3806  -21.1280    0.0000 S   0  0
   19.0877  -20.7183    0.0000 C   0  0
   16.9591  -18.6754    0.0000 N   0  0
   17.6659  -18.2653    0.0000 C   0  0
   19.7927  -21.1262    0.0000 C   0  0
   20.4993  -20.7172    0.0000 C   0  0
   20.4985  -19.8991    0.0000 C   0  0
   19.7852  -19.4918    0.0000 C   0  0
   19.0815  -19.9032    0.0000 C   0  0
   18.4109  -18.5973    0.0000 C   0  0
   18.9564  -17.9888    0.0000 C   0  0
   18.5462  -17.2819    0.0000 N   0  0
   17.7473  -17.4537    0.0000 N   0  0
   19.7693  -18.0724    0.0000 C   0  0
   21.2050  -19.4885    0.0000 N   0  0
   21.9139  -19.8950    0.0000 C   0  0
   22.6204  -19.4844    0.0000 C   0  0
   23.3293  -19.8909    0.0000 N   0  0
   21.9163  -20.7122    0.0000 O   0  0
   23.4143  -20.7012    0.0000 C   0  0
   24.2141  -20.8688    0.0000 C   0  0  1  0  0  0
   24.6207  -20.1599    0.0000 C   0  0
   24.0720  -19.5543    0.0000 C   0  0
   24.5486  -21.6144    0.0000 S   0  0
   25.3616  -21.6974    0.0000 C   0  0
   25.6962  -22.4430    0.0000 C   0  0
   25.8400  -21.0349    0.0000 C   0  0
   26.1749  -21.6968    0.0000 C   0  0
  5  1  1  0
  1  2  2  0
  2  3  1  0
  3  4  2  0
  4  6  1  0
  5  6  1  0
  6  7  2  0
  7  8  1  0
  8  9  2  0
  9  5  1  0
  2 10  1  0
 10 11  1  0
  4 12  1  0
 12 13  1  0
 11 14  2  0
 14 15  1  0
 15 16  2  0
 16 17  1  0
 17 18  2  0
 18 11  1  0
 13 19  1  0
 19 20  2  0
 20 21  1  0
 21 22  1  0
 22 13  2  0
 20 23  1  0
 16 24  1  0
 24 25  1  0
 25 26  1  0
 26 27  1  0
 25 28  2  0
 27 29  1  0
 29 30  1  0
 30 31  1  0
 31 32  1  0
 32 27  1  0
 30 33  1  1
 33 34  1  0
 34 35  1  0
 34 36  1  0
 34 37  1  0
M  END