
  Mrv0541 04051115152D          

  8  7  0  0  0  0            999 V2000
   -0.0001   -0.4178    0.0000 C   0  0  0  0  0  0  0  0  0  0  0  0
   -0.0001   -1.2428    0.0000 F   0  0  0  0  0  0  0  0  0  0  0  0
    0.8249   -0.4178    0.0000 F   0  0  0  0  0  0  0  0  0  0  0  0
   -0.8251   -0.4178    0.0000 F   0  0  0  0  0  0  0  0  0  0  0  0
   -0.0001    0.4072    0.0000 S   0  0  0  0  0  0  0  0  0  0  0  0
   -0.0001    1.2322    0.0000 N   0  0  0  0  0  0  0  0  0  0  0  0
    0.8249    0.4072    0.0000 O   0  0  0  0  0  0  0  0  0  0  0  0
   -0.8251    0.4072    0.0000 O   0  0  0  0  0  0  0  0  0  0  0  0
  1  2  1  0  0  0  0
  1  3  1  0  0  0  0
  1  4  1  0  0  0  0
  1  5  1  0  0  0  0
  6  5  1  0  0  0  0
  7  5  2  0  0  0  0
  8  5  2  0  0  0  0
M  END