
  SciTegic09261414532D

 27 30  0  0  0  0            999 V2000
   19.3800  -15.4895    0.0000 C   0  0
   19.3789  -16.3090    0.0000 C   0  0
   20.0869  -16.7180    0.0000 C   0  0
   20.0852  -15.0806    0.0000 C   0  0
   20.7938  -15.4859    0.0000 C   0  0
   20.7986  -16.3045    0.0000 C   0  0
   21.5786  -16.5529    0.0000 N   0  0
   22.0560  -15.8878    0.0000 C   0  0
   21.5709  -15.2284    0.0000 N   0  0
   21.8356  -17.3286    0.0000 C   0  0
   21.2924  -17.9391    0.0000 C   0  0
   20.4937  -17.7713    0.0000 C   0  0
   19.9507  -18.3810    0.0000 C   0  0
   20.2076  -19.1577    0.0000 C   0  0
   21.0125  -19.3212    0.0000 C   0  0
   21.5521  -18.7103    0.0000 C   0  0
   22.8712  -15.8825    0.0000 C   0  0
   23.2833  -16.5894    0.0000 C   0  0
   24.0997  -16.5849    0.0000 C   0  0
   24.5050  -15.8743    0.0000 C   0  0
   24.0878  -15.1667    0.0000 C   0  0
   23.2728  -15.1746    0.0000 C   0  0
   25.3221  -15.8684    0.0000 O   0  0
   25.7358  -16.5731    0.0000 C   0  0
   26.5530  -16.5672    0.0000 C   0  0
   25.3324  -17.2838    0.0000 O   0  0
   26.9667  -17.2720    0.0000 C   0  0
  1  2  2  0
  2  3  1  0
  3  6  2  0
  5  4  2  0
  4  1  1  0
  5  6  1  0
  6  7  1  0
  7  8  1  0
  8  9  2  0
  9  5  1  0
  7 10  1  0
 10 11  1  0
 11 12  2  0
 12 13  1  0
 13 14  2  0
 14 15  1  0
 15 16  2  0
 16 11  1  0
 17 18  2  0
 18 19  1  0
 19 20  2  0
 20 21  1  0
 21 22  2  0
 22 17  1  0
  8 17  1  0
 20 23  1  0
 23 24  1  0
 24 25  1  0
 24 26  2  0
 25 27  2  0
M  END