
  Mrv0541 05211314572D          

148159  0  0  0  0            999 V2000
    4.4916   -5.3321    0.0000 N   0  0  0  0  0  0  0  0  0  0  0  0
    4.5779   -6.1526    0.0000 N   0  0  0  0  0  0  0  0  0  0  0  0
    5.3848   -6.3241    0.0000 N   0  0  0  0  0  0  0  0  0  0  0  0
    5.7973   -5.6096    0.0000 C   0  0  0  0  0  0  0  0  0  0  0  0
    5.2453   -4.9965    0.0000 C   0  0  0  0  0  0  0  0  0  0  0  0
    6.6178   -5.5234    0.0000 C   0  0  0  0  0  0  0  0  0  0  0  0
    7.1027   -6.1908    0.0000 N   0  0  0  0  0  0  0  0  0  0  0  0
    1.6337   -3.6821    0.0000 C   0  0  0  0  0  0  0  0  0  0  0  0
    0.9193   -4.0946    0.0000 C   0  0  0  0  0  0  0  0  0  0  0  0
    2.3482   -4.0946    0.0000 N   0  0  0  0  0  0  0  0  0  0  0  0
    1.6337   -2.8571    0.0000 O   0  0  0  0  0  0  0  0  0  0  0  0
    0.9193   -4.9196    0.0000 N   0  0  0  0  0  0  0  0  0  0  0  0
    0.2048   -5.3321    0.0000 C   0  0  0  0  0  0  0  0  0  0  0  0
    1.6337   -5.3321    0.0000 C   0  0  0  0  0  0  0  0  0  0  0  0
    2.3482   -4.9196    0.0000 C   0  0  0  0  0  0  0  0  0  0  0  0
    3.0627   -5.3321    0.0000 C   0  0  0  0  0  0  0  0  0  0  0  0
    3.7771   -4.9196    0.0000 C   0  0  0  0  0  0  0  0  0  0  0  0
    7.9232   -6.1046    0.0000 C   0  0  0  0  0  0  0  0  0  0  0  0
    8.4081   -6.7720    0.0000 C   0  0  0  0  0  0  0  0  0  0  0  0
    9.2286   -6.6858    0.0000 N   0  0  0  0  0  0  0  0  0  0  0  0
    8.0726   -7.5257    0.0000 O   0  0  0  0  0  0  0  0  0  0  0  0
    9.5642   -5.9321    0.0000 C   0  0  0  0  0  0  0  0  0  0  0  0
    9.0792   -5.2647    0.0000 C   0  0  0  0  0  0  0  0  0  0  0  0
    8.2542   -5.2647    0.0000 O   0  0  0  0  0  0  0  0  0  0  0  0
    7.9993   -4.4801    0.0000 C   0  0  0  0  0  0  0  0  0  0  0  0
    8.6667   -3.9951    0.0000 C   0  0  0  0  0  0  0  0  0  0  0  0
    9.3342   -4.4801    0.0000 C   0  0  0  0  0  0  0  0  0  0  0  0
    9.7135   -7.3532    0.0000 C   0  0  0  0  0  0  0  0  0  0  0  0
   10.5340   -7.2670    0.0000 C   0  0  0  0  0  0  0  0  0  0  0  0
   11.0189   -7.9344    0.0000 N   0  0  0  0  0  0  0  0  0  0  0  0
   10.8696   -6.5133    0.0000 O   0  0  0  0  0  0  0  0  0  0  0  0
   11.8394   -7.8482    0.0000 C   0  0  0  0  0  0  0  0  0  0  0  0
   10.6834   -8.6881    0.0000 C   0  0  0  0  0  0  0  0  0  0  0  0
    9.8629   -8.7744    0.0000 C   0  0  0  0  0  0  0  0  0  0  0  0
    9.3780   -8.1069    0.0000 O   0  0  0  0  0  0  0  0  0  0  0  0
   12.3243   -8.5157    0.0000 C   0  0  0  0  0  0  0  0  0  0  0  0
   13.1448   -8.4294    0.0000 N   0  0  0  0  0  0  0  0  0  0  0  0
   11.9888   -9.2693    0.0000 O   0  0  0  0  0  0  0  0  0  0  0  0
   13.4804   -7.6757    0.0000 C   0  0  0  0  0  0  0  0  0  0  0  0
   12.9955   -7.0083    0.0000 C   0  0  0  0  0  0  0  0  0  0  0  0
   12.1750   -7.0945    0.0000 C   0  0  0  0  0  0  0  0  0  0  0  0
   11.6901   -6.4271    0.0000 C   0  0  0  0  0  0  0  0  0  0  0  0
   13.3310   -6.2546    0.0000 C   0  0  0  0  0  0  0  0  0  0  0  0
   12.8461   -5.5872    0.0000 C   0  0  0  0  0  0  0  0  0  0  0  0
   12.0256   -5.6734    0.0000 C   0  0  0  0  0  0  0  0  0  0  0  0
   11.6901   -4.9197    0.0000 O   0  0  0  0  0  0  0  0  0  0  0  0
   12.3031   -4.3677    0.0000 C   0  0  0  0  0  0  0  0  0  0  0  0
   13.0176   -4.7802    0.0000 O   0  0  0  0  0  0  0  0  0  0  0  0
   13.6297   -9.0969    0.0000 C   0  0  0  0  0  0  0  0  0  0  0  0
   14.4502   -9.0106    0.0000 C   0  0  0  0  0  0  0  0  0  0  0  0
   14.9351   -9.6781    0.0000 N   0  0  0  0  0  0  0  0  0  0  0  0
   14.7858   -8.2569    0.0000 O   0  0  0  0  0  0  0  0  0  0  0  0
   15.7556   -9.5918    0.0000 C   0  0  0  0  0  0  0  0  0  0  0  0
   14.5996  -10.4317    0.0000 C   0  0  0  0  0  0  0  0  0  0  0  0
   13.7791  -10.5180    0.0000 C   0  0  0  0  0  0  0  0  0  0  0  0
   13.3666  -11.2324    0.0000 O   0  0  0  0  0  0  0  0  0  0  0  0
   12.5596  -11.0609    0.0000 C   0  0  0  0  0  0  0  0  0  0  0  0
   12.4734  -10.2404    0.0000 C   0  0  0  0  0  0  0  0  0  0  0  0
   13.2271   -9.9049    0.0000 C   0  0  0  0  0  0  0  0  0  0  0  0
   16.2406  -10.2593    0.0000 C   0  0  0  0  0  0  0  0  0  0  0  0
   17.0610  -10.1730    0.0000 N   0  0  0  0  0  0  0  0  0  0  0  0
   15.9050  -11.0129    0.0000 O   0  0  0  0  0  0  0  0  0  0  0  0
   17.3966   -9.4193    0.0000 C   0  0  0  0  0  0  0  0  0  0  0  0
   16.9117   -8.7519    0.0000 C   0  0  0  0  0  0  0  0  0  0  0  0
   17.2472   -7.9982    0.0000 C   0  0  0  0  0  0  0  0  0  0  0  0
   16.7623   -7.3308    0.0000 C   0  0  0  0  0  0  0  0  0  0  0  0
   17.0979   -6.5771    0.0000 N   0  0  0  0  0  0  0  0  0  0  0  0
   17.5460  -10.8405    0.0000 C   0  0  0  0  0  0  0  0  0  0  0  0
   18.3664  -10.7542    0.0000 C   0  0  0  0  0  0  0  0  0  0  0  0
   18.8514  -11.4217    0.0000 N   0  0  0  0  0  0  0  0  0  0  0  0
   18.7020  -10.0006    0.0000 O   0  0  0  0  0  0  0  0  0  0  0  0
   18.5158  -12.1753    0.0000 C   0  0  0  0  0  0  0  0  0  0  0  0
   19.6718  -11.3354    0.0000 C   0  0  0  0  0  0  0  0  0  0  0  0
   20.0074  -10.5818    0.0000 C   0  0  0  0  0  0  0  0  0  0  0  0
   19.5949   -9.8673    0.0000 O   0  0  0  0  0  0  0  0  0  0  0  0
   20.1469   -9.2542    0.0000 C   0  0  0  0  0  0  0  0  0  0  0  0
   20.9006   -9.5897    0.0000 C   0  0  0  0  0  0  0  0  0  0  0  0
   20.8144  -10.4102    0.0000 C   0  0  0  0  0  0  0  0  0  0  0  0
   19.0007  -12.8428    0.0000 C   0  0  0  0  0  0  0  0  0  0  0  0
   19.8212  -12.7565    0.0000 N   0  0  0  0  0  0  0  0  0  0  0  0
   18.6652  -13.5965    0.0000 O   0  0  0  0  0  0  0  0  0  0  0  0
   -0.5097   -4.9196    0.0000 C   0  0  0  0  0  0  0  0  0  0  0  0
    0.2048   -6.1571    0.0000 O   0  0  0  0  0  0  0  0  0  0  0  0
   -1.2242   -5.3321    0.0000 N   0  0  0  0  0  0  0  0  0  0  0  0
   -1.9386   -4.9196    0.0000 C   0  0  0  0  0  0  0  0  0  0  0  0
   -1.2242   -6.1571    0.0000 C   0  0  0  0  0  0  0  0  0  0  0  0
   -1.9386   -6.5696    0.0000 C   0  0  0  0  0  0  0  0  0  0  0  0
   -2.6531   -6.1571    0.0000 C   0  0  0  0  0  0  0  0  0  0  0  0
   -3.3676   -6.5696    0.0000 C   0  0  0  0  0  0  0  0  0  0  0  0
   -1.9386   -7.3946    0.0000 C   0  0  0  0  0  0  0  0  0  0  0  0
   -2.6531   -7.8071    0.0000 C   0  0  0  0  0  0  0  0  0  0  0  0
   -3.3676   -7.3946    0.0000 C   0  0  0  0  0  0  0  0  0  0  0  0
   -3.9807   -7.9466    0.0000 O   0  0  0  0  0  0  0  0  0  0  0  0
   -3.6451   -8.7003    0.0000 C   0  0  0  0  0  0  0  0  0  0  0  0
   -2.8246   -8.6141    0.0000 O   0  0  0  0  0  0  0  0  0  0  0  0
   -1.9386   -4.0946    0.0000 O   0  0  0  0  0  0  0  0  0  0  0  0
   -2.6531   -5.3321    0.0000 C   0  0  0  0  0  0  0  0  0  0  0  0
   -3.3676   -4.9196    0.0000 N   0  0  0  0  0  0  0  0  0  0  0  0
   -4.0820   -5.3321    0.0000 C   0  0  0  0  0  0  0  0  0  0  0  0
   -3.3676   -4.0946    0.0000 C   0  0  0  0  0  0  0  0  0  0  0  0
   -4.0820   -3.6821    0.0000 C   0  0  0  0  0  0  0  0  0  0  0  0
   -4.0820   -2.8571    0.0000 C   0  0  0  0  0  0  0  0  0  0  0  0
   -4.7965   -2.4446    0.0000 C   0  0  0  0  0  0  0  0  0  0  0  0
   -4.7965   -1.6196    0.0000 N   0  0  0  0  0  0  0  0  0  0  0  0
   -4.7965   -4.9196    0.0000 C   0  0  0  0  0  0  0  0  0  0  0  0
   -4.0820   -6.1571    0.0000 O   0  0  0  0  0  0  0  0  0  0  0  0
   -5.5110   -5.3321    0.0000 N   0  0  0  0  0  0  0  0  0  0  0  0
   -6.2254   -4.9196    0.0000 C   0  0  0  0  0  0  0  0  0  0  0  0
   -5.5110   -6.1571    0.0000 C   0  0  0  0  0  0  0  0  0  0  0  0
   -6.2254   -6.5696    0.0000 C   0  0  0  0  0  0  0  0  0  0  0  0
   -6.9399   -6.1571    0.0000 C   0  0  0  0  0  0  0  0  0  0  0  0
   -7.6544   -6.5696    0.0000 C   0  0  0  0  0  0  0  0  0  0  0  0
   -6.2254   -7.3946    0.0000 C   0  0  0  0  0  0  0  0  0  0  0  0
   -6.9399   -7.8071    0.0000 C   0  0  0  0  0  0  0  0  0  0  0  0
   -7.6544   -7.3946    0.0000 C   0  0  0  0  0  0  0  0  0  0  0  0
   -8.2675   -7.9466    0.0000 O   0  0  0  0  0  0  0  0  0  0  0  0
   -7.9319   -8.7003    0.0000 C   0  0  0  0  0  0  0  0  0  0  0  0
   -7.1114   -8.6141    0.0000 O   0  0  0  0  0  0  0  0  0  0  0  0
   -6.2254   -4.0946    0.0000 O   0  0  0  0  0  0  0  0  0  0  0  0
   -6.9399   -5.3321    0.0000 C   0  0  0  0  0  0  0  0  0  0  0  0
   -7.6544   -4.9196    0.0000 N   0  0  0  0  0  0  0  0  0  0  0  0
   -8.3689   -5.3321    0.0000 C   0  0  0  0  0  0  0  0  0  0  0  0
   -7.6544   -4.0946    0.0000 C   0  0  0  0  0  0  0  0  0  0  0  0
   -8.3689   -3.6821    0.0000 C   0  0  0  0  0  0  0  0  0  0  0  0
   -9.0833   -4.0946    0.0000 C   0  0  0  0  0  0  0  0  0  0  0  0
   -9.0833   -4.9196    0.0000 C   0  0  0  0  0  0  0  0  0  0  0  0
   -8.3689   -6.1571    0.0000 O   0  0  0  0  0  0  0  0  0  0  0  0
   -8.3689   -2.8571    0.0000 C   0  0  0  0  0  0  0  0  0  0  0  0
   -9.7978   -5.3321    0.0000 N   0  0  0  0  0  0  0  0  0  0  0  0
  -10.5123   -4.9196    0.0000 C   0  0  0  0  0  0  0  0  0  0  0  0
   -9.7978   -6.1571    0.0000 C   0  0  0  0  0  0  0  0  0  0  0  0
   -9.0833   -6.5696    0.0000 C   0  0  0  0  0  0  0  0  0  0  0  0
   -9.0833   -7.3946    0.0000 C   0  0  0  0  0  0  0  0  0  0  0  0
   -8.7478   -8.1483    0.0000 C   0  0  0  0  0  0  0  0  0  0  0  0
   -9.2327   -8.8157    0.0000 N   0  0  0  0  0  0  0  0  0  0  0  0
  -10.5123   -4.0946    0.0000 O   0  0  0  0  0  0  0  0  0  0  0  0
  -11.2267   -5.3321    0.0000 C   0  0  0  0  0  0  0  0  0  0  0  0
  -11.9412   -4.9196    0.0000 N   0  0  0  0  0  0  0  0  0  0  0  0
  -12.6557   -5.3321    0.0000 C   0  0  0  0  0  0  0  0  0  0  0  0
  -13.3702   -4.9196    0.0000 C   0  0  0  0  0  0  0  0  0  0  0  0
  -14.0846   -5.3321    0.0000 C   0  0  0  0  0  0  0  0  0  0  0  0
  -14.0846   -3.6821    0.0000 C   0  0  0  0  0  0  0  0  0  0  0  0
  -13.3702   -4.0946    0.0000 C   0  0  0  0  0  0  0  0  0  0  0  0
  -14.7991   -4.0946    0.0000 C   0  0  0  0  0  0  0  0  0  0  0  0
  -14.7991   -4.9196    0.0000 C   0  0  0  0  0  0  0  0  0  0  0  0
  -15.5837   -5.1745    0.0000 O   0  0  0  0  0  0  0  0  0  0  0  0
  -16.0686   -4.5071    0.0000 C   0  0  0  0  0  0  0  0  0  0  0  0
  -15.5837   -3.8397    0.0000 O   0  0  0  0  0  0  0  0  0  0  0  0
 70 72  1  0  0  0  0
  8  9  1  0  0  0  0
 70 73  1  0  0  0  0
 32 36  1  0  0  0  0
 73 74  1  0  0  0  0
 74 75  1  0  0  0  0
  7 18  1  0  0  0  0
 36 37  1  0  0  0  0
  4  5  2  0  0  0  0
 36 38  2  0  0  0  0
 75 76  1  0  0  0  0
 76 77  2  0  0  0  0
 77 78  1  0  0  0  0
 78 74  2  0  0  0  0
 18 19  1  0  0  0  0
 72 79  1  0  0  0  0
 37 39  1  0  0  0  0
 79 80  1  0  0  0  0
  8 10  1  0  0  0  0
 79 81  2  0  0  0  0
 39 40  1  0  0  0  0
 13 82  1  0  0  0  0
 19 20  1  0  0  0  0
 13 83  2  0  0  0  0
 40 41  2  0  0  0  0
 82 84  1  0  0  0  0
  5  1  1  0  0  0  0
 84 85  1  0  0  0  0
 41 42  1  0  0  0  0
 84 86  1  0  0  0  0
 42 45  2  0  0  0  0
 86 87  1  0  0  0  0
 19 21  2  0  0  0  0
 87 88  2  0  0  0  0
 44 43  2  0  0  0  0
 88 89  1  0  0  0  0
 89 92  2  0  0  0  0
 43 40  1  0  0  0  0
 91 90  2  0  0  0  0
 90 87  1  0  0  0  0
 91 92  1  0  0  0  0
 44 45  1  0  0  0  0
  8 11  2  0  0  0  0
 20 22  1  0  0  0  0
 22 23  1  0  0  0  0
 92 93  1  0  0  0  0
 93 94  1  0  0  0  0
 94 95  1  0  0  0  0
 95 91  1  0  0  0  0
 23 24  1  0  0  0  0
 85 96  2  0  0  0  0
 45 46  1  0  0  0  0
 85 97  1  0  0  0  0
 46 47  1  0  0  0  0
 97 98  1  0  0  0  0
 47 48  1  0  0  0  0
 98 99  1  0  0  0  0
 48 44  1  0  0  0  0
 98100  1  0  0  0  0
  9 12  1  0  0  0  0
100101  1  0  0  0  0
 37 49  1  0  0  0  0
101102  1  0  0  0  0
  4  6  1  0  0  0  0
102103  1  0  0  0  0
 49 50  1  0  0  0  0
103104  1  0  0  0  0
 12 13  1  0  0  0  0
 99105  1  0  0  0  0
 50 51  1  0  0  0  0
 99106  2  0  0  0  0
  1  2  1  0  0  0  0
105107  1  0  0  0  0
 50 52  2  0  0  0  0
107108  1  0  0  0  0
 24 25  1  0  0  0  0
107109  1  0  0  0  0
 51 53  1  0  0  0  0
109110  1  0  0  0  0
 25 26  2  0  0  0  0
110111  2  0  0  0  0
 51 54  1  0  0  0  0
111112  1  0  0  0  0
112115  2  0  0  0  0
 26 27  1  0  0  0  0
114113  2  0  0  0  0
113110  1  0  0  0  0
114115  1  0  0  0  0
 54 55  1  0  0  0  0
 55 56  1  0  0  0  0
 27 23  2  0  0  0  0
 12 14  1  0  0  0  0
 20 28  1  0  0  0  0
115116  1  0  0  0  0
116117  1  0  0  0  0
117118  1  0  0  0  0
118114  1  0  0  0  0
  6  7  1  0  0  0  0
108119  2  0  0  0  0
 56 57  1  0  0  0  0
108120  1  0  0  0  0
 57 58  2  0  0  0  0
120121  1  0  0  0  0
 58 59  1  0  0  0  0
121122  1  0  0  0  0
 59 55  2  0  0  0  0
121123  1  0  0  0  0
 28 29  1  0  0  0  0
123124  1  0  0  0  0
 53 60  1  0  0  0  0
124125  1  0  0  0  0
124128  1  0  0  0  0
 14 15  1  0  0  0  0
122126  1  0  0  0  0
 60 61  1  0  0  0  0
122127  2  0  0  0  0
 29 30  1  0  0  0  0
 60 62  2  0  0  0  0
126129  1  0  0  0  0
  2  3  2  0  0  0  0
129130  1  0  0  0  0
 61 63  1  0  0  0  0
129131  1  0  0  0  0
 29 31  2  0  0  0  0
131132  1  0  0  0  0
 63 64  1  0  0  0  0
132133  1  0  0  0  0
 15 16  1  0  0  0  0
133134  1  0  0  0  0
 64 65  1  0  0  0  0
134135  1  0  0  0  0
 30 32  1  0  0  0  0
130136  2  0  0  0  0
 65 66  1  0  0  0  0
130137  1  0  0  0  0
  3  4  1  0  0  0  0
137138  1  0  0  0  0
 66 67  1  0  0  0  0
138139  1  0  0  0  0
 30 33  1  0  0  0  0
139140  1  0  0  0  0
 61 68  1  0  0  0  0
140141  2  0  0  0  0
141145  1  0  0  0  0
 16 17  1  0  0  0  0
144142  1  0  0  0  0
 68 69  1  0  0  0  0
142143  2  0  0  0  0
143140  1  0  0  0  0
144145  2  0  0  0  0
 33 34  1  0  0  0  0
 69 70  1  0  0  0  0
 17  1  1  0  0  0  0
 69 71  2  0  0  0  0
 34 35  1  0  0  0  0
145146  1  0  0  0  0
146147  1  0  0  0  0
147148  1  0  0  0  0
148144  1  0  0  0  0
M  END