
  SciTegic09081514182D

 31 34  0  0  0  0            999 V2000
    2.5987   -1.5004    0.0000 C   0  0  1  0  0  0
    3.9511   -0.8815    0.0000 C   0  0  2  0  0  0
    4.9531   -1.9978    0.0000 N   0  0
    4.2010   -3.2956    0.0000 C   0  0
    2.7343   -2.9815    0.0000 N   0  0
    1.6137   -3.9759    0.0000 C   0  0
    1.9143   -5.4464    0.0000 C   0  0
    1.4241   -6.7808    0.0000 C   0  0
    2.8931   -6.4772    0.0000 C   0  0
    1.2990   -0.7500    0.0000 C   0  0
    1.2990    0.7500    0.0000 C   0  0
    0.0000    1.5000    0.0000 C   0  0
   -1.2990    0.7500    0.0000 C   0  0
   -1.2990   -0.7500    0.0000 C   0  0
    0.0000   -1.5000    0.0000 C   0  0
   -2.3383    1.3500    0.0000 Cl  0  0
    2.8257    0.0923    0.0000 C   0  0
    5.3712   -0.4376    0.0000 C   0  0
    5.6155    0.7373    0.0000 O   0  0
    6.4913   -1.4365    0.0000 N   0  0
    7.9168   -0.9668    0.0000 C   0  0
    9.0369   -1.9658    0.0000 C   0  0
   10.4623   -1.4961    0.0000 C   0  0
   11.5833   -2.4929    0.0000 C   0  0
   13.0070   -2.0206    0.0000 C   0  0
   13.3098   -0.5514    0.0000 N   0  0
   12.1889    0.4454    0.0000 C   0  0
   10.7652   -0.0269    0.0000 C   0  0
    3.1303    1.5619    0.0000 C   0  0
    2.2350    2.3609    0.0000 C   0  0
    4.2698    1.9382    0.0000 C   0  0
  1  2  1  0
  2  3  1  0
  3  4  2  0
  4  5  1  0
  5  1  1  0
  5  6  1  0
  6  7  1  0
  8  7  1  0
  9  8  1  0
  7  9  1  0
 10 11  2  0
 11 12  1  0
 12 13  2  0
 13 14  1  0
 14 15  2  0
 15 10  1  0
  1 10  1  1
 13 16  1  0
  2 17  1  0
  2 18  1  6
 18 19  2  0
 18 20  1  0
 20 21  1  0
 21 22  1  0
 22 23  1  0
 23 24  2  0
 24 25  1  0
 25 26  2  0
 26 27  1  0
 27 28  2  0
 28 23  1  0
 17 29  1  0
 29 30  1  0
 29 31  1  0
M  END