
  Mrv0541 04051115152D          

 26 28  0  0  0  0            999 V2000
    2.4025   -3.2546    0.0000 O   0  0  0  0  0  0  0  0  0  0  0  0
    2.4025   -2.4296    0.0000 C   0  0  0  0  0  0  0  0  0  0  0  0
    1.6880   -2.0171    0.0000 C   0  0  1  0  0  0  0  0  0  0  0  0
    0.9736   -2.4296    0.0000 C   0  0  0  0  0  0  0  0  0  0  0  0
    0.2591   -2.0171    0.0000 C   0  0  0  0  0  0  0  0  0  0  0  0
    1.6880   -1.1921    0.0000 N   0  0  0  0  0  0  0  0  0  0  0  0
    0.9736   -0.7796    0.0000 C   0  0  0  0  0  0  0  0  0  0  0  0
    0.2591   -1.1921    0.0000 N   0  0  0  0  0  0  0  0  0  0  0  0
   -0.4554   -0.7796    0.0000 C   0  0  0  0  0  0  0  0  0  0  0  0
   -1.2400   -1.0345    0.0000 N   0  0  0  0  0  0  0  0  0  0  0  0
   -1.4949   -1.8192    0.0000 C   0  0  0  0  0  0  0  0  0  0  0  0
   -2.3019   -1.9907    0.0000 C   0  0  0  0  0  0  0  0  0  0  0  0
   -0.9429   -2.4323    0.0000 C   0  0  0  0  0  0  0  0  0  0  0  0
   -1.7249   -0.3671    0.0000 C   0  0  0  0  0  0  0  0  0  0  0  0
   -0.4554    0.0454    0.0000 C   0  0  0  0  0  0  0  0  0  0  0  0
   -1.2400    0.3003    0.0000 N   0  0  0  0  0  0  0  0  0  0  0  0
    0.9736    0.0454    0.0000 N   0  0  0  0  0  0  0  0  0  0  0  0
    0.2591    0.4579    0.0000 C   0  0  0  0  0  0  0  0  0  0  0  0
    0.2591    1.2829    0.0000 N   0  0  0  0  0  0  0  0  0  0  0  0
   -0.4554    1.6954    0.0000 C   0  0  0  0  0  0  0  0  0  0  0  0
   -0.4554    2.5204    0.0000 C   0  0  0  0  0  0  0  0  0  0  0  0
   -1.1698    2.9329    0.0000 C   0  0  0  0  0  0  0  0  0  0  0  0
   -1.1698    3.7579    0.0000 C   0  0  0  0  0  0  0  0  0  0  0  0
   -0.4554    4.1704    0.0000 C   0  0  0  0  0  0  0  0  0  0  0  0
    0.2591    3.7579    0.0000 C   0  0  0  0  0  0  0  0  0  0  0  0
    0.2591    2.9329    0.0000 C   0  0  0  0  0  0  0  0  0  0  0  0
  2  1  1  0  0  0  0
  2  3  1  0  0  0  0
  4  3  1  0  0  0  0
  3  6  1  1  0  0  0
  5  4  1  0  0  0  0
  7  6  1  0  0  0  0
  7  8  2  0  0  0  0
  7 17  1  0  0  0  0
  9  8  1  0  0  0  0
  9 10  1  0  0  0  0
 15  9  2  0  0  0  0
 11 10  1  0  0  0  0
 14 10  1  0  0  0  0
 12 11  1  0  0  0  0
 11 13  1  0  0  0  0
 14 16  2  0  0  0  0
 15 16  1  0  0  0  0
 18 15  1  0  0  0  0
 18 17  2  0  0  0  0
 18 19  1  0  0  0  0
 20 19  1  0  0  0  0
 20 21  1  0  0  0  0
 21 22  2  0  0  0  0
 26 21  1  0  0  0  0
 22 23  1  0  0  0  0
 24 23  2  0  0  0  0
 25 24  1  0  0  0  0
 26 25  2  0  0  0  0
M  END