
  SciTegic02271515012D

 49 52  0  0  0  0            999 V2000
   14.4329   -5.4356    0.0000 O   0  0
   14.0285   -4.7298    0.0000 S   0  0
   13.6195   -5.4330    0.0000 O   0  0
    4.1243   -2.2837    0.0000 O   0  0
    2.7150   -3.1212    0.0000 O   0  0
    1.2846   -2.3189    0.0000 O   0  0
    1.2657   -0.6826    0.0000 O   0  0
    3.3986   -1.0626    0.0000 O   0  0
    1.8982    0.4343    0.0000 O   0  0
    3.4130   -1.8850    0.0000 C   0  0  1  0  0  0
    2.7084   -2.3037    0.0000 C   0  0  1  0  0  0
    1.9892   -1.9001    0.0000 C   0  0  2  0  0  0
    1.9826   -1.0827    0.0000 C   0  0  1  0  0  0
    2.6873   -0.6640    0.0000 C   0  0  1  0  0  0
    2.6750    0.1588    0.0000 C   0  0
   11.9056   -3.5040    0.0000 C   0  0
   11.9045   -4.3235    0.0000 C   0  0
   12.6125   -4.7325    0.0000 C   0  0
   13.3222   -4.3230    0.0000 C   0  0
   13.3194   -3.5004    0.0000 C   0  0
   12.6107   -3.0951    0.0000 C   0  0
   11.1978   -3.0956    0.0000 C   0  0
   10.4902   -3.5043    0.0000 C   0  0
    9.7824   -3.0959    0.0000 N   0  0
    9.0748   -3.5047    0.0000 C   0  0
    8.3670   -3.0962    0.0000 C   0  0
    9.0750   -4.3218    0.0000 O   0  0
   14.7376   -4.3208    0.0000 N   0  0
   15.4460   -4.7283    0.0000 C   0  0
   16.1530   -4.3186    0.0000 N   0  0
   15.4472   -5.5455    0.0000 O   0  0
   16.8614   -4.7261    0.0000 C   0  0
   16.8589   -5.5483    0.0000 C   0  0
   17.5632   -5.9557    0.0000 C   0  0
   18.2726   -5.5495    0.0000 C   0  0
   18.2733   -4.7313    0.0000 C   0  0
   17.5645   -4.3194    0.0000 C   0  0
    8.3707   -2.2788    0.0000 C   0  0
    7.6637   -1.8704    0.0000 C   0  0
    6.9551   -2.2793    0.0000 C   0  0
    6.9579   -3.1007    0.0000 C   0  0
    7.6655   -3.5053    0.0000 C   0  0
    6.2467   -1.8718    0.0000 N   0  0
    7.6639   -1.0532    0.0000 Cl  0  0
    7.6689   -4.3225    0.0000 O   0  0
    6.9629   -4.7341    0.0000 C   0  0
    5.5397   -2.2815    0.0000 C   0  0
    4.8313   -1.8740    0.0000 C   0  0
    5.5410   -3.0987    0.0000 O   0  0
  2  1  2  0
  3  2  2  0
  9 15  1  0
 14  8  1  0
  8 10  1  0
 10 11  1  0
 11 12  1  0
 12 13  1  0
 13 14  1  0
 14 15  1  1
 10  4  1  6
 11  5  1  6
 12  6  1  1
 13  7  1  6
 16 17  2  0
 17 18  1  0
 18 19  2  0
 19 20  1  0
 20 21  2  0
 21 16  1  0
 16 22  1  0
 22 23  1  0
 23 24  1  0
 24 25  1  0
 25 26  1  0
 25 27  2  0
 19  2  1  0
  2 28  1  0
 28 29  1  0
 29 30  1  0
 29 31  2  0
 30 32  1  0
 32 33  1  0
 32 37  1  0
 33 34  1  0
 34 35  1  0
 35 36  1  0
 36 37  1  0
 26 38  2  0
 38 39  1  0
 39 40  2  0
 40 41  1  0
 41 42  2  0
 42 26  1  0
 40 43  1  0
 39 44  1  0
 42 45  1  0
 45 46  1  0
 43 47  1  0
 47 48  1  0
 47 49  2  0
 48  4  1  0
M  END