
          11280715502D 1   1.00000     0.00000     0

 46 50  0     1  0            999 V2000
   14.6500  -15.2167    0.0000 C   0  0  0  0  0  0           0  0  0
   15.3548  -14.7879    0.0000 C   0  0  0  0  0  0           0  0  0
   14.6689  -16.0414    0.0000 N   0  0  0  0  0  0           0  0  0
   13.9641  -16.4702    0.0000 O   0  0  0  0  0  0           0  0  0
   13.9830  -17.2950    0.0000 C   0  0  0  0  0  0           0  0  0
   13.2782  -17.7238    0.0000 C   0  0  0  0  0  0           0  0  0
   13.2971  -18.5486    0.0000 N   0  0  3  0  0  0           0  0  0
   12.5932  -18.9737    0.0000 C   0  0  0  0  0  0           0  0  0
   12.6101  -19.7949    0.0000 C   0  0  0  0  0  0           0  0  0
   13.3321  -20.1948    0.0000 O   0  0  0  0  0  0           0  0  0
   14.0387  -19.7672    0.0000 C   0  0  0  0  0  0           0  0  0
   14.0234  -18.9397    0.0000 C   0  0  0  0  0  0           0  0  0
    8.2277  -13.9958    0.0000 C   0  0  0  0  0  0           0  0  0
    8.2266  -14.8232    0.0000 C   0  0  0  0  0  0           0  0  0
    8.9414  -15.2360    0.0000 C   0  0  0  0  0  0           0  0  0
    9.6578  -14.8227    0.0000 C   0  0  0  0  0  0           0  0  0
    9.6550  -13.9922    0.0000 C   0  0  0  0  0  0           0  0  0
    8.9396  -13.5830    0.0000 C   0  0  0  0  0  0           0  0  0
   10.3679  -13.5770    0.0000 C   0  0  0  0  0  0           0  0  0
   11.0839  -13.9868    0.0000 N   0  0  3  0  0  0           0  0  0
   10.3648  -12.7520    0.0000 O   0  0  0  0  0  0           0  0  0
   11.0844  -14.8135    0.0000 C   0  0  1  0  0  0           0  0  0
   11.7963  -15.2233    0.0000 C   0  0  0  0  0  0           0  0  0
   12.5117  -14.8116    0.0000 N   0  0  3  0  0  0           0  0  0
   12.5105  -13.9856    0.0000 C   0  0  0  0  0  0           0  0  0
   11.7941  -13.5713    0.0000 C   0  0  0  0  0  0           0  0  0
   10.3703  -15.2267    0.0000 C   0  0  0  0  0  0           0  0  0
   10.3625  -16.0500    0.0000 C   0  0  0  0  0  0           0  0  0
    9.6945  -16.5312    0.0000 C   0  0  0  0  0  0           0  0  0
    9.9415  -17.3167    0.0000 N   0  0  0  0  0  0           0  0  0
   11.0265  -16.5439    0.0000 C   0  0  0  0  0  0           0  0  0
   10.7645  -17.3230    0.0000 C   0  0  0  0  0  0           0  0  0
   11.3077  -17.9374    0.0000 C   0  0  0  0  0  0           0  0  0
   12.1130  -17.7739    0.0000 C   0  0  0  0  0  0           0  0  0
   12.3722  -16.9906    0.0000 C   0  0  0  0  0  0           0  0  0
   11.8273  -16.3796    0.0000 C   0  0  0  0  0  0           0  0  0
    8.9333  -16.0583    0.0000 C   0  0  3  0  0  0           0  0  0
    9.7583  -16.0583    0.0000 F   0  0  0  0  0  0           0  0  0
    8.9292  -16.8833    0.0000 F   0  0  0  0  0  0           0  0  0
    8.1083  -16.0542    0.0000 F   0  0  0  0  0  0           0  0  0
    7.5132  -13.5835    0.0000 C   0  0  3  0  0  0           0  0  0
    7.0958  -14.2958    0.0000 F   0  0  0  0  0  0           0  0  0
    7.9208  -12.8667    0.0000 F   0  0  0  0  0  0           0  0  0
    6.7958  -13.1708    0.0000 F   0  0  0  0  0  0           0  0  0
   13.2261  -15.2241    0.0000 C   0  0  0  0  0  0           0  0  0
   13.9375  -14.8042    0.0000 C   0  0  0  0  0  0           0  0  0
 10 11  1  0     0  0
 11 12  1  0     0  0
  1  2  1  0     0  0
 20 26  1  0     0  0
 22 23  1  0     0  0
 23 24  1  0     0  0
 24 25  1  0     0  0
 25 26  1  0     0  0
  6  7  1  0     0  0
 22 27  1  1     0  0
 13 14  2  0     0  0
 27 28  1  0     0  0
 28 29  2  0     0  0
  7  8  1  0     0  0
 14 15  1  0     0  0
 29 30  1  0     0  0
 30 32  1  0     0  0
 31 28  1  0     0  0
  3  4  1  0     0  0
 15 16  2  0     0  0
 31 32  2  0     0  0
 32 33  1  0     0  0
 16 17  1  0     0  0
 33 34  2  0     0  0
  4  5  1  0     0  0
 34 35  1  0     0  0
 17 18  2  0     0  0
 35 36  2  0     0  0
 36 31  1  0     0  0
 18 13  1  0     0  0
 15 37  1  0     0  0
  1  3  2  0     0  0
 37 38  1  0     0  0
 17 19  1  0     0  0
 37 39  1  0     0  0
  5  6  1  0     0  0
 37 40  1  0     0  0
 19 20  1  0     0  0
 13 41  1  0     0  0
  7 12  1  0     0  0
 41 42  1  0     0  0
 19 21  2  0     0  0
 41 43  1  0     0  0
 20 22  1  0     0  0
 41 44  1  0     0  0
  8  9  1  0     0  0
 24 45  1  0     0  0
  9 10  1  0     0  0
 45 46  1  0     0  0
 46  1  1  0     0  0
M  END