
  SciTegic12011114592D

 39 43  0  0  0  0            999 V2000
    6.1833   -0.2080    0.0000 N   0  0
    6.8986    0.2017    0.0000 C   0  0
    6.9015    1.0277    0.0000 N   0  0
    6.1831    1.4421    0.0000 C   0  0
    6.1826    2.2672    0.0000 N   0  0
    6.8973    2.6803    0.0000 C   0  0
    7.6117   -0.2132    0.0000 S   0  0
    8.3276    0.1968    0.0000 C   0  0
    9.0365   -0.2212    0.0000 C   0  0
    9.7520    0.1882    0.0000 C   0  0
    9.7552    1.0141    0.0000 C   0  0
    9.0371    1.4289    0.0000 C   0  0
    8.3246    1.0172    0.0000 C   0  0
   10.4706    1.4251    0.0000 N   0  0
    7.6830    2.4321    0.0000 C   0  0
    8.1622    3.1038    0.0000 C   0  0
    7.6714    3.7671    0.0000 N   0  0
    6.8890    3.5052    0.0000 N   0  0
    8.9872    3.1110    0.0000 C   0  0
    4.6964    1.2813    0.0000 C   0  0
    4.2154    0.6200    0.0000 C   0  0
    4.6956   -0.0417    0.0000 C   0  0
    5.4734    0.2104    0.0000 N   0  0
    5.4740    1.0282    0.0000 C   0  0
   11.1843    1.0112    0.0000 C   0  0
   11.8996    1.4222    0.0000 C   0  0
   12.6133    1.0077    0.0000 N   0  0
   11.1826    0.1861    0.0000 O   0  0
   12.6046    0.1872    0.0000 C   0  0
   13.3865   -0.0762    0.0000 C   0  0  1  0  0  0
   13.8787    0.5860    0.0000 C   0  0
   13.4009    1.2586    0.0000 C   0  0  1  0  0  0
   13.6624    2.0411    0.0000 C   0  0
   14.4707    2.2061    0.0000 O   0  0
   13.6330   -0.8637    0.0000 S   0  0
   14.4380   -1.0439    0.0000 C   0  0
   14.9967   -0.4369    0.0000 C   0  0
   15.2354   -1.2556    0.0000 C   0  0
   14.6844   -1.8312    0.0000 C   0  0
 18  6  2  0
  3  4  2  0
 16 19  1  0
 23 24  1  0
  8  9  2  0
  4 24  1  0
 21 22  2  0
  9 10  1  0
  1  2  2  0
 10 11  2  0
 20 21  1  0
 22 23  1  0
 24 20  2  0
  4  5  1  0
 14 25  1  0
 11 12  1  0
 25 26  1  0
 23  1  1  0
 26 27  1  0
 12 13  2  0
 25 28  2  0
 27 29  1  0
 13  8  1  0
  5  6  1  0
 11 14  1  0
 17 18  1  0
 29 30  1  0
 30 31  1  0
 31 32  1  0
 32 27  1  0
  2  3  1  0
 32 33  1  6
 15 16  2  0
 33 34  1  0
  2  7  1  0
 30 35  1  1
 35 36  1  0
  7  8  1  0
 36 39  1  0
  6 15  1  0
 36 37  1  0
 16 17  1  0
 36 38  1  0
M  END