
  SciTegic11201309402D

 91 95  0  0  1  0            999 V2000
    8.0542   -3.2417    0.0000 N   0  0
    7.5375   -3.3542    0.0000 C   0  0
    6.4000   -0.0917    0.0000 N   0  0
    7.1792   -2.9667    0.0000 C   0  0  2  0  0  0
    7.3042   -0.6125    0.0000 C   0  0
    7.5167   -2.5667    0.0000 N   0  0
    7.5917   -1.0417    0.0000 N   0  0
    4.9042   -0.4792    0.0000 N   0  0
    5.8667   -0.0625    0.0000 C   0  0
    7.7042   -2.0792    0.0000 C   0  0
    4.5750   -0.8917    0.0000 C   0  0
    8.3917   -4.1167    0.0000 C   0  0
    6.8917   -0.2792    0.0000 C   0  0  2  0  0  0
    7.7292   -1.5542    0.0000 C   0  0  1  0  0  0
    4.3542   -1.9042    0.0000 N   0  0
    8.4500   -3.5917    0.0000 C   0  0
    5.3500   -0.2000    0.0000 C   0  0  1  0  0  0
    4.4917   -2.4125    0.0000 C   0  0
    4.3792   -1.3792    0.0000 C   0  0  2  0  0  0
    8.8292   -4.4250    0.0000 N   0  0
    8.2542   -1.5000    0.0000 C   0  0
   10.0542   -2.0375    0.0000 C   0  0
   13.4000   -6.3750    0.0000 C   0  0
    4.7792   -2.8542    0.0000 C   0  0
    6.2167   -3.3917    0.0000 S   0  0
    9.7750   -4.4667    0.0000 C   0  0
    5.7042   -3.4000    0.0000 S   0  0
   12.0292   -4.0542    0.0000 C   0  0
    8.6292   -1.8667    0.0000 C   0  0
    5.1917   -3.1792    0.0000 C   0  0
    9.3125   -4.2042    0.0000 C   0  0  2  0  0  0
    7.3667   -3.8542    0.0000 O   0  0
   13.4042   -5.8500    0.0000 N   0  0
   10.1167   -2.5542    0.0000 N   0  0
    7.7042   -0.2542    0.0000 O   0  0
    6.7375   -3.2542    0.0000 C   0  0
    7.9167   -4.3292    0.0000 O   0  0
    5.7667    0.3208    0.0000 O   0  0
    4.1125   -0.6292    0.0000 O   0  0
    8.2250   -2.1792    0.0000 O   0  0
    3.8542   -1.2667    0.0000 C   0  0
    5.1292    0.2750    0.0000 C   0  0
    4.0000   -2.6167    0.0000 O   0  0
    9.7792   -4.9917    0.0000 O   0  0
   12.0292   -3.5667    0.0000 O   0  0
    8.5125   -2.2542    0.0000 O   0  0
   10.2292   -4.1958    0.0000 N   0  0
   11.6042   -4.3667    0.0000 N   0  0
   12.4917   -4.2792    0.0000 C   0  0  2  0  0  0
    9.5750   -1.8167    0.0000 N   0  0
   13.8542   -6.6417    0.0000 N   0  0
   10.4917   -1.7292    0.0000 N   0  0
   12.9417   -6.6292    0.0000 N   0  0
    7.1625    0.1750    0.0000 C   0  0  1  0  0  0
    8.2667   -2.7750    0.0000 C   0  0
    9.1542   -1.8167    0.0000 N   0  0
    3.4000   -1.5292    0.0000 C   0  0
    2.4750   -2.0417    0.0000 C   0  0
   12.9625   -4.0167    0.0000 N   0  0
    5.4500    0.7000    0.0000 C   0  0
    3.4000   -2.0500    0.0000 C   0  0
    2.9417   -1.2625    0.0000 C   0  0
    2.4792   -1.5167    0.0000 C   0  0
    2.9375   -2.3042    0.0000 C   0  0
    8.9125   -3.3375    0.0000 C   0  0
    2.0167   -2.3000    0.0000 O   0  0
    8.8000   -2.8250    0.0000 C   0  0
   12.9500   -5.5917    0.0000 C   0  0
    9.6875   -2.8625    0.0000 C   0  0
    4.7000   -3.1167    0.0000 C   0  0
    5.5000   -3.5667    0.0000 C   0  0
    9.3125   -3.6792    0.0000 C   0  0
   10.6917   -4.4542    0.0000 C   0  0
   11.1167   -4.1542    0.0000 C   0  0
   12.4917   -4.7917    0.0000 C   0  0
    7.6917    0.1750    0.0000 C   0  0
    6.8917    0.6333    0.0000 C   0  0
    2.0167   -2.8250    0.0000 C   0  0
    5.9750    0.6458    0.0000 C   0  0
    5.2292    1.1833    0.0000 C   0  0
    9.7375   -3.3792    0.0000 C   0  0
   12.9542   -5.0667    0.0000 C   0  0
    7.9542    0.6250    0.0000 C   0  0
    2.4750   -3.0917    0.0000 C   0  0
    4.4292   -3.5667    0.0000 C   0  0
    5.2292   -4.0250    0.0000 C   0  0
    5.5417    1.6083    0.0000 C   0  0
    6.2875    1.0750    0.0000 C   0  0
    6.0667    1.5500    0.0000 C   0  0
    4.7000   -4.0250    0.0000 C   0  0
    6.5635    0.6654    0.0000 H   0  0
  2  1  1  0
  3 13  1  0
  4  2  1  1
  5  7  1  0
  6  4  1  0
  7 14  1  0
  8 11  1  0
  9  3  1  0
 10  6  1  0
 11 19  1  0
 12 16  1  0
 13  5  1  0
 14 10  1  0
 15 18  1  0
 16  1  1  0
 17  9  1  0
 18 24  1  0
 19 15  1  0
 20 12  1  0
 14 21  1  6
 22 34  2  0
 23 33  2  0
 24 30  1  0
 25 36  1  0
 26 31  1  0
 27 25  1  0
 28 48  1  0
 29 21  1  0
 30 27  1  0
 31 20  1  1
 32  2  2  0
 33 68  1  0
 34 69  1  0
 35  5  2  0
  4 36  1  0
 37 12  2  0
 38  9  2  0
 39 11  2  0
 40 10  2  0
 19 41  1  6
 17 42  1  6
 43 18  2  0
 44 26  2  0
 45 28  2  0
 46 29  2  0
 47 26  1  0
 48 74  1  0
 49 28  1  0
 50 22  1  0
 51 23  1  0
 52 22  1  0
 53 23  1  0
 13 54  1  0
 55  1  1  0
 56 29  1  0
 57 41  1  0
 58 63  2  0
 49 59  1  6
 60 42  1  0
 61 57  1  0
 62 57  2  0
 63 62  1  0
 64 61  2  0
 65 16  1  0
 66 58  1  0
 67 55  1  0
 68 82  1  0
 69 81  1  0
 70 30  1  0
 71 30  1  0
 31 72  1  0
 73 47  1  0
 74 73  1  0
 49 75  1  0
 76 54  1  0
 54 77  1  6
 78 66  1  0
 79 60  1  0
 80 60  2  0
 81 72  1  0
 82 75  1  0
 83 76  1  0
 84 78  1  0
 85 70  1  0
 86 71  1  0
 87 80  1  0
 88 79  2  0
 89 87  2  0
 90 86  1  0
 67 65  1  0
 90 85  1  0
 17  8  1  0
 58 64  1  0
 89 88  1  0
 13 91  1  6
M  END