
          11280715042D 1   1.00000     0.00000     0

 20 21  0     0  0            999 V2000
    9.5125   -7.5292    0.0000 S   0  0  3  0  0  0           0  0  0
    5.2875   -7.4042    0.0000 N   0  0  0  0  0  0           0  0  0
    5.3292   -6.4292    0.0000 N   0  0  0  0  0  0           0  0  0
    4.9542   -6.9042    0.0000 C   0  0  0  0  0  0           0  0  0
    5.8667   -7.2417    0.0000 C   0  0  0  0  0  0           0  0  0
    9.8875   -8.2375    0.0000 O   0  0  0  0  0  0           0  0  0
    9.2000   -8.2667    0.0000 O   0  0  0  0  0  0           0  0  0
   10.0167   -7.2250    0.0000 C   0  0  0  0  0  0           0  0  0
    8.9792   -7.2417    0.0000 N   0  0  0  0  0  0           0  0  0
    5.8917   -6.6417    0.0000 C   0  0  0  0  0  0           0  0  0
    6.3792   -7.5417    0.0000 C   0  0  0  0  0  0           0  0  0
   10.0167   -6.6292    0.0000 C   0  0  0  0  0  0           0  0  0
   10.5500   -7.5167    0.0000 C   0  0  0  0  0  0           0  0  0
    8.4542   -7.5417    0.0000 C   0  0  0  0  0  0           0  0  0
    6.9000   -7.2417    0.0000 C   0  0  0  0  0  0           0  0  0
    7.9417   -7.2417    0.0000 C   0  0  0  0  0  0           0  0  0
    7.4167   -7.5417    0.0000 C   0  0  0  0  0  0           0  0  0
   11.0625   -7.2125    0.0000 C   0  0  0  0  0  0           0  0  0
   10.5292   -6.3167    0.0000 C   0  0  0  0  0  0           0  0  0
   11.0542   -6.6125    0.0000 C   0  0  0  0  0  0           0  0  0
  2  5  1  0     0  0
  3 10  1  0     0  0
  4  2  2  0     0  0
  5 11  1  0     0  0
  6  1  2  0     0  0
  7  1  2  0     0  0
  8  1  1  0     0  0
  9  1  1  0     0  0
 10  5  2  0     0  0
 11 15  1  0     0  0
 12  8  1  0     0  0
 13  8  2  0     0  0
 14  9  1  0     0  0
 15 17  1  0     0  0
 16 14  1  0     0  0
 17 16  1  0     0  0
 18 13  1  0     0  0
 19 12  2  0     0  0
 20 18  2  0     0  0
 19 20  1  0     0  0
  3  4  1  0     0  0
M  END