
          11290714372D 1   1.00000     0.00000     0

 24 25  0     1  0            999 V2000
   13.5548  -22.5085    0.0000 C   0  0  0  0  0  0           0  0  0
   12.8405  -22.9211    0.0000 N   0  0  3  0  0  0           0  0  0
   12.1257  -22.5079    0.0000 C   0  0  0  0  0  0           0  0  0
   11.4134  -22.9171    0.0000 C   0  0  0  0  0  0           0  0  0
   11.4094  -23.7424    0.0000 C   0  0  0  0  0  0           0  0  0
   12.1238  -24.1570    0.0000 N   0  0  3  0  0  0           0  0  0
   12.8423  -23.7461    0.0000 C   0  0  0  0  0  0           0  0  0
   12.1268  -21.6829    0.0000 O   0  0  0  0  0  0           0  0  0
   13.5563  -24.1593    0.0000 O   0  0  0  0  0  0           0  0  0
   12.1212  -24.9819    0.0000 C   0  0  0  0  0  0           0  0  0
   11.4054  -25.3922    0.0000 C   0  0  2  0  0  0           0  0  0
   10.6922  -24.9774    0.0000 N   0  0  0  0  0  0           0  0  0
   11.4038  -26.2183    0.0000 C   0  0  0  0  0  0           0  0  0
   10.6881  -26.6285    0.0000 O   0  0  0  0  0  0           0  0  0
   12.1170  -26.6330    0.0000 O   0  0  0  0  0  0           0  0  0
   14.2694  -22.9208    0.0000 C   0  0  0  0  0  0           0  0  0
   14.3600  -23.7377    0.0000 C   0  0  0  0  0  0           0  0  0
   15.1670  -23.9091    0.0000 C   0  0  0  0  0  0           0  0  0
   15.5794  -23.1945    0.0000 O   0  0  0  0  0  0           0  0  0
   15.0271  -22.5816    0.0000 C   0  0  0  0  0  0           0  0  0
   15.1977  -21.7744    0.0000 C   0  0  0  0  0  0           0  0  0
   15.9833  -21.5159    0.0000 O   0  0  0  0  0  0           0  0  0
   14.5853  -21.2205    0.0000 O   0  0  0  0  0  0           0  0  0
   10.7004  -22.5021    0.0000 C   0  0  0  0  0  0           0  0  0
 11 12  1  1     0  0
  4  5  2  0     0  0
  5  6  1  0     0  0
  6  7  1  0     0  0
 13 14  1  0     0  0
 13 15  2  0     0  0
 11 13  1  0     0  0
  2  3  1  0     0  0
  1 16  1  0     0  0
 16 17  1  0     0  0
  3  8  2  0     0  0
  7  9  2  0     0  0
  1  2  1  0     0  0
 17 18  2  0     0  0
 18 19  1  0     0  0
 19 20  1  0     0  0
 20 16  2  0     0  0
  6 10  1  0     0  0
 20 21  1  0     0  0
  2  7  1  0     0  0
 10 11  1  0     0  0
 21 22  1  0     0  0
 21 23  2  0     0  0
  3  4  1  0     0  0
  4 24  1  0     0  0
M  END