
  SciTegic12161614562D

 40 45  0  0  0  0            999 V2000
    1.7138   -1.2033    0.0000 N   0  0
    2.5889    0.0182    0.0000 C   0  0
    1.7138    1.2033    0.0000 C   0  0
    0.2917    0.7475    0.0000 C   0  0
   -1.0028    1.5132    0.0000 C   0  0
   -2.3155    0.7475    0.0000 C   0  0
   -2.3155   -0.7475    0.0000 C   0  0
   -1.0028   -1.5132    0.0000 C   0  0
    0.2917   -0.7475    0.0000 C   0  0
    4.0872    0.0351    0.0000 C   0  0
    5.2871    0.0488    0.0000 N   0  0
   -3.6187    1.4919    0.0000 C   0  0
   -3.6267    2.9927    0.0000 N   0  0
   -4.9282    3.7385    0.0000 C   0  0
   -4.9331    5.2385    0.0000 C   0  0
   -3.6365    5.9928    0.0000 C   0  0
   -2.3350    5.2470    0.0000 C   0  0
   -2.3301    3.7470    0.0000 C   0  0
   -3.6383    7.4936    0.0000 N   0  0
    0.2717    8.2518    0.0000 C   0  0
    0.2713    9.7715    0.0000 N   0  0
   -1.0425   10.5035    0.0000 C   0  0
   -2.3337    9.7499    0.0000 C   0  0
   -2.3399    8.2464    0.0000 C   0  0
   -1.0195    7.4982    0.0000 N   0  0
   -3.4442   10.7483    0.0000 C   0  0
   -2.8304   12.1199    0.0000 C   0  0
   -1.3657   11.9614    0.0000 S   0  0
   -3.5683   13.4239    0.0000 C   0  0
   -2.8074   14.7175    0.0000 C   0  0
   -3.3560   -1.3452    0.0000 O   0  0
    2.1855   -2.6254    0.0000 C   0  0
    6.0456   -2.6531    0.0000 N   0  0
    5.7448   -4.1226    0.0000 N   0  0
    4.2542   -4.2907    0.0000 C   0  0
    3.6552   -2.9294    0.0000 C   0  0
    4.7409   -1.9129    0.0000 C   0  0
   -3.3983   15.7620    0.0000 F   0  0
   -1.6074   14.7074    0.0000 F   0  0
   -2.1985   15.7516    0.0000 F   0  0
  1  2  1  0
  2  3  2  0
  3  4  1  0
  4  5  1  0
  5  6  2  0
  6  7  1  0
  7  8  2  0
  8  9  1  0
  1  9  1  0
  4  9  2  0
 10 11  3  0
  2 10  1  0
 13 14  1  0
 14 15  1  0
 15 16  1  0
 16 17  1  0
 17 18  1  0
 13 18  1  0
 20 21  1  0
 21 22  2  0
 22 23  1  0
 23 24  2  0
 24 25  1  0
 20 25  2  0
 26 27  2  0
 27 28  1  0
 22 28  1  0
 23 26  1  0
 29 30  1  0
 27 29  1  0
 19 24  1  0
 16 19  1  0
 12 13  1  0
  6 12  1  0
  7 31  1  0
 33 34  1  0
 34 35  2  0
 35 36  1  0
 36 37  2  0
 33 37  1  0
 32 36  1  0
  1 32  1  0
 30 38  1  0
 30 39  1  0
 30 40  1  0
M  END