
  SciTegic12231509382D

 35 37  0  0  0  0            999 V2000
    9.7032   -0.4082    0.0000 C   0  0
    9.2887    0.3089    0.0000 C   0  0
    8.4641    0.3089    0.0000 C   0  0
    8.0498    1.0223    0.0000 C   0  0
    8.4641    1.7395    0.0000 C   0  0
    9.2887    1.7395    0.0000 C   0  0
    9.7032    1.0223    0.0000 C   0  0
   10.5279   -0.4082    0.0000 O   0  0
    9.2887   -1.1215    0.0000 N   0  0
    8.4641   -1.1215    0.0000 C   0  0
    8.0498   -1.8387    0.0000 C   0  0
    7.2251   -1.8387    0.0000 N   0  0
    6.8108   -2.5519    0.0000 C   0  0
    5.9861   -2.5519    0.0000 N   0  0
    5.5717   -3.2652    0.0000 C   0  0
    4.7470   -3.2652    0.0000 C   0  0
    4.3327   -3.9824    0.0000 C   0  0
    3.5080   -3.9824    0.0000 O   0  0
    3.0976   -3.2652    0.0000 C   0  0
    2.2690   -3.2652    0.0000 C   0  0
    1.8586   -2.5519    0.0000 C   0  0
    2.2690   -1.8387    0.0000 C   0  0
    3.0976   -1.8387    0.0000 C   0  0
    3.5080   -2.5519    0.0000 C   0  0
    1.0299   -2.5519    0.0000 C   0  0
    0.6196   -1.8387    0.0000 N   0  0
   -0.2051   -1.8387    0.0000 C   0  0
   -0.6196   -1.1215    0.0000 C   0  0
   -0.2051   -0.4082    0.0000 C   0  0
    0.6196   -0.4082    0.0000 C   0  0
    1.0299   -1.1215    0.0000 C   0  0
    7.2251   -3.2652    0.0000 N   0  0
    8.0498   -3.2652    0.0000 C   0  0
    8.8745   -3.2652    0.0000 N   0  0
    8.0498    2.4528    0.0000 N   0  0
 23 24  1  0
 19 24  2  0
 18 19  1  0
 26 27  1  0
 27 28  1  0
 28 29  1  0
 29 30  1  0
 30 31  1  0
 26 31  1  0
 25 26  1  0
 21 25  1  0
 17 18  1  0
 14 15  1  0
 13 14  1  0
 33 34  3  0
 32 33  1  0
 13 32  1  0
 12 13  2  0
 11 12  1  0
  9 10  1  0
  5 35  1  0
  1  2  1  0
  2  3  2  0
  3  4  1  0
  4  5  2  0
  5  6  1  0
  6  7  2  0
  2  7  1  0
  1  8  2  0
  1  9  1  0
 10 11  1  0
 15 16  1  0
 16 17  1  0
 19 20  1  0
 20 21  2  0
 21 22  1  0
 22 23  2  0
M  END