
  SciTegic01161211222D

 20 22  0  0  0  0            999 V2000
   13.7804  -22.9322    0.0000 C   0  0
   11.6593  -25.7778    0.0000 N   0  0
   11.1587  -25.1208    0.0000 C   0  0
   13.0746  -24.1786    0.0000 C   0  0
   13.0700  -23.3537    0.0000 C   0  0
   12.4177  -24.6794    0.0000 C   0  0
   13.7758  -22.1073    0.0000 O   0  0
   11.6330  -24.4383    0.0000 C   0  0
   14.4998  -23.3446    0.0000 C   0  0
   12.4343  -25.4987    0.0000 C   0  0
   10.3302  -25.1386    0.0000 O   0  0
   13.7987  -24.5819    0.0000 C   0  0
   14.5091  -24.1695    0.0000 C   0  0
   14.4816  -21.6902    0.0000 C   0  0
   15.2102  -22.9184    0.0000 O   0  0
   15.9251  -23.3262    0.0000 C   0  0
   14.4724  -20.8663    0.0000 C   0  0
   15.2683  -21.9385    0.0000 C   0  0
   15.7499  -21.2653    0.0000 C   0  0
   15.2511  -20.6040    0.0000 C   0  0
  2 10  1  0
  3  8  1  0
  4  5  1  0
  5  1  2  0
  6  4  1  0
  7  1  1  0
  8  6  1  0
  9  1  1  0
 10  6  1  0
 11  3  2  0
 12 13  1  0
 13  9  2  0
 14  7  1  0
 15  9  1  0
 16 15  1  0
 17 14  1  0
 18 14  1  0
 19 18  1  0
 20 17  1  0
  4 12  2  0
 20 19  1  0
  2  3  1  0
M  END