
  SciTegic05061116452D

 37 41  0  0  0  0            999 V2000
    9.2812  -23.4863    0.0000 N   0  0
    9.9929  -23.0777    0.0000 C   0  0
    9.9929  -22.2527    0.0000 N   0  0
    9.2812  -21.8363    0.0000 C   0  0
    8.5695  -23.0777    0.0000 C   0  0
    8.5695  -22.2481    0.0000 C   0  0
    7.7805  -21.9916    0.0000 N   0  0
    7.2928  -22.6629    0.0000 C   0  0
    7.7805  -23.3340    0.0000 N   0  0
    7.5255  -24.1186    0.0000 C   0  0
    6.7185  -24.2901    0.0000 C   0  0
    6.4635  -25.0748    0.0000 O   0  0
    6.1665  -23.6770    0.0000 O   0  0
    9.2832  -21.0112    0.0000 O   0  0
   10.7070  -23.4911    0.0000 N   0  0
   11.4220  -23.0795    0.0000 C   0  0
   12.1360  -23.4929    0.0000 C   0  0
    9.9987  -20.6004    0.0000 C   0  0
   12.1304  -24.3162    0.0000 C   0  0
   12.8436  -24.7295    0.0000 C   0  0
   13.5595  -24.3178    0.0000 C   0  0
   13.5579  -23.4885    0.0000 C   0  0
   12.8442  -23.0789    0.0000 C   0  0
   14.2703  -24.7273    0.0000 C   0  0
   14.2684  -25.5534    0.0000 C   0  0
   14.9788  -25.9657    0.0000 C   0  0
   15.6957  -25.5566    0.0000 C   0  0
   15.6976  -24.7306    0.0000 C   0  0
   14.9826  -24.3138    0.0000 C   0  0
   10.7097  -21.0176    0.0000 C   0  0
   11.4247  -20.6074    0.0000 C   0  0
   11.4271  -19.7815    0.0000 C   0  0
   10.7086  -19.3675    0.0000 C   0  0
    9.9965  -19.7799    0.0000 C   0  0
   12.1435  -21.0229    0.0000 N   0  3
   12.8592  -20.6124    0.0000 O   0  0
   12.1411  -21.8479    0.0000 O   0  5
 14 18  1  0
  8  9  1  0
 17 19  2  0
  9  5  1  0
 19 20  1  0
  3  4  2  0
 20 21  2  0
  9 10  1  0
 21 22  1  0
  5  6  2  0
 22 23  2  0
 23 17  1  0
 24 25  1  0
 10 11  1  0
 11 12  1  0
  6  4  1  0
 11 13  2  0
  5  1  1  0
 24 29  1  0
 25 26  1  0
 26 27  1  0
 27 28  1  0
 28 29  1  0
 21 24  1  0
  4 14  1  0
 18 30  2  0
  1  2  2  0
 30 31  1  0
  2 15  1  0
 31 32  2  0
  2  3  1  0
 32 33  1  0
 15 16  1  0
 33 34  2  0
 34 18  1  0
  6  7  1  0
 16 17  1  0
  7  8  2  0
 35 36  2  0
 35 37  1  0
 31 35  1  0
M  CHG  2  35   1  37  -1
M  END