
          11280715082D 1   1.00000     0.00000     0

 14 15  0     0  0            999 V2000
    2.0542   -1.8917    0.0000 N   0  0  0  0  0  0           0  0  0
    3.3917   -1.9167    0.0000 N   0  0  0  0  0  0           0  0  0
    2.7167   -2.3917    0.0000 C   0  0  0  0  0  0           0  0  0
    3.1500   -1.1292    0.0000 C   0  0  0  0  0  0           0  0  0
    2.3167   -1.1167    0.0000 C   0  0  0  0  0  0           0  0  0
    7.2667    0.2958    0.0000 N   0  0  0  0  0  0           0  0  0
    3.5625   -0.4167    0.0000 C   0  0  0  0  0  0           0  0  0
    4.3875   -0.4167    0.0000 C   0  0  0  0  0  0           0  0  0
    6.8542    1.0083    0.0000 C   0  0  0  0  0  0           0  0  0
    6.8500   -0.4167    0.0000 C   0  0  0  0  0  0           0  0  0
    5.6167    0.2958    0.0000 C   0  0  3  0  0  0           0  0  0
    4.8000    0.3000    0.0000 C   0  0  0  0  0  0           0  0  0
    6.0292   -0.4167    0.0000 C   0  0  0  0  0  0           0  0  0
    6.0292    1.0125    0.0000 C   0  0  0  0  0  0           0  0  0
  2  3  2  0     0  0
  3  1  1  0     0  0
  4  5  2  0     0  0
  5  1  1  0     0  0
  6  9  1  0     0  0
  7  4  1  0     0  0
  8  7  1  0     0  0
  9 14  1  0     0  0
 10 13  1  0     0  0
 11 12  1  0     0  0
 12  8  1  0     0  0
 13 11  1  0     0  0
 14 11  1  0     0  0
  2  4  1  0     0  0
 10  6  1  0     0  0
M  END