
  Mrv0541 05211314572D          

 37 41  0  0  0  0            999 V2000
   -1.0766   -5.6873    0.0000 C   0  0  0  0  0  0  0  0  0  0  0  0
   -0.3621   -6.0998    0.0000 C   0  0  0  0  0  0  0  0  0  0  0  0
    0.3523   -5.6873    0.0000 C   0  0  0  0  0  0  0  0  0  0  0  0
    1.0668   -6.0998    0.0000 N   0  0  0  0  0  0  0  0  0  0  0  0
    0.3523   -4.8623    0.0000 O   0  0  0  0  0  0  0  0  0  0  0  0
    1.7813   -5.6873    0.0000 C   0  0  0  0  0  0  0  0  0  0  0  0
    2.4958   -6.0998    0.0000 C   0  0  0  0  0  0  0  0  0  0  0  0
    2.4958   -6.9248    0.0000 N   0  0  0  0  0  0  0  0  0  0  0  0
    1.7813   -7.3373    0.0000 C   0  0  0  0  0  0  0  0  0  0  0  0
    1.0668   -6.9248    0.0000 C   0  0  0  0  0  0  0  0  0  0  0  0
    3.2102   -7.3373    0.0000 C   0  0  0  0  0  0  0  0  0  0  0  0
    3.9247   -6.9248    0.0000 C   0  0  0  0  0  0  0  0  0  0  0  0
    4.6392   -7.3373    0.0000 C   0  0  0  0  0  0  0  0  0  0  0  0
    4.6392   -8.1623    0.0000 C   0  0  0  0  0  0  0  0  0  0  0  0
    3.9247   -8.5748    0.0000 C   0  0  0  0  0  0  0  0  0  0  0  0
    3.2102   -8.1623    0.0000 C   0  0  0  0  0  0  0  0  0  0  0  0
    5.3536   -8.5748    0.0000 N   0  3  0  0  0  0  0  0  0  0  0  0
    5.3536   -9.3998    0.0000 O   0  0  0  0  0  0  0  0  0  0  0  0
    6.0681   -8.1623    0.0000 O   0  5  0  0  0  0  0  0  0  0  0  0
   -1.7911   -6.0998    0.0000 N   0  0  0  0  0  0  0  0  0  0  0  0
   -1.7911   -6.9248    0.0000 C   0  0  0  0  0  0  0  0  0  0  0  0
   -2.5055   -5.6873    0.0000 C   0  0  0  0  0  0  0  0  0  0  0  0
   -3.2200   -6.0998    0.0000 C   0  0  0  0  0  0  0  0  0  0  0  0
   -3.9345   -5.6873    0.0000 C   0  0  0  0  0  0  0  0  0  0  0  0
   -5.3634   -4.8623    0.0000 C   0  0  0  0  0  0  0  0  0  0  0  0
   -5.3634   -5.6873    0.0000 C   0  0  0  0  0  0  0  0  0  0  0  0
   -4.6490   -6.0998    0.0000 C   0  0  0  0  0  0  0  0  0  0  0  0
   -4.6490   -6.9248    0.0000 C   0  0  0  0  0  0  0  0  0  0  0  0
   -5.3634   -7.3373    0.0000 C   0  0  0  0  0  0  0  0  0  0  0  0
   -6.0779   -6.9248    0.0000 C   0  0  0  0  0  0  0  0  0  0  0  0
   -6.0779   -6.0998    0.0000 C   0  0  0  0  0  0  0  0  0  0  0  0
   -3.9345   -4.8623    0.0000 C   0  0  0  0  0  0  0  0  0  0  0  0
   -4.6490   -4.4498    0.0000 C   0  0  0  0  0  0  0  0  0  0  0  0
   -4.6490   -3.6248    0.0000 C   0  0  0  0  0  0  0  0  0  0  0  0
   -3.9345   -3.2123    0.0000 C   0  0  0  0  0  0  0  0  0  0  0  0
   -3.2200   -3.6248    0.0000 C   0  0  0  0  0  0  0  0  0  0  0  0
   -3.2200   -4.4498    0.0000 C   0  0  0  0  0  0  0  0  0  0  0  0
 17 18  2  0  0  0  0
 17 19  1  0  0  0  0
 14 17  1  0  0  0  0
  8  9  1  0  0  0  0
  1 20  1  0  0  0  0
  9 10  1  0  0  0  0
 20 21  1  0  0  0  0
  4  6  1  0  0  0  0
 20 22  1  0  0  0  0
  8 11  1  0  0  0  0
 22 23  1  0  0  0  0
  2  3  1  0  0  0  0
 23 24  1  0  0  0  0
 24 27  1  0  0  0  0
 11 12  2  0  0  0  0
 24 32  1  0  0  0  0
 26 25  1  0  0  0  0
 25 33  1  0  0  0  0
  1  2  1  0  0  0  0
 12 13  1  0  0  0  0
 26 27  2  0  0  0  0
  3  4  1  0  0  0  0
 27 28  1  0  0  0  0
 13 14  2  0  0  0  0
 28 29  2  0  0  0  0
 29 30  1  0  0  0  0
 14 15  1  0  0  0  0
 30 31  2  0  0  0  0
 31 26  1  0  0  0  0
  3  5  2  0  0  0  0
 15 16  2  0  0  0  0
 32 33  2  0  0  0  0
 16 11  1  0  0  0  0
 33 34  1  0  0  0  0
  4 10  1  0  0  0  0
 34 35  2  0  0  0  0
  6  7  1  0  0  0  0
 35 36  1  0  0  0  0
  7  8  1  0  0  0  0
 36 37  2  0  0  0  0
 37 32  1  0  0  0  0
M  CHG  2  17   1  19  -1
M  END