
  SciTegic06231415592D

 39 41  0  0  0  0            999 V2000
    4.9183   -1.0302    0.0000 C   0  0
    4.1697    0.2696    0.0000 N   0  0
    2.7022   -0.0406    0.0000 C   0  0
    2.5987   -1.5006    0.0000 C   0  0
    3.9134   -2.1439    0.0000 C   0  0
    1.9481    0.6162    0.0000 O   0  0
    1.2990   -0.7500    0.0000 C   0  0
    2.5956   -3.0018    0.0000 C   0  0
    3.8930   -3.7549    0.0000 C   0  0
    3.8896   -5.2549    0.0000 C   0  0
    2.5888   -6.0020    0.0000 C   0  0
    1.2915   -5.2490    0.0000 C   0  0
    1.2949   -3.7490    0.0000 C   0  0
    0.0000   -1.5000    0.0000 C   0  0
   -1.2990   -0.7500    0.0000 C   0  0
   -1.2990    0.7500    0.0000 C   0  0
    0.0000    1.5000    0.0000 C   0  0
    1.2990    0.7500    0.0000 C   0  0
    4.7835    1.6364    0.0000 C   0  0
    6.2765    1.7895    0.0000 C   0  0
    6.9790    0.8167    0.0000 O   0  0
    6.8912    3.1586    0.0000 C   0  0
    8.3842    3.3117    0.0000 N   0  0
    9.0007    4.6792    0.0000 C   0  0
   10.4932    4.8292    0.0000 C   0  0
   11.3693    3.6116    0.0000 N   0  0
   10.7529    2.2441    0.0000 C   0  0
    9.2605    2.0941    0.0000 C   0  0
   12.8625    3.7617    0.0000 C   0  0
   13.7368    2.5427    0.0000 C   0  0
   15.2296    2.6903    0.0000 C   0  0
   15.8481    4.0569    0.0000 C   0  0
   14.9739    5.2758    0.0000 C   0  0
   13.4812    5.1282    0.0000 C   0  0
   12.6091    6.3497    0.0000 O   0  0
   13.2300    7.7160    0.0000 C   0  0
   12.5327    8.6927    0.0000 C   0  0
   20.8481    1.4678    0.0000 Cl  0  0
   18.3481    1.4678    0.0000 Cl  0  0
 17 18  2  0
 18  7  1  0
  8  9  2  0
  2 19  1  0
  4  5  1  0
 19 20  1  0
  9 10  1  0
 20 21  1  0
  5  1  1  0
 20 22  1  0
 10 11  2  0
 22 23  1  0
 23 24  1  0
  1  2  1  0
 11 12  1  0
  3  6  2  0
 12 13  2  0
 13  8  1  0
 23 28  1  0
 24 25  1  0
 25 26  1  0
 26 27  1  0
 27 28  1  0
  7 14  2  0
 29 30  2  0
  4  7  1  0
 30 31  1  0
 14 15  1  0
 31 32  2  0
  2  3  1  0
 32 33  1  0
 15 16  2  0
 33 34  2  0
 34 29  1  0
 26 29  1  0
  4  8  1  0
 34 35  1  0
 16 17  1  0
 35 36  1  0
  3  4  1  0
 36 37  1  0
M  END