
  CDK    12/20/10,15:21

 31 35  0  0  0  0  0  0  0  0999 V2000
   16.9944  -10.0500    0.0000 C   0  0  0  0  0  0  0  0  0  0  0  0
   16.9932  -10.8773    0.0000 C   0  0  0  0  0  0  0  0  0  0  0  0
   17.7081  -11.2902    0.0000 C   0  0  0  0  0  0  0  0  0  0  0  0
   18.4245  -10.8769    0.0000 C   0  0  0  0  0  0  0  0  0  0  0  0
   18.4216  -10.0463    0.0000 N   0  0  0  0  0  0  0  0  0  0  0  0
   17.7063   -9.6372    0.0000 C   0  0  0  0  0  0  0  0  0  0  0  0
   16.2785  -11.2893    0.0000 C   0  0  0  0  0  0  0  0  0  0  0  0
   15.5643  -10.8762    0.0000 N   0  0  0  0  0  0  0  0  0  0  0  0
   15.5644  -10.0470    0.0000 C   0  0  0  0  0  0  0  0  0  0  0  0
   14.8543   -9.6340    0.0000 C   0  0  0  0  0  0  0  0  0  0  0  0
   14.1371  -10.0424    0.0000 C   0  0  0  0  0  0  0  0  0  0  0  0
   14.1345  -10.8684    0.0000 C   0  0  0  0  0  0  0  0  0  0  0  0
   14.8491  -11.2859    0.0000 C   0  0  0  0  0  0  0  0  0  0  0  0
   13.4245   -9.6267    0.0000 C   0  0  0  0  0  0  0  0  0  0  0  0
   13.4283   -8.8017    0.0000 O   0  0  0  0  0  0  0  0  0  0  0  0
   12.7082  -10.0359    0.0000 N   0  0  0  0  0  0  0  0  0  0  0  0
   11.9942   -9.6172    0.0000 C   0  0  0  0  0  0  0  0  0  0  0  0
   11.2800  -10.0229    0.0000 C   0  0  0  0  0  0  0  0  0  0  0  0
   11.2719  -10.8482    0.0000 C   0  0  0  0  0  0  0  0  0  0  0  0
   11.9843  -11.2662    0.0000 C   0  0  0  0  0  0  0  0  0  0  0  0
   12.7048  -10.8588    0.0000 C   0  0  0  0  0  0  0  0  0  0  0  0
   10.5540  -11.2548    0.0000 N   0  0  0  0  0  0  0  0  0  0  0  0
    9.8070  -10.9154    0.0000 C   0  0  0  0  0  0  0  0  0  0  0  0
    9.2499  -11.5238    0.0000 N   0  0  0  0  0  0  0  0  0  0  0  0
   10.4647  -12.0769    0.0000 C   0  0  0  0  0  0  0  0  0  0  0  0
    9.6582  -12.2407    0.0000 C   0  0  0  0  0  0  0  0  0  0  0  0
    9.3983  -13.0197    0.0000 C   0  0  0  0  0  0  0  0  0  0  0  0
    9.9440  -13.6355    0.0000 C   0  0  0  0  0  0  0  0  0  0  0  0
   10.7529  -13.4671    0.0000 C   0  0  0  0  0  0  0  0  0  0  0  0
   11.0090  -12.6883    0.0000 C   0  0  0  0  0  0  0  0  0  0  0  0
    9.6419  -10.1071    0.0000 O   0  0  0  0  0  0  0  0  0  0  0  0
 14 15  2  0  0  0  0 
  3  4  2  0  0  0  0 
 14 16  1  0  0  0  0 
 16 17  1  0  0  0  0 
  7  8  1  0  0  0  0 
  8  9  1  0  0  0  0 
  4  5  1  0  0  0  0 
  2  3  1  0  0  0  0 
 16 21  1  0  0  0  0 
 17 18  1  0  0  0  0 
 18 19  1  0  0  0  0 
 19 20  1  0  0  0  0 
 20 21  1  0  0  0  0 
  5  6  2  0  0  0  0 
 19 22  1  0  0  0  0 
 22 23  1  0  0  0  0 
  6  1  1  0  0  0  0 
  8 13  1  0  0  0  0 
 23 24  1  0  0  0  0 
 24 26  1  0  0  0  0 
 25 22  1  0  0  0  0 
  9 10  1  0  0  0  0 
 10 11  1  0  0  0  0 
 25 26  2  0  0  0  0 
 11 12  1  0  0  0  0 
 26 27  1  0  0  0  0 
 12 13  1  0  0  0  0 
 27 28  2  0  0  0  0 
  1  2  2  0  0  0  0 
 28 29  1  0  0  0  0 
 11 14  1  0  0  0  0 
 29 30  2  0  0  0  0 
 30 25  1  0  0  0  0 
  2  7  1  0  0  0  0 
 23 31  2  0  0  0  0 
M  END