
  SciTegic11201309402D

 97101  0  0  1  0            999 V2000
    9.2917   -0.3625    0.0000 N   0  0
    8.5750   -0.7417    0.0000 C   0  0
    0.4042   -0.7417    0.0000 C   0  0
   10.6167   -0.3750    0.0000 C   0  0
   -8.0292    1.1333    0.0000 N   0  3
   -0.2750   -0.2875    0.0000 C   0  0  1  0  0  0
    9.9375   -0.8292    0.0000 C   0  0  2  0  0  0
    6.5292   -0.3750    0.0000 C   0  0
    2.4417   -0.3750    0.0000 C   0  0
   -0.9208   -0.7625    0.0000 N   0  0
    4.4917   -0.7417    0.0000 C   0  0
   12.6542   -0.7417    0.0000 C   0  0
    1.1292   -0.3625    0.0000 N   0  0
    5.2125   -0.3625    0.0000 N   0  0
    7.2542   -0.7625    0.0000 N   0  0
   11.3417   -0.7625    0.0000 N   0  0
   13.3792   -0.3625    0.0000 N   0  0
    5.8542   -0.8292    0.0000 C   0  0  1  0  0  0
    3.1667   -0.7625    0.0000 N   0  0
    5.8542   -1.6542    0.0000 C   0  0
    1.7667   -0.8292    0.0000 C   0  0  1  0  0  0
   -8.8375    1.5458    0.0000 N   0  5
    7.8917   -0.2875    0.0000 C   0  0  1  0  0  0
   14.1042    2.5708    0.0000 C   0  0
   10.0167    2.5708    0.0000 C   0  0
   14.0250   -0.8292    0.0000 C   0  0  2  0  0  0
   -1.7208   -0.3500    0.0000 C   0  0
   14.7042   -0.3750    0.0000 C   0  0
    3.8167   -0.2875    0.0000 C   0  0  1  0  0  0
    6.5625   -2.0625    0.0000 C   0  0
   -7.2292    0.7250    0.0000 N   0  0
   11.9792   -0.2875    0.0000 C   0  0  1  0  0  0
    4.5167    1.7583    0.0000 C   0  0
   14.8042    2.1625    0.0000 N   0  0
   10.7250    2.1625    0.0000 N   0  0
    8.5792   -1.5667    0.0000 O   0  0
   -0.2750    0.5333    0.0000 C   0  0
    0.4042   -1.5667    0.0000 O   0  0
   10.6167    0.4458    0.0000 O   0  0
    6.5375    0.4458    0.0000 O   0  0
    2.4417    0.4458    0.0000 O   0  0
   12.6625   -1.5667    0.0000 O   0  0
    4.4917   -1.5667    0.0000 O   0  0
   14.0250   -1.6542    0.0000 C   0  0
    1.7667   -1.6542    0.0000 C   0  0
   -1.7625    0.5458    0.0000 O   0  0
   14.7042    0.4458    0.0000 O   0  0
    6.5625   -2.8792    0.0000 O   0  0
    5.2292    2.1625    0.0000 O   0  0
    3.8167    0.5333    0.0000 C   0  0
   13.3917    2.1458    0.0000 N   0  0
    9.3042    2.1458    0.0000 N   0  0
   10.0167    3.3958    0.0000 N   0  0
   14.1042    3.3958    0.0000 N   0  0
   15.4250   -0.7625    0.0000 N   0  0
    8.6625   -0.9917    0.0000 C   0  0
   -6.4292    0.3125    0.0000 C   0  0
    7.2667   -1.6542    0.0000 N   0  0
    4.5167    0.9375    0.0000 C   0  0
    0.4292    0.9458    0.0000 C   0  0
    3.8167    2.1625    0.0000 N   0  0
   14.7292   -2.0667    0.0000 C   0  0
   16.1417   -2.8792    0.0000 C   0  0
    1.8417    1.7583    0.0000 C   0  0
    2.4792   -2.0667    0.0000 C   0  0
   -4.8333   -0.5042    0.0000 C   0  0
   -6.3792   -0.5875    0.0000 C   0  0
   -5.6708    0.8083    0.0000 C   0  0
   15.4375   -1.6542    0.0000 C   0  0
    1.1417    0.5375    0.0000 C   0  0
   14.7292   -2.8792    0.0000 C   0  0
    0.4292    1.7583    0.0000 C   0  0
    1.8417    0.9458    0.0000 C   0  0
   15.4375   -3.2917    0.0000 C   0  0
    1.1417    2.1708    0.0000 C   0  0
   16.1417   -2.0667    0.0000 C   0  0
   -5.5833   -0.9917    0.0000 C   0  0
   -4.8708    0.3958    0.0000 C   0  0
    9.9375   -1.6542    0.0000 C   0  0
   -0.9250   -1.6542    0.0000 C   0  0
   -2.4708   -0.8375    0.0000 C   0  0
    2.5542    2.1708    0.0000 O   0  0
   16.8500   -3.2917    0.0000 O   0  0
    9.0542   -1.7917    0.0000 C   0  0
   -3.2708   -0.4292    0.0000 C   0  0
    7.8917    0.5333    0.0000 C   0  0
   11.9792    0.5333    0.0000 C   0  0
   -4.0333   -0.9167    0.0000 C   0  0
    8.6000    1.7583    0.0000 C   0  0
   12.6917    1.7583    0.0000 C   0  0
    2.4792   -2.8792    0.0000 C   0  0
    3.1792   -1.6542    0.0000 C   0  0
    8.6000    0.9375    0.0000 C   0  0
   12.6917    0.9375    0.0000 C   0  0
    3.1792   -3.2917    0.0000 C   0  0
    3.8917   -2.0667    0.0000 C   0  0
    3.8917   -2.8792    0.0000 C   0  0
  2  1  1  0
  3 13  1  0
  7  4  1  6
  5 31  2  0
  6  3  1  0
  7  1  1  0
  8 15  1  0
  9 19  1  0
 10  6  1  0
 11 14  1  0
 12 32  1  0
 21 13  1  6
 18 14  1  6
 23 15  1  1
 16  4  1  0
 17 12  1  0
 18  8  1  0
 29 19  1  1
 18 20  1  0
 21  9  1  0
 22  5  2  0
 23  2  1  0
 24 51  2  0
 25 52  2  0
 26 17  1  6
 27 10  1  0
 28 26  1  0
 29 11  1  0
 30 20  1  0
 31 57  1  0
 32 16  1  1
 33 59  1  0
 34 24  1  0
 35 25  1  0
 36  2  2  0
  6 37  1  1
 38  3  2  0
 39  4  2  0
 40  8  2  0
 41  9  2  0
 42 12  2  0
 43 11  2  0
 26 44  1  0
 21 45  1  0
 46 27  2  0
 47 28  2  0
 48 30  2  0
 49 33  2  0
 29 50  1  0
 51 90  1  0
 52 89  1  0
 53 25  1  0
 54 24  1  0
 55 28  1  0
 56  1  1  0
 57 68  2  0
 58 30  1  0
 59 50  1  0
 60 37  1  0
 61 33  1  0
 62 44  1  0
 63 74  2  0
 64 75  2  0
 65 45  1  0
 66 88  1  0
 67 77  2  0
 68 78  1  0
 69 62  1  0
 70 60  1  0
 71 62  2  0
 72 60  2  0
 73 70  2  0
 74 71  1  0
 75 72  1  0
 76 69  2  0
 77 66  1  0
 78 66  2  0
  7 79  1  0
 80 10  1  0
 81 27  1  0
 82 64  1  0
 83 63  1  0
 84 56  1  0
 85 81  1  0
 23 86  1  0
 32 87  1  0
 88 85  1  0
 89 93  1  0
 90 94  1  0
 91 65  2  0
 92 65  1  0
 93 86  1  0
 94 87  1  0
 95 91  1  0
 96 92  2  0
 97 96  1  0
 84 79  1  0
 76 63  1  0
 97 95  2  0
 73 64  1  0
 67 57  1  0
M  CHG  2   5   1  22  -1
M  END