
          11280715012D 1   1.00000     0.00000     0

 28 30  0     1  0            999 V2000
    7.3250   -2.9417    0.0000 C   0  0  1  0  0  0           0  0  0
    7.5625   -2.0417    0.0000 C   0  0  0  0  0  0           0  0  0
    7.3250   -3.8542    0.0000 C   0  0  1  0  0  0           0  0  0
    8.1167   -3.4000    0.0000 C   0  0  0  0  0  0           0  0  0
    6.5292   -4.3125    0.0000 N   0  0  3  0  0  0           0  0  0
    7.5625   -1.1292    0.0000 C   0  0  0  0  0  0           0  0  0
    6.5292   -5.2292    0.0000 C   0  0  0  0  0  0           0  0  0
    8.1125   -4.3167    0.0000 O   0  0  0  0  0  0           0  0  0
    6.5292   -2.4792    0.0000 C   0  0  0  0  0  0           0  0  0
    8.3417   -0.6792    0.0000 C   0  0  0  0  0  0           0  0  0
    8.9125   -2.9417    0.0000 O   0  0  0  0  0  0           0  0  0
    7.3250   -5.6875    0.0000 C   0  0  0  0  0  0           0  0  0
    8.3417   -2.5042    0.0000 C   0  0  0  0  0  0           0  0  0
    5.7417   -3.8542    0.0000 C   0  0  0  0  0  0           0  0  0
    7.3250   -6.6042    0.0000 C   0  0  0  0  0  0           0  0  0
    8.3417    0.2375    0.0000 O   0  0  0  0  0  0           0  0  0
    7.5625   -4.7417    0.0000 C   0  0  0  0  0  0           0  0  0
    5.7417   -2.9417    0.0000 C   0  0  0  0  0  0           0  0  0
    9.1417   -2.0500    0.0000 C   0  0  0  0  0  0           0  0  0
    9.1417   -1.1292    0.0000 C   0  0  0  0  0  0           0  0  0
    9.7000   -3.4042    0.0000 C   0  0  0  0  0  0           0  0  0
    6.5292   -7.0542    0.0000 C   0  0  0  0  0  0           0  0  0
    8.1125   -7.0542    0.0000 C   0  0  0  0  0  0           0  0  0
   10.4917   -2.9417    0.0000 C   0  0  0  0  0  0           0  0  0
    8.1167   -7.9667    0.0000 C   0  0  0  0  0  0           0  0  0
    6.5250   -7.9667    0.0000 C   0  0  0  0  0  0           0  0  0
    7.3167   -8.4292    0.0000 C   0  0  0  0  0  0           0  0  0
    7.0792   -4.7417    0.0000 H   0  0  0  0  0  0           0  0  0
  1  2  1  6     0  0
  3  1  1  0     0  0
  1  4  1  1     0  0
  5  3  1  0     0  0
  6  2  1  0     0  0
  7  5  1  0     0  0
  8  4  2  0     0  0
  9  1  1  0     0  0
 10  6  2  0     0  0
 11  4  1  0     0  0
 12  7  1  0     0  0
 13  2  2  0     0  0
 14 18  1  0     0  0
 15 12  1  0     0  0
 16 10  1  0     0  0
  3 17  1  6     0  0
 18  9  1  0     0  0
 19 13  1  0     0  0
 20 19  2  0     0  0
 21 11  1  0     0  0
 22 15  2  0     0  0
 23 15  1  0     0  0
 24 21  1  0     0  0
 25 23  2  0     0  0
 26 22  1  0     0  0
 27 25  1  0     0  0
  3 28  1  1     0  0
 14  5  1  0     0  0
 10 20  1  0     0  0
 26 27  2  0     0  0
M  END