
  CDK    9/16/09,9:54

 44 47  0  0  0  0  0  0  0  0999 V2000
    6.5417  -21.0042    0.0000 C   0  0  0  0  0  0  0  0  0  0  0  0
    6.5417  -21.8292    0.0000 C   0  0  0  0  0  0  0  0  0  0  0  0
    7.2537  -22.2375    0.0000 C   0  0  0  0  0  0  0  0  0  0  0  0
    7.9657  -21.8292    0.0000 C   0  0  0  0  0  0  0  0  0  0  0  0
    7.9657  -21.0042    0.0000 O   0  0  0  0  0  0  0  0  0  0  0  0
    7.2537  -20.5875    0.0000 C   0  0  0  0  0  0  0  0  0  0  0  0
    7.2537  -19.7625    0.0000 C   0  0  0  0  0  0  0  0  0  0  0  0
    7.9682  -19.3500    0.0000 O   0  0  0  0  0  0  0  0  0  0  0  0
    5.8260  -20.5938    0.0000 O   0  0  0  0  0  0  0  0  0  0  0  0
    5.8278  -22.2427    0.0000 N   0  0  0  0  0  0  0  0  0  0  0  0
    5.1127  -21.8312    0.0000 C   0  0  0  0  0  0  0  0  0  0  0  0
    4.3989  -22.2448    0.0000 C   0  0  0  0  0  0  0  0  0  0  0  0
    5.1115  -21.0062    0.0000 O   0  0  0  0  0  0  0  0  0  0  0  0
    3.6864  -21.8329    0.0000 C   0  0  0  0  0  0  0  0  0  0  0  0
    2.9730  -22.2458    0.0000 C   0  0  0  0  0  0  0  0  0  0  0  0
    2.9737  -23.0716    0.0000 C   0  0  0  0  0  0  0  0  0  0  0  0
    3.6938  -23.4829    0.0000 C   0  0  0  0  0  0  0  0  0  0  0  0
    4.4043  -23.0677    0.0000 C   0  0  0  0  0  0  0  0  0  0  0  0
    7.2537  -23.0625    0.0000 O   0  0  0  0  0  0  0  0  0  0  0  0
    8.6796  -22.2427    0.0000 S   0  0  0  0  0  0  0  0  0  0  0  0
    9.3946  -21.8312    0.0000 C   0  0  0  0  0  0  0  0  0  0  0  0
   10.1047  -22.2486    0.0000 O   0  0  0  0  0  0  0  0  0  0  0  0
   10.8177  -21.8407    0.0000 C   0  0  0  0  0  0  0  0  0  0  0  0
   10.8231  -21.0154    0.0000 C   0  0  0  0  0  0  0  0  0  0  0  0
   10.1094  -20.5996    0.0000 C   0  0  0  0  0  0  0  0  0  0  0  0
    9.3903  -21.0092    0.0000 C   0  0  0  0  0  0  0  0  0  0  0  0
   11.5300  -22.2569    0.0000 C   0  0  0  0  0  0  0  0  0  0  0  0
   11.5257  -23.0819    0.0000 O   0  0  0  0  0  0  0  0  0  0  0  0
    9.3875  -22.6542    0.0000 H   0  0  0  0  0  0  0  0  0  0  0  0
    8.6759  -20.5965    0.0000 O   0  0  0  0  0  0  0  0  0  0  0  0
   10.1134  -19.7746    0.0000 N   0  0  0  0  0  0  0  0  0  0  0  0
   10.8299  -19.3656    0.0000 C   0  0  0  0  0  0  0  0  0  0  0  0
   11.5403  -19.7791    0.0000 O   0  0  0  0  0  0  0  0  0  0  0  0
   11.5373  -20.6041    0.0000 O   0  0  0  0  0  0  0  0  0  0  0  0
   10.8334  -18.5406    0.0000 C   0  0  0  0  0  0  0  0  0  0  0  0
   11.5492  -18.1346    0.0000 C   0  0  0  0  0  0  0  0  0  0  0  0
   11.5531  -17.3104    0.0000 C   0  0  0  0  0  0  0  0  0  0  0  0
   10.8398  -16.8940    0.0000 C   0  0  0  0  0  0  0  0  0  0  0  0
   10.1212  -17.3079    0.0000 C   0  0  0  0  0  0  0  0  0  0  0  0
   10.1209  -18.1308    0.0000 C   0  0  0  0  0  0  0  0  0  0  0  0
   12.2695  -16.9012    0.0000 O   0  0  0  0  0  0  0  0  0  0  0  0
   12.9820  -17.3171    0.0000 C   0  0  0  0  0  0  0  0  0  0  0  0
    3.6979  -24.3079    0.0000 O   0  0  0  0  0  0  0  0  0  0  0  0
    2.9855  -24.7240    0.0000 C   0  0  0  0  0  0  0  0  0  0  0  0
 21 22  1  0  0  0  0 
  3  4  1  0  0  0  0 
 10 11  1  0  0  0  0 
  4  5  1  0  0  0  0 
 11 12  1  0  0  0  0 
  5  6  1  0  0  0  0 
 21 26  1  0  0  0  0 
 22 23  1  0  0  0  0 
 23 24  1  0  0  0  0 
 24 25  1  0  0  0  0 
 25 26  1  0  0  0  0 
 11 13  2  0  0  0  0 
 23 27  1  1  0  0  0 
 27 28  1  0  0  0  0 
 12 14  2  0  0  0  0 
 21 29  1  6  0  0  0 
  6  7  1  1  0  0  0 
 26 30  1  6  0  0  0 
 14 15  1  0  0  0  0 
 25 31  1  1  0  0  0 
  1  2  1  0  0  0  0 
 31 32  1  0  0  0  0 
 15 16  2  0  0  0  0 
 32 33  2  0  0  0  0 
 24 34  1  1  0  0  0 
  7  8  1  0  0  0  0 
 16 17  1  0  0  0  0 
 32 35  1  0  0  0  0 
  1  6  1  0  0  0  0 
 35 36  2  0  0  0  0 
 17 18  2  0  0  0  0 
 36 37  1  0  0  0  0 
 18 12  1  0  0  0  0 
 37 38  2  0  0  0  0 
  1  9  1  1  0  0  0 
 38 39  1  0  0  0  0 
  3 19  1  6  0  0  0 
 39 40  2  0  0  0  0 
 40 35  1  0  0  0  0 
  2  3  1  0  0  0  0 
 37 41  1  0  0  0  0 
  4 20  1  1  0  0  0 
 41 42  1  0  0  0  0 
  2 10  1  1  0  0  0 
 17 43  1  0  0  0  0 
 20 21  1  0  0  0  0 
 43 44  1  0  0  0  0 
M  END