
  CDK    9/16/09,9:51

 23 25  0  0  0  0  0  0  0  0999 V2000
    4.4313   -5.5117    0.0000 C   0  0  0  0  0  0  0  0  0  0  0  0
    4.4313   -6.3403    0.0000 N   0  0  0  0  0  0  0  0  0  0  0  0
    5.1450   -6.7523    0.0000 N   0  0  0  0  0  0  0  0  0  0  0  0
    5.8631   -6.3403    0.0000 C   0  0  0  0  0  0  0  0  0  0  0  0
    5.1450   -5.0951    0.0000 C   0  0  0  0  0  0  0  0  0  0  0  0
    5.8623   -5.5060    0.0000 C   0  0  0  0  0  0  0  0  0  0  0  0
    6.4747   -4.9508    0.0000 C   0  0  0  0  0  0  0  0  0  0  0  0
    6.1359   -4.1966    0.0000 S   0  0  0  0  0  0  0  0  0  0  0  0
    5.3141   -4.2859    0.0000 C   0  0  0  0  0  0  0  0  0  0  0  0
    6.5764   -6.7529    0.0000 O   0  0  0  0  0  0  0  0  0  0  0  0
    7.2814   -5.1193    0.0000 N   0  0  0  0  0  0  0  0  0  0  0  0
    3.7167   -5.1014    0.0000 C   0  0  0  0  0  0  0  0  0  0  0  0
    3.7147   -4.2774    0.0000 O   0  0  0  0  0  0  0  0  0  0  0  0
    3.0041   -5.5151    0.0000 O   0  0  0  0  0  0  0  0  0  0  0  0
    2.2895   -5.1048    0.0000 C   0  0  0  0  0  0  0  0  0  0  0  0
    1.5769   -5.5186    0.0000 C   0  0  0  0  0  0  0  0  0  0  0  0
    5.1418   -7.5728    0.0000 C   0  0  0  0  0  0  0  0  0  0  0  0
    4.4260   -7.9831    0.0000 C   0  0  0  0  0  0  0  0  0  0  0  0
    4.4245   -8.8063    0.0000 C   0  0  0  0  0  0  0  0  0  0  0  0
    5.1381   -9.2202    0.0000 C   0  0  0  0  0  0  0  0  0  0  0  0
    5.8546   -8.8048    0.0000 C   0  0  0  0  0  0  0  0  0  0  0  0
    5.8527   -7.9829    0.0000 C   0  0  0  0  0  0  0  0  0  0  0  0
    6.5691   -9.2153    0.0000 Cl  0  0  0  0  0  0  0  0  0  0  0  0
  7 11  1  0  0  0  0 
  1 12  1  0  0  0  0 
  1  2  2  0  0  0  0 
 12 13  2  0  0  0  0 
  1  5  1  0  0  0  0 
 12 14  1  0  0  0  0 
  2  3  1  0  0  0  0 
 14 15  1  0  0  0  0 
  3  4  1  0  0  0  0 
 15 16  1  0  0  0  0 
  6  7  2  0  0  0  0 
  7  8  1  0  0  0  0 
 17 18  2  0  0  0  0 
  8  9  1  0  0  0  0 
 18 19  1  0  0  0  0 
  9  5  2  0  0  0  0 
 19 20  2  0  0  0  0 
  4  6  1  0  0  0  0 
 20 21  1  0  0  0  0 
  4 10  2  0  0  0  0 
 21 22  2  0  0  0  0 
 22 17  1  0  0  0  0 
  3 17  1  0  0  0  0 
  5  6  1  0  0  0  0 
 21 23  1  0  0  0  0 
M  END