
  SciTegic11201309402D

 69 72  0  0  0  0            999 V2000
   14.6634   -3.1309    0.0000 C   0  0
   13.9566   -3.5587    0.0000 C   0  0
   13.9766   -4.3829    0.0000 C   0  0
   14.7012   -4.7846    0.0000 C   0  0  1  0  0  0
   15.4123   -4.3526    0.0000 O   0  0
   15.3946   -3.5231    0.0000 C   0  0  2  0  0  0
   13.2355   -3.1627    0.0000 C   0  0
   12.5304   -3.5912    0.0000 C   0  0
   11.8050   -3.1952    0.0000 O   0  0
   12.5503   -4.4155    0.0000 O   0  0
   11.7890   -2.3710    0.0000 C   0  0
   16.0989   -3.0933    0.0000 C   0  0
   16.8206   -3.4875    0.0000 C   0  0  2  0  0  0
   16.8388   -4.3077    0.0000 O   0  0
   17.5587   -4.7021    0.0000 C   0  0  1  0  0  0
   18.2624   -4.2773    0.0000 C   0  0
   18.2478   -3.4517    0.0000 C   0  0  1  0  0  0
   17.5211   -3.0549    0.0000 C   0  0
   18.0894   -2.4535    0.0000 C   0  0
   17.2850   -2.2532    0.0000 C   0  0
   18.9502   -3.0256    0.0000 O   0  0
   19.6740   -3.4236    0.0000 C   0  0
   20.3806   -2.9974    0.0000 O   0  0
   19.6916   -4.2479    0.0000 C   0  0
   17.5757   -5.5263    0.0000 C   0  0
   19.0021   -5.4989    0.0000 C   0  0
   19.7258   -5.8974    0.0000 C   0  0
   20.4326   -5.4717    0.0000 O   0  0
   19.7429   -6.7216    0.0000 O   0  0
   19.0362   -7.1475    0.0000 C   0  0  1  0  0  0
   19.0532   -7.9718    0.0000 C   0  0  1  0  0  0
   18.3124   -6.7490    0.0000 C   0  0
   18.2953   -5.9246    0.0000 C   0  0  2  0  0  0
   17.6098   -7.1790    0.0000 C   0  0  1  0  0  0
   18.3465   -8.3975    0.0000 C   0  0
   16.8886   -6.7741    0.0000 O   0  0
   16.1850   -7.1987    0.0000 C   0  0  2  0  0  0
   16.1998   -8.0237    0.0000 C   0  0  2  0  0  0
   16.9234   -8.4214    0.0000 C   0  0
   17.6323   -7.9983    0.0000 C   0  0
   14.7195   -5.6089    0.0000 C   0  0
   15.4440   -6.0063    0.0000 C   0  0
   15.4622   -6.8306    0.0000 C   0  0
   15.2604   -7.6237    0.0000 C   0  0
   14.6357   -6.8385    0.0000 C   0  0
   15.4949   -8.4456    0.0000 O   0  0
   15.5072   -9.2740    0.0000 C   0  0
   14.7981   -9.6958    0.0000 O   0  0
   16.2411  -10.4969    0.0000 C   0  0
   16.9626  -10.8954    0.0000 C   0  0
   16.9748  -11.7197    0.0000 C   0  0
   17.6966  -12.1223    0.0000 C   0  0
   18.4014  -11.6963    0.0000 C   0  0
   18.3889  -10.8720    0.0000 C   0  0
   16.9361   -9.2456    0.0000 C   0  0
   16.2274   -9.6719    0.0000 C   0  0
   17.6580   -9.6478    0.0000 C   0  0
   17.6709  -10.4721    0.0000 O   0  0
   18.3627   -9.2215    0.0000 O   0  0
   19.0845   -9.6237    0.0000 C   0  0
   18.4888   -7.6559    0.0000 H   0  0
   15.3668   -2.5235    0.0000 H   0  0
   16.8018   -2.6582    0.0000 O   0  0
   19.7770   -8.3701    0.0000 O   0  0
   16.1647   -6.3669    0.0000 O   0  0
   18.8783   -6.5083    0.0000 O   0  0
   19.0167   -6.1477    0.0000 H   0  0
   18.4346   -5.1846    0.0000 H   0  0
   13.8452   -5.3016    0.0000 H   0  0
  1  6  1  0
 30 32  1  0
 13 18  1  0
 14 15  1  0
 34 32  1  0
 15 16  1  0
 31 35  1  6
 16 17  1  0
 34 36  1  0
 17 18  1  0
  8  9  1  0
  2  3  1  0
 18 19  1  0
 34 40  1  0
 36 37  1  0
 37 38  1  0
 38 39  1  0
 39 40  1  0
  8 10  2  0
  4 41  1  0
 18 20  1  0
 41 42  2  0
  3  4  1  0
 42 43  1  0
 43 37  1  0
 17 21  1  1
 43 44  1  0
  9 11  1  0
 43 45  1  0
 21 22  1  0
 38 46  1  6
  4  5  1  0
 46 47  1  0
 22 23  2  0
 47 48  2  0
 47 56  1  0
  6 12  1  0
 56 49  2  0
 22 24  1  0
 49 50  1  0
  5  6  1  0
 50 51  2  0
 15 25  1  0
 51 52  1  0
 25 33  1  0
 52 53  1  0
 12 13  1  0
 53 54  1  0
 33 26  1  0
 39 55  2  0
 13 14  1  0
 26 27  1  0
 55 57  1  0
 57 58  2  0
 27 28  2  0
 57 59  1  0
  2  7  2  0
 59 60  1  0
 27 29  1  0
  1  2  1  0
 34 61  1  1
  6 62  1  6
 30 29  1  0
  7  8  1  0
 30 31  1  0
 31 64  1  0
 13 63  1  6
 37 65  1  1
 33 66  1  6
 30 67  1  6
 15 68  1  6
  4 69  1  6
M  END