
  SciTegic10011413212D

 33 36  0  0  0  0            999 V2000
   10.5271  -10.1034    0.0000 C   0  0
   10.5260  -10.9230    0.0000 C   0  0
   11.2340  -11.3319    0.0000 C   0  0
   11.2323   -9.6946    0.0000 C   0  0
   11.9409  -10.0998    0.0000 C   0  0
   11.9416  -10.9188    0.0000 C   0  0
   12.6502  -11.3259    0.0000 C   0  0
   13.3584  -10.9151    0.0000 N   0  0
   13.3537  -10.0929    0.0000 C   0  0  1  0  0  0
   12.6446   -9.6896    0.0000 C   0  0  1  0  0  0
   12.6403   -8.8724    0.0000 C   0  0
   13.3457   -8.4573    0.0000 O   0  0
   11.9303   -8.4648    0.0000 N   0  0
   12.6519  -12.1431    0.0000 O   0  0
   14.0677  -11.3209    0.0000 C   0  0
   14.0709  -12.1381    0.0000 C   0  0
   13.3654  -12.5446    0.0000 C   0  0
   13.3682  -13.3610    0.0000 C   0  0
   14.0780  -13.7676    0.0000 C   0  0
   14.7865  -13.3519    0.0000 C   0  0
   14.7802  -12.5368    0.0000 C   0  0
   14.0823  -14.5848    0.0000 Cl  0  0
   14.0589   -9.6801    0.0000 C   0  0
   14.7664  -10.0878    0.0000 C   0  0
   15.4711   -9.6756    0.0000 C   0  0
   15.4666   -8.8575    0.0000 C   0  0
   14.7514   -8.4534    0.0000 C   0  0
   14.0496   -8.8680    0.0000 C   0  0
   16.1713   -8.4437    0.0000 Cl  0  0
   11.2236   -8.8752    0.0000 C   0  0
   10.5149   -8.4683    0.0000 C   0  0
    9.8082   -8.8786    0.0000 O   0  0
    9.0995   -8.4717    0.0000 C   0  0
  1  2  2  0
  2  3  1  0
  3  6  2  0
  5  4  2  0
  4  1  1  0
  5  6  1  0
  6  7  1  0
  7  8  1  0
  8  9  1  0
  9 10  1  0
 10  5  1  0
 10 11  1  6
 11 12  2  0
 11 13  1  0
  7 14  2  0
  8 15  1  0
 15 16  1  0
 16 17  2  0
 17 18  1  0
 18 19  2  0
 19 20  1  0
 20 21  2  0
 21 16  1  0
 19 22  1  0
  9 23  1  1
 23 24  2  0
 24 25  1  0
 25 26  2  0
 26 27  1  0
 27 28  2  0
 28 23  1  0
 26 29  1  0
 13 30  1  0
 30 31  1  0
 31 32  1  0
 32 33  1  0
M  END