
          11280715052D 1   1.00000     0.00000     0

 38 42  0     0  0            999 V2000
    4.4542   -2.8542    0.0000 N   0  0  3  0  0  0           0  0  0
    5.0667   -2.4167    0.0000 C   0  0  0  0  0  0           0  0  0
    4.8292   -1.7000    0.0000 N   0  0  3  0  0  0           0  0  0
    4.0792   -1.7000    0.0000 N   0  0  0  0  0  0           0  0  0
    3.8500   -2.4167    0.0000 C   0  0  0  0  0  0           0  0  0
    7.7000   -3.9875    0.0000 C   0  0  0  0  0  0           0  0  0
    7.0917   -3.5500    0.0000 N   0  0  0  0  0  0           0  0  0
    7.3250   -2.8375    0.0000 N   0  0  0  0  0  0           0  0  0
    8.3125   -3.5500    0.0000 N   0  0  0  0  0  0           0  0  0
    8.0750   -2.8250    0.0000 N   0  0  0  0  0  0           0  0  0
    5.2750   -1.0875    0.0000 C   0  0  0  0  0  0           0  0  0
    7.7125   -4.7375    0.0000 C   0  0  0  0  0  0           0  0  0
    7.0542   -5.1125    0.0000 C   0  0  0  0  0  0           0  0  0
    4.4542   -3.6042    0.0000 C   0  0  0  0  0  0           0  0  0
    5.7750   -2.6500    0.0000 O   0  0  0  0  0  0           0  0  0
    6.4125   -4.7375    0.0000 C   0  0  0  0  0  0           0  0  0
    4.9625   -0.4167    0.0000 C   0  0  3  0  0  0           0  0  0
    4.2042   -0.3375    0.0000 C   0  0  0  0  0  0           0  0  0
    5.7667   -5.1125    0.0000 C   0  0  0  0  0  0           0  0  0
    6.4167   -3.9875    0.0000 C   0  0  0  0  0  0           0  0  0
    5.1125   -3.9875    0.0000 C   0  0  0  0  0  0           0  0  0
    3.1417   -2.6542    0.0000 C   0  0  0  0  0  0           0  0  0
    5.1167   -4.7375    0.0000 C   0  0  0  0  0  0           0  0  0
    5.7542   -3.6042    0.0000 C   0  0  0  0  0  0           0  0  0
    5.4000    0.2000    0.0000 O   0  0  0  0  0  0           0  0  0
    8.3542   -5.1125    0.0000 C   0  0  0  0  0  0           0  0  0
    7.0542   -5.8625    0.0000 C   0  0  0  0  0  0           0  0  0
    3.9042    0.3458    0.0000 C   0  0  0  0  0  0           0  0  0
    3.7792   -0.9500    0.0000 C   0  0  0  0  0  0           0  0  0
    6.1500    0.1333    0.0000 C   0  0  0  0  0  0           0  0  0
    2.5750   -2.1542    0.0000 C   0  0  0  0  0  0           0  0  0
    1.8542   -2.3875    0.0000 C   0  0  0  0  0  0           0  0  0
    7.7125   -6.2417    0.0000 C   0  0  0  0  0  0           0  0  0
    8.3542   -5.8625    0.0000 C   0  0  0  0  0  0           0  0  0
    1.2917   -1.8875    0.0000 C   0  0  0  0  0  0           0  0  0
    3.1542    0.4125    0.0000 C   0  0  0  0  0  0           0  0  0
    3.0292   -0.8792    0.0000 C   0  0  0  0  0  0           0  0  0
    2.7167   -0.2000    0.0000 C   0  0  0  0  0  0           0  0  0
  2  1  1  0     0  0
  3  2  1  0     0  0
  4  5  2  0     0  0
  5  1  1  0     0  0
  6 12  1  0     0  0
  7  6  1  0     0  0
  8  7  2  0     0  0
  9  6  2  0     0  0
 10  9  1  0     0  0
 11  3  1  0     0  0
 12 13  1  0     0  0
 13 16  1  0     0  0
 14  1  1  0     0  0
 15  2  2  0     0  0
 16 20  2  0     0  0
 17 11  1  0     0  0
 18 17  1  0     0  0
 19 23  2  0     0  0
 20 24  1  0     0  0
 21 14  1  0     0  0
 22  5  1  0     0  0
 23 21  1  0     0  0
 24 21  2  0     0  0
 25 17  1  0     0  0
 26 12  2  0     0  0
 27 13  2  0     0  0
 28 18  2  0     0  0
 29 18  1  0     0  0
 30 25  1  0     0  0
 31 22  1  0     0  0
 32 31  1  0     0  0
 33 27  1  0     0  0
 34 33  2  0     0  0
 35 32  1  0     0  0
 36 28  1  0     0  0
 37 29  2  0     0  0
 38 37  1  0     0  0
  3  4  1  0     0  0
 19 16  1  0     0  0
 36 38  2  0     0  0
 34 26  1  0     0  0
 10  8  1  0     0  0
M  END