
  SciTegic05161214222D

 53 56  0  0  0  0            999 V2000
   24.9860  -11.0207    0.0000 C   0  0
   21.4208  -10.6167    0.0000 C   0  0
   21.4208  -11.4417    0.0000 C   0  0
   22.1329  -11.8500    0.0000 O   0  0
   22.8449  -11.4417    0.0000 C   0  0
   22.8449  -10.6167    0.0000 C   0  0
   22.1329  -10.2000    0.0000 C   0  0
   20.7031  -10.2114    0.0000 S   0  0
   20.2948  -10.9283    0.0000 O   0  0
   21.1198  -10.9235    0.0000 O   0  0
   17.8361   -5.2750    0.0000 C   0  0
   17.8349   -6.1023    0.0000 C   0  0
   18.5497   -6.5152    0.0000 C   0  0
   18.5479   -4.8622    0.0000 C   0  0
   19.2633   -5.2713    0.0000 C   0  0
   19.2641   -6.0982    0.0000 C   0  0
   19.9794   -6.5091    0.0000 N   0  0
   20.6944   -6.0944    0.0000 C   0  0
   20.6896   -5.2644    0.0000 C   0  0
   19.9737   -4.8572    0.0000 C   0  0
   21.4105   -6.5041    0.0000 C   0  0
   19.9694   -4.0322    0.0000 C   0  0
   18.5516   -7.3402    0.0000 O   0  0
   19.2671   -7.7510    0.0000 C   0  0
   19.2690   -8.5760    0.0000 C   0  0
   18.5529   -8.9858    0.0000 C   0  0
   18.5544   -9.8101    0.0000 C   0  0
   19.2704  -10.2217    0.0000 C   0  0
   19.9863   -9.8031    0.0000 C   0  0
   19.9812   -8.9803    0.0000 C   0  0
   17.8388   -8.5726    0.0000 Cl  0  0
   20.6929   -8.5629    0.0000 Cl  0  0
   21.4152   -9.7948    0.0000 N   0  0
   22.8441   -9.7864    0.0000 C   0  0
   23.5598  -10.1967    0.0000 N   0  0
   22.8416   -8.9614    0.0000 O   0  0
   23.5588  -11.0217    0.0000 C   0  0
   24.2704  -11.4319    0.0000 C   0  0
   24.9855  -10.1948    0.0000 C   0  0
   24.2693   -9.7800    0.0000 C   0  0
   25.7002  -11.4337    0.0000 C   0  0
   26.4150  -11.0217    0.0000 C   0  0
   27.1291  -11.4347    0.0000 N   0  3
   27.8439  -11.0227    0.0000 C   0  0
   27.1286  -12.2597    0.0000 C   0  0
   27.1208  -10.6083    0.0000 C   0  0
   26.1284   -9.1488    0.0000 F   0  0
   26.8428   -8.7363    0.0000 C   0  0
   27.5573   -9.1488    0.0000 F   0  0
   26.8367   -9.5571    0.0000 F   0  0
   26.8459   -7.9113    0.0000 C   0  0
   27.5619   -7.5015    0.0000 O   0  5
   26.1330   -7.4961    0.0000 O   0  0
 12 13  1  0
 23 24  1  0
 13 16  2  0
 24 25  1  0
  6  7  1  0
 25 26  2  0
 15 14  2  0
 26 27  1  0
 14 11  1  0
 27 28  2  0
  9  8  2  0
 28 29  1  0
  8 10  2  0
 29 30  2  0
 30 25  1  0
 15 16  1  0
 26 31  1  0
 30 32  1  0
 29  8  1  0
 16 17  1  0
  8 33  1  0
 33  7  1  0
  2  3  1  0
  7 34  1  0
 17 18  2  0
 34 35  1  0
  2  7  1  0
 34 36  2  0
 35 37  1  0
 18 19  1  0
  3  4  1  0
 19 20  2  0
 20 15  1  0
 35 40  1  0
 37 38  1  0
 38  1  1  0
  1 39  1  0
 39 40  1  0
  4  5  1  0
  1 41  1  0
 18 21  1  0
 41 42  1  0
 11 12  2  0
 42 43  1  0
 20 22  1  0
 43 44  1  0
  5  6  1  0
 43 45  1  0
 13 23  1  0
 43 46  1  0
 47 48  1  0
 48 50  1  0
 48 51  1  0
 48 49  1  0
 51 52  1  0
 51 53  2  0
M  CHG  2  43   1  52  -1
M  END