
  SciTegic02271515072D

 27 30  0  0  0  0            999 V2000
    3.4820  -27.3635    0.0000 C   0  0
    3.4808  -28.1830    0.0000 C   0  0
    4.1889  -28.5920    0.0000 N   0  0
    4.1871  -26.9546    0.0000 C   0  0
    4.8957  -27.3599    0.0000 C   0  0
    4.8959  -28.1831    0.0000 C   0  0
    5.6789  -28.4372    0.0000 S   0  0
    6.1626  -27.7711    0.0000 N   0  0
    5.6785  -27.1053    0.0000 C   0  0
    5.9308  -26.3281    0.0000 N   0  0
    5.3838  -25.7210    0.0000 C   0  0
    5.6361  -24.9437    0.0000 C   0  0
    4.5845  -25.8911    0.0000 O   0  0
    6.4377  -24.7731    0.0000 C   0  0
    6.6907  -23.9998    0.0000 C   0  0
    6.1466  -23.3896    0.0000 C   0  0
    5.3460  -23.5580    0.0000 C   0  0
    5.0895  -24.3367    0.0000 C   0  0
    2.7782  -26.9508    0.0000 C   0  0
    2.7869  -26.1340    0.0000 C   0  0
    2.0840  -25.7214    0.0000 C   0  0
    1.3737  -26.1247    0.0000 C   0  0
    1.3709  -26.9447    0.0000 C   0  0
    2.0744  -27.3536    0.0000 C   0  0
    0.6682  -25.7123    0.0000 N   0  0
    0.6619  -27.3511    0.0000 O   0  0
   -0.0462  -26.9402    0.0000 C   0  0
  1  2  2  0
  2  3  1  0
  3  6  2  0
  5  4  2  0
  4  1  1  0
  5  6  1  0
  6  7  1  0
  7  8  1  0
  8  9  2  0
  9  5  1  0
  9 10  1  0
 10 11  1  0
 11 12  1  0
 11 13  2  0
 12 14  1  0
 12 18  1  0
 14 15  1  0
 15 16  1  0
 16 17  1  0
 17 18  1  0
  1 19  1  0
 19 20  2  0
 20 21  1  0
 21 22  2  0
 22 23  1  0
 23 24  2  0
 24 19  1  0
 22 25  1  0
 23 26  1  0
 26 27  1  0
M  END