
          02060813472D 1   1.00000     0.00000     0

 31 33  0     1  0            999 V2000
   -2.5958   -5.5667    0.0000 C   0  0  0  0  0  0           0  0  0
   -2.5958   -6.3917    0.0000 O   0  0  0  0  0  0           0  0  0
   -1.8838   -6.8000    0.0000 C   0  0  0  0  0  0           0  0  0
   -1.1718   -6.3917    0.0000 C   0  0  0  0  0  0           0  0  0
   -1.1718   -5.5667    0.0000 N   0  0  3  0  0  0           0  0  0
   -1.8838   -5.1500    0.0000 C   0  0  0  0  0  0           0  0  0
   -0.4561   -5.1563    0.0000 C   0  0  0  0  0  0           0  0  0
    0.2571   -5.5709    0.0000 C   0  0  0  0  0  0           0  0  0
   -0.4537   -4.3313    0.0000 O   0  0  0  0  0  0           0  0  0
    0.9728   -5.1604    0.0000 C   0  0  2  0  0  0           0  0  0
    1.6868   -5.5802    0.0000 C   0  0  0  0  0  0           0  0  0
    2.4003   -5.1733    0.0000 N   0  0  0  0  0  0           0  0  0
    0.9773   -4.3355    0.0000 C   0  0  0  0  0  0           0  0  0
    1.6939   -3.9312    0.0000 C   0  0  3  0  0  0           0  0  0
    2.4073   -4.3518    0.0000 C   0  0  0  0  0  0           0  0  0
    3.1242   -3.9465    0.0000 C   0  0  0  0  0  0           0  0  0
    3.1340   -3.1190    0.0000 C   0  0  0  0  0  0           0  0  0
    2.4206   -2.6984    0.0000 C   0  0  0  0  0  0           0  0  0
    1.6974   -3.1054    0.0000 C   0  0  0  0  0  0           0  0  0
    3.1125   -5.5896    0.0000 C   0  0  1  0  0  0           0  0  0
    1.6813   -6.4052    0.0000 O   0  0  0  0  0  0           0  0  0
    3.1081   -6.4146    0.0000 C   0  0  0  0  0  0           0  0  0
    3.8292   -5.1810    0.0000 C   0  0  0  0  0  0           0  0  0
    4.5449   -4.7706    0.0000 N   0  0  0  0  0  0           0  0  0
    3.8204   -6.8309    0.0000 C   0  0  0  0  0  0           0  0  0
    3.8160   -7.6559    0.0000 C   0  0  0  0  0  0           0  0  0
    3.0989   -8.0624    0.0000 C   0  0  0  0  0  0           0  0  0
    3.0941   -8.8866    0.0000 C   0  0  0  0  0  0           0  0  0
    3.8069   -9.3038    0.0000 C   0  0  0  0  0  0           0  0  0
    4.5260   -8.8907    0.0000 C   0  0  0  0  0  0           0  0  0
    4.5272   -8.0678    0.0000 C   0  0  0  0  0  0           0  0  0
  1  2  1  0     0  0
  7  8  1  0     0  0
  1  6  1  0     0  0
  7  9  2  0     0  0
 14 19  1  0     0  0
 15 16  1  0     0  0
 16 17  1  0     0  0
 17 18  1  0     0  0
 18 19  1  0     0  0
  2  3  1  0     0  0
 12 20  1  0     0  0
  8 10  1  0     0  0
 11 21  2  0     0  0
 10 11  1  0     0  0
 20 22  1  6     0  0
  3  4  1  0     0  0
 20 23  1  0     0  0
  4  5  1  0     0  0
 23 24  3  0     0  0
 11 12  1  0     0  0
 22 25  1  0     0  0
 14 13  1  0     0  0
 25 26  1  0     0  0
  5  6  1  0     0  0
 26 27  2  0     0  0
 10 13  1  1     0  0
 27 28  1  0     0  0
 14 15  1  0     0  0
 28 29  2  0     0  0
 29 30  1  0     0  0
  5  7  1  0     0  0
 30 31  2  0     0  0
 31 26  1  0     0  0
M  END