
          11280715072D 1   1.00000     0.00000     0

 25 26  0     0  0            999 V2000
    0.9292   -1.9500    0.0000 C   0  0  0  0  0  0           0  0  0
    1.6417   -4.8292    0.0000 N   0  3  3  0  0  0           0  0  0
    0.9292   -1.1250    0.0000 C   0  0  3  0  0  0           0  0  0
    1.6417   -2.3625    0.0000 O   0  0  0  0  0  0           0  0  0
    0.2167   -2.3625    0.0000 O   0  0  0  0  0  0           0  0  0
    3.2750   -5.1542    0.0000 I   0  5  0  0  0  0           0  0  0
    2.3542   -4.4167    0.0000 C   0  0  0  0  0  0           0  0  0
    0.9292   -4.4125    0.0000 C   0  0  0  0  0  0           0  0  0
    0.2167   -0.7125    0.0000 C   0  0  0  0  0  0           0  0  0
    1.6417   -0.7125    0.0000 C   0  0  0  0  0  0           0  0  0
    1.6417   -3.1875    0.0000 C   0  0  3  0  0  0           0  0  0
    2.3625   -3.5917    0.0000 C   0  0  0  0  0  0           0  0  0
    0.9292   -3.5917    0.0000 C   0  0  0  0  0  0           0  0  0
    2.2250   -5.4125    0.0000 C   0  0  0  0  0  0           0  0  0
    1.0542   -5.4125    0.0000 C   0  0  0  0  0  0           0  0  0
    2.3542   -1.1292    0.0000 C   0  0  0  0  0  0           0  0  0
    1.6417    0.1083    0.0000 C   0  0  0  0  0  0           0  0  0
    0.2167    0.1208    0.0000 C   0  0  0  0  0  0           0  0  0
   -0.4958   -1.1167    0.0000 C   0  0  0  0  0  0           0  0  0
    2.3542    0.5208    0.0000 C   0  0  0  0  0  0           0  0  0
   -0.4958    0.5333    0.0000 C   0  0  0  0  0  0           0  0  0
   -1.2083   -0.7125    0.0000 C   0  0  0  0  0  0           0  0  0
    3.0667   -0.7167    0.0000 C   0  0  0  0  0  0           0  0  0
    3.0750    0.1083    0.0000 C   0  0  0  0  0  0           0  0  0
   -1.2083    0.1208    0.0000 C   0  0  0  0  0  0           0  0  0
  2  7  1  0     0  0
  3  1  1  0     0  0
  4  1  1  0     0  0
  5  1  2  0     0  0
  7 12  1  0     0  0
  8 13  1  0     0  0
  9  3  1  0     0  0
 10  3  1  0     0  0
 11  4  1  0     0  0
 12 11  1  0     0  0
 13 11  1  0     0  0
 14  2  1  0     0  0
 15  2  1  0     0  0
 16 10  2  0     0  0
 17 10  1  0     0  0
 18  9  2  0     0  0
 19  9  1  0     0  0
 20 17  2  0     0  0
 21 18  1  0     0  0
 22 19  2  0     0  0
 23 16  1  0     0  0
 24 20  1  0     0  0
 25 21  2  0     0  0
  8  2  1  0     0  0
 22 25  1  0     0  0
 23 24  2  0     0  0
M  CHG  2   2   1   6  -1
M  END