
  SciTegic05071317032D

 40 39  0  0  0  0            999 V2000
   -1.6069  -29.7080    0.0000 C   0  0
   -1.6057  -30.5353    0.0000 C   0  0
   -0.8956  -30.9482    0.0000 C   0  0
   -0.1787  -30.5349    0.0000 C   0  0
   -0.1758  -29.7043    0.0000 C   0  0
   -0.8938  -29.2952    0.0000 C   0  0
    0.5387  -29.2891    0.0000 O   0  0
    1.2548  -29.6990    0.0000 C   0  0
    1.9676  -29.2838    0.0000 C   0  0
    2.6837  -29.6935    0.0000 C   0  0
    3.3965  -29.2784    0.0000 C   0  0
    4.1126  -29.6882    0.0000 C   0  0
    4.8254  -29.2730    0.0000 C   0  0
    5.5415  -29.6828    0.0000 C   0  0
    6.2543  -29.2676    0.0000 C   0  0
    6.9704  -29.6774    0.0000 C   0  0
    7.6833  -29.2623    0.0000 N   0  0
    8.3991  -29.6743    0.0000 C   0  0
    9.1098  -29.2626    0.0000 C   0  0
    9.1110  -28.4373    0.0000 N   0  0
    8.3952  -28.0253    0.0000 C   0  0
    7.6782  -28.4386    0.0000 C   0  0
    9.8255  -28.0248    0.0000 C   0  0
   10.5400  -28.4373    0.0000 C   0  0
   11.2544  -28.0248    0.0000 C   0  0
   11.9689  -28.4373    0.0000 C   0  0
   12.6833  -28.0248    0.0000 N   0  0
   12.6833  -27.1998    0.0000 C   0  0
   13.3978  -28.4373    0.0000 C   0  0
   13.3978  -29.2623    0.0000 C   0  0
   14.1122  -29.6748    0.0000 C   0  0
   14.1122  -30.4998    0.0000 C   0  0
   13.3955  -30.9104    0.0000 C   0  0
   13.3952  -31.7346    0.0000 C   0  0
   14.1102  -32.1480    0.0000 C   0  0
   14.8271  -31.7311    0.0000 C   0  0
   14.8240  -30.9082    0.0000 C   0  0
    8.5150  -32.6920    0.0000 Cl  0  0
   10.9313  -31.8804    0.0000 Cl  0  0
   10.6955  -33.3830    0.0000 Cl  0  0
  1  2  2  0
  2  3  1  0
  3  4  2  0
  4  5  1  0
  5  6  2  0
  6  1  1  0
  5  7  1  0
  7  8  1  0
  8  9  1  0
  9 10  1  0
 10 11  1  0
 11 12  1  0
 12 13  1  0
 13 14  1  0
 14 15  1  0
 15 16  1  0
 16 17  1  0
 17 18  1  0
 17 22  1  0
 18 19  1  0
 19 20  1  0
 20 21  1  0
 21 22  1  0
 20 23  1  0
 23 24  1  0
 24 25  1  0
 25 26  1  0
 26 27  1  0
 27 28  1  0
 27 29  1  0
 29 30  1  0
 30 31  1  0
 31 32  1  0
 32 33  2  0
 33 34  1  0
 34 35  2  0
 35 36  1  0
 36 37  2  0
 37 32  1  0
M  END