
  SciTegic10311316262D

 29 31  0  0  0  0            999 V2000
    1.4055  -27.2332    0.0000 C   0  0
    1.4043  -28.0606    0.0000 C   0  0
    2.1191  -28.4734    0.0000 C   0  0
    2.8356  -28.0601    0.0000 C   0  0
    2.8327  -27.2296    0.0000 C   0  0
    2.1173  -26.8204    0.0000 C   0  0
    3.5456  -26.8144    0.0000 N   0  0
    4.2617  -27.2242    0.0000 C   0  0
    4.9746  -26.8090    0.0000 C   0  0
    4.2648  -28.0492    0.0000 O   0  0
    5.6906  -27.2188    0.0000 S   0  0
    6.4035  -26.8036    0.0000 C   0  0
    7.1194  -27.2166    0.0000 N   0  0
    7.8302  -26.8049    0.0000 C   0  0
    7.8313  -25.9795    0.0000 C   0  0
    7.1155  -25.5675    0.0000 C   0  0
    6.3985  -25.9809    0.0000 N   0  0
    7.1152  -24.7425    0.0000 O   0  0
    8.5465  -25.5713    0.0000 C   0  0
    9.2610  -25.1588    0.0000 N   0  0
    8.5430  -27.2165    0.0000 C   0  0
    8.5416  -28.0426    0.0000 C   0  0
    9.2553  -28.4551    0.0000 C   0  0
    9.9707  -28.0425    0.0000 C   0  0
    9.9681  -27.2133    0.0000 C   0  0
    9.2539  -26.8046    0.0000 C   0  0
   10.6857  -28.4541    0.0000 Cl  0  0
    0.6909  -26.8209    0.0000 Cl  0  0
    0.6895  -28.4725    0.0000 F   0  0
  1  2  2  0
  2  3  1  0
  3  4  2  0
  4  5  1  0
  5  6  2  0
  6  1  1  0
  5  7  1  0
  7  8  1  0
  8  9  1  0
  8 10  2  0
  9 11  1  0
 11 12  1  0
 12 13  2  0
 12 17  1  0
 13 14  1  0
 14 15  2  0
 15 16  1  0
 16 17  1  0
 16 18  2  0
 19 20  3  0
 15 19  1  0
 21 22  2  0
 22 23  1  0
 23 24  2  0
 24 25  1  0
 25 26  2  0
 26 21  1  0
 14 21  1  0
 24 27  1  0
  1 28  1  0
  2 29  1  0
M  END