
  CDK    9/16/09,10:2

 26 28  0  0  0  0  0  0  0  0999 V2000
   -3.4476  -24.3038    0.0000 C   0  0  0  0  0  0  0  0  0  0  0  0
   -3.7081  -25.0891    0.0000 C   0  0  0  0  0  0  0  0  0  0  0  0
   -3.1587  -25.7052    0.0000 C   0  0  0  0  0  0  0  0  0  0  0  0
   -2.3488  -25.5372    0.0000 C   0  0  0  0  0  0  0  0  0  0  0  0
   -2.6423  -24.1349    0.0000 C   0  0  0  0  0  0  0  0  0  0  0  0
   -2.0883  -24.7501    0.0000 C   0  0  0  0  0  0  0  0  0  0  0  0
   -1.3321  -24.4134    0.0000 C   0  0  0  0  0  0  0  0  0  0  0  0
   -1.4186  -23.5900    0.0000 O   0  0  0  0  0  0  0  0  0  0  0  0
   -2.2284  -23.4181    0.0000 C   0  0  0  0  0  0  0  0  0  0  0  0
   -2.5640  -22.6644    0.0000 O   0  0  0  0  0  0  0  0  0  0  0  0
   -3.9969  -23.6882    0.0000 O   0  0  0  0  0  0  0  0  0  0  0  0
   -3.7385  -22.9048    0.0000 C   0  0  0  0  0  0  0  0  0  0  0  0
   -4.5159  -25.2562    0.0000 O   0  0  0  0  0  0  0  0  0  0  0  0
   -5.0601  -24.6416    0.0000 C   0  0  0  0  0  0  0  0  0  0  0  0
   -0.6176  -24.8258    0.0000 C   0  0  0  0  0  0  0  0  0  0  0  0
   -0.6176  -25.6508    0.0000 C   0  0  0  0  0  0  0  0  0  0  0  0
    0.0968  -24.4133    0.0000 C   0  0  0  0  0  0  0  0  0  0  0  0
    0.8113  -24.8258    0.0000 C   0  0  0  0  0  0  0  0  0  0  0  0
    0.0968  -23.5883    0.0000 O   0  0  0  0  0  0  0  0  0  0  0  0
    0.8062  -25.6495    0.0000 C   0  0  0  0  0  0  0  0  0  0  0  0
    1.5198  -26.0619    0.0000 C   0  0  0  0  0  0  0  0  0  0  0  0
    2.2353  -25.6493    0.0000 C   0  0  0  0  0  0  0  0  0  0  0  0
    2.2326  -24.8200    0.0000 C   0  0  0  0  0  0  0  0  0  0  0  0
    1.5184  -24.4114    0.0000 C   0  0  0  0  0  0  0  0  0  0  0  0
    1.5194  -26.8869    0.0000 O   0  0  0  0  0  0  0  0  0  0  0  0
    2.9503  -26.0608    0.0000 O   0  0  0  0  0  0  0  0  0  0  0  0
  2  3  1  0  0  0  0 
  2 13  1  0  0  0  0 
  1  2  2  0  0  0  0 
 13 14  1  0  0  0  0 
  3  4  2  0  0  0  0 
  7 15  1  0  0  0  0 
  4  6  1  0  0  0  0 
 15 16  1  0  0  0  0 
  6  7  1  0  0  0  0 
 15 17  1  0  0  0  0 
  7  8  1  0  0  0  0 
 17 18  1  0  0  0  0 
  8  9  1  0  0  0  0 
 17 19  2  0  0  0  0 
  9  5  1  0  0  0  0 
 18 20  2  0  0  0  0 
  5  1  1  0  0  0  0 
 20 21  1  0  0  0  0 
  9 10  2  0  0  0  0 
 21 22  2  0  0  0  0 
  5  6  2  0  0  0  0 
 22 23  1  0  0  0  0 
  1 11  1  0  0  0  0 
 23 24  2  0  0  0  0 
 24 18  1  0  0  0  0 
 21 25  1  0  0  0  0 
 11 12  1  0  0  0  0 
 22 26  1  0  0  0  0 
M  END