
  SciTegic10301317112D

 34 34  0  0  0  0            999 V2000
    2.1906   -4.2521    0.0000 S   0  0
    5.4765   -4.2396    0.0000 C   0  0
    3.0110   -4.2521    0.0000 C   0  0
   13.1852   -8.0086    0.0000 C   0  0
   11.8192   -7.5963    0.0000 N   0  0
   10.9946   -7.6005    0.0000 C   0  0
    5.8971   -4.9518    0.0000 N   0  0
   12.3856   -8.1960    0.0000 C   0  0  1  0  0  0
    2.1864   -5.0767    0.0000 O   0  0
    2.1906   -3.4275    0.0000 O   0  0
    7.1382   -5.6514    0.0000 C   0  0
    9.2704   -6.2261    0.0000 C   0  0
   12.4814  -10.3741    0.0000 C   0  0
    4.6519   -4.2396    0.0000 C   0  0
    1.3618   -4.2479    0.0000 N   0  0
    9.7494   -6.8966    0.0000 N   0  0
    7.9628   -5.6514    0.0000 N   0  0
    5.8888   -3.5233    0.0000 O   0  0
   13.4226   -7.2131    0.0000 O   0  0
   10.5865   -8.3209    0.0000 O   0  0
    6.7259   -6.3719    0.0000 O   0  0
    9.5995   -5.4765    0.0000 O   0  0
   13.0478  -10.9738    0.0000 O   0  0
    3.4150   -3.5400    0.0000 C   0  0
    3.4275   -4.9643    0.0000 C   0  0
    4.2479   -4.9601    0.0000 C   0  0
    4.2354   -3.5275    0.0000 C   0  0
   12.1482   -8.9873    0.0000 C   0  0
    6.7217   -4.9393    0.0000 C   0  0
   10.5740   -6.8883    0.0000 C   0  0
    8.4500   -6.3136    0.0000 C   0  0
   12.7187   -9.5870    0.0000 C   0  0
   11.6735  -10.5615    0.0000 N   0  0
   13.7557   -8.6000    0.0000 O   0  0
  2 14  1  0
  3  1  1  0
  4  8  1  0
  5  6  1  0
  6 30  1  0
  7  2  1  0
  8  5  1  0
  9  1  2  0
 10  1  2  0
 11 29  1  0
 12 31  1  0
 13 32  1  0
 14 26  2  0
 15  1  1  0
 16 12  1  0
 17 11  1  0
 18  2  2  0
 19  4  2  0
 20  6  2  0
 21 11  2  0
 22 12  2  0
 23 13  2  0
 24  3  1  0
 25  3  2  0
 26 25  1  0
 27 24  2  0
  8 28  1  6
 29  7  1  0
 30 16  1  0
 31 17  1  0
 32 28  1  0
 33 13  1  0
 34  4  1  0
 14 27  1  0
M  END