
  SciTegic01161211232D

 11 11  0  0  0  0            999 V2000
   -5.3846    1.0607    0.0000 C   0  0
   -6.0991    1.4732    0.0000 O   0  0
   -6.8136    1.0607    0.0000 C   0  0  2  0  0  0
   -6.8136    0.2357    0.0000 C   0  0  2  0  0  0
   -6.0991   -0.1768    0.0000 C   0  0  2  0  0  0
   -5.3846    0.2357    0.0000 C   0  0  2  0  0  0
   -7.5281    1.4732    0.0000 C   0  0
   -7.5281   -0.1768    0.0000 O   0  0
   -6.0991   -1.0018    0.0000 O   0  0
   -4.6701    1.4732    0.0000 O   0  0
   -4.6702   -0.1768    0.0000 O   0  0
  1  2  1  0
  6  1  1  0
  2  3  1  0
  3  4  1  0
  4  5  1  0
  5  6  1  0
  3  7  1  6
  4  8  1  6
  5  9  1  6
  1 10  1  0
  6 11  1  1
M  END