
          02060813472D 1   1.00000     0.00000     0

 29 31  0     1  0            999 V2000
   -4.3668   -3.9185    0.0000 N   0  0  0  0  0  0           0  0  0
   -4.4715   -3.1001    0.0000 C   0  0  2  0  0  0           0  0  0
   -3.8152   -2.6003    0.0000 C   0  0  0  0  0  0           0  0  0
   -5.2326   -2.7817    0.0000 C   0  0  0  0  0  0           0  0  0
   -3.0289   -2.8413    0.0000 N   0  0  0  0  0  0           0  0  0
   -2.5585   -2.1624    0.0000 C   0  0  0  0  0  0           0  0  0
   -3.0601   -1.5060    0.0000 C   0  0  0  0  0  0           0  0  0
   -3.8388   -1.7814    0.0000 O   0  0  0  0  0  0           0  0  0
   -1.7337   -2.1432    0.0000 C   0  0  0  0  0  0           0  0  0
   -1.3047   -2.8479    0.0000 N   0  0  3  0  0  0           0  0  0
   -1.3380   -1.4193    0.0000 O   0  0  0  0  0  0           0  0  0
   -1.6199   -3.6118    0.0000 C   0  0  0  0  0  0           0  0  0
   -0.9941   -4.1494    0.0000 C   0  0  0  0  0  0           0  0  0
   -0.4798   -2.9177    0.0000 C   0  0  2  0  0  0           0  0  0
    0.0587   -2.2926    0.0000 C   0  0  0  0  0  0           0  0  0
    0.8693   -2.4460    0.0000 N   0  0  0  0  0  0           0  0  0
   -0.2134   -1.5138    0.0000 O   0  0  0  0  0  0           0  0  0
    1.2751   -3.1643    0.0000 C   0  0  2  0  0  0           0  0  0
    2.1001   -3.1719    0.0000 C   0  0  0  0  0  0           0  0  0
    0.8560   -3.8748    0.0000 C   0  0  0  0  0  0           0  0  0
   -0.2077   -3.6965    0.0000 C   0  0  0  0  0  0           0  0  0
    1.2618   -4.5931    0.0000 C   0  0  0  0  0  0           0  0  0
    2.5059   -3.8902    0.0000 O   0  0  0  0  0  0           0  0  0
    2.5192   -2.4613    0.0000 O   0  0  0  0  0  0           0  0  0
    0.8398   -5.3033    0.0000 C   0  0  0  0  0  0           0  0  0
    1.2450   -6.0211    0.0000 C   0  0  0  0  0  0           0  0  0
    2.0708   -6.0292    0.0000 C   0  0  0  0  0  0           0  0  0
    2.4898   -5.3136    0.0000 C   0  0  0  0  0  0           0  0  0
    2.0823   -4.5987    0.0000 C   0  0  0  0  0  0           0  0  0
 21 14  1  0     0  0
 14 10  1  0     0  0
  6  7  2  0     0  0
 14 15  1  6     0  0
  7  8  1  0     0  0
 15 16  1  0     0  0
  8  3  1  0     0  0
 15 17  2  0     0  0
  5  6  1  0     0  0
 16 18  1  0     0  0
  6  9  1  0     0  0
 18 19  1  0     0  0
 18 20  1  6     0  0
  9 10  1  0     0  0
  2  3  1  0     0  0
 20 22  1  0     0  0
  9 11  2  0     0  0
 19 23  1  0     0  0
 10 12  1  0     0  0
 19 24  2  0     0  0
  1  2  1  0     0  0
 22 25  2  0     0  0
  2  4  1  1     0  0
 25 26  1  0     0  0
  3  5  2  0     0  0
 26 27  2  0     0  0
 12 13  1  0     0  0
 27 28  1  0     0  0
 13 21  1  0     0  0
 28 29  2  0     0  0
 29 22  1  0     0  0
M  END