
  SciTegic12131615192D

 35 36  0  0  0  0            999 V2000
   -3.8990    0.7455    0.0000 C   0  0
   -5.2003    1.4932    0.0000 C   0  0
   -6.4990    0.7409    0.0000 C   0  0
   -7.8003    1.4887    0.0000 C   0  0
   -9.0990    0.7364    0.0000 C   0  0
  -10.4003    1.4841    0.0000 C   0  0
  -11.6990    0.7318    0.0000 C   0  0
   -2.6003    1.4977    0.0000 O   0  0
  -13.0003    1.4796    0.0000 O   0  0
    2.5973   -1.5031    0.0000 C   0  0
    1.2990   -0.7500    0.0000 C   0  0
    1.2990    0.7500    0.0000 C   0  0
    0.0000    1.5000    0.0000 C   0  0
   -1.2990    0.7500    0.0000 C   0  0
   -1.2990   -0.7500    0.0000 C   0  0
    0.0000   -1.5000    0.0000 C   0  0
    3.6375   -0.9049    0.0000 N   0  0
    2.5951   -3.0039    0.0000 N   0  0
    3.8933   -3.7570    0.0000 C   0  0
    3.8912   -5.2578    0.0000 N   0  0
    4.9336   -3.1588    0.0000 O   0  0
    4.9292   -5.8600    0.0000 C   0  0
  -18.1875   -1.5393    0.0000 C   0  0
  -16.8919   -0.7817    0.0000 C   0  0
  -16.8971    0.7183    0.0000 C   0  0
  -15.6006    1.4727    0.0000 C   0  0
  -14.2989    0.7273    0.0000 C   0  0
  -14.2938   -0.7727    0.0000 C   0  0
  -15.5902   -1.5272    0.0000 C   0  0
  -19.2298   -0.9447    0.0000 N   0  0
  -18.1801   -3.0401    0.0000 N   0  0
  -19.4757   -3.7977    0.0000 C   0  0
  -19.4684   -5.2985    0.0000 N   0  0
  -20.5181   -3.2031    0.0000 O   0  0
  -20.5043   -5.9043    0.0000 C   0  0
  1  2  1  0
  2  3  1  0
  3  4  1  0
  4  5  1  0
  5  6  1  0
  6  7  1  0
  1  8  1  0
  7  9  1  0
 10 11  1  0
 11 12  1  0
 12 13  2  0
 13 14  1  0
 14 15  2  0
 15 16  1  0
 11 16  2  0
 10 17  2  0
 10 18  1  0
 19 20  1  0
 19 21  2  0
 20 22  1  0
 18 19  1  0
  8 14  1  0
 23 24  1  0
 24 25  1  0
 25 26  2  0
 26 27  1  0
 27 28  2  0
 28 29  1  0
 24 29  2  0
 23 30  2  0
 23 31  1  0
 32 33  1  0
 32 34  2  0
 33 35  1  0
 31 32  1  0
  9 27  1  0
M  END