
  SciTegic02011310462D

 31 34  0  0  0  0            999 V2000
   14.4026  -22.2210    0.0000 C   0  0
   14.4015  -23.0405    0.0000 C   0  0
   15.1095  -23.4495    0.0000 C   0  0
   15.1077  -21.8121    0.0000 C   0  0
   15.8163  -22.2174    0.0000 C   0  0
   15.8152  -23.0380    0.0000 C   0  0
   16.5214  -23.4471    0.0000 N   0  0
   17.2333  -23.0400    0.0000 C   0  0  2  0  0  0
   17.2344  -22.2194    0.0000 C   0  0
   16.5237  -21.8058    0.0000 C   0  0  1  0  0  0
   16.5237  -20.9886    0.0000 N   0  0
   17.2314  -20.5800    0.0000 C   0  0
   17.9371  -20.9909    0.0000 C   0  0
   18.6444  -20.5830    0.0000 C   0  0
   18.6448  -19.7650    0.0000 C   0  0
   17.9322  -19.3565    0.0000 C   0  0
   17.2278  -19.7668    0.0000 C   0  0
   19.3520  -19.3554    0.0000 Cl  0  0
   17.9398  -23.4506    0.0000 C   0  0
   13.6969  -21.8127    0.0000 C   0  0
   13.6980  -20.9944    0.0000 C   0  0
   12.9910  -20.5861    0.0000 C   0  0
   12.2825  -20.9949    0.0000 C   0  0
   12.2853  -21.8163    0.0000 C   0  0
   12.9928  -22.2209    0.0000 C   0  0
   11.5741  -20.5874    0.0000 C   0  0
   11.5728  -19.7702    0.0000 O   0  0
   10.8670  -20.9971    0.0000 O   0  0
   16.5191  -24.2642    0.0000 C   0  0
   15.8102  -24.6709    0.0000 C   0  0
   17.2257  -24.6748    0.0000 O   0  0
  1  2  2  0
  2  3  1  0
  3  6  2  0
  5  4  2  0
  4  1  1  0
  5  6  1  0
  5 10  1  0
  6  7  1  0
  7  8  1  0
  8  9  1  0
  9 10  1  0
 10 11  1  6
 11 12  1  0
 12 13  2  0
 13 14  1  0
 14 15  2  0
 15 16  1  0
 16 17  2  0
 17 12  1  0
 15 18  1  0
  8 19  1  6
 20 21  2  0
 21 22  1  0
 22 23  2  0
 23 24  1  0
 24 25  2  0
 25 20  1  0
  1 20  1  0
 23 26  1  0
 26 27  2  0
 26 28  1  0
  7 29  1  0
 29 30  1  0
 29 31  2  0
M  END