
          11280715222D 1   1.00000     0.00000     0

 19 21  0     0  0            999 V2000
    9.2103   -0.1832    0.0000 C   0  0  0  0  0  0           0  0  0
    9.2092   -1.0102    0.0000 C   0  0  0  0  0  0           0  0  0
    9.9237   -1.4227    0.0000 C   0  0  0  0  0  0           0  0  0
    9.9219    0.2294    0.0000 C   0  0  0  0  0  0           0  0  0
   10.6369   -0.1796    0.0000 C   0  0  0  0  0  0           0  0  0
   10.6418   -1.0102    0.0000 C   0  0  0  0  0  0           0  0  0
   11.4332   -1.2622    0.0000 N   0  0  0  0  0  0           0  0  0
   11.9175   -0.5874    0.0000 C   0  0  0  0  0  0           0  0  0
   11.4253    0.0817    0.0000 N   0  0  0  0  0  0           0  0  0
   12.7421   -0.5825    0.0000 C   0  0  0  0  0  0           0  0  0
   13.1586   -1.2941    0.0000 O   0  0  0  0  0  0           0  0  0
   13.1502    0.1340    0.0000 N   0  0  3  0  0  0           0  0  0
   13.9719    0.1337    0.0000 C   0  0  0  0  0  0           0  0  0
   14.3799    0.8462    0.0000 C   0  0  0  0  0  0           0  0  0
   13.9669    1.5603    0.0000 N   0  0  3  0  0  0           0  0  0
   13.1414    1.5574    0.0000 C   0  0  0  0  0  0           0  0  0
   12.7289    0.8404    0.0000 C   0  0  0  0  0  0           0  0  0
   14.3777    2.2752    0.0000 C   0  0  0  0  0  0           0  0  0
    8.4962    0.2289    0.0000 F   0  0  0  0  0  0           0  0  0
  9  5  1  0     0  0
  4  1  2  0     0  0
  8 10  1  0     0  0
  5  6  2  0     0  0
 10 11  2  0     0  0
 10 12  1  0     0  0
 12 13  1  0     0  0
  2  3  2  0     0  0
  3  6  1  0     0  0
  1  2  1  0     0  0
  5  4  1  0     0  0
  6  7  1  0     0  0
 12 17  1  0     0  0
 13 14  1  0     0  0
 14 15  1  0     0  0
 15 16  1  0     0  0
 16 17  1  0     0  0
  7  8  1  0     0  0
 15 18  1  0     0  0
  8  9  2  0     0  0
  1 19  1  0     0  0
M  END