
  CDK    6/4/10,11:41

 23 22  0  0  0  0  0  0  0  0999 V2000
    4.0539  -17.8450    0.0000 C   0  0  0  0  0  0  0  0  0  0  0  0
    4.7834  -18.2354    0.0000 C   0  0  0  0  0  0  0  0  0  0  0  0
    5.4841  -17.7990    0.0000 N   0  0  0  0  0  0  0  0  0  0  0  0
    5.4566  -16.9723    0.0000 C   0  0  0  0  0  0  0  0  0  0  0  0
    4.7224  -16.5840    0.0000 C   0  0  0  0  0  0  0  0  0  0  0  0
    4.0247  -17.0227    0.0000 C   0  0  0  0  0  0  0  0  0  0  0  0
    6.2058  -18.1931    0.0000 C   0  0  0  0  0  0  0  0  0  0  0  0
    3.2957  -16.6366    0.0000 C   0  0  0  0  0  0  0  0  0  0  0  0
    3.2655  -15.8121    0.0000 N   0  0  0  0  0  0  0  0  0  0  0  0
    2.5968  -17.0749    0.0000 O   0  0  0  0  0  0  0  0  0  0  0  0
    6.9103  -17.7637    0.0000 O   0  0  0  0  0  0  0  0  0  0  0  0
    7.6344  -18.1591    0.0000 C   0  0  0  0  0  0  0  0  0  0  0  0
    8.3388  -17.7297    0.0000 N   0  0  0  0  0  0  0  0  0  0  0  0
    9.0612  -18.1275    0.0000 C   0  0  0  0  0  0  0  0  0  0  0  0
    9.7652  -17.6989    0.0000 C   0  0  0  0  0  0  0  0  0  0  0  0
    9.7460  -16.8732    0.0000 C   0  0  0  0  0  0  0  0  0  0  0  0
    9.0169  -16.4781    0.0000 C   0  0  0  0  0  0  0  0  0  0  0  0
    8.3159  -16.9091    0.0000 C   0  0  0  0  0  0  0  0  0  0  0  0
    9.0792  -18.9524    0.0000 C   0  0  0  0  0  0  0  0  0  0  0  0
    9.8024  -19.3492    0.0000 N   0  0  0  0  0  0  0  0  0  0  0  0
    9.8204  -20.1740    0.0000 O   0  0  0  0  0  0  0  0  0  0  0  0
    6.2188  -15.8438    0.0000 Cl  0  0  0  0  0  0  0  0  0  0  0  0
    8.4062  -15.9687    0.0000 Cl  0  0  0  0  0  0  0  0  0  0  0  0
  2  3  1  0  0  0  0 
  7 11  1  0  0  0  0 
  5  6  2  0  0  0  0 
 11 12  1  0  0  0  0 
  6  1  1  0  0  0  0 
 12 13  1  0  0  0  0 
  1  2  2  0  0  0  0 
 13 14  2  0  0  0  0 
  3  7  1  0  0  0  0 
 14 15  1  0  0  0  0 
  3  4  2  0  0  0  0 
 15 16  2  0  0  0  0 
  6  8  1  0  0  0  0 
 16 17  1  0  0  0  0 
 17 18  2  0  0  0  0 
 18 13  1  0  0  0  0 
  8  9  1  0  0  0  0 
 14 19  1  0  0  0  0 
  4  5  1  0  0  0  0 
 19 20  2  0  0  0  0 
  8 10  2  0  0  0  0 
 20 21  1  0  0  0  0 
M  CHG  1   3   1
M  CHG  1  13   1
M  CHG  1  22  -1
M  CHG  1  23  -1
M  END