
          11280715482D 1   1.00000     0.00000     0

 23 23  0     0  0            999 V2000
    6.3750   -2.5917    0.0000 C   0  0  0  0  0  0           0  0  0
    5.5500   -2.5917    0.0000 C   0  0  0  0  0  0           0  0  0
    6.3750   -5.4542    0.0000 N   0  3  3  0  0  0           0  0  0
    6.7875   -1.8792    0.0000 O   0  0  0  0  0  0           0  0  0
    5.1375   -1.8792    0.0000 C   0  0  0  0  0  0           0  0  0
    5.1375   -3.3042    0.0000 C   0  0  0  0  0  0           0  0  0
    6.7875   -3.3042    0.0000 O   0  0  0  0  0  0           0  0  0
    3.8917   -2.5917    0.0000 C   0  0  0  0  0  0           0  0  0
    3.0667   -2.5917    0.0000 N   0  0  0  0  0  0           0  0  0
    4.3042   -3.3042    0.0000 C   0  0  0  0  0  0           0  0  0
    4.3042   -1.8792    0.0000 C   0  0  0  0  0  0           0  0  0
    6.3750   -4.0250    0.0000 C   0  0  0  0  0  0           0  0  0
    6.7875   -4.7417    0.0000 C   0  0  0  0  0  0           0  0  0
    5.9542   -6.1792    0.0000 C   0  0  0  0  0  0           0  0  0
    7.0917   -5.8750    0.0000 C   0  0  0  0  0  0           0  0  0
    5.6542   -5.0417    0.0000 C   0  0  0  0  0  0           0  0  0
    2.6542   -1.8792    0.0000 C   0  0  0  0  0  0           0  0  0
    5.1292   -6.1792    0.0000 C   0  0  0  0  0  0           0  0  0
    1.8292   -1.8792    0.0000 C   0  0  0  0  0  0           0  0  0
    1.4167   -1.1667    0.0000 C   0  0  0  0  0  0           0  0  0
    4.7167   -6.8917    0.0000 C   0  0  0  0  0  0           0  0  0
    0.5875   -1.1667    0.0000 C   0  0  0  0  0  0           0  0  0
    3.8875   -6.8917    0.0000 C   0  0  0  0  0  0           0  0  0
  2  1  1  0     0  0
  3 13  1  0     0  0
  4  1  2  0     0  0
  5  2  2  0     0  0
  6  2  1  0     0  0
  7  1  1  0     0  0
  8 10  1  0     0  0
  9  8  1  0     0  0
 10  6  2  0     0  0
 11  5  1  0     0  0
 12  7  1  0     0  0
 13 12  1  0     0  0
 14  3  1  0     0  0
 15  3  1  0     0  0
 16  3  1  0     0  0
 17  9  1  0     0  0
 18 14  1  0     0  0
 19 17  1  0     0  0
 20 19  1  0     0  0
 21 18  1  0     0  0
 22 20  1  0     0  0
 23 21  1  0     0  0
 11  8  2  0     0  0
M  CHG  1   3   1
M  END