
          05080814032D 1   1.00000     0.00000     0

 34 38  0     0  0            999 V2000
   -4.3723    1.4667    0.0000 C   0  0  0  0  0  0           0  0  0
   -4.3734    0.6393    0.0000 C   0  0  0  0  0  0           0  0  0
   -3.6586    0.2265    0.0000 C   0  0  0  0  0  0           0  0  0
   -3.6604    1.8795    0.0000 C   0  0  0  0  0  0           0  0  0
   -2.9450    1.4703    0.0000 C   0  0  0  0  0  0           0  0  0
   -2.9448    0.6439    0.0000 C   0  0  0  0  0  0           0  0  0
   -2.1587    0.3887    0.0000 N   0  0  3  0  0  0           0  0  0
   -1.6730    1.0575    0.0000 C   0  0  0  0  0  0           0  0  0
   -2.1591    1.7259    0.0000 N   0  0  0  0  0  0           0  0  0
   -3.6568   -0.6008    0.0000 C   0  0  0  0  0  0           0  0  0
   -4.3701   -1.0152    0.0000 O   0  0  0  0  0  0           0  0  0
   -2.9412   -1.0114    0.0000 O   0  0  0  0  0  0           0  0  0
   -1.9035   -0.3958    0.0000 C   0  0  0  0  0  0           0  0  0
   -1.0965   -0.5671    0.0000 C   0  0  0  0  0  0           0  0  0
   -0.8432   -1.3529    0.0000 C   0  0  0  0  0  0           0  0  0
   -0.0370   -1.5244    0.0000 C   0  0  0  0  0  0           0  0  0
    0.5158   -0.9108    0.0000 C   0  0  0  0  0  0           0  0  0
    0.2568   -0.1230    0.0000 C   0  0  0  0  0  0           0  0  0
   -0.5488    0.0447    0.0000 C   0  0  0  0  0  0           0  0  0
    1.3231   -1.0810    0.0000 N   0  0  3  0  0  0           0  0  0
    1.6607   -1.8310    0.0000 C   0  0  0  0  0  0           0  0  0
    2.4810   -1.7435    0.0000 C   0  0  0  0  0  0           0  0  0
    2.6513   -0.9362    0.0000 C   0  0  0  0  0  0           0  0  0
    1.9361   -0.5249    0.0000 C   0  0  0  0  0  0           0  0  0
    1.8488    0.2910    0.0000 C   0  0  0  0  0  0           0  0  0
    2.4604    0.8447    0.0000 N   0  0  0  0  0  0           0  0  0
    2.1228    1.5975    0.0000 N   0  0  0  0  0  0           0  0  0
    1.3025    1.5090    0.0000 N   0  0  0  0  0  0           0  0  0
    1.1333    0.7015    0.0000 N   0  0  0  0  0  0           0  0  0
   -4.3679   -1.8402    0.0000 C   0  0  0  0  0  0           0  0  0
   -0.8480    1.0578    0.0000 C   0  0  0  0  0  0           0  0  0
   -0.4358    1.7724    0.0000 C   0  0  0  0  0  0           0  0  0
   -0.8486    2.4868    0.0000 C   0  0  0  0  0  0           0  0  0
   -0.4363    3.2014    0.0000 C   0  0  0  0  0  0           0  0  0
  6  7  1  0     0  0
 16 17  2  0     0  0
  7  8  1  0     0  0
 17 18  1  0     0  0
  8  9  2  0     0  0
 18 19  2  0     0  0
 19 14  1  0     0  0
  9  5  1  0     0  0
 17 20  1  0     0  0
 20 21  1  0     0  0
  4  1  1  0     0  0
  5  6  1  0     0  0
 10 11  1  0     0  0
 21 22  2  0     0  0
 22 23  1  0     0  0
 23 24  2  0     0  0
 24 20  1  0     0  0
 25 26  1  0     0  0
 10 12  2  0     0  0
  3 10  1  0     0  0
  2  3  1  0     0  0
  7 13  1  0     0  0
  3  6  2  0     0  0
 26 27  1  0     0  0
 27 28  2  0     0  0
 28 29  1  0     0  0
 29 25  2  0     0  0
 24 25  1  0     0  0
 13 14  1  0     0  0
 11 30  1  0     0  0
  1  2  2  0     0  0
  8 31  1  0     0  0
 14 15  2  0     0  0
 31 32  1  0     0  0
  5  4  2  0     0  0
 32 33  1  0     0  0
 15 16  1  0     0  0
 33 34  1  0     0  0
M  END