
  SciTegic11201309402D

 26 27  0  0  1  0            999 V2000
    4.0875   -1.8250    0.0000 N   0  0
    3.3750   -2.2292    0.0000 C   0  0
    5.5167   -1.8292    0.0000 C   0  0
    6.9500   -1.0042    0.0000 C   0  0
    4.8000   -2.2375    0.0000 C   0  0
    7.6542   -2.2500    0.0000 C   0  0
    6.9417   -0.1792    0.0000 C   0  0
    8.3750   -1.8417    0.0000 C   0  0
    6.2292   -2.2417    0.0000 N   0  0
    6.9417   -1.8292    0.0000 C   0  0  2  0  0  0
    3.3667   -3.0542    0.0000 O   0  0
    2.6667   -1.8167    0.0000 C   0  0  2  0  0  0
   -0.9083   -3.0500    0.0000 N   0  0
    5.5167   -1.0042    0.0000 O   0  0
    8.3792   -1.0167    0.0000 O   0  0
    1.9500   -2.2292    0.0000 C   0  0
    4.0917   -1.0000    0.0000 C   0  0
    9.0875   -2.2542    0.0000 O   0  0
    1.2375   -1.8167    0.0000 C   0  0
    3.3792   -0.5792    0.0000 C   0  0
    0.5167   -2.2292    0.0000 C   0  0
   -0.9083   -2.2250    0.0000 C   0  0
   -0.1958   -3.4667    0.0000 C   0  0
    2.6542   -0.9917    0.0000 C   0  0
   -0.1958   -1.8167    0.0000 C   0  0
    0.5250   -3.0542    0.0000 C   0  0
  2  1  1  0
  3  5  1  0
 10  4  1  6
  5  1  1  0
  6 10  1  0
  7  4  3  0
  8  6  1  0
  9  3  1  0
 10  9  1  0
 11  2  2  0
 12  2  1  0
 13 23  1  0
 14  3  2  0
 15  8  2  0
 12 16  1  6
 17  1  1  0
 18  8  1  0
 19 16  1  0
 20 17  1  0
 21 19  1  0
 22 25  1  0
 23 26  1  0
 24 20  1  0
 25 21  1  0
 26 21  1  0
 12 24  1  0
 13 22  1  0
M  END