
          11280714582D 1   1.00000     0.00000     0

 37 41  0     0  0            999 V2000
    5.8167   -3.8042    0.0000 C   0  0  0  0  0  0           0  0  0
    5.1042   -4.2167    0.0000 C   0  0  0  0  0  0           0  0  0
    4.3875   -8.7542    0.0000 C   0  0  0  0  0  0           0  0  0
    3.6292   -9.0875    0.0000 N   0  0  0  0  0  0           0  0  0
    3.0792   -8.4750    0.0000 N   0  0  0  0  0  0           0  0  0
    4.3000   -7.9292    0.0000 N   0  0  0  0  0  0           0  0  0
    3.4917   -7.7625    0.0000 N   0  0  0  0  0  0           0  0  0
    6.5375   -4.2167    0.0000 C   0  0  0  0  0  0           0  0  0
    5.1042   -9.1625    0.0000 C   0  0  0  0  0  0           0  0  0
    5.1042   -5.0417    0.0000 N   0  0  3  0  0  0           0  0  0
    4.3917   -3.8042    0.0000 N   0  0  0  0  0  0           0  0  0
    5.8167   -8.7500    0.0000 C   0  0  0  0  0  0           0  0  0
    7.2500   -3.8000    0.0000 C   0  0  0  0  0  0           0  0  0
    7.9667   -4.2125    0.0000 C   0  0  0  0  0  0           0  0  0
    5.8167   -2.9792    0.0000 C   0  0  0  0  0  0           0  0  0
    5.1042   -2.5667    0.0000 N   0  0  0  0  0  0           0  0  0
    4.3917   -2.9792    0.0000 C   0  0  0  0  0  0           0  0  0
    5.8167   -7.9292    0.0000 C   0  0  0  0  0  0           0  0  0
    5.8167   -5.4542    0.0000 C   0  0  0  0  0  0           0  0  0
    7.9667   -5.0375    0.0000 O   0  0  0  0  0  0           0  0  0
    7.2417   -2.9667    0.0000 C   0  0  0  0  0  0           0  0  0
    6.5292   -2.5625    0.0000 C   0  0  0  0  0  0           0  0  0
    6.5375   -7.5125    0.0000 C   0  0  0  0  0  0           0  0  0
    5.1042   -7.5167    0.0000 C   0  0  0  0  0  0           0  0  0
    5.8167   -6.2792    0.0000 C   0  0  0  0  0  0           0  0  0
    8.6792   -3.7917    0.0000 O   0  0  0  0  0  0           0  0  0
    5.1042   -6.6917    0.0000 C   0  0  0  0  0  0           0  0  0
    6.5292   -6.6917    0.0000 C   0  0  0  0  0  0           0  0  0
    4.3917   -5.4542    0.0000 C   0  0  0  0  0  0           0  0  0
    5.1042   -9.9875    0.0000 C   0  0  0  0  0  0           0  0  0
    6.5292   -9.1542    0.0000 C   0  0  0  0  0  0           0  0  0
    9.3917   -4.2042    0.0000 C   0  0  0  0  0  0           0  0  0
    3.6750   -5.0417    0.0000 C   0  0  0  0  0  0           0  0  0
    2.9625   -5.4542    0.0000 C   0  0  0  0  0  0           0  0  0
    5.8167  -10.4000    0.0000 C   0  0  0  0  0  0           0  0  0
    6.5375   -9.9792    0.0000 C   0  0  0  0  0  0           0  0  0
    2.2500   -5.0417    0.0000 C   0  0  0  0  0  0           0  0  0
  2  1  2  0     0  0
  3  9  1  0     0  0
  4  3  1  0     0  0
  5  4  2  0     0  0
  6  3  2  0     0  0
  7  6  1  0     0  0
  8  1  1  0     0  0
  9 12  2  0     0  0
 10  2  1  0     0  0
 11  2  1  0     0  0
 12 18  1  0     0  0
 13  8  2  0     0  0
 14 13  1  0     0  0
 15  1  1  0     0  0
 16 15  2  0     0  0
 17 16  1  0     0  0
 18 23  1  0     0  0
 19 10  1  0     0  0
 20 14  2  0     0  0
 21 22  2  0     0  0
 22 15  1  0     0  0
 23 28  2  0     0  0
 24 27  1  0     0  0
 25 19  1  0     0  0
 26 14  1  0     0  0
 27 25  2  0     0  0
 28 25  1  0     0  0
 29 10  1  0     0  0
 30  9  1  0     0  0
 31 12  1  0     0  0
 32 26  1  0     0  0
 33 29  1  0     0  0
 34 33  1  0     0  0
 35 36  1  0     0  0
 36 31  2  0     0  0
 37 34  1  0     0  0
 21 13  1  0     0  0
 17 11  2  0     0  0
 18 24  2  0     0  0
 35 30  2  0     0  0
  5  7  1  0     0  0
M  END