
          11280715342D 1   1.00000     0.00000     0

 33 36  0     0  0            999 V2000
    4.1042   -4.1167    0.0000 C   0  0  0  0  0  0           0  0  0
    3.3917   -3.7042    0.0000 C   0  0  0  0  0  0           0  0  0
    4.1042   -4.9417    0.0000 C   0  0  0  0  0  0           0  0  0
    3.3917   -0.4042    0.0000 C   0  0  3  0  0  0           0  0  0
    2.6792   -4.1167    0.0000 C   0  0  0  0  0  0           0  0  0
    6.2417   -3.6917    0.0000 C   0  0  0  0  0  0           0  0  0
    6.9542   -3.2792    0.0000 C   0  0  0  0  0  0           0  0  0
    3.3917   -5.3542    0.0000 C   0  0  3  0  0  0           0  0  0
    9.7917   -1.5917    0.0000 C   0  0  0  0  0  0           0  0  0
    3.3917   -2.8792    0.0000 C   0  0  0  0  0  0           0  0  0
    3.3917   -1.2292    0.0000 C   0  0  0  0  0  0           0  0  0
    4.8167   -5.3542    0.0000 C   0  0  0  0  0  0           0  0  0
    4.8167   -3.7042    0.0000 C   0  0  0  0  0  0           0  0  0
    2.6792   -4.9417    0.0000 C   0  0  0  0  0  0           0  0  0
    9.0792   -2.0167    0.0000 C   0  0  0  0  0  0           0  0  0
    5.5292   -4.1167    0.0000 C   0  0  0  0  0  0           0  0  0
    9.7792   -0.7667    0.0000 O   0  0  0  0  0  0           0  0  0
    2.6792   -2.4667    0.0000 C   0  0  0  0  0  0           0  0  0
    4.1042   -2.4667    0.0000 C   0  0  0  0  0  0           0  0  0
    4.1042   -1.6417    0.0000 C   0  0  0  0  0  0           0  0  0
    2.6792   -1.6417    0.0000 C   0  0  0  0  0  0           0  0  0
    7.6542   -2.8542    0.0000 C   0  0  0  0  0  0           0  0  0
    3.3917    0.4208    0.0000 F   0  0  0  0  0  0           0  0  0
    4.2167   -0.3917    0.0000 F   0  0  0  0  0  0           0  0  0
    2.5667   -0.4042    0.0000 F   0  0  0  0  0  0           0  0  0
    9.0792   -2.8417    0.0000 C   0  0  0  0  0  0           0  0  0
    8.3542   -1.6167    0.0000 C   0  0  0  0  0  0           0  0  0
    5.5292   -4.9417    0.0000 C   0  0  0  0  0  0           0  0  0
   10.5042   -2.0042    0.0000 O   0  0  0  0  0  0           0  0  0
    7.6417   -2.0417    0.0000 C   0  0  0  0  0  0           0  0  0
    8.3792   -3.2667    0.0000 C   0  0  0  0  0  0           0  0  0
    2.9792   -6.0667    0.0000 C   0  0  0  0  0  0           0  0  0
    3.8042   -6.0667    0.0000 C   0  0  0  0  0  0           0  0  0
  2  1  1  0     0  0
  3  1  2  0     0  0
  4 11  1  0     0  0
  5  2  2  0     0  0
  6 16  1  0     0  0
  7  6  3  0     0  0
  8  3  1  0     0  0
  9 15  1  0     0  0
 10  2  1  0     0  0
 11 20  2  0     0  0
 12  3  1  0     0  0
 13  1  1  0     0  0
 14  8  1  0     0  0
 15 26  2  0     0  0
 16 13  2  0     0  0
 17  9  2  0     0  0
 18 10  1  0     0  0
 19 10  2  0     0  0
 20 19  1  0     0  0
 21 18  2  0     0  0
 22  7  1  0     0  0
 23  4  1  0     0  0
 24  4  1  0     0  0
 25  4  1  0     0  0
 26 31  1  0     0  0
 27 30  2  0     0  0
 28 16  1  0     0  0
 29  9  1  0     0  0
 30 22  1  0     0  0
 31 22  2  0     0  0
 32  8  1  0     0  0
 33  8  1  0     0  0
 12 28  2  0     0  0
  5 14  1  0     0  0
 21 11  1  0     0  0
 15 27  1  0     0  0
M  END