
  SciTegic12171312552D

 62 69  0  0  0  0            999 V2000
   37.7093   -1.3964    0.0000 F   0  0
   37.9251   -0.6040    0.0000 B   0  5
   37.1268   -0.8134    0.0000 F   0  0
   31.2036   -1.1389    0.0000 C   0  0
   31.9155   -0.7293    0.0000 C   0  0
   31.2023   -1.9645    0.0000 O   0  0
   32.6304   -1.1411    0.0000 O   0  0
   33.3466   -0.7315    0.0000 C   0  0
   34.0576   -1.1460    0.0000 C   0  0
   34.7732   -0.7371    0.0000 C   0  0
   34.7749    0.0932    0.0000 C   0  0
   34.0550    0.5071    0.0000 C   0  0
   33.3424    0.0928    0.0000 C   0  0
   35.4906    0.5082    0.0000 C   0  0
   36.2059    0.0935    0.0000 C   0  0
   36.9215    0.5085    0.0000 C   0  0
   37.8165    1.5037    0.0000 C   0  0
   37.0089    1.3342    0.0000 C   0  0
   38.2271    0.7923    0.0000 C   0  0
   37.6738    0.1762    0.0000 N   0  3
   39.0307    0.6196    0.0000 C   0  0
   39.2813   -0.1690    0.0000 C   0  0
   38.7360   -0.7809    0.0000 N   0  0
   39.1454   -1.4915    0.0000 C   0  0
   39.9480   -1.3163    0.0000 C   0  0
   40.0320   -0.5000    0.0000 C   0  0
   38.8177   -2.2498    0.0000 C   0  0
   38.0104   -2.4219    0.0000 S   0  0
   37.9259   -3.2431    0.0000 C   0  0
   38.6810   -3.5760    0.0000 C   0  0
   39.2296   -2.9605    0.0000 C   0  0
   23.3429   -2.3698    0.0000 C   0  0
   23.3429   -3.1961    0.0000 C   0  0
   24.0547   -3.6087    0.0000 N   0  0
   24.7688   -3.1961    0.0000 C   0  0
   24.7688   -2.3698    0.0000 N   0  0
   24.0547   -1.9572    0.0000 C   0  0
   22.5522   -2.1123    0.0000 N   0  0
   22.0688   -2.7836    0.0000 C   0  0
   22.5522   -3.4494    0.0000 N   0  0
   24.0547   -1.1268    0.0000 N   0  0
   24.7688   -0.7184    0.0000 C   0  0
   22.2989   -4.2338    0.0000 C   0  0  2  0  0  0
   21.5124   -4.4923    0.0000 O   0  0
   21.5124   -5.3134    0.0000 C   0  0  1  0  0  0
   22.2989   -5.5740    0.0000 C   0  0  2  0  0  0
   22.7823   -4.9050    0.0000 C   0  0  1  0  0  0
   23.6085   -4.9050    0.0000 O   0  0
   22.5522   -6.3605    0.0000 O   0  0
   20.8433   -5.8000    0.0000 C   0  0
   20.0894   -5.4642    0.0000 N   0  0
   20.9324   -6.6253    0.0000 O   0  0
   19.4244   -5.9572    0.0000 C   0  0
   18.6673   -5.6214    0.0000 C   0  0
   25.4836   -1.1301    0.0000 C   0  0
   26.1957   -0.7205    0.0000 C   0  0
   26.9106   -1.1323    0.0000 C   0  0
   27.6266   -0.7227    0.0000 C   0  0
   28.3415   -1.1345    0.0000 C   0  0
   29.0577   -0.7249    0.0000 C   0  0
   29.7725   -1.1367    0.0000 C   0  0
   30.4887   -0.7271    0.0000 N   0  0
  2  1  1  0
  3  2  1  0
  4  5  1  0
  4  6  2  0
  5  7  1  0
  7  8  1  0
  8  9  2  0
  9 10  1  0
 10 11  2  0
 11 12  1  0
 12 13  2  0
 13  8  1  0
 11 14  1  0
 14 15  2  0
 15 16  1  0
 16 20  2  0
 19 17  1  0
 17 18  2  0
 18 16  1  0
 19 20  1  0
 19 21  2  0
 20  2  1  0
  2 23  1  0
 22 21  1  0
 22 23  1  0
 23 24  1  0
 24 25  2  0
 25 26  1  0
 26 22  2  0
 27 28  1  0
 28 29  1  0
 29 30  2  0
 30 31  1  0
 31 27  2  0
 24 27  1  0
 32 33  2  0
 33 34  1  0
 34 35  2  0
 35 36  1  0
 36 37  2  0
 37 32  1  0
 32 38  1  0
 38 39  2  0
 39 40  1  0
 40 33  1  0
 37 41  1  0
 41 42  1  0
 43 40  1  1
 43 44  1  0
 44 45  1  0
 45 46  1  0
 46 47  1  0
 47 43  1  0
 47 48  1  6
 46 49  1  6
 45 50  1  1
 50 51  1  0
 50 52  2  0
 51 53  1  0
 53 54  1  0
 42 55  1  0
 55 56  1  0
 56 57  1  0
 57 58  1  0
 58 59  1  0
 59 60  1  0
 60 61  1  0
 61 62  1  0
 62  4  1  0
M  CHG  2   2  -1  20   1
M  END