
  SciTegic02011310422D

 24 27  0  0  0  0            999 V2000
   -2.2567  -23.1947    0.0000 C   0  0
   -1.5385  -23.6027    0.0000 C   0  0
   -0.8272  -23.1847    0.0000 C   0  0
   -0.8344  -22.3586    0.0000 C   0  0
   -1.5528  -21.9505    0.0000 C   0  0
   -2.2639  -22.3686    0.0000 C   0  0
    1.3235  -24.4016    0.0000 C   0  0
    1.3184  -23.5790    0.0000 C   0  0
    0.6001  -23.1711    0.0000 C   0  0
   -0.1111  -23.5891    0.0000 C   0  0
   -0.1039  -24.4152    0.0000 C   0  0
    0.6123  -24.8196    0.0000 N   0  0
    2.1126  -24.6526    0.0000 N   0  0
    2.1041  -23.3172    0.0000 C   0  0
    2.5919  -23.9794    0.0000 C   0  0
    2.5245  -22.6075    0.0000 C   0  0
    3.3488  -22.6167    0.0000 C   0  0
    3.7697  -21.9072    0.0000 C   0  0
    3.3664  -21.1885    0.0000 C   0  0
    2.5421  -21.1793    0.0000 C   0  0
    2.1211  -21.8888    0.0000 C   0  0
   -2.9679  -23.6159    0.0000 N   0  0
    4.5946  -21.9171    0.0000 C   0  0
    5.4158  -21.9242    0.0000 N   0  0
  3  4  1  0
  4  5  2  0
  5  6  1  0
  1  6  2  0
  7  8  1  0
  8  9  2  0
  9 10  1  0
 10 11  2  0
 11 12  1  0
  7 12  2  0
 14 15  2  0
 13 15  1  0
  7 13  1  0
  8 14  1  0
 16 17  1  0
 17 18  2  0
 18 19  1  0
 19 20  2  0
 20 21  1  0
 16 21  2  0
 14 16  1  0
  3 10  1  0
  1 22  1  0
  1  2  1  0
 18 23  1  0
  2  3  2  0
 23 24  3  0
M  END