
  SciTegic09171211542D

136126  0  0  0  0            999 V2000
   18.8473   -2.5728    0.0000 C   0  0
   19.5410   -3.0193    0.0000 C   0  0
   20.2746   -2.6419    0.0000 N   0  0
   20.9682   -3.0885    0.0000 C   0  0
   21.7018   -2.7110    0.0000 O   0  0
   20.9283   -3.9125    0.0000 C   0  0
   20.1947   -4.2900    0.0000 C   0  0
   20.1548   -5.1140    0.0000 C   0  0
   20.8485   -5.5606    0.0000 C   0  0
   20.8086   -6.3846    0.0000 C   0  0
   21.5022   -6.8312    0.0000 C   0  0
   21.4623   -7.6552    0.0000 C   0  0
   22.1560   -8.1018    0.0000 C   0  0
   22.1161   -8.9259    0.0000 C   0  0
   22.8098   -9.3724    0.0000 C   0  0
   23.5434   -8.9950    0.0000 C   0  0
   23.5833   -8.1710    0.0000 C   0  0
   24.3169   -7.7935    0.0000 C   0  0
   24.3568   -6.9695    0.0000 C   0  0
   25.0904   -6.5920    0.0000 C   0  0
   25.1303   -5.7680    0.0000 C   0  0
   25.8639   -5.3906    0.0000 C   0  0
   15.5125    1.1375    0.0000 O   0  0
   16.1000    1.7208    0.0000 S   0  0
   15.3011    1.9380    0.0000 O   0  0
   16.7246   -4.4591    0.0000 O   0  0
   15.9316   -4.2324    0.0000 S   0  0
   16.1318   -5.0326    0.0000 O   0  0
   11.0455   -4.7336    0.0000 O   0  0
   11.6429   -4.1649    0.0000 S   0  0
   10.8517   -3.9319    0.0000 O   0  0
   10.3528   -3.4719    0.0000 O   0  0
   10.9502   -2.9032    0.0000 S   0  0
   10.1590   -2.6702    0.0000 O   0  0
   11.7047   -7.8695    0.0000 O   0  0
   10.8794   -7.8572    0.0000 S   0  0
   11.2814   -8.5781    0.0000 O   0  0
   13.4401   -7.5852    0.0000 O   0  0
   13.0165   -8.2932    0.0000 S   0  0
   13.8415   -8.3060    0.0000 O   0  0
   14.0644   -5.9419    0.0000 O   0  0
   14.4640   -6.6658    0.0000 S   0  0
   14.8911   -5.9578    0.0000 O   0  0
   15.4064    0.7266    0.0000 O   0  0
   14.5811    0.7390    0.0000 S   0  0
   14.9830    0.0180    0.0000 O   0  0
   12.5182   -2.2838    0.0000 O   0  0
   13.1155   -1.7151    0.0000 S   0  0
   12.3243   -1.4821    0.0000 O   0  0
    9.0734   -6.0916    0.0000 O   0  0
    9.5015   -5.3864    0.0000 S   0  0
    8.6767   -5.3682    0.0000 O   0  0
   11.6100   -6.6302    0.0000 C   0  0  1  0  0  0
   12.3188   -7.0525    0.0000 C   0  0  1  0  0  0
   13.0340   -6.6497    0.0000 C   0  0  1  0  0  0
   13.0476   -5.8291    0.0000 C   0  0  2  0  0  0
   12.3388   -5.4068    0.0000 O   0  0
   11.6164   -5.8053    0.0000 C   0  0  2  0  0  0
   10.9093   -5.3788    0.0000 C   0  0
   10.2111   -5.8155    0.0000 O   0  0
    9.5241   -4.5625    0.0000 O   0  5
   12.3087   -7.8774    0.0000 O   0  0
   13.7427   -7.0720    0.0000 O   0  0
   13.7682   -5.4274    0.0000 O   0  0
   13.7806   -4.6025    0.0000 C   0  0  2  0  0  0
   14.5027   -4.2061    0.0000 C   0  0  1  0  0  0
   14.5171   -3.3848    0.0000 C   0  0  2  0  0  0
   13.8108   -2.9577    0.0000 O   0  0
   13.0884   -3.3581    0.0000 C   0  0  1  0  0  0
   13.0722   -4.1856    0.0000 C   0  0  1  0  0  0
   12.3817   -2.9324    0.0000 C   0  0
   12.3521   -4.5881    0.0000 O   0  0
   15.2090   -4.6324    0.0000 O   0  0
   15.2392   -2.9859    0.0000 O   0  0
   15.2567   -2.1601    0.0000 C   0  0  1  0  0  0
   16.9289   -2.1818    0.0000 O   0  0
   16.7001   -2.9784    0.0000 S   0  0
   17.5044   -2.7782    0.0000 O   0  0
   15.9811   -0.9336    0.0000 C   0  0  1  0  0  0
   15.2746   -0.5112    0.0000 O   0  0
   14.5584   -0.9134    0.0000 C   0  0  1  0  0  0
   14.5464   -1.7387    0.0000 C   0  0  1  0  0  0
   15.9791   -1.7562    0.0000 C   0  0  1  0  0  0
   15.9849   -2.5752    0.0000 O   0  0
   16.7081   -3.8076    0.0000 O   0  5
   13.8494   -0.4915    0.0000 C   0  0
   13.8603    0.3334    0.0000 O   0  0
   14.5911    1.5614    0.0000 O   0  5
   13.8265   -2.1417    0.0000 O   0  0
   13.1301   -0.8863    0.0000 O   0  5
   11.6597   -3.3316    0.0000 O   0  0
   10.9682   -2.0811    0.0000 O   0  5
   10.8911   -7.0351    0.0000 O   0  0
   15.9474   -3.4091    0.0000 O   0  5
   15.1715   -7.0915    0.0000 O   0  5
   13.0080   -9.1235    0.0000 O   0  5
   10.1634   -8.2648    0.0000 O   0  5
   16.6869   -1.3584    0.0000 H   0  0
   15.2236   -3.8089    0.0000 H   0  0
   13.0618   -4.9991    0.0000 H   0  0
   12.0664   -3.4569    0.0000 O   0  5
   16.6933   -0.5265    0.0000 O   0  0
   18.1277   -1.3382    0.0000 O   0  0
   17.0062    1.6566    0.0000 O   0  0
   17.4072    2.3733    0.0000 S   0  0
   16.5861    2.3622    0.0000 O   0  0
   21.0894    2.3903    0.0000 O   0  0
   20.2648    2.3719    0.0000 S   0  0
   20.6931    1.6670    0.0000 O   0  0
   18.1243   -0.5132    0.0000 C   0  0  1  0  0  0
   18.8376   -0.1031    0.0000 O   0  0
   18.8362    0.7183    0.0000 C   0  0  1  0  0  0
   18.1218    1.1317    0.0000 C   0  0  2  0  0  0
   17.4073    0.7175    0.0000 C   0  0  1  0  0  0
   17.4070   -0.1101    0.0000 C   0  0  2  0  0  0
   16.6906    1.1303    0.0000 O   0  0
   18.1216    1.9567    0.0000 O   0  0
   19.5505    1.1311    0.0000 C   0  0
   19.5502    1.9561    0.0000 O   0  0
   20.2643    3.1938    0.0000 O   0  5
   17.4067    3.1940    0.0000 O   0  5
   16.3135    2.5177    0.0000 O   0  5
   18.8439   -1.7478    0.0000 C   0  0
   20.7187    0.4062    0.0000 Na  0  3
   21.7188    0.4062    0.0000 Na  0  3
   22.8750    0.4062    0.0000 Na  0  3
   23.8750    0.3750    0.0000 Na  0  3
   21.9375   -0.6250    0.0000 Na  0  3
   23.1250   -0.6250    0.0000 Na  0  3
   22.8437   -1.4687    0.0000 Na  0  3
   23.9375   -1.5313    0.0000 Na  0  3
   23.0312   -2.4687    0.0000 Na  0  3
   24.0000   -2.7187    0.0000 Na  0  3
   22.9063   -3.5625    0.0000 Na  0  3
   23.9687   -3.6875    0.0000 Na  0  3
   23.4062   -4.8125    0.0000 Na  0  3
  8  9  1  0
 17 18  1  0
  4  5  2  0
 39 38  2  0
 65 70  1  0
 66 67  1  0
 67 68  1  0
 68 69  1  0
 69 70  1  0
 40 39  2  0
 69 71  1  1
 18 19  1  0
 70 72  1  6
  9 10  1  0
 66 73  1  1
 19 20  1  0
 67 74  1  0
 42 41  2  0
 75 74  1  1
 77 76  2  0
 78 77  2  0
 43 42  2  0
  2  3  1  0
 20 21  1  0
 10 11  1  0
 79 80  1  0
 45 44  2  0
 46 45  2  0
 21 22  1  0
 24 23  2  0
 79 83  1  0
 80 81  1  0
 81 82  1  0
 82 75  1  0
 75 83  1  0
 25 24  2  0
 83 84  1  1
 84 77  1  0
 48 47  2  0
 77 85  1  0
 49 48  2  0
 81 86  1  1
  4  6  1  0
 86 87  1  0
 87 45  1  0
 11 12  1  0
 45 88  1  0
  1  2  1  0
 82 89  1  6
 89 48  1  0
 51 50  2  0
 48 90  1  0
 52 51  2  0
 71 91  1  0
 91 33  1  0
 27 26  2  0
 33 92  1  0
 28 27  2  0
 53 93  1  6
 73 27  1  0
 12 13  1  0
 27 94  1  0
 63 42  1  0
 53 54  1  0
 42 95  1  0
 62 39  1  0
  6  7  1  0
 39 96  1  0
 93 36  1  0
 13 14  1  0
 36 97  1  0
 30 29  2  0
 79 98  1  1
 31 30  2  0
 67 99  1  1
  3  4  1  0
 56100  1  1
 72 30  1  0
 14 15  1  0
 30101  1  0
 53 58  1  0
 79102  1  0
 54 55  1  0
105104  2  0
106105  2  0
 55 56  1  0
 56 57  1  0
 57 58  1  0
108107  2  0
109108  2  0
  7  8  1  0
 58 59  1  1
 33 32  2  0
 59 60  1  0
110103  1  6
110111  1  0
 60 51  1  0
 34 33  2  0
 51 61  1  0
 15 16  1  0
 54 62  1  1
110115  1  0
111112  1  0
112113  1  0
113114  1  0
114115  1  0
115102  1  1
114116  1  1
 55 63  1  1
113117  1  6
 16 17  1  0
112118  1  1
 56 64  1  0
118119  1  0
119108  1  0
 36 35  2  0
108120  1  0
117105  1  0
 65 64  1  1
105121  1  0
116 24  1  0
 65 66  1  0
 24122  1  0
 37 36  2  0
103123  1  0
123  1  1  0
M  CHG  8  61  -1  85  -1  88  -1  90  -1  92  -1  94  -1  95  -1  96  -1
M  CHG  8  97  -1 101  -1 120  -1 121  -1 122  -1 124   1 125   1 126   1
M  CHG  8 127   1 128   1 129   1 130   1 131   1 132   1 133   1 134   1
M  CHG  2 135   1 136   1
M  END