
          11280715202D 1   1.00000     0.00000     0

 27 27  0     0  0            999 V2000
   -1.4000   -2.6375    0.0000 N   0  0  0  0  0  0           0  0  0
    5.2000   -2.7042    0.0000 C   0  0  0  0  0  0           0  0  0
   -1.8125   -3.9125    0.0000 N   0  0  0  0  0  0           0  0  0
   -2.0708   -3.1250    0.0000 C   0  0  0  0  0  0           0  0  0
   -0.7333   -3.1250    0.0000 C   0  0  0  0  0  0           0  0  0
   10.5375   -3.6292    0.0000 C   0  0  0  0  0  0           0  0  0
   10.5417   -1.9792    0.0000 C   0  0  0  0  0  0           0  0  0
    9.8292   -3.2167    0.0000 C   0  0  0  0  0  0           0  0  0
    9.8292   -2.3917    0.0000 C   0  0  0  0  0  0           0  0  0
    4.4167   -2.9625    0.0000 C   0  0  0  0  0  0           0  0  0
   -0.9875   -3.9125    0.0000 C   0  0  0  0  0  0           0  0  0
    5.3667   -1.9000    0.0000 O   0  0  0  0  0  0           0  0  0
   10.5500   -1.1542    0.0000 O   0  0  0  0  0  0           0  0  0
   10.5292   -4.4542    0.0000 O   0  0  0  0  0  0           0  0  0
    5.8125   -3.2625    0.0000 N   0  0  0  0  0  0           0  0  0
    3.7917   -2.4042    0.0000 C   0  0  0  0  0  0           0  0  0
    4.2417   -3.7667    0.0000 C   0  0  0  0  0  0           0  0  0
    6.5917   -3.0042    0.0000 N   0  0  0  0  0  0           0  0  0
    2.8417   -3.4667    0.0000 C   0  0  0  0  0  0           0  0  0
   11.2542   -3.2167    0.0000 O   0  0  0  0  0  0           0  0  0
   11.2542   -2.3917    0.0000 O   0  0  0  0  0  0           0  0  0
    3.4542   -4.0250    0.0000 C   0  0  0  0  0  0           0  0  0
    3.0167   -2.6667    0.0000 C   0  0  0  0  0  0           0  0  0
    2.0625   -3.7250    0.0000 O   0  0  0  0  0  0           0  0  0
    0.0542   -2.8667    0.0000 C   0  0  0  0  0  0           0  0  0
    1.4500   -3.1667    0.0000 C   0  0  0  0  0  0           0  0  0
    0.6625   -3.4250    0.0000 C   0  0  0  0  0  0           0  0  0
  2 10  1  0     0  0
  3  4  1  0     0  0
  4  1  2  0     0  0
  5  1  1  0     0  0
  7  9  1  0     0  0
  8  6  1  0     0  0
  9  8  2  0     0  0
 10 16  1  0     0  0
 11  5  2  0     0  0
 12  2  2  0     0  0
 13  7  2  0     0  0
 14  6  2  0     0  0
 15  2  1  0     0  0
 16 23  2  0     0  0
 17 22  1  0     0  0
 18 15  1  0     0  0
 19 24  1  0     0  0
 20  6  1  0     0  0
 21  7  1  0     0  0
 22 19  2  0     0  0
 23 19  1  0     0  0
 24 26  1  0     0  0
 25  5  1  0     0  0
 26 27  1  0     0  0
 27 25  1  0     0  0
  3 11  1  0     0  0
 17 10  2  0     0  0
M  END