
  CDK    6/4/10,11:41

 23 24  0  0  0  0  0  0  0  0999 V2000
    9.0047   -5.0112    0.0000 C   0  0  0  0  0  0  0  0  0  0  0  0
    9.4116   -5.7234    0.0000 C   0  0  0  0  0  0  0  0  0  0  0  0
   10.2300   -5.7262    0.0000 C   0  0  0  0  0  0  0  0  0  0  0  0
   10.6424   -5.0175    0.0000 C   0  0  0  0  0  0  0  0  0  0  0  0
   10.2306   -4.3046    0.0000 C   0  0  0  0  0  0  0  0  0  0  0  0
    9.4136   -4.3053    0.0000 C   0  0  0  0  0  0  0  0  0  0  0  0
   11.4673   -5.0177    0.0000 C   0  0  0  0  0  0  0  0  0  0  0  0
   11.8784   -5.7351    0.0000 C   0  0  0  0  0  0  0  0  0  0  0  0
   12.7034   -5.7369    0.0000 C   0  0  0  0  0  0  0  0  0  0  0  0
   13.1183   -5.0218    0.0000 C   0  0  0  0  0  0  0  0  0  0  0  0
   12.7022   -4.3036    0.0000 C   0  0  0  0  0  0  0  0  0  0  0  0
   11.8785   -4.3054    0.0000 C   0  0  0  0  0  0  0  0  0  0  0  0
    8.1746   -5.0131    0.0000 C   0  0  0  0  0  0  0  0  0  0  0  0
    7.3488   -5.0106    0.0000 N   0  0  0  0  0  0  0  0  0  0  0  0
   13.9441   -5.0221    0.0000 O   0  0  0  0  0  0  0  0  0  0  0  0
   14.3572   -4.3070    0.0000 C   0  0  0  0  0  0  0  0  0  0  0  0
   15.1830   -4.3073    0.0000 C   0  0  0  0  0  0  0  0  0  0  0  0
   15.5961   -3.5922    0.0000 C   0  0  0  0  0  0  0  0  0  0  0  0
   16.4219   -3.5925    0.0000 C   0  0  0  0  0  0  0  0  0  0  0  0
   16.8351   -2.8774    0.0000 C   0  0  0  0  0  0  0  0  0  0  0  0
   17.6609   -2.8776    0.0000 N   0  0  0  0  0  0  0  0  0  0  0  0
   16.4224   -2.1621    0.0000 O   0  0  0  0  0  0  0  0  0  0  0  0
   18.0735   -3.5929    0.0000 O   0  0  0  0  0  0  0  0  0  0  0  0
 11 12  2  0  0  0  0 
 12  7  1  0  0  0  0 
  4  7  1  0  0  0  0 
  6  1  1  0  0  0  0 
  1  2  2  0  0  0  0 
 13 14  3  0  0  0  0 
  1 13  1  0  0  0  0 
  3  4  2  0  0  0  0 
 10 15  1  0  0  0  0 
  7  8  2  0  0  0  0 
 15 16  1  0  0  0  0 
 16 17  1  0  0  0  0 
  8  9  1  0  0  0  0 
 17 18  1  0  0  0  0 
  4  5  1  0  0  0  0 
 18 19  1  0  0  0  0 
  9 10  2  0  0  0  0 
 19 20  1  0  0  0  0 
  2  3  1  0  0  0  0 
 20 21  1  0  0  0  0 
 10 11  1  0  0  0  0 
 20 22  2  0  0  0  0 
  5  6  2  0  0  0  0 
 21 23  1  0  0  0  0 
M  END