
          11280714492D 1   1.00000     0.00000     0

 54 59  0     0  0            999 V2000
    9.6917    0.2000    0.0000 C   0  0  0  0  0  0           0  0  0
   10.4042    1.4375    0.0000 C   0  0  0  0  0  0           0  0  0
   10.4125    0.6125    0.0000 C   0  0  0  0  0  0           0  0  0
    9.6917   -0.6292    0.0000 C   0  0  0  0  0  0           0  0  0
    9.6917    1.8500    0.0000 O   0  0  0  0  0  0           0  0  0
    8.9792    1.4375    0.0000 C   0  0  0  0  0  0           0  0  0
    8.9792    0.6125    0.0000 C   0  0  0  0  0  0           0  0  0
   10.4042   -1.0417    0.0000 C   0  0  0  0  0  0           0  0  0
   11.1167    1.8500    0.0000 C   0  0  0  0  0  0           0  0  0
   11.1167    0.2000    0.0000 C   0  0  0  0  0  0           0  0  0
    8.9792   -1.0417    0.0000 C   0  0  0  0  0  0           0  0  0
   11.2292   -1.0417    0.0000 C   0  0  0  0  0  0           0  0  0
    0.4167   -1.9542    0.0000 N   0  0  3  0  0  0           0  0  0
    8.9792   -1.8667    0.0000 C   0  0  0  0  0  0           0  0  0
    8.2542   -2.2917    0.0000 C   0  0  0  0  0  0           0  0  0
   -0.2958   -2.3667    0.0000 C   0  0  0  0  0  0           0  0  0
    8.2667    1.8500    0.0000 C   0  0  0  0  0  0           0  0  0
   11.8375    0.6125    0.0000 C   0  0  0  0  0  0           0  0  0
   11.8375    1.4375    0.0000 C   0  0  0  0  0  0           0  0  0
   10.4042   -1.8667    0.0000 C   0  0  0  0  0  0           0  0  0
    8.2667    0.2000    0.0000 C   0  0  0  0  0  0           0  0  0
   -0.2958   -3.2000    0.0000 N   0  0  0  0  0  0           0  0  0
    0.4167   -1.1292    0.0000 C   0  0  0  0  0  0           0  0  0
    9.6917   -2.2792    0.0000 C   0  0  0  0  0  0           0  0  0
   11.6417   -0.3250    0.0000 O   0  0  0  0  0  0           0  0  0
    8.2625   -3.1167    0.0000 O   0  0  0  0  0  0           0  0  0
    1.1375   -2.3667    0.0000 C   0  0  0  0  0  0           0  0  0
   12.5542    1.8500    0.0000 O   0  0  0  0  0  0           0  0  0
    7.5375   -1.8792    0.0000 N   0  0  0  0  0  0           0  0  0
    7.5500    1.4375    0.0000 C   0  0  0  0  0  0           0  0  0
   -0.2958   -0.7167    0.0000 C   0  0  0  0  0  0           0  0  0
    2.5667   -2.3667    0.0000 N   0  0  3  0  0  0           0  0  0
    7.5500    0.6125    0.0000 C   0  0  0  0  0  0           0  0  0
   11.6417   -1.7542    0.0000 O   0  0  0  0  0  0           0  0  0
    1.8542   -1.9542    0.0000 C   0  0  0  0  0  0           0  0  0
   -1.7125    0.1333    0.0000 C   0  0  0  0  0  0           0  0  0
   -0.2833    0.1083    0.0000 C   0  0  0  0  0  0           0  0  0
   -1.0208   -1.1167    0.0000 C   0  0  0  0  0  0           0  0  0
   -0.9875    0.5333    0.0000 C   0  0  0  0  0  0           0  0  0
   -1.7250   -0.6917    0.0000 C   0  0  0  0  0  0           0  0  0
    6.8292    1.8500    0.0000 O   0  0  0  0  0  0           0  0  0
   -2.4333    0.5583    0.0000 O   0  0  0  0  0  0           0  0  0
   -1.0125   -1.9542    0.0000 C   0  0  0  0  0  0           0  0  0
   -1.0083   -3.6125    0.0000 C   0  0  0  0  0  0           0  0  0
    6.8250   -2.2917    0.0000 C   0  0  0  0  0  0           0  0  0
    3.2792   -1.9625    0.0000 C   0  0  0  0  0  0           0  0  0
    2.5542   -3.2000    0.0000 C   0  0  0  0  0  0           0  0  0
   -3.1583    0.1500    0.0000 C   0  0  0  0  0  0           0  0  0
    3.9917   -2.3792    0.0000 C   0  0  0  0  0  0           0  0  0
    6.1125   -1.8792    0.0000 C   0  0  0  0  0  0           0  0  0
    4.6792   -1.8667    0.0000 C   0  0  0  0  0  0           0  0  0
    5.3917   -2.2875    0.0000 C   0  0  0  0  0  0           0  0  0
   -1.7333   -2.3667    0.0000 C   0  0  0  0  0  0           0  0  0
   -1.7333   -3.2000    0.0000 C   0  0  0  0  0  0           0  0  0
  2  3  1  0     0  0
  3  1  2  0     0  0
  4  1  1  0     0  0
  5  6  1  0     0  0
  6  7  2  0     0  0
  7  1  1  0     0  0
  8  4  2  0     0  0
  9  2  2  0     0  0
 10  3  1  0     0  0
 11  4  1  0     0  0
 12  8  1  0     0  0
 13 27  1  0     0  0
 14 11  2  0     0  0
 15 14  1  0     0  0
 16 13  1  0     0  0
 17  6  1  0     0  0
 18 10  2  0     0  0
 19 18  1  0     0  0
 20  8  1  0     0  0
 21  7  1  0     0  0
 22 16  2  0     0  0
 23 13  1  0     0  0
 24 14  1  0     0  0
 25 12  2  0     0  0
 26 15  2  0     0  0
 27 35  1  0     0  0
 28 19  2  0     0  0
 29 15  1  0     0  0
 30 33  1  0     0  0
 31 23  1  0     0  0
 32 46  1  0     0  0
 33 21  2  0     0  0
 34 12  1  0     0  0
 35 32  1  0     0  0
 36 40  2  0     0  0
 37 31  1  0     0  0
 38 31  2  0     0  0
 39 37  2  0     0  0
 40 38  1  0     0  0
 41 30  1  0     0  0
 42 36  1  0     0  0
 43 16  1  0     0  0
 44 22  1  0     0  0
 45 29  1  0     0  0
 46 49  1  0     0  0
 47 32  1  0     0  0
 48 42  1  0     0  0
 49 51  1  0     0  0
 50 45  1  0     0  0
 51 52  1  0     0  0
 52 50  1  0     0  0
 53 43  2  0     0  0
 54 53  1  0     0  0
  2  5  1  0     0  0
 17 30  2  0     0  0
 24 20  2  0     0  0
 19  9  1  0     0  0
 36 39  1  0     0  0
 44 54  2  0     0  0
M  END