
          11280714532D 1   1.00000     0.00000     0

 37 39  0     0  0            999 V2000
    5.7917   -4.5000    0.0000 C   0  0  0  0  0  0           0  0  0
    6.5125   -4.9042    0.0000 C   0  0  0  0  0  0           0  0  0
   10.8042   -7.3625    0.0000 C   0  0  0  0  0  0           0  0  0
    7.2292   -6.9667    0.0000 C   0  0  0  0  0  0           0  0  0
    5.0792   -4.9167    0.0000 O   0  0  0  0  0  0           0  0  0
    8.6542   -6.1375    0.0000 S   0  0  0  0  0  0           0  0  0
   11.5167   -6.9417    0.0000 O   0  0  0  0  0  0           0  0  0
    7.9500   -7.3792    0.0000 C   0  0  0  0  0  0           0  0  0
    7.2250   -4.4917    0.0000 C   0  0  0  0  0  0           0  0  0
    6.5167   -5.7375    0.0000 C   0  0  0  0  0  0           0  0  0
    7.9417   -5.7292    0.0000 C   0  0  0  0  0  0           0  0  0
    5.7875   -3.6750    0.0000 O   0  0  0  0  0  0           0  0  0
   10.0917   -6.9542    0.0000 C   0  0  0  0  0  0           0  0  0
    4.5292   -5.9250    0.0000 C   0  0  0  0  0  0           0  0  0
   10.8125   -8.1875    0.0000 O   0  0  0  0  0  0           0  0  0
    8.6625   -6.9625    0.0000 C   0  0  3  0  0  0           0  0  0
    7.9417   -4.9000    0.0000 C   0  0  0  0  0  0           0  0  0
    7.2292   -6.1417    0.0000 C   0  0  0  0  0  0           0  0  0
    5.8042   -6.9750    0.0000 C   0  0  0  0  0  0           0  0  0
    5.3042   -5.6417    0.0000 C   0  0  0  0  0  0           0  0  0
    4.3917   -6.7375    0.0000 C   0  0  0  0  0  0           0  0  0
    5.9417   -6.1625    0.0000 C   0  0  0  0  0  0           0  0  0
    5.0292   -7.2667    0.0000 C   0  0  0  0  0  0           0  0  0
    9.3792   -7.3667    0.0000 C   0  0  0  0  0  0           0  0  0
    0.6042   -2.6667    0.0000 C   0  0  0  0  0  0           0  0  0
    3.9042   -5.4000    0.0000 O   0  0  0  0  0  0           0  0  0
    1.4167   -2.8042    0.0000 O   0  0  0  0  0  0           0  0  0
    6.5167   -7.3792    0.0000 C   0  0  0  0  0  0           0  0  0
    1.7042   -3.5750    0.0000 C   0  0  0  0  0  0           0  0  0
    3.6167   -4.6250    0.0000 C   0  0  0  0  0  0           0  0  0
    0.0792   -3.3000    0.0000 C   0  0  0  0  0  0           0  0  0
    0.3167   -1.8917    0.0000 C   0  0  0  0  0  0           0  0  0
    2.5167   -3.7167    0.0000 C   0  0  0  0  0  0           0  0  0
    2.8042   -4.4875    0.0000 C   0  0  0  0  0  0           0  0  0
   -0.4958   -1.7542    0.0000 C   0  0  0  0  0  0           0  0  0
   -0.7250   -3.1667    0.0000 C   0  0  0  0  0  0           0  0  0
   -1.0208   -2.3917    0.0000 C   0  0  0  0  0  0           0  0  0
  2  1  1  0     0  0
  3 13  1  0     0  0
  4  8  2  0     0  0
  5  1  2  0     0  0
  6 11  1  0     0  0
  7  3  2  0     0  0
  8 16  1  0     0  0
  9  2  2  0     0  0
 10  2  1  0     0  0
 11 18  1  0     0  0
 12  1  1  0     0  0
 13 24  1  0     0  0
 14 21  1  0     0  0
 15  3  1  0     0  0
 16  6  1  0     0  0
 17  9  1  0     0  0
 18 10  2  0     0  0
 19 28  1  0     0  0
 20 22  1  0     0  0
 21 23  2  0     0  0
 22 19  2  0     0  0
 23 19  1  0     0  0
 24 16  1  0     0  0
 25 27  1  0     0  0
 26 14  1  0     0  0
 27 29  1  0     0  0
 28  4  1  0     0  0
 29 33  1  0     0  0
 30 26  1  0     0  0
 31 25  1  0     0  0
 32 25  2  0     0  0
 33 34  1  0     0  0
 34 30  1  0     0  0
 35 32  1  0     0  0
 36 31  2  0     0  0
 37 35  2  0     0  0
 17 11  2  0     0  0
 14 20  2  0     0  0
 37 36  1  0     0  0
M  END