
  SciTegic05071316162D

 20 21  0  0  0  0            999 V2000
    4.8152  -23.1414    0.0000 C   0  0
    4.8140  -23.9687    0.0000 C   0  0
    5.5289  -24.3816    0.0000 C   0  0
    6.2452  -23.9683    0.0000 C   0  0
    6.2424  -23.1378    0.0000 C   0  0
    5.5271  -22.7286    0.0000 C   0  0
    4.1007  -22.7291    0.0000 C   0  0  1  0  0  0
    3.3862  -23.1417    0.0000 C   0  0
    2.6717  -22.7294    0.0000 C   0  0
    1.9573  -23.1421    0.0000 N   0  0
    1.2042  -22.8027    0.0000 N   0  0
    0.6524  -23.4160    0.0000 C   0  0
    1.0651  -24.1304    0.0000 N   0  0
    1.8719  -23.9585    0.0000 C   0  0
    4.1005  -21.9041    0.0000 C   0  0
    4.8148  -21.4914    0.0000 C   0  0
    5.5294  -21.9037    0.0000 C   0  0
    6.2437  -21.4911    0.0000 C   0  0
    6.9604  -24.3796    0.0000 O   0  0
    6.9617  -25.2046    0.0000 C   0  0
  1  2  2  0
  2  3  1  0
  3  4  2  0
  4  5  1  0
  5  6  2  0
  6  1  1  0
  1  7  1  0
  7  8  1  0
  8  9  1  0
  9 10  1  0
 10 11  1  0
 11 12  2  0
 12 13  1  0
 13 14  2  0
 14 10  1  0
  7 15  1  1
 15 16  1  0
 16 17  1  0
 17 18  1  0
  4 19  1  0
 19 20  1  0
M  END