
          08180812482D 1   1.00000     0.00000     0

 25 27  0     1  0            999 V2000
    8.2379   -1.5570    0.0000 N   0  0  0  0  0  0           0  0  0
    8.9545   -1.1436    0.0000 C   0  0  0  0  0  0           0  0  0
    8.9516   -0.3130    0.0000 N   0  0  0  0  0  0           0  0  0
    8.2361    0.0961    0.0000 C   0  0  0  0  0  0           0  0  0
    7.5231   -1.1441    0.0000 C   0  0  0  0  0  0           0  0  0
    7.5243   -0.3197    0.0000 C   0  0  0  0  0  0           0  0  0
    6.7406   -0.0637    0.0000 S   0  0  0  0  0  0           0  0  0
    6.2550   -0.7300    0.0000 C   0  0  0  0  0  0           0  0  0
    6.7386   -1.3976    0.0000 N   0  0  0  0  0  0           0  0  0
    8.2323    0.9212    0.0000 N   0  0  0  0  0  0           0  0  0
    8.9450    1.3370    0.0000 C   0  0  1  0  0  0           0  0  0
    9.6614    0.9278    0.0000 C   0  0  0  0  0  0           0  0  0
   10.3740    1.3436    0.0000 O   0  0  0  0  0  0           0  0  0
    8.9412    2.1621    0.0000 C   0  0  0  0  0  0           0  0  0
    9.6697   -1.5550    0.0000 S   0  0  0  0  0  0           0  0  0
   10.3835   -1.1414    0.0000 C   0  0  0  0  0  0           0  0  0
   11.0987   -1.5528    0.0000 C   0  0  0  0  0  0           0  0  0
   11.0953   -2.3763    0.0000 C   0  0  0  0  0  0           0  0  0
   11.8097   -2.7877    0.0000 C   0  0  0  0  0  0           0  0  0
   12.5245   -2.3739    0.0000 C   0  0  0  0  0  0           0  0  0
   12.5206   -1.5445    0.0000 C   0  0  0  0  0  0           0  0  0
   11.8057   -1.1370    0.0000 C   0  0  0  0  0  0           0  0  0
   10.3802   -2.7878    0.0000 F   0  0  0  0  0  0           0  0  0
   11.8106   -3.6127    0.0000 F   0  0  0  0  0  0           0  0  0
    5.4299   -0.7288    0.0000 O   0  0  0  0  0  0           0  0  0
 11 12  1  0     0  0
  5  1  1  0     0  0
 12 13  1  0     0  0
  2  3  1  0     0  0
 11 14  1  6     0  0
  2 15  1  0     0  0
  3  4  2  0     0  0
 15 16  1  0     0  0
  6  7  1  0     0  0
 16 17  1  0     0  0
  7  8  1  0     0  0
 17 18  2  0     0  0
  8  9  1  0     0  0
 18 19  1  0     0  0
  9  5  1  0     0  0
 19 20  2  0     0  0
  4  6  1  0     0  0
 20 21  1  0     0  0
  4 10  1  0     0  0
 21 22  2  0     0  0
 22 17  1  0     0  0
  5  6  2  0     0  0
 18 23  1  0     0  0
 10 11  1  0     0  0
 19 24  1  0     0  0
  1  2  2  0     0  0
  8 25  2  0     0  0
M  END