
  SciTegic01161211222D

 41 46  0  0  0  0            999 V2000
    0.2703  -15.8000    0.0000 N   0  0
    1.6967  -15.8071    0.0000 C   0  0
    0.9854  -15.3898    0.0000 C   0  0
   -1.1036  -14.1068    0.0000 C   0  0
   -0.4028  -14.5428    0.0000 C   0  0
   -0.4266  -15.3696    0.0000 C   0  0
    2.4317  -15.4513    0.0000 C   0  0
    3.1325  -15.8832    0.0000 N   0  0
    2.4511  -14.6245    0.0000 O   0  0
    3.1044  -16.7064    0.0000 C   0  0
    3.8011  -17.1420    0.0000 C   0  0
    4.5277  -16.7506    0.0000 N   0  0
    4.5574  -15.9228    0.0000 C   0  0
    3.8523  -15.4865    0.0000 C   0  0
    5.2238  -17.1884    0.0000 C   0  0
    0.3214  -14.1477    0.0000 C   0  0
   -1.8279  -14.5019    0.0000 C   0  0
   -2.5292  -14.0637    0.0000 C   0  0
   -2.5714  -15.7176    0.0000 C   0  0
   -1.8463  -15.3250    0.0000 C   0  0
    0.2661  -16.6272    0.0000 C   0  0
    1.6925  -16.6344    0.0000 C   0  0
    0.9744  -17.0456    0.0000 C   0  0
    0.9699  -17.8672    0.0000 C   0  0
    1.6818  -18.2837    0.0000 C   0  0
    2.4002  -17.8767    0.0000 C   0  0
    2.4063  -17.0489    0.0000 C   0  0
   -3.2742  -15.2919    0.0000 C   0  0
   -3.2538  -14.4599    0.0000 C   0  0
   -4.0388  -14.1833    0.0000 O   0  0
   -4.5444  -14.8445    0.0000 C   0  0
   -4.0717  -15.5295    0.0000 O   0  0
    5.1890  -18.0083    0.0000 C   0  0
    5.8844  -18.4459    0.0000 C   0  0
    6.6125  -18.0619    0.0000 C   0  0
    6.6411  -17.2358    0.0000 C   0  0
    5.9450  -16.8018    0.0000 N   0  0
    7.3695  -16.8478    0.0000 C   0  0
    8.0697  -17.2847    0.0000 F   0  0
    7.3977  -16.0229    0.0000 F   0  0
    8.0822  -16.4269    0.0000 F   0  0
  8 14  1  0
 23 21  1  0
 10 11  1  0
 11 12  1  0
 22 23  1  0
 12 13  1  0
 13 14  1  0
 22  2  1  0
  2  7  1  0
  2  3  1  0
 22 27  1  0
 23 24  1  0
 24 25  1  0
 25 26  1  0
 26 27  1  0
  7  8  1  0
  1 21  1  0
  7  9  2  0
 28 29  2  0
 12 15  1  0
  8 10  1  0
  5 16  1  0
  4 17  1  0
 29 30  1  0
 30 31  1  0
 31 32  1  0
 32 28  1  0
  4  5  1  0
 15 33  2  0
 17 18  2  0
 33 34  1  0
 18 29  1  0
 34 35  2  0
  1  3  1  0
 35 36  1  0
 28 19  1  0
 36 37  2  0
 37 15  1  0
  5  6  1  0
 36 38  1  0
 19 20  2  0
 38 39  1  0
 20 17  1  0
 38 40  1  0
  6  1  1  0
 38 41  1  0
M  END