
  SciTegic11201309402D

253260  0  0  1  0            999 V2000
  -30.7500   -1.6042    0.0000 N   0  0
  -36.6875   -1.5000    0.0000 N   0  0
   -7.7542   -1.9750    0.0000 N   0  0
  -32.0667   -1.6000    0.0000 C   0  0
  -37.8667   -1.6250    0.0000 C   0  0
   -8.3542   -2.2667    0.0000 C   0  0
  -12.4750   -1.8792    0.0000 C   0  0  1  0  0  0
  -11.9000   -2.2542    0.0000 C   0  0
  -13.0500   -2.2500    0.0000 N   0  0
  -13.6542   -1.9375    0.0000 C   0  0
  -35.5792   -1.5917    0.0000 C   0  0
  -29.5750   -1.6292    0.0000 C   0  0
  -18.9542   -2.2292    0.0000 C   0  0
   -6.6042   -1.9667    0.0000 C   0  0
  -14.8292   -1.9375    0.0000 N   0  0
  -20.1375   -2.2292    0.0000 N   0  0
  -33.8417   -1.8917    0.0000 C   0  0
  -20.7375   -1.9375    0.0000 C   0  0
  -15.4417   -2.2542    0.0000 C   0  0
  -36.1667   -1.9667    0.0000 C   0  0  2  0  0  0
  -30.1667   -1.2625    0.0000 C   0  0  2  0  0  0
    0.4417   -2.5625    0.0000 C   0  0
  -17.2042   -1.9292    0.0000 C   0  0
    9.3167   -2.2417    0.0000 C   0  0
  -22.4917   -2.2375    0.0000 C   0  0
    7.5542   -2.5542    0.0000 C   0  0
   -4.8458   -2.2875    0.0000 C   0  0
  -26.0250   -2.2417    0.0000 C   0  0
    2.2042   -2.2417    0.0000 C   0  0
  -34.9792   -1.8917    0.0000 N   0  0
   -1.3083   -2.2667    0.0000 C   0  0
  -27.7792   -1.9417    0.0000 C   0  0
    5.7542   -2.2417    0.0000 C   0  0
  -24.2417   -1.9292    0.0000 C   0  0
  -10.1417   -1.9542    0.0000 C   0  0
   -3.0958   -2.5792    0.0000 C   0  0
    3.9917   -2.5542    0.0000 C   0  0
    9.9125   -2.5417    0.0000 N   0  0
  -34.4167   -1.5250    0.0000 C   0  0  1  0  0  0
  -18.3667   -1.9375    0.0000 N   0  0
   -5.9958   -2.2875    0.0000 N   0  0
   -7.2042   -2.3417    0.0000 C   0  0  2  0  0  0
   -0.7125   -2.5625    0.0000 N   0  0
  -11.3000   -1.9542    0.0000 N   0  0
  -33.2417   -1.6042    0.0000 N   0  0
  -14.2542   -2.3042    0.0000 C   0  0  1  0  0  0
  -23.6417   -2.2375    0.0000 N   0  0
   -9.5292   -2.2667    0.0000 N   0  0
  -16.6042   -2.2500    0.0000 N   0  0
    1.0542   -2.2417    0.0000 N   0  0
    8.1625   -2.2417    0.0000 N   0  0
  -21.8917   -1.9375    0.0000 N   0  0
  -27.1792   -2.2417    0.0000 N   0  0
    6.3625   -2.5542    0.0000 N   0  0
  -19.5792   -1.8625    0.0000 C   0  0  1  0  0  0
  -28.9625   -1.9500    0.0000 N   0  0
   10.4667   -2.1750    0.0000 C   0  0  2  0  0  0
  -17.8125   -2.3042    0.0000 C   0  0  1  0  0  0
   -0.1583   -2.1917    0.0000 C   0  0  1  0  0  0
   -2.4833   -2.2667    0.0000 N   0  0
    2.8167   -2.5542    0.0000 N   0  0
   -4.2458   -2.5792    0.0000 N   0  0
  -25.4167   -1.9375    0.0000 N   0  0
    4.6000   -2.2417    0.0000 N   0  0
  -23.0875   -1.8667    0.0000 C   0  0  1  0  0  0
   -8.9417   -1.9000    0.0000 C   0  0  1  0  0  0
   -7.7167   -1.3042    0.0000 C   0  0
  -17.8125   -2.9500    0.0000 C   0  0
   -0.1583   -1.5542    0.0000 C   0  0
  -21.3292   -2.3042    0.0000 C   0  0  1  0  0  0
   -5.4208   -1.9167    0.0000 C   0  0  1  0  0  0
  -16.0167   -1.8792    0.0000 C   0  0  1  0  0  0
    6.9375   -2.1875    0.0000 C   0  0  1  0  0  0
    8.7375   -2.6125    0.0000 C   0  0  1  0  0  0
    1.6292   -2.6125    0.0000 C   0  0  1  0  0  0
  -26.6250   -1.8750    0.0000 C   0  0  1  0  0  0
  -32.6917   -1.9750    0.0000 C   0  0  1  0  0  0
  -21.3542   -0.5667    0.0000 N   0  0
   11.0667   -2.5417    0.0000 C   0  0
   -5.3458   -4.6167    0.0000 C   0  0
    7.0542   -4.8875    0.0000 C   0  0
   -8.8792   -4.5917    0.0000 C   0  0
  -22.9667   -4.5792    0.0000 C   0  0
  -38.4500   -1.2542    0.0000 C   0  0  2  0  0  0
  -22.4542   -0.8792    0.0000 C   0  0
   -1.9083   -2.6375    0.0000 C   0  0  1  0  0  0
  -23.0917   -1.2292    0.0000 C   0  0
  -17.1917   -3.2792    0.0000 C   0  0
    0.4875   -1.2042    0.0000 C   0  0
  -22.4500   -0.2375    0.0000 N   0  0
  -10.7417   -2.3167    0.0000 C   0  0  1  0  0  0
  -28.3792   -1.5750    0.0000 C   0  0  1  0  0  0
   -3.6958   -2.2125    0.0000 C   0  0  1  0  0  0
    3.3917   -2.1875    0.0000 C   0  0  1  0  0  0
    5.1750   -2.6125    0.0000 C   0  0  1  0  0  0
  -24.8417   -2.3042    0.0000 C   0  0  1  0  0  0
  -21.7500   -0.0292    0.0000 C   0  0
   -8.3125   -0.2667    0.0000 C   0  0
   -4.7083   -4.3042    0.0000 N   0  0
    7.6542   -4.5792    0.0000 N   0  0
  -22.3667   -4.2667    0.0000 N   0  0
   -8.2417   -4.2875    0.0000 N   0  0
   -1.2875   -4.2667    0.0000 C   0  0
  -21.7667   -1.0792    0.0000 C   0  0
  -37.8500   -2.2667    0.0000 O   0  0
  -32.0667   -0.9625    0.0000 O   0  0
   -8.3375   -2.9125    0.0000 O   0  0
  -11.8917   -2.8917    0.0000 O   0  0
  -13.6625   -1.2792    0.0000 O   0  0
  -29.5667   -2.2750    0.0000 O   0  0
  -35.5792   -0.9542    0.0000 O   0  0
  -18.9542   -2.8750    0.0000 O   0  0
   -6.5917   -1.3167    0.0000 O   0  0
  -33.8375   -2.5375    0.0000 O   0  0
  -15.4417   -2.8917    0.0000 O   0  0
  -20.7292   -1.2792    0.0000 O   0  0
    7.5542   -3.2000    0.0000 O   0  0
  -17.2042   -1.2792    0.0000 O   0  0
    9.3167   -1.5792    0.0000 O   0  0
  -26.0167   -2.8875    0.0000 O   0  0
    0.4417   -3.2042    0.0000 O   0  0
  -22.4750   -2.8792    0.0000 O   0  0
   -4.8458   -2.9292    0.0000 O   0  0
    2.2125   -1.5792    0.0000 O   0  0
   -3.0875   -3.2250    0.0000 O   0  0
    3.9917   -3.2000    0.0000 O   0  0
  -27.7792   -2.5875    0.0000 O   0  0
  -10.1292   -1.2917    0.0000 O   0  0
   -1.3083   -1.6042    0.0000 O   0  0
    5.7542   -1.5792    0.0000 O   0  0
  -24.2417   -1.2750    0.0000 O   0  0
    8.7375   -3.2542    0.0000 C   0  0
    6.9375   -1.5500    0.0000 C   0  0
   -5.4208   -1.2792    0.0000 C   0  0
  -21.3292   -2.9500    0.0000 C   0  0
  -38.4500   -0.6167    0.0000 C   0  0
   -7.1167   -1.0125    0.0000 O   0  0
   11.0667   -3.1875    0.0000 O   0  0
  -16.0167   -1.2417    0.0000 C   0  0
    1.6292   -3.2542    0.0000 C   0  0
  -26.6250   -1.2375    0.0000 C   0  0
  -12.4750   -1.2417    0.0000 C   0  0  2  0  0  0
  -17.1875   -3.9417    0.0000 O   0  0
   -8.9417   -1.2625    0.0000 C   0  0
    0.4875   -0.5542    0.0000 O   0  0
   -7.7125    0.0583    0.0000 O   0  0
   -0.6708   -4.6000    0.0000 O   0  0
   -1.9083   -3.2792    0.0000 C   0  0
   -5.9708   -4.2875    0.0000 N   0  0
   -9.4792   -4.2667    0.0000 N   0  0
  -23.6042   -4.2500    0.0000 N   0  0
    6.4125   -4.5542    0.0000 N   0  0
    7.0542   -5.5417    0.0000 N   0  0
   -8.8792   -5.2500    0.0000 N   0  0
   -5.3458   -5.2667    0.0000 N   0  0
  -22.9667   -5.2292    0.0000 N   0  0
  -37.2875   -2.0917    0.0000 C   0  0
  -31.2792   -1.1417    0.0000 C   0  0
  -39.0250   -1.6292    0.0000 N   0  0
  -14.2542   -2.9500    0.0000 C   0  0  2  0  0  0
  -19.5792   -1.2250    0.0000 C   0  0  2  0  0  0
   -8.2667   -0.9417    0.0000 C   0  0
  -16.5500   -2.9500    0.0000 N   0  0
   -1.2875   -3.6042    0.0000 C   0  0
   -8.9417    0.0583    0.0000 N   0  0
    9.3375   -3.5875    0.0000 C   0  0
   -4.8208   -0.9292    0.0000 C   0  0
  -20.7042   -3.2792    0.0000 C   0  0
    7.5750   -1.2000    0.0000 C   0  0
  -37.8292   -0.2917    0.0000 C   0  0
   11.8542   -2.5417    0.0000 O   0  0
   10.6000   -4.2500    0.0000 C   0  0
    8.8167   -0.5542    0.0000 C   0  0
  -19.4750   -3.9417    0.0000 C   0  0
  -36.5667    0.3750    0.0000 C   0  0
   -3.5625   -0.2875    0.0000 C   0  0
    1.1042   -1.5542    0.0000 O   0  0
   -1.9083   -4.6000    0.0000 O   0  0
  -34.4167   -0.8875    0.0000 C   0  0
   10.4750   -1.5375    0.0000 C   0  0
    9.3375   -4.2500    0.0000 C   0  0
  -37.8292    0.3750    0.0000 C   0  0
   -4.1833   -1.2792    0.0000 C   0  0
  -37.2125   -0.6167    0.0000 C   0  0
  -20.7042   -3.9417    0.0000 C   0  0
    8.1750   -1.5417    0.0000 C   0  0
  -20.0750   -2.9667    0.0000 C   0  0
    9.9750   -3.2750    0.0000 C   0  0
    7.5750   -0.5542    0.0000 C   0  0
   -4.8208   -0.2875    0.0000 C   0  0
  -27.1417    1.0208    0.0000 N   0  0
  -31.4292   -4.5750    0.0000 N   0  0
  -37.2125    0.7000    0.0000 C   0  0
    8.1750   -0.2167    0.0000 C   0  0
   -3.5625   -0.9292    0.0000 C   0  0
    9.9750   -4.5750    0.0000 C   0  0
   -4.1833    0.0458    0.0000 C   0  0
  -19.4750   -3.2792    0.0000 C   0  0
    8.8167   -1.2000    0.0000 C   0  0
  -20.0750   -4.2667    0.0000 C   0  0
  -36.5667   -0.2917    0.0000 C   0  0
   10.6000   -3.5875    0.0000 C   0  0
  -36.1667   -2.6292    0.0000 C   0  0
  -30.1667   -0.6250    0.0000 C   0  0
  -11.8792   -0.8917    0.0000 O   0  0
   -2.9458    0.0458    0.0000 O   0  0
    9.4375   -0.2167    0.0000 O   0  0
  -18.8292   -4.2667    0.0000 O   0  0
  -35.9750    0.7000    0.0000 O   0  0
   11.2167   -4.5750    0.0000 O   0  0
   -7.8917   -0.6625    0.0000 C   0  0
   -7.2042   -2.9875    0.0000 C   0  0
   11.1125   -1.1875    0.0000 O   0  0
  -33.7917   -0.5542    0.0000 O   0  0
  -30.9292   -0.5000    0.0000 C   0  0
  -36.9375   -2.7292    0.0000 C   0  0
  -32.6917   -2.6375    0.0000 C   0  0
  -26.0042   -0.8875    0.0000 C   0  0
    2.2292   -3.5875    0.0000 C   0  0
  -15.4167   -0.8917    0.0000 C   0  0
  -10.7417   -2.9667    0.0000 C   0  0
    5.1792   -3.2542    0.0000 C   0  0
  -28.3792   -0.9417    0.0000 C   0  0
  -24.8417   -2.9500    0.0000 C   0  0
   -3.6958   -1.5750    0.0000 C   0  0
    3.3917   -1.5500    0.0000 C   0  0
    5.8000   -4.2417    0.0000 C   0  0
   -6.5792   -3.9750    0.0000 C   0  0
  -10.1042   -3.9542    0.0000 C   0  0
  -24.2250   -3.9375    0.0000 C   0  0
  -27.1417    0.3833    0.0000 C   0  0
  -31.4292   -3.9375    0.0000 C   0  0
  -20.2000   -0.8750    0.0000 C   0  0
  -14.8917   -3.2792    0.0000 C   0  0
  -13.0917   -0.8917    0.0000 C   0  0
  -13.6292   -3.2792    0.0000 C   0  0
  -18.9417   -0.8750    0.0000 C   0  0
   -6.5792   -3.3167    0.0000 C   0  0
  -10.1042   -3.2917    0.0000 C   0  0
  -24.2250   -3.2792    0.0000 C   0  0
    5.8000   -3.5875    0.0000 C   0  0
  -32.0417   -2.9417    0.0000 C   0  0
  -27.7667   -0.6042    0.0000 C   0  0
  -27.7667    0.0583    0.0000 C   0  0
  -32.0417   -3.6250    0.0000 C   0  0
  -25.3625   -1.2375    0.0000 C   0  0
    2.2292   -4.2417    0.0000 C   0  0
    2.8667   -3.2542    0.0000 C   0  0
  -15.4167   -0.2500    0.0000 C   0  0
  -14.7792   -1.2417    0.0000 C   0  0
  -26.0042   -0.2417    0.0000 C   0  0
  -14.8917   -3.9417    0.0000 C   0  0
  -20.2000   -0.2292    0.0000 C   0  0
  2 20  1  0
  3  6  1  0
  4  1  1  0
  5  2  1  0
  6 66  1  0
  7  9  1  1
  8  7  1  0
  9 10  1  0
 10 46  1  0
 11 30  1  0
 21 12  1  1
 13 55  1  0
 14 42  1  0
 15 19  1  0
 16 18  1  0
 17 45  1  0
 18 70  1  0
 19 72  1  0
 20 11  1  6
 21  1  1  0
 22 59  1  0
 23 58  1  0
 24 74  1  0
 25 65  1  0
 26 73  1  0
 27 71  1  0
 28 76  1  0
 29 75  1  0
 39 30  1  1
 31 86  1  0
 32 92  1  0
 33 95  1  0
 34 96  1  0
 35 91  1  0
 36 93  1  0
 37 94  1  0
 38 24  1  0
 39 17  1  0
 40 13  1  0
 41 14  1  0
 42  3  1  0
 43 31  1  0
 44  8  1  0
 77 45  1  6
 46 15  1  6
 47 34  1  0
 48 35  1  0
 49 23  1  0
 50 22  1  0
 51 26  1  0
 52 25  1  0
 53 32  1  0
 54 33  1  0
 55 16  1  1
 56 12  1  0
 57 38  1  1
 58 40  1  6
 59 43  1  1
 60 36  1  0
 61 29  1  0
 62 27  1  0
 63 28  1  0
 64 37  1  0
 65 47  1  1
 66 48  1  1
 67  3  1  0
 58 68  1  0
 59 69  1  0
 70 52  1  6
 71 41  1  1
 72 49  1  1
 73 54  1  1
 74 51  1  6
 75 50  1  6
 76 53  1  1
 77  4  1  0
 78104  1  0
 79 57  1  0
 80149  2  0
 81152  2  0
 82150  2  0
 83151  2  0
 84  5  1  0
 85 87  1  0
 86 60  1  6
 65 87  1  0
 88 68  1  0
 89 69  1  0
 90 85  1  0
 91 44  1  6
 92 56  1  1
 93 62  1  0
 94 61  1  0
 95 64  1  6
 96 63  1  6
 97 90  2  0
 98162  1  0
 99 80  1  0
100 81  1  0
101 83  1  0
102 82  1  0
103164  1  0
104 85  2  0
105  5  2  0
106  4  2  0
107  6  2  0
108  8  2  0
109 10  2  0
110 12  2  0
111 11  2  0
112 13  2  0
113 14  2  0
114 17  2  0
115 19  2  0
116 18  2  0
117 26  2  0
118 23  2  0
119 24  2  0
120 28  2  0
121 22  2  0
122 25  2  0
123 27  2  0
124 29  2  0
125 36  2  0
126 37  2  0
127 32  2  0
128 35  2  0
129 31  2  0
130 33  2  0
131 34  2  0
 74132  1  0
 73133  1  0
 71134  1  0
 70135  1  0
 84136  1  0
137 67  2  0
138 79  2  0
 72139  1  0
 75140  1  0
 76141  1  0
  7142  1  0
143 88  2  0
 66144  1  0
145 89  2  0
146 98  2  0
147103  2  0
 86148  1  0
149228  1  0
150229  1  0
151230  1  0
152227  1  0
153 81  1  0
154 82  1  0
155 80  1  0
156 83  1  0
157  2  1  0
158  1  1  0
 84159  1  1
 46160  1  0
 55161  1  0
162144  1  0
163 88  1  0
164148  1  0
165 98  1  0
166132  1  0
167134  1  0
168135  1  0
169133  1  0
170136  1  0
171 79  1  0
172202  1  0
173194  2  0
174198  1  0
175201  1  0
176197  2  0
177 89  1  0
178103  1  0
 39179  1  0
 57180  1  0
181166  2  0
182170  2  0
183167  1  0
184170  1  0
185168  2  0
186169  1  0
187168  1  0
188166  1  0
189169  2  0
190167  2  0
191231  1  0
192232  1  0
193182  1  0
194189  1  0
195183  2  0
196181  1  0
197190  1  0
198187  2  0
199186  2  0
200185  1  0
201184  2  0
202188  2  0
 20203  1  0
 21204  1  0
142205  1  1
206176  1  0
207173  1  0
208174  1  0
209175  1  0
210172  1  0
211 67  1  0
 42212  1  6
213180  1  0
214179  1  0
215158  1  0
216203  1  0
 77217  1  0
218141  1  0
219140  1  0
220139  1  0
 91221  1  0
 95222  1  0
 92223  1  0
 96224  1  0
 93225  1  1
 94226  1  1
227241  1  0
228238  1  0
229239  1  0
230240  1  0
231244  1  0
232245  1  0
233161  1  0
234160  1  0
235142  1  0
160236  1  1
161237  1  6
238212  1  0
239221  1  0
240224  1  0
241222  1  0
242217  1  0
243223  1  0
244243  1  0
245242  1  0
246218  1  0
247219  1  0
248219  1  0
249220  1  0
250220  1  0
251218  1  0
252234  1  0
253233  1  0
215204  1  0
157216  1  0
175193  2  0
 97 78  1  0
174200  2  0
195176  1  0
199173  1  0
172196  2  0
M  END