
          11280715362D 1   1.00000     0.00000     0

 26 29  0     0  0            999 V2000
    3.3042   -6.8625    0.0000 C   0  0  0  0  0  0           0  0  0
    7.4792   -8.5542    0.0000 N   0  0  3  0  0  0           0  0  0
    2.5167   -7.1250    0.0000 C   0  0  0  0  0  0           0  0  0
    3.8000   -7.5250    0.0000 C   0  0  3  0  0  0           0  0  0
    2.5250   -7.9500    0.0000 C   0  0  0  0  0  0           0  0  0
    8.2875   -8.7292    0.0000 C   0  0  0  0  0  0           0  0  0
    3.3167   -8.2000    0.0000 C   0  0  0  0  0  0           0  0  0
    5.8667   -8.2250    0.0000 N   0  0  3  0  0  0           0  0  0
    3.5500   -6.0750    0.0000 O   0  0  0  0  0  0           0  0  0
    7.2167   -7.7750    0.0000 C   0  0  0  0  0  0           0  0  0
    6.9292   -9.1750    0.0000 C   0  0  0  0  0  0           0  0  0
    8.5417   -9.5125    0.0000 C   0  0  0  0  0  0           0  0  0
    4.6250   -7.5167    0.0000 C   0  0  0  0  0  0           0  0  0
    5.0417   -8.2292    0.0000 C   0  0  0  0  0  0           0  0  0
    6.1250   -9.0042    0.0000 C   0  0  0  0  0  0           0  0  0
    6.4042   -7.6042    0.0000 C   0  0  0  0  0  0           0  0  0
    7.9875  -10.1250    0.0000 O   0  0  0  0  0  0           0  0  0
    1.8042   -6.7125    0.0000 C   0  0  0  0  0  0           0  0  0
    1.8042   -8.3667    0.0000 C   0  0  0  0  0  0           0  0  0
    8.8292   -8.1167    0.0000 C   0  0  0  0  0  0           0  0  0
    9.3417   -9.6792    0.0000 C   0  0  0  0  0  0           0  0  0
    7.1792   -9.9542    0.0000 C   0  0  0  0  0  0           0  0  0
    1.0917   -7.1250    0.0000 C   0  0  0  0  0  0           0  0  0
    1.0917   -7.9542    0.0000 C   0  0  0  0  0  0           0  0  0
    9.6375   -8.2792    0.0000 C   0  0  0  0  0  0           0  0  0
    9.8917   -9.0667    0.0000 C   0  0  0  0  0  0           0  0  0
  2 10  1  0     0  0
  3  1  1  0     0  0
  4  1  1  0     0  0
  5  3  1  0     0  0
  6  2  1  0     0  0
  7  4  1  0     0  0
  8 14  1  0     0  0
  9  1  2  0     0  0
 10 16  1  0     0  0
 11 15  1  0     0  0
 12  6  2  0     0  0
 13  4  1  0     0  0
 14 13  1  0     0  0
 15  8  1  0     0  0
 16  8  1  0     0  0
 17 12  1  0     0  0
 18  3  2  0     0  0
 19  5  2  0     0  0
 20  6  1  0     0  0
 21 12  1  0     0  0
 22 17  1  0     0  0
 23 18  1  0     0  0
 24 23  2  0     0  0
 25 20  2  0     0  0
 26 25  1  0     0  0
  7  5  1  0     0  0
 19 24  1  0     0  0
  2 11  1  0     0  0
 26 21  2  0     0  0
M  END