
  SciTegic09081514182D

 23 25  0  0  0  0            999 V2000
   -2.6111    0.7486    0.0000 C   0  0
   -2.6111   -0.7486    0.0000 C   0  0
   -1.2964   -1.4973    0.0000 C   0  0
   -1.2964    1.4973    0.0000 C   0  0
    0.0000    0.7486    0.0000 C   0  0
    0.0000   -0.7486    0.0000 C   0  0
    1.2964   -1.4973    0.0000 N   0  0
    2.5929   -0.7486    0.0000 C   0  0
    2.5929    0.7486    0.0000 N   0  0
    1.2964    1.4973    0.0000 C   0  0
    3.6321   -1.3486    0.0000 N   0  0
    1.2964    2.6973    0.0000 N   0  0
   -3.9091    1.5019    0.0000 N   0  0
   -3.9067    3.0027    0.0000 C   0  0
   -5.2049    3.7560    0.0000 C   0  0
   -5.2047    5.2560    0.0000 C   0  0
   -6.5036    6.0062    0.0000 C   0  0
   -7.8028    5.2564    0.0000 C   0  0
   -7.8030    3.7564    0.0000 C   0  0
   -6.5041    3.0062    0.0000 C   0  0
   -9.1040    6.0044    0.0000 N   0  3
  -10.1424    5.4030    0.0000 O   0  0
   -9.1059    7.2044    0.0000 O   0  5
  1  2  2  0
  2  3  1  0
  3  6  2  0
  5  4  2  0
  4  1  1  0
  5  6  1  0
  6  7  1  0
  7  8  2  0
  8  9  1  0
  9 10  2  0
 10  5  1  0
  8 11  1  0
 10 12  1  0
  1 13  1  0
 13 14  1  0
 14 15  1  0
 15 16  2  0
 16 17  1  0
 17 18  2  0
 18 19  1  0
 19 20  2  0
 20 15  1  0
 21 22  2  0
 21 23  1  0
 18 21  1  0
M  CHG  2  21   1  23  -1
M  END