
  SciTegic01161211242D

 23 23  0  0  0  0            999 V2000
   -9.2211    1.4430    0.0000 C   0  0
   -8.4711    2.7420    0.0000 C   0  0
   -7.8003    1.4887    0.0000 C   0  0
    5.1894   -6.0109    0.0000 N   0  0
    2.5973   -1.5031    0.0000 O   0  0
    3.8933   -3.7570    0.0000 C   0  0
    1.2990   -0.7500    0.0000 C   0  0
    3.8912   -5.2578    0.0000 C   0  0
    2.5951   -3.0039    0.0000 C   0  0
   -1.2990    0.7500    0.0000 C   0  0
    8.9855   -2.7614    0.0000 Cl  0  0
    1.2990    0.7500    0.0000 C   0  0
    0.0000   -1.5000    0.0000 C   0  0
    0.0000    1.5000    0.0000 C   0  0
   -1.2990   -0.7500    0.0000 C   0  0
    4.9336   -3.1588    0.0000 O   0  0
   -6.4990    0.7409    0.0000 C   0  0
   -5.2003    1.4932    0.0000 O   0  0
    5.1873   -7.5117    0.0000 C   0  0
   -2.6003    1.4977    0.0000 C   0  0
   -3.8990    0.7455    0.0000 C   0  0
    6.2253   -8.1139    0.0000 C   0  0
    4.1470   -8.1099    0.0000 C   0  0
  1  2  1  0
  1  3  1  0
  2  3  1  0
  5  7  1  0
  4  8  1  0
  6  8  1  0
  5  9  1  0
  6  9  1  0
  7 12  1  0
  7 13  2  0
 10 14  1  0
 12 14  2  0
 10 15  2  0
 13 15  1  0
  6 16  1  0
  3 17  1  0
 17 18  1  0
  4 19  1  0
 10 20  1  0
 18 21  1  0
 20 21  1  0
 19 22  1  0
 19 23  1  0
M  END