
          11280715522D 1   1.00000     0.00000     0

 32 34  0     0  0            999 V2000
    0.8135    0.2417    0.0000 C   0  0  0  0  0  0           0  0  0
    0.8114   -0.5857    0.0000 C   0  0  0  0  0  0           0  0  0
    1.5258   -0.9979    0.0000 C   0  0  0  0  0  0           0  0  0
    2.2464   -0.5848    0.0000 C   0  0  0  0  0  0           0  0  0
    2.2412    0.2483    0.0000 C   0  0  0  0  0  0           0  0  0
    1.5225    0.6583    0.0000 C   0  0  0  0  0  0           0  0  0
    2.9594   -0.9952    0.0000 N   0  0  0  0  0  0           0  0  0
    3.6758   -0.5827    0.0000 C   0  0  0  0  0  0           0  0  0
    4.3889   -0.9976    0.0000 C   0  0  0  0  0  0           0  0  0
    3.6745    0.2404    0.0000 O   0  0  0  0  0  0           0  0  0
    5.1051   -0.5805    0.0000 S   0  0  0  0  0  0           0  0  0
    5.8229   -0.9955    0.0000 C   0  0  0  0  0  0           0  0  0
    5.8168   -1.8198    0.0000 N   0  0  0  0  0  0           0  0  0
    6.5329   -2.2301    0.0000 C   0  0  0  0  0  0           0  0  0
    7.2465   -1.8174    0.0000 C   0  0  0  0  0  0           0  0  0
    7.2454   -0.9873    0.0000 C   0  0  0  0  0  0           0  0  0
    6.5281   -0.5787    0.0000 N   0  0  0  0  0  0           0  0  0
    7.9592   -0.5706    0.0000 O   0  0  0  0  0  0           0  0  0
    0.0959    0.6567    0.0000 S   0  0  3  0  0  0           0  0  0
    0.5036    1.3711    0.0000 O   0  0  0  0  0  0           0  0  0
    7.9650   -2.2263    0.0000 C   0  0  0  0  0  0           0  0  0
    8.6715   -2.6375    0.0000 N   0  0  0  0  0  0           0  0  0
    6.5336   -3.0532    0.0000 C   0  0  0  0  0  0           0  0  0
    5.8169   -3.4680    0.0000 C   0  0  0  0  0  0           0  0  0
    5.8169   -4.2898    0.0000 C   0  0  0  0  0  0           0  0  0
    6.5305   -4.7022    0.0000 C   0  0  0  0  0  0           0  0  0
    7.2466   -4.2873    0.0000 C   0  0  0  0  0  0           0  0  0
    7.2453   -3.4633    0.0000 C   0  0  0  0  0  0           0  0  0
    7.9618   -4.6987    0.0000 O   0  0  0  0  0  0           0  0  0
    7.9672   -5.5218    0.0000 C   0  0  0  0  0  0           0  0  0
   -0.6208    1.0708    0.0000 N   0  0  0  0  0  0           0  0  0
   -0.3141   -0.0593    0.0000 O   0  0  0  0  0  0           0  0  0
  2  3  2  0     0  0
  3  4  1  0     0  0
  4  5  2  0     0  0
  5  6  1  0     0  0
  6  1  2  0     0  0
  4  7  1  0     0  0
  7  8  1  0     0  0
  8  9  1  0     0  0
  8 10  2  0     0  0
  9 11  1  0     0  0
 11 12  1  0     0  0
 12 13  2  0     0  0
 13 14  1  0     0  0
 14 15  2  0     0  0
 15 16  1  0     0  0
 16 17  2  0     0  0
 17 12  1  0     0  0
 16 18  1  0     0  0
  1 19  1  0     0  0
 19 20  2  0     0  0
 15 21  1  0     0  0
 21 22  3  0     0  0
 14 23  1  0     0  0
 23 24  2  0     0  0
 24 25  1  0     0  0
 25 26  2  0     0  0
 26 27  1  0     0  0
 27 28  2  0     0  0
 28 23  1  0     0  0
 27 29  1  0     0  0
 29 30  1  0     0  0
 19 31  1  0     0  0
  1  2  1  0     0  0
 19 32  2  0     0  0
M  END