
  SciTegic03291108512D

 25 28  0  0  0  0            999 V2000
   -0.5797   -0.6905    0.0000 S   0  0
    0.9194    1.6269    0.0000 S   0  0
   -1.0475    4.3959    0.0000 O   0  5
   -2.4065    3.9544    0.0000 O   0  0
    0.9194   -0.8481    0.0000 N   0  0
    1.6338    0.3894    0.0000 N   0  0
    1.7201    2.8599    0.0000 N   0  0
    2.3875    1.7039    0.0000 N   0  0
    2.5270    3.0314    0.0000 N   0  0
    2.9395    2.3170    0.0000 N   0  0
   -1.5995    3.7828    0.0000 N   0  3
    0.2049    0.3894    0.0000 C   0  0
   -0.5797    0.6444    0.0000 C   0  0
    0.2049   -0.4356    0.0000 C   0  0
    0.9194    0.8019    0.0000 C   0  0
   -0.8347    1.4290    0.0000 C   0  0
   -1.0647   -0.0231    0.0000 C   0  0
    1.6338    2.0394    0.0000 C   0  0
    1.6338   -0.4356    0.0000 C   0  0
   -1.6417    1.6005    0.0000 C   0  0
   -0.2826    2.0421    0.0000 C   0  0
   -1.3446    2.9982    0.0000 C   0  0
   -1.8966    2.3851    0.0000 C   0  0
   -0.5376    2.8267    0.0000 C   0  0
    1.1070    3.4119    0.0000 C   0  0
  1 14  1  0
  1 17  1  0
  2 15  1  0
  2 18  1  0
  3 11  1  0
  4 11  2  0
  5 14  1  0
  5 19  2  0
  6 15  2  0
  6 19  1  0
  7  9  1  0
  7 18  1  0
  7 25  1  0
  8 10  1  0
  8 18  2  0
  9 10  2  0
 11 22  1  0
 12 13  1  0
 12 14  2  0
 12 15  1  0
 13 16  1  0
 13 17  2  0
 16 20  2  0
 16 21  1  0
 20 23  1  0
 21 24  2  0
 22 23  2  0
 22 24  1  0
M  CHG  2   3  -1  11   1
M  END