
          11280715352D 1   1.00000     0.00000     0

 32 35  0     0  0            999 V2000
    0.7750   -2.6250    0.0000 S   0  0  3  0  0  0           0  0  0
    0.7667   -1.8000    0.0000 N   0  0  0  0  0  0           0  0  0
   -0.6625   -0.1500    0.0000 N   0  0  0  0  0  0           0  0  0
    0.0542   -0.5667    0.0000 N   0  0  3  0  0  0           0  0  0
    0.0542   -1.3917    0.0000 C   0  0  0  0  0  0           0  0  0
   -0.6625    0.6750    0.0000 C   0  0  0  0  0  0           0  0  0
    0.7542    0.6833    0.0000 C   0  0  3  0  0  0           0  0  0
    0.7667   -3.4500    0.0000 C   0  0  0  0  0  0           0  0  0
    0.7625   -0.1417    0.0000 C   0  0  0  0  0  0           0  0  0
    1.5667   -2.8375    0.0000 O   0  0  0  0  0  0           0  0  0
    0.0542   -3.0292    0.0000 O   0  0  0  0  0  0           0  0  0
   -1.2458    1.2583    0.0000 C   0  0  0  0  0  0           0  0  0
    1.4750   -3.8542    0.0000 C   0  0  0  0  0  0           0  0  0
    1.3417    1.2625    0.0000 C   0  0  0  0  0  0           0  0  0
   -0.6583   -1.8042    0.0000 N   0  0  0  0  0  0           0  0  0
   -1.0333    2.0583    0.0000 C   0  0  0  0  0  0           0  0  0
   -2.0375    1.0458    0.0000 C   0  0  0  0  0  0           0  0  0
   -2.4125    2.4250    0.0000 C   0  0  0  0  0  0           0  0  0
    2.1917   -3.4500    0.0000 Cl  0  0  0  0  0  0           0  0  0
   -1.6125    2.6458    0.0000 C   0  0  0  0  0  0           0  0  0
   -2.6250    1.6250    0.0000 C   0  0  0  0  0  0           0  0  0
    0.0500   -3.8542    0.0000 C   0  0  0  0  0  0           0  0  0
   -2.9958    3.0083    0.0000 Cl  0  0  0  0  0  0           0  0  0
    1.4750   -4.6792    0.0000 C   0  0  0  0  0  0           0  0  0
    1.1250    2.0583    0.0000 C   0  0  0  0  0  0           0  0  0
    2.1292    1.0458    0.0000 C   0  0  0  0  0  0           0  0  0
   -0.6583   -2.6292    0.0000 C   0  0  0  0  0  0           0  0  0
    0.0417   -4.6750    0.0000 C   0  0  0  0  0  0           0  0  0
    0.7542   -5.0917    0.0000 C   0  0  0  0  0  0           0  0  0
    2.7167    1.6333    0.0000 C   0  0  0  0  0  0           0  0  0
    1.7042    2.6458    0.0000 C   0  0  0  0  0  0           0  0  0
    2.5042    2.4250    0.0000 C   0  0  0  0  0  0           0  0  0
  2  1  1  0     0  0
  3  4  1  0     0  0
  4  5  1  0     0  0
  5  2  1  0     0  0
  6  3  2  0     0  0
  7  9  1  0     0  0
  8  1  1  0     0  0
  9  4  1  0     0  0
 10  1  2  0     0  0
 11  1  2  0     0  0
 12  6  1  0     0  0
 13  8  1  0     0  0
 14  7  1  0     0  0
 15  5  2  0     0  0
 16 12  2  0     0  0
 17 12  1  0     0  0
 18 21  1  0     0  0
 19 13  1  0     0  0
 20 16  1  0     0  0
 21 17  2  0     0  0
 22  8  2  0     0  0
 23 18  1  0     0  0
 24 13  2  0     0  0
 25 14  1  0     0  0
 26 14  2  0     0  0
 27 15  1  0     0  0
 28 22  1  0     0  0
 29 28  2  0     0  0
 30 26  1  0     0  0
 31 25  2  0     0  0
 32 30  2  0     0  0
 24 29  1  0     0  0
  6  7  1  0     0  0
 18 20  2  0     0  0
 32 31  1  0     0  0
M  END