
  SciTegic02271514372D

 24 26  0  0  0  0            999 V2000
    9.1623   -7.8260    0.0000 C   0  0
    8.4724   -8.2640    0.0000 C   0  0
    7.7474   -7.8844    0.0000 C   0  0
    7.7145   -7.0702    0.0000 C   0  0
    8.4044   -6.6322    0.0000 C   0  0
    9.1272   -7.0084    0.0000 C   0  0
    9.8921   -8.2047    0.0000 S   0  0
   10.5971   -7.7961    0.0000 N   0  0
   13.9776   -8.6133    0.0000 C   0  0
   13.4975   -9.2724    0.0000 N   0  0
   12.7203   -9.0219    0.0000 C   0  0
   12.7203   -8.2047    0.0000 C   0  0
   13.4975   -7.9500    0.0000 N   0  0
   12.0153   -7.7961    0.0000 C   0  0
   11.3062   -8.2047    0.0000 C   0  0
   11.3062   -9.0219    0.0000 C   0  0
   12.0153   -9.4305    0.0000 C   0  0
   14.7948   -8.6133    0.0000 O   0  0
   10.5971   -9.4305    0.0000 O   0  0
   10.5971  -10.2477    0.0000 C   0  0
    7.0575   -8.3223    0.0000 Cl  0  0
    8.5075   -9.0816    0.0000 Cl  0  0
    9.4761   -8.9066    0.0000 O   0  0
   10.2933   -8.9066    0.0000 O   0  0
  1  2  1  0
  2  3  2  0
  3  4  1  0
  4  5  2  0
  5  6  1  0
  1  6  2  0
  7  8  1  0
  1  7  1  0
  9 10  1  0
 10 11  1  0
 11 12  1  0
 12 13  1  0
  9 13  1  0
 14 15  1  0
 15 16  2  0
 16 17  1  0
 11 17  2  0
 12 14  2  0
  9 18  2  0
 19 20  1  0
 16 19  1  0
  8 15  1  0
  3 21  1  0
  2 22  1  0
  7 23  2  0
  7 24  2  0
M  END