
          11280715122D 1   1.00000     0.00000     0

 30 32  0     0  0            999 V2000
    2.4625   -5.4917    0.0000 C   0  0  0  0  0  0           0  0  0
    1.7500   -5.0792    0.0000 C   0  0  0  0  0  0           0  0  0
   -2.2958   -5.6000    0.0000 N   0  0  3  0  0  0           0  0  0
   -3.0125   -5.1875    0.0000 C   0  0  0  0  0  0           0  0  0
    2.4625   -6.3167    0.0000 C   0  0  0  0  0  0           0  0  0
   -3.0125   -4.3542    0.0000 C   0  0  0  0  0  0           0  0  0
   -0.9333   -6.5250    0.0000 N   0  0  3  0  0  0           0  0  0
    1.7500   -4.2542    0.0000 N   0  0  3  0  0  0           0  0  0
   -3.7333   -5.6000    0.0000 C   0  0  0  0  0  0           0  0  0
    3.1750   -6.7292    0.0000 N   0  0  0  0  0  0           0  0  0
    1.0292   -5.4917    0.0000 O   0  0  0  0  0  0           0  0  0
   -3.7333   -3.9417    0.0000 C   0  0  0  0  0  0           0  0  0
   -1.5583   -5.2292    0.0000 C   0  0  0  0  0  0           0  0  0
   -2.3583   -6.4167    0.0000 C   0  0  0  0  0  0           0  0  0
    1.7500   -6.7375    0.0000 N   0  0  0  0  0  0           0  0  0
   -0.8750   -5.7000    0.0000 C   0  0  0  0  0  0           0  0  0
   -1.6750   -6.8792    0.0000 C   0  0  0  0  0  0           0  0  0
   -4.4458   -5.1875    0.0000 C   0  0  0  0  0  0           0  0  0
   -4.4458   -4.3625    0.0000 C   0  0  0  0  0  0           0  0  0
   -2.3000   -3.9417    0.0000 O   0  0  0  0  0  0           0  0  0
    3.1750   -5.0792    0.0000 C   0  0  0  0  0  0           0  0  0
   -0.2583   -6.9875    0.0000 C   0  0  0  0  0  0           0  0  0
    0.4500   -6.7750    0.0000 C   0  0  0  0  0  0           0  0  0
    3.8917   -6.3167    0.0000 C   0  0  0  0  0  0           0  0  0
    1.0375   -7.1542    0.0000 C   0  0  0  0  0  0           0  0  0
    1.0292   -3.8417    0.0000 C   0  0  0  0  0  0           0  0  0
    2.4625   -3.8417    0.0000 C   0  0  0  0  0  0           0  0  0
   -5.1583   -3.9500    0.0000 C   0  0  0  0  0  0           0  0  0
   -1.5833   -4.3500    0.0000 C   0  0  0  0  0  0           0  0  0
    3.8917   -5.4917    0.0000 C   0  0  0  0  0  0           0  0  0
  2  1  1  0     0  0
  3 14  1  0     0  0
  4  3  1  0     0  0
  5  1  2  0     0  0
  6  4  1  0     0  0
  7 22  1  0     0  0
  8  2  1  0     0  0
  9  4  2  0     0  0
 10  5  1  0     0  0
 11  2  2  0     0  0
 12  6  2  0     0  0
 13 16  1  0     0  0
 14 17  1  0     0  0
 15  5  1  0     0  0
 16  7  1  0     0  0
 17  7  1  0     0  0
 18  9  1  0     0  0
 19 18  2  0     0  0
 20  6  1  0     0  0
 21  1  1  0     0  0
 22 23  1  0     0  0
 23 25  1  0     0  0
 24 30  1  0     0  0
 25 15  1  0     0  0
 26  8  1  0     0  0
 27  8  1  0     0  0
 28 19  1  0     0  0
 29 20  1  0     0  0
 30 21  2  0     0  0
 24 10  2  0     0  0
  3 13  1  0     0  0
 19 12  1  0     0  0
M  END