
          11280715332D 1   1.00000     0.00000     0

 52 55  0     1  0            999 V2000
    4.7542   -2.8917    0.0000 C   0  0  1  0  0  0           0  0  0
    6.9042   -2.4792    0.0000 C   0  0  1  0  0  0           0  0  0
    4.0417   -2.4792    0.0000 C   0  0  0  0  0  0           0  0  0
    7.6167   -2.8917    0.0000 C   0  0  0  0  0  0           0  0  0
    5.4750   -2.4792    0.0000 C   0  0  1  0  0  0           0  0  0
    6.1875   -2.8917    0.0000 C   0  0  1  0  0  0           0  0  0
    3.3292   -2.8917    0.0000 N   0  0  3  0  0  0           0  0  0
    8.3292   -2.4792    0.0000 N   0  0  3  0  0  0           0  0  0
    2.6167   -2.4792    0.0000 C   0  0  3  0  0  0           0  0  0
    9.0417   -2.8917    0.0000 C   0  0  3  0  0  0           0  0  0
    6.9042   -1.6542    0.0000 O   0  0  0  0  0  0           0  0  0
    4.7542   -3.7167    0.0000 O   0  0  0  0  0  0           0  0  0
    2.6167   -1.6542    0.0000 C   0  0  0  0  0  0           0  0  0
    9.0417   -3.7167    0.0000 C   0  0  0  0  0  0           0  0  0
    4.0417   -1.6542    0.0000 O   0  0  0  0  0  0           0  0  0
    7.6167   -3.7167    0.0000 O   0  0  0  0  0  0           0  0  0
    9.7625   -2.4792    0.0000 C   0  0  0  0  0  0           0  0  0
    1.9042   -2.8917    0.0000 C   0  0  0  0  0  0           0  0  0
    3.3292   -1.2417    0.0000 O   0  0  0  0  0  0           0  0  0
    8.3292   -4.1292    0.0000 O   0  0  0  0  0  0           0  0  0
    6.1875   -3.7167    0.0000 O   0  0  0  0  0  0           0  0  0
    5.4750   -1.6542    0.0000 O   0  0  0  0  0  0           0  0  0
    7.6875   -1.2167    0.0000 C   0  0  0  0  0  0           0  0  0
    4.0417   -4.1292    0.0000 C   0  0  0  0  0  0           0  0  0
    1.9042   -1.2417    0.0000 O   0  0  0  0  0  0           0  0  0
    9.7625   -4.1292    0.0000 O   0  0  0  0  0  0           0  0  0
   10.4750   -2.8917    0.0000 C   0  0  0  0  0  0           0  0  0
    1.1875   -2.4792    0.0000 C   0  0  0  0  0  0           0  0  0
    3.3292   -3.7167    0.0000 C   0  0  0  0  0  0           0  0  0
    8.3292   -1.6542    0.0000 C   0  0  0  0  0  0           0  0  0
    4.0417   -4.9542    0.0000 C   0  0  0  0  0  0           0  0  0
    7.6542   -0.3917    0.0000 C   0  0  0  0  0  0           0  0  0
    1.1917   -1.6500    0.0000 C   0  0  0  0  0  0           0  0  0
    0.4792   -2.8875    0.0000 C   0  0  0  0  0  0           0  0  0
   10.4750   -3.7167    0.0000 C   0  0  0  0  0  0           0  0  0
   11.1875   -2.4792    0.0000 C   0  0  0  0  0  0           0  0  0
    4.7542   -5.3667    0.0000 C   0  0  0  0  0  0           0  0  0
    6.9250   -0.0042    0.0000 C   0  0  0  0  0  0           0  0  0
    8.3542    0.0458    0.0000 C   0  0  0  0  0  0           0  0  0
    3.3292   -5.3667    0.0000 C   0  0  0  0  0  0           0  0  0
    8.3292    0.8708    0.0000 C   0  0  0  0  0  0           0  0  0
    0.4792   -1.2375    0.0000 C   0  0  0  0  0  0           0  0  0
   -0.2333   -2.4792    0.0000 C   0  0  0  0  0  0           0  0  0
    6.9000    0.8208    0.0000 C   0  0  0  0  0  0           0  0  0
    3.3292   -6.1917    0.0000 C   0  0  0  0  0  0           0  0  0
   11.1875   -4.1292    0.0000 C   0  0  0  0  0  0           0  0  0
   11.9000   -2.8875    0.0000 C   0  0  0  0  0  0           0  0  0
    4.7625   -6.1917    0.0000 C   0  0  0  0  0  0           0  0  0
    4.0417   -6.6042    0.0000 C   0  0  0  0  0  0           0  0  0
   11.9042   -3.7167    0.0000 C   0  0  0  0  0  0           0  0  0
    7.6000    1.2583    0.0000 C   0  0  0  0  0  0           0  0  0
   -0.2375   -1.6500    0.0000 C   0  0  0  0  0  0           0  0  0
  2  6  1  0     0  0
  3  1  1  0     0  0
  4  2  1  0     0  0
  5  1  1  0     0  0
  6  5  1  0     0  0
  7  3  1  0     0  0
  8  4  1  0     0  0
  9  7  1  0     0  0
 10  8  1  0     0  0
  2 11  1  1     0  0
  1 12  1  1     0  0
 13  9  1  0     0  0
 14 10  1  0     0  0
 15  3  2  0     0  0
 16  4  2  0     0  0
 17 10  1  0     0  0
 18  9  1  0     0  0
 19 13  2  0     0  0
 20 14  2  0     0  0
  6 21  1  6     0  0
  5 22  1  6     0  0
 23 11  1  0     0  0
 24 12  1  0     0  0
 25 13  1  0     0  0
 26 14  1  0     0  0
 27 17  1  0     0  0
 28 18  1  0     0  0
 29  7  1  0     0  0
 30  8  1  0     0  0
 31 24  1  0     0  0
 32 23  1  0     0  0
 33 28  2  0     0  0
 34 28  1  0     0  0
 35 27  2  0     0  0
 36 27  1  0     0  0
 37 31  1  0     0  0
 38 32  1  0     0  0
 39 32  2  0     0  0
 40 31  2  0     0  0
 41 39  1  0     0  0
 42 33  1  0     0  0
 43 34  2  0     0  0
 44 38  2  0     0  0
 45 40  1  0     0  0
 46 35  1  0     0  0
 47 36  2  0     0  0
 48 37  2  0     0  0
 49 45  2  0     0  0
 50 47  1  0     0  0
 51 41  2  0     0  0
 52 43  1  0     0  0
 49 48  1  0     0  0
 52 42  2  0     0  0
 51 44  1  0     0  0
 50 46  2  0     0  0
M  END