
  SciTegic06051313522D

 18 19  0  0  0  0            999 V2000
   20.8216   -3.1394    0.0000 C   0  0
   21.5313   -2.7299    0.0000 C   0  0
   21.5284   -1.9073    0.0000 C   0  0
   20.8198   -1.5020    0.0000 C   0  0
   22.2346   -1.4960    0.0000 N   0  0
   22.9438   -1.9019    0.0000 C   0  0
   20.1136   -2.7304    0.0000 C   0  0
   20.1148   -1.9093    0.0000 C   0  0
   20.8198   -0.6810    0.0000 N   0  3
   20.1112   -0.2740    0.0000 O   0  0
   21.5266   -0.2709    0.0000 O   0  5
   22.9436   -2.7168    0.0000 C   0  0
   23.6520   -3.1226    0.0000 C   0  0
   24.3591   -2.7113    0.0000 C   0  0
   24.3534   -1.8899    0.0000 C   0  0
   23.6444   -1.4878    0.0000 C   0  0
   25.0581   -1.4762    0.0000 F   0  0
   23.6547   -3.9398    0.0000 Cl  0  0
  7  1  1  0
  1  2  2  0
  2  3  1  0
  3  4  2  0
  4  8  1  0
  3  5  1  0
  5  6  1  0
  7  8  2  0
  9 10  2  0
  9 11  1  0
  4  9  1  0
  6 12  2  0
 12 13  1  0
 13 14  2  0
 14 15  1  0
 15 16  2  0
 16  6  1  0
 15 17  1  0
 13 18  1  0
M  CHG  2   9   1  11  -1
M  END