
          11280715332D 1   1.00000     0.00000     0

 49 53  0     1  0            999 V2000
    3.9292   -2.3375    0.0000 S   0  0  3  0  0  0           0  0  0
    3.1792   -2.7292    0.0000 N   0  0  3  0  0  0           0  0  0
    4.6792   -2.6875    0.0000 N   0  0  3  0  0  0           0  0  0
    3.0375   -3.5250    0.0000 C   0  0  1  0  0  0           0  0  0
    4.8667   -3.4792    0.0000 C   0  0  1  0  0  0           0  0  0
    4.3375   -4.1542    0.0000 C   0  0  1  0  0  0           0  0  0
    3.5417   -4.1542    0.0000 C   0  0  1  0  0  0           0  0  0
    3.3417   -1.7500    0.0000 O   0  0  0  0  0  0           0  0  0
    4.5125   -1.7500    0.0000 O   0  0  0  0  0  0           0  0  0
    6.8042    0.2208    0.0000 C   0  0  0  0  0  0           0  0  0
    1.0250    0.1458    0.0000 C   0  0  0  0  0  0           0  0  0
    5.6917   -3.4792    0.0000 C   0  0  0  0  0  0           0  0  0
    2.2125   -3.5250    0.0000 C   0  0  0  0  0  0           0  0  0
    5.3917   -2.2667    0.0000 C   0  0  0  0  0  0           0  0  0
    2.4542   -2.3167    0.0000 C   0  0  0  0  0  0           0  0  0
    1.7417   -0.2667    0.0000 C   0  0  0  0  0  0           0  0  0
    6.0917   -0.2000    0.0000 C   0  0  0  0  0  0           0  0  0
    6.1000   -1.0250    0.0000 C   0  0  0  0  0  0           0  0  0
    1.7417   -1.0875    0.0000 C   0  0  0  0  0  0           0  0  0
    2.4542   -1.4917    0.0000 C   0  0  0  0  0  0           0  0  0
    5.3875   -1.4417    0.0000 C   0  0  0  0  0  0           0  0  0
    6.7917    1.0458    0.0000 O   0  0  0  0  0  0           0  0  0
    1.0167    0.9708    0.0000 O   0  0  0  0  0  0           0  0  0
    6.1042   -4.1917    0.0000 O   0  0  0  0  0  0           0  0  0
    1.7875   -4.3125    0.0000 O   0  0  0  0  0  0           0  0  0
    4.7000   -4.9000    0.0000 O   0  0  0  0  0  0           0  0  0
    3.1917   -4.9000    0.0000 O   0  0  0  0  0  0           0  0  0
    7.5167   -0.1875    0.0000 N   0  0  0  0  0  0           0  0  0
    0.3125   -0.2667    0.0000 N   0  0  0  0  0  0           0  0  0
    0.9625   -4.2917    0.0000 C   0  0  0  0  0  0           0  0  0
    6.9292   -4.1917    0.0000 C   0  0  0  0  0  0           0  0  0
    2.4542    0.1500    0.0000 C   0  0  0  0  0  0           0  0  0
    5.3750    0.2083    0.0000 C   0  0  0  0  0  0           0  0  0
    3.1667   -0.2625    0.0000 C   0  0  0  0  0  0           0  0  0
    4.6625   -0.2167    0.0000 C   0  0  0  0  0  0           0  0  0
    3.1750   -1.0792    0.0000 C   0  0  0  0  0  0           0  0  0
    4.6667   -1.0417    0.0000 C   0  0  0  0  0  0           0  0  0
    8.2292    0.2333    0.0000 C   0  0  0  0  0  0           0  0  0
   -0.4083    0.1375    0.0000 C   0  0  0  0  0  0           0  0  0
    0.5625   -3.5625    0.0000 C   0  0  0  0  0  0           0  0  0
    7.3375   -4.9167    0.0000 C   0  0  0  0  0  0           0  0  0
    0.5292   -4.9917    0.0000 C   0  0  0  0  0  0           0  0  0
    7.3375   -3.4875    0.0000 C   0  0  0  0  0  0           0  0  0
   -0.2625   -3.5417    0.0000 C   0  0  0  0  0  0           0  0  0
    8.1625   -4.9167    0.0000 C   0  0  0  0  0  0           0  0  0
    8.1625   -3.4875    0.0000 C   0  0  0  0  0  0           0  0  0
   -0.2958   -4.9750    0.0000 C   0  0  0  0  0  0           0  0  0
    8.5792   -4.2042    0.0000 C   0  0  0  0  0  0           0  0  0
   -0.6875   -4.2417    0.0000 C   0  0  0  0  0  0           0  0  0
  2  1  1  0     0  0
  3  1  1  0     0  0
  4  2  1  0     0  0
  5  3  1  0     0  0
  6  5  1  0     0  0
  7  4  1  0     0  0
  8  1  2  0     0  0
  9  1  2  0     0  0
 10 17  1  0     0  0
 11 16  1  0     0  0
  5 12  1  6     0  0
  4 13  1  1     0  0
 14  3  1  0     0  0
 15  2  1  0     0  0
 16 19  2  0     0  0
 17 18  1  0     0  0
 18 21  2  0     0  0
 19 20  1  0     0  0
 20 15  1  0     0  0
 21 14  1  0     0  0
 22 10  2  0     0  0
 23 11  2  0     0  0
 24 12  1  0     0  0
 25 13  1  0     0  0
  6 26  1  6     0  0
  7 27  1  1     0  0
 28 10  1  0     0  0
 29 11  1  0     0  0
 30 25  1  0     0  0
 31 24  1  0     0  0
 32 34  2  0     0  0
 33 35  1  0     0  0
 34 36  1  0     0  0
 35 37  2  0     0  0
 36 20  2  0     0  0
 37 21  1  0     0  0
 38 28  1  0     0  0
 39 29  1  0     0  0
 40 30  1  0     0  0
 41 31  2  0     0  0
 42 30  2  0     0  0
 43 31  1  0     0  0
 44 40  2  0     0  0
 45 41  1  0     0  0
 46 43  2  0     0  0
 47 42  1  0     0  0
 48 46  1  0     0  0
 49 47  2  0     0  0
  7  6  1  0     0  0
 33 17  2  0     0  0
 32 16  1  0     0  0
 48 45  2  0     0  0
 49 44  1  0     0  0
M  END