
  SciTegic06271217572D

 25 26  0  0  0  0            999 V2000
   -3.1088   -2.9194    0.0000 S   0  0
   -2.6965   -3.6339    0.0000 O   0  0
   -2.2838   -2.9196    0.0000 O   0  0
   -3.8223   -0.8541    0.0000 C   0  0
   -3.8234   -1.6815    0.0000 C   0  0
   -3.1086   -2.0944    0.0000 C   0  0
   -2.3922   -1.6810    0.0000 C   0  0
   -2.3950   -0.8505    0.0000 C   0  0
   -3.1104   -0.4414    0.0000 C   0  0
   -1.6821   -0.4353    0.0000 C   0  0
   -0.9661   -0.8451    0.0000 C   0  0
   -1.6852    0.3897    0.0000 O   0  0
   -0.2532   -0.4299    0.0000 S   0  0
    0.4628   -0.8397    0.0000 C   0  0
    0.4628   -1.6636    0.0000 N   0  0
    1.1780   -2.0733    0.0000 C   0  0
    1.8919   -1.6581    0.0000 C   0  0
    1.8861   -0.8288    0.0000 C   0  0
    1.1704   -0.4228    0.0000 N   0  0
   -4.5382   -2.0934    0.0000 Cl  0  0
   -3.8234   -3.3317    0.0000 N   0  0
    2.5976   -0.4111    0.0000 O   0  0
    1.1807   -2.8983    0.0000 C   0  0
    0.4676   -3.3132    0.0000 C   0  0
    0.4703   -4.1381    0.0000 C   0  0
 11 13  1  0
  2  1  2  0
 13 14  1  0
  7  8  1  0
 14 15  2  0
  4  5  2  0
 15 16  1  0
  8  9  2  0
 16 17  2  0
  9  4  1  0
 17 18  1  0
  1  3  2  0
 18 19  1  0
 19 14  1  0
  8 10  1  0
  5 20  1  0
  6  1  1  0
  5  6  1  0
  1 21  1  0
 10 11  1  0
 18 22  2  0
 16 23  1  0
 10 12  2  0
 23 24  1  0
  6  7  2  0
 24 25  1  0
M  END