
          11280715332D 1   1.00000     0.00000     0

 25 25  0     0  0            999 V2000
    0.5500   -2.1875    0.0000 S   0  0  3  0  0  0           0  0  0
    3.8417   -2.1750    0.0000 C   0  0  0  0  0  0           0  0  0
    1.3750   -2.1875    0.0000 C   0  0  0  0  0  0           0  0  0
    4.2542   -2.8875    0.0000 N   0  0  0  0  0  0           0  0  0
    0.5417   -3.0125    0.0000 O   0  0  0  0  0  0           0  0  0
    0.5500   -1.3625    0.0000 O   0  0  0  0  0  0           0  0  0
    5.5000   -3.5917    0.0000 C   0  0  0  0  0  0           0  0  0
    7.6292   -4.1667    0.0000 C   0  0  0  0  0  0           0  0  0
    3.0167   -2.1792    0.0000 C   0  0  0  0  0  0           0  0  0
    9.3542   -5.5417    0.0000 C   0  0  0  0  0  0           0  0  0
   -0.2750   -2.1792    0.0000 N   0  0  0  0  0  0           0  0  0
    8.1167   -4.8292    0.0000 N   0  0  0  0  0  0           0  0  0
    6.3250   -3.5875    0.0000 N   0  0  0  0  0  0           0  0  0
    4.2500   -1.4542    0.0000 O   0  0  0  0  0  0           0  0  0
    5.0917   -4.3042    0.0000 O   0  0  0  0  0  0           0  0  0
    7.9667   -3.4125    0.0000 O   0  0  0  0  0  0           0  0  0
    8.9542   -6.2542    0.0000 O   0  0  0  0  0  0           0  0  0
    1.7750   -1.4750    0.0000 C   0  0  0  0  0  0           0  0  0
    1.7875   -2.9000    0.0000 C   0  0  0  0  0  0           0  0  0
    2.6042   -2.8917    0.0000 C   0  0  0  0  0  0           0  0  0
    2.5917   -1.4667    0.0000 C   0  0  0  0  0  0           0  0  0
    5.0792   -2.8792    0.0000 C   0  0  0  0  0  0           0  0  0
    6.8125   -4.2542    0.0000 C   0  0  0  0  0  0           0  0  0
    8.9417   -4.8292    0.0000 C   0  0  0  0  0  0           0  0  0
   10.1792   -5.5292    0.0000 O   0  0  0  0  0  0           0  0  0
  2  9  1  0     0  0
  3  1  1  0     0  0
  4  2  1  0     0  0
  5  1  2  0     0  0
  6  1  2  0     0  0
  7 22  1  0     0  0
  8 23  1  0     0  0
  9 20  2  0     0  0
 10 24  1  0     0  0
 11  1  1  0     0  0
 12  8  1  0     0  0
 13  7  1  0     0  0
 14  2  2  0     0  0
 15  7  2  0     0  0
 16  8  2  0     0  0
 17 10  2  0     0  0
 18  3  1  0     0  0
 19  3  2  0     0  0
 20 19  1  0     0  0
 21 18  2  0     0  0
 22  4  1  0     0  0
 23 13  1  0     0  0
 24 12  1  0     0  0
 25 10  1  0     0  0
 21  9  1  0     0  0
M  END