
  SciTegic          2D

 25 27  0  0  0  0            999 V2000
   -1.1506    7.5940    0.0000 C   0  0
   -2.8294    6.3690    0.0000 C   0  0
   -2.3436    7.4660    0.0000 C   0  0
    3.5108    5.5677    0.0000 O   0  0
    1.2990   -0.7500    0.0000 C   0  0
   -1.2990   -0.7500    0.0000 C   0  0
    1.2990    0.7500    0.0000 C   0  0
   -1.2990    0.7500    0.0000 C   0  0
    7.5034    7.0065    0.0000 C   0  0
    0.7463    5.2884    0.0000 C   0  0
    0.0000   -2.7000    0.0000 C   0  0
    7.7508    4.5921    0.0000 N   0  0
   -1.2149    3.8587    0.0000 N   0  0
    2.6351    3.3939    0.0000 N   0  0
    5.1806    3.9233    0.0000 N   0  0
    6.1315    6.4000    0.0000 S   0  0
    3.7552    4.3929    0.0000 C   0  0
    0.0000   -1.5000    0.0000 C   0  0
    8.5042    5.8891    0.0000 C   0  0
    0.0000    1.5000    0.0000 C   0  0
   -0.7537    5.2860    0.0000 C   0  0
    1.2121    3.8625    0.0000 C   0  0
    6.3007    4.9224    0.0000 C   0  0
    0.0000    3.0008    0.0000 N   0  0
   -1.6362    6.4967    0.0000 C   0  0
  1 25  1  0
  2 25  1  0
  3 25  1  0
 17  4  2  0
  5  7  2  0
  5 18  1  0
  6  8  1  0
  6 18  2  0
  7 20  1  0
  8 20  2  0
  9 16  1  0
  9 19  2  0
 10 21  1  0
 10 22  2  0
 11 18  1  0
 19 12  1  0
 23 12  2  0
 21 13  2  0
 13 24  1  0
 17 14  1  0
 22 14  1  0
 23 15  1  0
 17 15  1  0
 23 16  1  0
 20 24  1  0
 21 25  1  0
 22 24  1  0
M  END