
  SciTegic09291413392D

 26 27  0  0  0  0            999 V2000
    7.8075   -5.0161    0.0000 O   0  0
    7.1357   -5.5016    0.0000 C   0  0
    7.3909   -6.2910    0.0000 C   0  0
    8.2199   -6.2910    0.0000 C   0  0
    8.4767   -5.5028    0.0000 C   0  0
    9.2614   -5.2484    0.0000 O   0  0
    8.7046   -6.9586    0.0000 C   0  0
    6.7159   -4.7829    0.0000 C   0  0
    6.7111   -6.2083    0.0000 C   0  0
    5.8863   -6.1941    0.0000 O   0  0
    5.8910   -4.7850    0.0000 O   0  0
    5.4767   -4.0717    0.0000 C   0  0
    4.6518   -4.0738    0.0000 C   0  0
    5.8873   -3.3562    0.0000 O   0  0
    8.2792   -7.6655    0.0000 C   0  0
    7.4537   -7.6491    0.0000 C   0  0
    7.0285   -8.3551    0.0000 C   0  0
    7.4280   -9.0779    0.0000 C   0  0
    8.2572   -9.0901    0.0000 C   0  0
    8.6786   -8.3835    0.0000 C   0  0
    8.6592   -9.8104    0.0000 C   0  0
    8.2364  -10.5187    0.0000 O   0  0
    9.4841   -9.8224    0.0000 O   0  0
    4.2375   -3.3605    0.0000 C   0  0
    4.2412   -4.7893    0.0000 C   0  0
    3.8246   -4.0663    0.0000 C   0  0
  2  3  1  0
  1  2  1  0
  3  4  1  0
  4  5  1  0
  5  1  1  0
  5  6  2  0
  4  7  2  0
  2  8  1  0
  2  9  1  0
  9 10  1  0
  8 11  1  0
 11 12  1  0
 12 13  1  0
 12 14  2  0
  7 15  1  0
 15 16  2  0
 16 17  1  0
 17 18  2  0
 18 19  1  0
 19 20  2  0
 20 15  1  0
 19 21  1  0
 21 22  2  0
 21 23  1  0
 13 24  1  0
 13 25  1  0
 13 26  1  0
M  END