
  SciTegic03291108542D

 15 16  0  0  0  0            999 V2000
    0.8306   -2.3316    0.0000 O   0  0
    2.8958   -1.5496    0.0000 N   0  0
    1.2722   -0.9726    0.0000 N   0  0
    3.5632   -2.0345    0.0000 N   0  0
   -0.4686    0.3442    0.0000 N   0  0
    2.2284   -2.0345    0.0000 C   0  0
    1.4437   -1.7796    0.0000 C   0  0
    2.4833   -2.8192    0.0000 C   0  0
    0.4876   -0.7177    0.0000 C   0  0
    3.3083   -2.8192    0.0000 C   0  0
    0.3161    0.0893    0.0000 C   0  0
   -0.1255   -1.2697    0.0000 C   0  0
    2.8958   -0.7246    0.0000 C   0  0
   -0.9101   -1.0148    0.0000 C   0  0
   -1.0816   -0.2078    0.0000 C   0  0
  1  7  2  0
  2  4  1  0
  2  6  1  0
  2 13  1  0
  3  7  1  0
  3  9  1  0
  4 10  2  0
  5 11  2  0
  5 15  1  0
  6  7  1  0
  6  8  2  0
  8 10  1  0
  9 11  1  0
  9 12  2  0
 12 14  1  0
 14 15  2  0
M  END