
  SciTegic10041313242D

 61 62  0  0  1  0            999 V2000
   -1.4750  -21.0750    0.0000 Na  0  3
    6.7404  -24.9973    0.0000 N   0  0
    7.4564  -26.2366    0.0000 C   0  0
    7.4552  -25.4092    0.0000 C   0  0
    8.1700  -24.9964    0.0000 C   0  0
    8.8865  -25.4097    0.0000 C   0  0
    8.8836  -26.2402    0.0000 C   0  0
    8.1682  -26.6494    0.0000 C   0  0
   -1.8208  -24.1250    0.0000 C   0  0  2  0  0  0
   -1.8208  -24.9500    0.0000 C   0  0  2  0  0  0
   -1.1088  -25.3583    0.0000 C   0  0  1  0  0  0
   -0.3968  -24.9500    0.0000 C   0  0  2  0  0  0
   -0.3968  -24.1250    0.0000 C   0  0  2  0  0  0
   -1.1088  -23.7083    0.0000 O   0  0
    0.3189  -23.7146    0.0000 O   0  0
    1.0321  -24.1292    0.0000 C   0  0  1  0  0  0
    1.0245  -24.9551    0.0000 C   0  0  1  0  0  0
    1.7336  -25.3696    0.0000 C   0  0  2  0  0  0
    2.4517  -24.9627    0.0000 C   0  0  1  0  0  0
    2.4561  -24.1368    0.0000 O   0  0
    1.7424  -23.7177    0.0000 C   0  0  2  0  0  0
    3.1634  -25.3800    0.0000 O   0  0
    3.8806  -24.9723    0.0000 C   0  0
    4.5923  -25.3896    0.0000 C   0  0  2  0  0  0
    4.5841  -26.2132    0.0000 C   0  0  2  0  0  0
    5.2917  -26.6304    0.0000 C   0  0  1  0  0  0
    6.0113  -26.2262    0.0000 C   0  0  1  0  0  0
    5.3067  -24.9785    0.0000 O   0  0
    3.8657  -26.6189    0.0000 O   0  0
    6.7208  -26.6472    0.0000 O   0  0
    6.0211  -25.4013    0.0000 C   0  0
    5.2830  -27.4553    0.0000 O   0  0
   -2.5365  -23.7146    0.0000 C   0  0
   -2.5407  -22.8842    0.0000 O   0  0
    1.0250  -23.3042    0.0000 H   0  0
   -2.5347  -25.3635    0.0000 O   0  0
   -3.2498  -24.9521    0.0000 C   0  0
   -1.1088  -26.1833    0.0000 O   0  0
    0.3171  -25.3635    0.0000 N   0  0
    1.0167  -25.7792    0.0000 O   0  0
    1.7281  -26.1946    0.0000 O   0  0
    8.1658  -27.4744    0.0000 N   0  0
    8.8790  -27.8890    0.0000 C   0  0
    8.8765  -28.7140    0.0000 C   0  0
    9.5947  -27.4786    0.0000 O   0  0
    9.5898  -29.1286    0.0000 C   0  0
   10.3055  -28.7183    0.0000 C   0  0
   11.0187  -29.1329    0.0000 C   0  0
   11.7344  -28.7225    0.0000 C   0  0
   12.4867  -29.0581    0.0000 S   0  0
   13.0406  -28.4467    0.0000 S   0  0
   12.6302  -27.7309    0.0000 C   0  0
   11.8228  -27.9002    0.0000 C   0  0
   -3.1912  -22.3767    0.0000 S   0  0
   -3.8419  -21.8739    0.0000 O   0  5
   -2.6852  -21.7250    0.0000 O   0  0
   -3.6992  -23.0267    0.0000 O   0  0
    1.7449  -22.8927    0.0000 C   0  0
    1.0316  -22.4781    0.0000 O   0  0
    2.4605  -22.4823    0.0000 O   0  5
    2.9917  -22.2667    0.0000 Na  0  3
 13 14  1  0
 27 30  1  6
  3  4  2  0
 27 31  1  0
 31  2  1  0
 13 15  1  6
 26 32  1  1
  7  8  2  0
  9 33  1  1
 15 16  1  0
 33 34  1  0
 16 17  1  0
 16 35  1  1
  8  3  1  0
 10 36  1  6
  4  2  1  0
 36 37  1  0
  9 10  1  0
 11 38  1  1
 12 39  1  6
  4  5  1  0
 17 40  1  1
 16 21  1  0
 18 41  1  6
 17 18  1  0
  8 42  1  0
 18 19  1  0
 42 43  1  0
 19 20  1  0
 43 44  1  0
 20 21  1  0
 43 45  2  0
 44 46  1  0
 19 22  1  1
 46 47  1  0
  5  6  2  0
 47 48  1  0
 22 23  1  0
 49 48  1  0
 49 50  1  0
 24 23  1  1
 24 25  1  0
  6  7  1  0
 50 51  1  0
 51 52  1  0
 52 53  1  0
 53 49  1  0
  9 14  1  0
 34 54  1  0
 10 11  1  0
 54 55  1  0
 11 12  1  0
 54 56  2  0
 24 28  1  0
 54 57  2  0
 25 26  1  0
 21 58  1  1
 26 27  1  0
 58 59  2  0
 12 13  1  0
 58 60  1  0
 25 29  1  6
M  CHG  4   1   1  55  -1  60  -1  61   1
M  END