
  CDK    9/16/09,9:19

 39 43  0  0  0  0  0  0  0  0999 V2000
   -1.0375    0.9208    0.0000 C   0  0  0  0  0  0  0  0  0  0  0  0
   -1.0375    0.0958    0.0000 O   0  0  0  0  0  0  0  0  0  0  0  0
   -0.3255   -0.3125    0.0000 C   0  0  0  0  0  0  0  0  0  0  0  0
   -0.3255    1.3375    0.0000 C   0  0  0  0  0  0  0  0  0  0  0  0
    0.3865    0.9208    0.0000 C   0  0  0  0  0  0  0  0  0  0  0  0
    0.3865    0.0948    0.0000 C   0  0  0  0  0  0  0  0  0  0  0  0
    1.1722    1.1760    0.0000 C   0  0  0  0  0  0  0  0  0  0  0  0
    1.6577    0.5078    0.0000 C   0  0  0  0  0  0  0  0  0  0  0  0
    1.1749   -0.1608    0.0000 C   0  0  0  0  0  0  0  0  0  0  0  0
    1.9953   -0.2447    0.0000 O   0  0  0  0  0  0  0  0  0  0  0  0
    0.7438   -0.8642    0.0000 C   0  0  0  0  0  0  0  0  0  0  0  0
    1.1374   -1.5893    0.0000 O   0  0  0  0  0  0  0  0  0  0  0  0
    2.4500    0.2958    0.0000 H   0  0  0  0  0  0  0  0  0  0  0  0
    1.4271    1.9606    0.0000 O   0  0  0  0  0  0  0  0  0  0  0  0
   -0.3259   -1.1375    0.0000 O   0  0  0  0  0  0  0  0  0  0  0  0
    2.2517    1.9582    0.0000 C   0  0  0  0  0  0  0  0  0  0  0  0
    2.6625    1.2428    0.0000 C   0  0  0  0  0  0  0  0  0  0  0  0
    2.6659    2.6717    0.0000 O   0  0  0  0  0  0  0  0  0  0  0  0
    3.4875    1.2409    0.0000 C   0  0  0  0  0  0  0  0  0  0  0  0
    3.8983    0.5254    0.0000 C   0  0  0  0  0  0  0  0  0  0  0  0
    3.4827   -0.1865    0.0000 C   0  0  0  0  0  0  0  0  0  0  0  0
    3.8928   -0.9014    0.0000 C   0  0  0  0  0  0  0  0  0  0  0  0
    4.7187   -0.9038    0.0000 C   0  0  0  0  0  0  0  0  0  0  0  0
    5.1327   -0.1853    0.0000 C   0  0  0  0  0  0  0  0  0  0  0  0
    4.7202    0.5267    0.0000 C   0  0  0  0  0  0  0  0  0  0  0  0
    5.9577   -0.1843    0.0000 O   0  0  0  0  0  0  0  0  0  0  0  0
    5.1304   -1.6187    0.0000 O   0  0  0  0  0  0  0  0  0  0  0  0
   -1.0406   -1.5496    0.0000 C   0  0  0  0  0  0  0  0  0  0  0  0
   -1.7528   -1.1396    0.0000 O   0  0  0  0  0  0  0  0  0  0  0  0
   -2.4654   -1.5482    0.0000 C   0  0  0  0  0  0  0  0  0  0  0  0
   -2.4701   -2.3735    0.0000 C   0  0  0  0  0  0  0  0  0  0  0  0
   -1.7560   -2.7886    0.0000 C   0  0  0  0  0  0  0  0  0  0  0  0
   -1.0372   -2.3783    0.0000 C   0  0  0  0  0  0  0  0  0  0  0  0
   -3.1781   -1.1326    0.0000 C   0  0  0  0  0  0  0  0  0  0  0  0
   -3.1745   -0.3076    0.0000 O   0  0  0  0  0  0  0  0  0  0  0  0
   -3.1863   -2.7829    0.0000 O   0  0  0  0  0  0  0  0  0  0  0  0
   -1.7592   -3.6136    0.0000 O   0  0  0  0  0  0  0  0  0  0  0  0
   -0.3229   -2.7911    0.0000 O   0  0  0  0  0  0  0  0  0  0  0  0
   -1.2583   -0.7458    0.0000 H   0  0  0  0  0  0  0  0  0  0  0  0
  9 10  1  0  0  0  0 
 17 19  2  0  0  0  0 
  8 10  1  0  0  0  0 
 19 20  1  0  0  0  0 
  2  3  1  0  0  0  0 
 20 21  2  0  0  0  0 
  3  6  1  0  0  0  0 
 21 22  1  0  0  0  0 
  5  4  1  0  0  0  0 
 22 23  2  0  0  0  0 
  5  6  1  0  0  0  0 
 23 24  1  0  0  0  0 
  9 11  1  6  0  0  0 
 24 25  2  0  0  0  0 
 25 20  1  0  0  0  0 
 24 26  1  0  0  0  0 
 11 12  1  0  0  0  0 
 23 27  1  0  0  0  0 
  1  2  1  0  0  0  0 
 28 15  1  0  0  0  0 
 28 29  1  0  0  0  0 
  8 13  1  6  0  0  0 
  1  4  2  0  0  0  0 
  7 14  1  1  0  0  0 
  6  9  1  0  0  0  0 
  3 15  1  1  0  0  0 
 28 33  1  0  0  0  0 
 29 30  1  0  0  0  0 
 30 31  1  0  0  0  0 
 31 32  1  0  0  0  0 
 32 33  1  0  0  0  0 
  8  7  1  0  0  0  0 
 30 34  1  1  0  0  0 
 14 16  1  0  0  0  0 
 34 35  1  0  0  0  0 
  7  5  1  0  0  0  0 
 31 36  1  6  0  0  0 
 16 17  1  0  0  0  0 
 32 37  1  1  0  0  0 
  9  8  1  0  0  0  0 
 33 38  1  6  0  0  0 
 16 18  2  0  0  0  0 
 28 39  1  6  0  0  0 
M  END