
          11280715312D 1   1.00000     0.00000     0

 25 28  0     0  0            999 V2000
    2.7792   -5.0375    0.0000 C   0  0  0  0  0  0           0  0  0
    2.7542   -5.6375    0.0000 C   0  0  0  0  0  0           0  0  0
    3.3125   -4.7667    0.0000 C   0  0  0  0  0  0           0  0  0
    5.8917   -5.2042    0.0000 N   0  0  3  0  0  0           0  0  0
    6.4250   -4.9375    0.0000 C   0  0  0  0  0  0           0  0  0
    4.8167   -5.7417    0.0000 N   0  0  3  0  0  0           0  0  0
    2.1750   -5.7917    0.0000 O   0  0  0  0  0  0           0  0  0
    3.2500   -5.9542    0.0000 C   0  0  0  0  0  0           0  0  0
    3.7792   -5.6875    0.0000 C   0  0  3  0  0  0           0  0  0
    2.2167   -4.8250    0.0000 C   0  0  0  0  0  0           0  0  0
    3.8167   -5.0917    0.0000 C   0  0  0  0  0  0           0  0  0
    1.8417   -5.2917    0.0000 C   0  0  0  0  0  0           0  0  0
    3.3417   -4.1667    0.0000 O   0  0  0  0  0  0           0  0  0
    5.3875   -4.8792    0.0000 C   0  0  0  0  0  0           0  0  0
    5.8542   -5.8042    0.0000 C   0  0  0  0  0  0           0  0  0
    6.9292   -5.2667    0.0000 C   0  0  0  0  0  0           0  0  0
    4.2875   -6.0167    0.0000 C   0  0  0  0  0  0           0  0  0
    5.3250   -6.0750    0.0000 C   0  0  0  0  0  0           0  0  0
    4.8500   -5.1500    0.0000 C   0  0  0  0  0  0           0  0  0
    6.8917   -5.8667    0.0000 O   0  0  0  0  0  0           0  0  0
    6.4542   -4.3417    0.0000 C   0  0  0  0  0  0           0  0  0
    7.4625   -4.9917    0.0000 C   0  0  0  0  0  0           0  0  0
    7.3917   -6.1917    0.0000 C   0  0  0  0  0  0           0  0  0
    6.9917   -4.0667    0.0000 C   0  0  0  0  0  0           0  0  0
    7.4917   -4.3917    0.0000 C   0  0  0  0  0  0           0  0  0
  2  1  2  0     0  0
  3  1  1  0     0  0
  4 14  1  0     0  0
  5  4  1  0     0  0
  6 17  1  0     0  0
  7  2  1  0     0  0
  8  2  1  0     0  0
  9 11  1  0     0  0
 10  1  1  0     0  0
 11  3  1  0     0  0
 12 10  2  0     0  0
 13  3  2  0     0  0
 14 19  1  0     0  0
 15 18  1  0     0  0
 16  5  2  0     0  0
 17  9  1  0     0  0
 18  6  1  0     0  0
 19  6  1  0     0  0
 20 16  1  0     0  0
 21  5  1  0     0  0
 22 16  1  0     0  0
 23 20  1  0     0  0
 24 21  2  0     0  0
 25 24  1  0     0  0
  7 12  1  0     0  0
  9  8  1  0     0  0
  4 15  1  0     0  0
 25 22  2  0     0  0
M  END