
  SciTegic02271514512D

 27 29  0  0  0  0            999 V2000
   10.1695  -15.7041    0.0000 C   0  0
   10.1695  -16.5213    0.0000 C   0  0
   10.8748  -16.9258    0.0000 C   0  0
   11.5801  -16.5213    0.0000 C   0  0
   11.5801  -15.7041    0.0000 C   0  0
   10.8748  -15.2914    0.0000 C   0  0
    9.4633  -16.9314    0.0000 C   0  0
    8.7547  -16.5221    0.0000 C   0  0
    8.0481  -16.9311    0.0000 C   0  0
    8.0489  -17.7491    0.0000 C   0  0
    8.7621  -18.1565    0.0000 C   0  0
    9.4658  -17.7452    0.0000 C   0  0
   10.8748  -14.4742    0.0000 O   0  0
   12.2890  -15.2976    0.0000 S   0  0
   12.9955  -15.7083    0.0000 C   0  0
   12.2872  -16.9309    0.0000 O   0  0
   12.9915  -16.5265    0.0000 C   0  0
   13.6972  -16.9371    0.0000 C   0  0
   14.4070  -16.5305    0.0000 C   0  0
   14.4068  -15.7091    0.0000 C   0  0
   13.7006  -15.3022    0.0000 C   0  0
   13.7006  -14.4850    0.0000 Cl  0  0
    8.7544  -15.7049    0.0000 Cl  0  0
   10.1753  -18.1509    0.0000 C   0  0
   10.1787  -18.9680    0.0000 F   0  0
   10.8812  -17.7393    0.0000 F   0  0
   10.9619  -18.3579    0.0000 F   0  0
  1  2  1  0
  1  6  1  0
  2  3  1  0
  3  4  1  0
  4  5  1  0
  5  6  2  0
  7  8  2  0
  8  9  1  0
  9 10  2  0
 10 11  1  0
 11 12  2  0
 12  7  1  0
  2  7  1  0
  6 13  1  0
  5 14  1  0
 14 15  1  0
  4 16  2  0
 15 17  2  0
 17 18  1  0
 18 19  2  0
 19 20  1  0
 20 21  2  0
 21 15  1  0
 21 22  1  0
  8 23  1  0
 12 24  1  0
 24 25  1  0
 24 26  1  0
 24 27  1  0
M  END