
          11280715402D 1   1.00000     0.00000     0

 52 56  0     0  0            999 V2000
    8.9750   -4.7917    0.0000 S   0  0  3  0  0  0           0  0  0
    9.7000   -6.0250    0.0000 C   0  0  0  0  0  0           0  0  0
   12.5292  -10.1917    0.0000 S   0  0  3  0  0  0           0  0  0
    9.6917   -5.2000    0.0000 N   0  0  0  0  0  0           0  0  0
   10.4167   -6.4375    0.0000 C   0  0  0  0  0  0           0  0  0
    8.9875   -6.4375    0.0000 N   0  0  0  0  0  0           0  0  0
    9.7000   -7.6792    0.0000 N   0  0  0  0  0  0           0  0  0
    8.9875   -7.2667    0.0000 C   0  0  0  0  0  0           0  0  0
   10.4167   -7.2667    0.0000 C   0  0  0  0  0  0           0  0  0
   13.2250  -10.6542    0.0000 C   0  0  0  0  0  0           0  0  0
    8.2542   -5.2000    0.0000 C   0  0  0  0  0  0           0  0  0
   11.1292   -6.0167    0.0000 O   0  0  0  0  0  0           0  0  0
    8.2750   -7.6792    0.0000 C   0  0  0  0  0  0           0  0  0
    6.8417   -8.5000    0.0000 C   0  0  0  0  0  0           0  0  0
    7.5417   -4.7750    0.0000 N   0  0  0  0  0  0           0  0  0
    7.5625   -8.9125    0.0000 C   0  0  0  0  0  0           0  0  0
    6.8417   -7.6750    0.0000 C   0  0  0  0  0  0           0  0  0
   13.3417  -11.4667    0.0000 S   0  0  0  0  0  0           0  0  0
    7.5542   -7.2625    0.0000 C   0  0  0  0  0  0           0  0  0
    8.2750   -8.5000    0.0000 C   0  0  0  0  0  0           0  0  0
   11.8417   -6.4292    0.0000 C   0  0  0  0  0  0           0  0  0
    8.2542   -4.3792    0.0000 O   0  0  0  0  0  0           0  0  0
    9.3792   -4.0667    0.0000 O   0  0  0  0  0  0           0  0  0
   12.8000   -9.4125    0.0000 O   0  0  0  0  0  0           0  0  0
   12.2542  -10.9750    0.0000 O   0  0  0  0  0  0           0  0  0
   11.8500   -9.7375    0.0000 N   0  0  0  0  0  0           0  0  0
   13.9542  -10.2917    0.0000 C   0  0  0  0  0  0           0  0  0
    6.8250   -5.1792    0.0000 C   0  0  0  0  0  0           0  0  0
   14.1542  -11.6042    0.0000 C   0  0  0  0  0  0           0  0  0
    6.8167   -6.0042    0.0000 C   0  0  0  0  0  0           0  0  0
    8.2500   -6.0167    0.0000 C   0  0  0  0  0  0           0  0  0
   12.5500   -6.0125    0.0000 C   0  0  0  0  0  0           0  0  0
   14.5292  -10.8750    0.0000 C   0  0  0  0  0  0           0  0  0
    7.5292   -6.4292    0.0000 C   0  0  0  0  0  0           0  0  0
   11.1292   -7.6792    0.0000 O   0  0  0  0  0  0           0  0  0
    6.1292   -8.9125    0.0000 O   0  0  0  0  0  0           0  0  0
    7.5667   -9.7292    0.0000 O   0  0  0  0  0  0           0  0  0
    6.0167   -7.6667    0.0000 O   0  0  0  0  0  0           0  0  0
    6.1000   -6.4167    0.0000 C   0  0  3  0  0  0           0  0  0
   11.8500   -8.9125    0.0000 C   0  0  0  0  0  0           0  0  0
   12.5417   -5.1875    0.0000 O   0  0  0  0  0  0           0  0  0
   11.8417   -7.2542    0.0000 C   0  0  0  0  0  0           0  0  0
   11.1292   -8.5042    0.0000 C   0  0  0  0  0  0           0  0  0
   13.2667   -6.4167    0.0000 C   0  0  0  0  0  0           0  0  0
    5.3875   -6.0000    0.0000 C   0  0  0  0  0  0           0  0  0
    6.0917   -7.2417    0.0000 C   0  0  0  0  0  0           0  0  0
    6.1292   -9.7375    0.0000 C   0  0  0  0  0  0           0  0  0
    8.2792  -10.1417    0.0000 C   0  0  0  0  0  0           0  0  0
    5.4292   -8.2542    0.0000 C   0  0  0  0  0  0           0  0  0
   11.8292   -4.7792    0.0000 C   0  0  0  0  0  0           0  0  0
   12.5542   -7.6625    0.0000 C   0  0  0  0  0  0           0  0  0
   13.2750   -7.2417    0.0000 C   0  0  0  0  0  0           0  0  0
  2  4  1  0     0  0
  3 26  1  0     0  0
  4  1  1  0     0  0
  5  2  2  0     0  0
  6  2  1  0     0  0
  7  8  1  0     0  0
  8  6  2  0     0  0
  9  5  1  0     0  0
 10  3  1  0     0  0
 11  1  1  0     0  0
 12  5  1  0     0  0
 13  8  1  0     0  0
 14 16  1  0     0  0
 15 11  2  0     0  0
 16 20  2  0     0  0
 17 19  1  0     0  0
 18 10  1  0     0  0
 19 13  2  0     0  0
 20 13  1  0     0  0
 21 12  1  0     0  0
 22  1  2  0     0  0
 23  1  2  0     0  0
 24  3  2  0     0  0
 25  3  2  0     0  0
 26 40  1  0     0  0
 27 10  2  0     0  0
 28 15  1  0     0  0
 29 18  1  0     0  0
 30 34  1  0     0  0
 31 11  1  0     0  0
 32 21  1  0     0  0
 33 27  1  0     0  0
 34 31  2  0     0  0
 35  9  1  0     0  0
 36 14  1  0     0  0
 37 16  1  0     0  0
 38 17  1  0     0  0
 39 30  1  0     0  0
 40 43  1  0     0  0
 41 32  1  0     0  0
 42 21  2  0     0  0
 43 35  1  0     0  0
 44 32  2  0     0  0
 45 39  1  0     0  0
 46 39  1  0     0  0
 47 36  1  0     0  0
 48 37  1  0     0  0
 49 38  1  0     0  0
 50 41  1  0     0  0
 51 42  1  0     0  0
 52 51  2  0     0  0
 30 28  2  0     0  0
  9  7  2  0     0  0
 14 17  2  0     0  0
 52 44  1  0     0  0
 33 29  2  0     0  0
M  END