
  SciTegic01181116592D

 24 25  0  0  0  0            999 V2000
   13.3195   -7.1701    0.0000 C   0  0
   12.6044   -6.7534    0.0000 C   0  0
   12.6050   -5.9284    0.0000 C   0  0
   13.3207   -5.5201    0.0000 C   0  0
   14.0358   -5.9367    0.0000 C   0  0
   14.0316   -6.7596    0.0000 C   0  0
   13.3240   -8.0028    0.0000 S   0  0
   14.1604   -8.0005    0.0000 O   0  0
   12.4912   -8.0073    0.0000 O   0  0
   13.3300   -8.8413    0.0000 N   0  0
   12.6156   -4.2793    0.0000 C   0  0
   12.6223   -3.4491    0.0000 N   0  0
   10.4825   -3.0384    0.0000 C   0  0
   11.2001   -3.4484    0.0000 N   0  0
   11.9088   -3.0392    0.0000 C   0  0
   11.9081   -2.2115    0.0000 C   0  0
   11.1988   -1.7973    0.0000 C   0  0
   10.4818   -2.2108    0.0000 N   0  0
    9.7655   -3.4601    0.0000 S   0  0
    9.7674   -4.2854    0.0000 C   0  0
   12.6292   -1.7856    0.0000 C   0  0
   13.3504   -1.3638    0.0000 N   0  0
   11.1981   -0.9738    0.0000 Cl  0  0
   13.3254   -4.6968    0.0000 C   0  0
  3  4  1  0
  4  5  2  0
  5  6  1  0
  1  6  2  0
  7  8  2  0
  7  9  2  0
  7 10  1  0
  1  7  1  0
  1  2  1  0
 13 14  1  0
 14 15  2  0
 15 16  1  0
 16 17  2  0
 17 18  1  0
 13 18  2  0
 19 20  1  0
 13 19  1  0
 21 22  3  0
 16 21  1  0
 17 23  1  0
 12 15  1  0
 11 12  1  0
  2  3  2  0
 11 24  1  0
 24  4  1  0
M  END