
  CDK    9/16/09,10:4

 33 36  0  0  0  0  0  0  0  0999 V2000
    0.0540  -12.5488    0.0000 C   0  0  0  0  0  0  0  0  0  0  0  0
    0.8833  -12.5298    0.0000 C   0  0  0  0  0  0  0  0  0  0  0  0
    1.2794  -11.8061    0.0000 C   0  0  0  0  0  0  0  0  0  0  0  0
    0.8507  -11.0966    0.0000 C   0  0  0  0  0  0  0  0  0  0  0  0
    0.0212  -11.1155    0.0000 C   0  0  0  0  0  0  0  0  0  0  0  0
   -0.3793  -11.8440    0.0000 N   0  0  0  0  0  0  0  0  0  0  0  0
    0.2562  -12.1682    0.0000 C   0  0  0  0  0  0  0  0  0  0  0  0
    0.5796  -11.4732    0.0000 C   0  0  0  0  0  0  0  0  0  0  0  0
   -1.2040  -11.8715    0.0000 C   0  0  0  0  0  0  0  0  0  0  0  0
    2.1045  -11.7959    0.0000 C   0  0  0  0  0  0  0  0  0  0  0  0
    2.9294  -11.7817    0.0000 C   0  0  0  0  0  0  0  0  0  0  0  0
    2.1167  -12.6208    0.0000 O   0  0  0  0  0  0  0  0  0  0  0  0
    2.0922  -10.9710    0.0000 C   0  0  0  0  0  0  0  0  0  0  0  0
    2.8013  -10.5508    0.0000 C   0  0  0  0  0  0  0  0  0  0  0  0
    2.7896   -9.7265    0.0000 C   0  0  0  0  0  0  0  0  0  0  0  0
    2.0685   -9.3238    0.0000 C   0  0  0  0  0  0  0  0  0  0  0  0
    1.3579   -9.7513    0.0000 C   0  0  0  0  0  0  0  0  0  0  0  0
    1.3732  -10.5741    0.0000 C   0  0  0  0  0  0  0  0  0  0  0  0
    3.3523  -12.4913    0.0000 C   0  0  0  0  0  0  0  0  0  0  0  0
    4.1765  -12.4775    0.0000 C   0  0  0  0  0  0  0  0  0  0  0  0
    4.5774  -11.7554    0.0000 C   0  0  0  0  0  0  0  0  0  0  0  0
    4.1482  -11.0458    0.0000 C   0  0  0  0  0  0  0  0  0  0  0  0
    3.3254  -11.0632    0.0000 C   0  0  0  0  0  0  0  0  0  0  0  0
   -1.6400  -11.1711    0.0000 C   0  0  0  0  0  0  0  0  0  0  0  0
   -2.4646  -11.1985    0.0000 C   0  0  0  0  0  0  0  0  0  0  0  0
   -2.9007  -10.4982    0.0000 C   0  0  0  0  0  0  0  0  0  0  0  0
   -3.7251  -10.5256    0.0000 C   0  0  0  0  0  0  0  0  0  0  0  0
   -4.1575   -9.8239    0.0000 C   0  0  0  0  0  0  0  0  0  0  0  0
   -4.9814   -9.8510    0.0000 C   0  0  0  0  0  0  0  0  0  0  0  0
   -5.3707  -10.5794    0.0000 C   0  0  0  0  0  0  0  0  0  0  0  0
   -4.9301  -11.2820    0.0000 C   0  0  0  0  0  0  0  0  0  0  0  0
   -4.1078  -11.2514    0.0000 C   0  0  0  0  0  0  0  0  0  0  0  0
    0.0275   -7.8973    0.0000 Br  0  0  0  0  0  0  0  0  0  0  0  0
  6  7  1  0  0  0  0 
 15 16  2  0  0  0  0 
 16 17  1  0  0  0  0 
  7  8  1  0  0  0  0 
 17 18  2  0  0  0  0 
 18 13  1  0  0  0  0 
  3  8  1  0  0  0  0 
 11 19  2  0  0  0  0 
  1  2  1  0  0  0  0 
 19 20  1  0  0  0  0 
  6  9  1  0  0  0  0 
 20 21  2  0  0  0  0 
  1  6  1  0  0  0  0 
 21 22  1  0  0  0  0 
  3 10  1  0  0  0  0 
 22 23  2  0  0  0  0 
 23 11  1  0  0  0  0 
  2  3  1  0  0  0  0 
  9 24  1  0  0  0  0 
 10 11  1  0  0  0  0 
 24 25  1  0  0  0  0 
  3  4  1  0  0  0  0 
 25 26  1  0  0  0  0 
 10 12  1  0  0  0  0 
 26 27  1  0  0  0  0 
  4  5  1  0  0  0  0 
 27 28  2  0  0  0  0 
 10 13  1  0  0  0  0 
 28 29  1  0  0  0  0 
  5  6  1  0  0  0  0 
 29 30  2  0  0  0  0 
 13 14  2  0  0  0  0 
 30 31  1  0  0  0  0 
 31 32  2  0  0  0  0 
 32 27  1  0  0  0  0 
 14 15  1  0  0  0  0 
M  CHG  1   6   1
M  CHG  1  33  -1
M  END