
  CDK    9/16/09,9:51

 33 37  0  0  0  0  0  0  0  0999 V2000
   -5.7995  -14.8407    0.0000 C   0  0  0  0  0  0  0  0  0  0  0  0
   -5.8007  -15.6683    0.0000 C   0  0  0  0  0  0  0  0  0  0  0  0
   -5.0878  -16.0813    0.0000 C   0  0  0  0  0  0  0  0  0  0  0  0
   -5.0898  -14.4280    0.0000 C   0  0  0  0  0  0  0  0  0  0  0  0
   -4.3716  -14.8368    0.0000 C   0  0  0  0  0  0  0  0  0  0  0  0
   -4.3664  -15.6683    0.0000 C   0  0  0  0  0  0  0  0  0  0  0  0
   -3.5740  -15.9205    0.0000 N   0  0  0  0  0  0  0  0  0  0  0  0
   -3.0892  -15.2446    0.0000 C   0  0  0  0  0  0  0  0  0  0  0  0
   -3.5824  -14.5750    0.0000 N   0  0  0  0  0  0  0  0  0  0  0  0
   -2.2643  -15.2395    0.0000 O   0  0  0  0  0  0  0  0  0  0  0  0
   -1.8562  -14.5224    0.0000 C   0  0  0  0  0  0  0  0  0  0  0  0
   -3.3142  -16.7034    0.0000 C   0  0  0  0  0  0  0  0  0  0  0  0
   -2.5061  -16.8700    0.0000 C   0  0  0  0  0  0  0  0  0  0  0  0
   -2.2505  -17.6523    0.0000 C   0  0  0  0  0  0  0  0  0  0  0  0
   -1.4433  -17.8190    0.0000 C   0  0  0  0  0  0  0  0  0  0  0  0
   -0.8941  -17.2022    0.0000 C   0  0  0  0  0  0  0  0  0  0  0  0
   -1.1577  -16.4159    0.0000 C   0  0  0  0  0  0  0  0  0  0  0  0
   -1.9643  -16.2529    0.0000 C   0  0  0  0  0  0  0  0  0  0  0  0
   -0.0887  -17.3672    0.0000 C   0  0  0  0  0  0  0  0  0  0  0  0
    0.1712  -18.1514    0.0000 C   0  0  0  0  0  0  0  0  0  0  0  0
    0.9786  -18.3170    0.0000 C   0  0  0  0  0  0  0  0  0  0  0  0
    1.5269  -17.6994    0.0000 C   0  0  0  0  0  0  0  0  0  0  0  0
    1.2622  -16.9135    0.0000 C   0  0  0  0  0  0  0  0  0  0  0  0
    0.4555  -16.7516    0.0000 C   0  0  0  0  0  0  0  0  0  0  0  0
    0.1914  -15.9689    0.0000 C   0  0  0  0  0  0  0  0  0  0  0  0
    0.6695  -15.2966    0.0000 N   0  0  0  0  0  0  0  0  0  0  0  0
    0.1778  -14.6341    0.0000 N   0  0  0  0  0  0  0  0  0  0  0  0
   -0.6043  -14.8970    0.0000 N   0  0  0  0  0  0  0  0  0  0  0  0
   -0.5958  -15.7220    0.0000 N   0  0  0  0  0  0  0  0  0  0  0  0
   -2.2733  -13.8106    0.0000 C   0  0  0  0  0  0  0  0  0  0  0  0
   -5.0899  -16.9063    0.0000 C   0  0  0  0  0  0  0  0  0  0  0  0
   -5.8053  -17.3169    0.0000 O   0  0  0  0  0  0  0  0  0  0  0  0
   -4.3764  -17.3205    0.0000 O   0  0  0  0  0  0  0  0  0  0  0  0
 15 16  2  0  0  0  0 
  6  7  1  0  0  0  0 
 16 17  1  0  0  0  0 
  7  8  1  0  0  0  0 
 17 18  2  0  0  0  0 
 18 13  1  0  0  0  0 
  8  9  2  0  0  0  0 
  9  5  1  0  0  0  0 
 19 20  2  0  0  0  0 
  4  1  1  0  0  0  0 
 20 21  1  0  0  0  0 
  8 10  1  0  0  0  0 
 21 22  2  0  0  0  0 
  5  6  1  0  0  0  0 
 22 23  1  0  0  0  0 
 10 11  1  0  0  0  0 
 23 24  2  0  0  0  0 
 24 19  1  0  0  0  0 
 16 19  1  0  0  0  0 
 25 26  2  0  0  0  0 
  7 12  1  0  0  0  0 
  2  3  1  0  0  0  0 
 12 13  1  0  0  0  0 
  3  6  2  0  0  0  0 
 26 27  1  0  0  0  0 
 27 28  2  0  0  0  0 
 28 29  1  0  0  0  0 
 29 25  1  0  0  0  0 
 24 25  1  0  0  0  0 
 13 14  2  0  0  0  0 
 11 30  1  0  0  0  0 
  1  2  2  0  0  0  0 
  3 31  1  0  0  0  0 
 14 15  1  0  0  0  0 
 31 32  2  0  0  0  0 
  5  4  2  0  0  0  0 
 31 33  1  0  0  0  0 
M  END