
  SciTegic01111613442D

 21 22  0  0  1  0            999 V2000
    1.2990   -0.7500    0.0000 N   0  0
    1.2990    0.7500    0.0000 C   0  0
    0.0000    1.5000    0.0000 N   0  0
    2.5987   -1.5004    0.0000 C   0  0  2  0  0  0
    0.0000   -1.5000    0.0000 C   0  0
   -1.2990   -0.7500    0.0000 C   0  0
   -1.2990    0.7500    0.0000 C   0  0
    8.5462   -0.3119    0.0000 P   0  0
    3.9511   -0.8815    0.0000 O   0  0
    2.7343   -2.9815    0.0000 C   0  0
    4.9531   -1.9978    0.0000 C   0  0  1  0  0  0
    4.2010   -3.2956    0.0000 C   0  0  1  0  0  0
    6.4430   -1.8405    0.0000 C   0  0
    2.3383    1.3500    0.0000 O   0  0
    7.0537   -0.4695    0.0000 O   0  0
    9.2517   -1.2826    0.0000 O   0  0
    9.7396   -0.1864    0.0000 O   0  0
    9.0344    0.7843    0.0000 O   0  0
   -2.3383    1.3500    0.0000 O   0  0
   -2.3383   -1.3500    0.0000 F   0  0
    4.6873   -4.3927    0.0000 O   0  0
  2  1  1  0
  3  2  1  0
  4  1  1  6
  5  1  1  0
  6  5  2  0
  7  6  1  0
  8 15  1  0
  9  4  1  0
 10  4  1  0
 11  9  1  0
 12 10  1  0
 11 13  1  6
 14  2  2  0
 15 13  1  0
 16  8  1  0
 17  8  1  0
 18  8  2  0
 19  7  2  0
 20  6  1  0
 12 21  1  1
  7  3  1  0
 12 11  1  0
M  END