
          03140815512D 1   1.00000     0.00000     0

 35 37  0     1  0            999 V2000
   23.6586   -9.0703    0.0000 C   0  0  0  0  0  0           0  0  0
   23.6586   -9.8991    0.0000 C   0  0  0  0  0  0           0  0  0
   24.3744  -10.3114    0.0000 N   0  0  0  0  0  0           0  0  0
   25.0902   -9.8991    0.0000 C   0  0  0  0  0  0           0  0  0
   25.0902   -9.0703    0.0000 C   0  0  0  0  0  0           0  0  0
   24.3744   -8.6538    0.0000 N   0  0  0  0  0  0           0  0  0
   22.9392   -8.6601    0.0000 C   0  0  0  0  0  0           0  0  0
   25.8079  -10.3166    0.0000 O   0  0  0  0  0  0           0  0  0
   25.8097   -8.6601    0.0000 C   0  0  0  0  0  0           0  0  0
   26.5268   -9.0745    0.0000 C   0  0  0  0  0  0           0  0  0
   27.2420   -8.6643    0.0000 C   0  0  0  0  0  0           0  0  0
   27.9592   -9.0787    0.0000 C   0  0  0  0  0  0           0  0  0
   28.6786   -8.6685    0.0000 N   0  0  0  0  0  0           0  0  0
   29.3904   -9.0846    0.0000 C   0  0  0  0  0  0           0  0  0
   30.1072   -7.8500    0.0000 N   0  0  0  0  0  0           0  0  0
   30.1032   -8.6746    0.0000 C   0  0  1  0  0  0           0  0  0
   30.8166   -9.0904    0.0000 C   0  0  0  0  0  0           0  0  0
   31.5299   -8.6816    0.0000 C   0  0  0  0  0  0           0  0  0
   31.5340   -7.8570    0.0000 C   0  0  0  0  0  0           0  0  0
   32.2515   -7.4484    0.0000 C   0  0  0  0  0  0           0  0  0
   32.9650   -7.8641    0.0000 C   0  0  0  0  0  0           0  0  0
   33.6825   -7.4554    0.0000 O   0  0  0  0  0  0           0  0  0
   32.9609   -8.6887    0.0000 C   0  0  0  0  0  0           0  0  0
   32.2433   -9.0974    0.0000 C   0  0  0  0  0  0           0  0  0
   29.3857   -9.9080    0.0000 O   0  0  0  0  0  0           0  0  0
   32.2394   -9.9220    0.0000 C   0  0  0  0  0  0           0  0  0
   30.8247   -7.4413    0.0000 C   0  0  0  0  0  0           0  0  0
   22.9448  -10.3117    0.0000 C   0  0  0  0  0  0           0  0  0
   22.2304   -9.8998    0.0000 C   0  0  0  0  0  0           0  0  0
   21.5165  -10.3125    0.0000 C   0  0  0  0  0  0           0  0  0
   20.8050   -9.8959    0.0000 C   0  0  0  0  0  0           0  0  0
   20.0915  -10.3079    0.0000 C   0  0  0  0  0  0           0  0  0
   20.0915  -11.1333    0.0000 C   0  0  0  0  0  0           0  0  0
   20.8109  -11.5450    0.0000 C   0  0  0  0  0  0           0  0  0
   21.5213  -11.1308    0.0000 C   0  0  0  0  0  0           0  0  0
  9 10  1  0     0  0
  3  4  1  0     0  0
 10 11  1  0     0  0
  4  5  1  0     0  0
 11 12  1  0     0  0
  5  6  2  0     0  0
 12 13  1  0     0  0
 16 15  1  1     0  0
 14 16  1  0     0  0
 16 17  1  0     0  0
 17 18  1  0     0  0
 18 19  2  0     0  0
 19 20  1  0     0  0
 20 21  2  0     0  0
 21 22  1  0     0  0
 21 23  1  0     0  0
 23 24  2  0     0  0
 18 24  1  0     0  0
 14 25  2  0     0  0
 24 26  1  0     0  0
 19 27  1  0     0  0
  2 28  1  0     0  0
 13 14  1  0     0  0
 28 29  1  0     0  0
  1  7  1  0     0  0
 29 30  1  0     0  0
  1  2  2  0     0  0
 30 31  2  0     0  0
  4  8  2  0     0  0
 31 32  1  0     0  0
  1  6  1  0     0  0
 32 33  2  0     0  0
  5  9  1  0     0  0
 33 34  1  0     0  0
  2  3  1  0     0  0
 34 35  2  0     0  0
 35 30  1  0     0  0
M  END