
  SciTegic01061111512D

 27 29  0  0  0  0            999 V2000
   24.7958  -11.1833    0.0000 C   0  0  2  0  0  0
   24.7958  -12.0083    0.0000 C   0  0  1  0  0  0
   25.5079  -12.4167    0.0000 C   0  0  1  0  0  0
   26.2199  -12.0083    0.0000 C   0  0  2  0  0  0
   26.2199  -11.1833    0.0000 C   0  0  1  0  0  0
   25.5079  -10.7667    0.0000 O   0  0
   26.9355  -10.7729    0.0000 S   0  0
   26.9380   -9.9479    0.0000 C   0  0
   26.9337  -12.4219    0.0000 O   0  0
   25.5079  -13.2417    0.0000 N   0  0
   24.8427  -13.7306    0.0000 C   0  0
   25.0977  -14.5152    0.0000 C   0  0
   25.9227  -14.5152    0.0000 N   0  0
   26.1775  -13.7306    0.0000 N   0  0
   24.0820  -12.4219    0.0000 O   0  0
   24.0802  -10.7729    0.0000 C   0  0
   24.0777   -9.9479    0.0000 O   0  0
   24.0574  -13.4778    0.0000 S   0  0
   23.4453  -14.0323    0.0000 C   0  0
   22.7304  -13.6230    0.0000 C   0  0
   22.0193  -14.0398    0.0000 C   0  0
   22.0246  -14.8657    0.0000 C   0  0
   22.7470  -15.2730    0.0000 C   0  0
   23.4551  -14.8539    0.0000 C   0  0
   23.3375  -13.0625    0.0000 O   0  0
   24.4625  -12.7583    0.0000 O   0  0
   21.3136  -15.2841    0.0000 C   0  0
 12 13  1  0
 13 14  2  0
 14 10  1  0
  5  7  1  1
  2 15  1  1
  1  2  1  0
  1 16  1  1
  7  8  1  0
 16 17  1  0
  1  6  1  0
 11 18  1  0
  4  9  1  6
 18 19  1  0
  2  3  1  0
 19 20  2  0
  3 10  1  1
 20 21  1  0
 10 11  1  0
 21 22  2  0
  3  4  1  0
 22 23  1  0
  4  5  1  0
 23 24  2  0
 24 19  1  0
  5  6  1  0
 18 25  2  0
 18 26  2  0
 11 12  2  0
 22 27  1  0
M  END