
  SciTegic01061414252D

 25 26  0  0  0  0            999 V2000
   16.2448  -18.2221    0.0000 S   0  0
   15.8317  -18.9363    0.0000 O   0  0
   16.6567  -18.9369    0.0000 O   0  0
   16.9606  -16.9828    0.0000 C   0  0
   16.9595  -17.8103    0.0000 C   0  0
   17.6743  -18.2231    0.0000 C   0  0
   18.3907  -17.8098    0.0000 C   0  0
   18.3879  -16.9792    0.0000 C   0  0
   17.6725  -16.5701    0.0000 C   0  0
   19.1007  -16.5641    0.0000 C   0  0
   19.8168  -16.9739    0.0000 C   0  0
   19.0976  -15.7391    0.0000 O   0  0
   20.5296  -16.5587    0.0000 S   0  0
   21.2457  -16.9685    0.0000 C   0  0
   21.2457  -17.7923    0.0000 N   0  0
   21.9608  -18.2021    0.0000 C   0  0
   22.6747  -17.7868    0.0000 C   0  0
   22.6689  -16.9576    0.0000 C   0  0
   21.9532  -16.5516    0.0000 N   0  0
   15.5306  -17.8091    0.0000 N   0  0
   17.6741  -19.0480    0.0000 Cl  0  0
   23.3913  -18.1957    0.0000 C   0  0
   24.1036  -17.7796    0.0000 C   0  0
   24.8201  -18.1883    0.0000 C   0  0
   25.5325  -17.7722    0.0000 C   0  0
  2  1  2  0
  1  3  2  0
  4  5  2  0
  5  6  1  0
  6  7  2  0
  7  8  1  0
  8  9  2  0
  9  4  1  0
  8 10  1  0
 10 11  1  0
 10 12  2  0
 11 13  1  0
 13 14  1  0
 14 15  2  0
 15 16  1  0
 16 17  2  0
 17 18  1  0
 18 19  2  0
 19 14  1  0
  5  1  1  0
  1 20  1  0
  6 21  1  0
 17 22  1  0
 22 23  1  0
 23 24  1  0
 24 25  1  0
M  END