
  SciTegic01091216402D

 22 23  0  0  0  0            999 V2000
   -1.0571    1.3699    0.0000 N   0  0
   -1.0385    0.5448    0.0000 N   0  0
   -0.2511    0.3118    0.0000 C   0  0
    0.2181    0.9905    0.0000 C   0  0
   -0.2826    1.6438    0.0000 C   0  0
   -1.7354    1.8394    0.0000 C   0  0
   -2.4520    1.4327    0.0000 N   0  0
   -1.7281    2.6609    0.0000 N   0  0
    1.0433    1.0090    0.0000 C   0  0
    1.4702    0.3072    0.0000 C   0  0
   -1.0116    3.0675    0.0000 C   0  0
   -0.3025    2.6528    0.0000 C   0  0
   -3.1617    1.8486    0.0000 S   0  0
   -2.7464    2.5565    0.0000 O   0  0
   -3.8632    1.4143    0.0000 C   0  0
   -3.8371    0.5908    0.0000 C   0  0
   -4.5386    0.1564    0.0000 C   0  0
   -5.2662    0.5456    0.0000 C   0  0
   -5.2923    1.3690    0.0000 C   0  0
   -4.5908    1.8034    0.0000 C   0  0
   -3.7491    2.4384    0.0000 O   0  0
   -6.0237    1.7584    0.0000 F   0  0
  2  3  2  0
  3  4  1  0
  4  5  1  0
  1  5  1  0
  6  7  2  0
  6  8  1  0
  1  6  1  0
  9 10  1  0
  4  9  1  0
 11 12  1  0
  8 11  1  0
 13 14  2  0
 15 16  1  0
 16 17  2  0
 17 18  1  0
 18 19  2  0
 19 20  1  0
 15 20  2  0
 13 15  1  0
  7 13  1  0
 13 21  2  0
  1  2  1  0
 19 22  1  0
M  END