
  SciTegic12231509382D

 22 23  0  0  0  0            999 V2000
    1.2990   -0.7500    0.0000 C   0  0
    1.2990    0.7500    0.0000 C   0  0
    0.0000    1.5000    0.0000 C   0  0
   -1.2990    0.7500    0.0000 C   0  0
   -1.2990   -0.7500    0.0000 C   0  0
    0.0000   -1.5000    0.0000 C   0  0
   -2.5972   -1.5031    0.0000 C   0  0
   -2.5951   -3.0039    0.0000 C   0  0
   -3.8912   -5.2578    0.0000 C   0  0
   -5.1894   -6.0109    0.0000 C   0  0
   -5.1872   -7.5117    0.0000 C   0  0
   -6.4836   -8.2663    0.0000 C   0  0
   -6.4784   -9.7663    0.0000 C   0  0
   -5.1768  -10.5118    0.0000 C   0  0
   -3.8804   -9.7573    0.0000 C   0  0
   -3.8856   -8.2573    0.0000 C   0  0
   -2.8509   -5.8560    0.0000 C   0  0
   -5.1727  -11.7118    0.0000 O   0  0
    2.3383   -1.3500    0.0000 O   0  0
    0.0000    2.7000    0.0000 O   0  0
   -3.8933   -3.7570    0.0000 N   0  0
   -3.6375   -0.9049    0.0000 O   0  0
  1  2  2  0
  2  3  1  0
  3  4  2  0
  4  5  1  0
  1  6  1  0
  5  6  2  0
  5  7  1  0
  7  8  1  0
  9 10  1  0
 10 11  1  0
 11 12  2  0
 12 13  1  0
 13 14  2  0
 14 15  1  0
 11 16  1  0
 15 16  2  0
  9 17  1  0
 14 18  1  0
  1 19  1  0
  3 20  1  0
  8 21  1  0
  9 21  1  0
  7 22  1  0
M  END