
  SciTegic01161211242D

 27 28  0  0  0  0            999 V2000
   -3.5796  -22.3712    0.0000 C   0  0
   -3.5796  -23.2008    0.0000 C   0  0
   -2.8651  -23.6133    0.0000 C   0  0  2  0  0  0
   -2.1461  -23.2008    0.0000 C   0  0  1  0  0  0
   -2.1461  -22.3712    0.0000 C   0  0
   -2.8651  -21.9541    0.0000 C   0  0  2  0  0  0
   -2.8663  -21.1291    0.0000 O   0  0
   -2.8663  -24.4383    0.0000 C   0  0
   -3.5813  -24.8498    0.0000 C   0  0
   -3.5825  -25.6748    0.0000 C   0  0
   -4.2975  -26.0863    0.0000 O   0  0
   -1.4322  -23.6143    0.0000 C   0  0
   -1.4382  -24.4394    0.0000 C   0  0
   -0.7252  -24.8528    0.0000 C   0  0
   -0.0092  -24.4413    0.0000 C   0  0
   -0.0107  -23.6120    0.0000 C   0  0
   -0.7243  -23.2024    0.0000 C   0  0
   -0.7268  -22.3774    0.0000 O   0  0
    0.7052  -24.8538    0.0000 C   0  0
    1.4198  -24.4414    0.0000 C   0  0
    2.1342  -24.8539    0.0000 C   0  0
    2.8487  -24.4414    0.0000 C   0  0
    3.5631  -24.8540    0.0000 C   0  0
    4.2777  -24.4415    0.0000 C   0  0
    4.9921  -24.8540    0.0000 C   0  0
    0.2841  -25.5612    0.0000 C   0  0
    1.1091  -25.5612    0.0000 C   0  0
 13 14  1  0
  6  7  1  1
 14 15  2  0
  1  2  1  0
 15 16  1  0
  3  8  1  6
 16 17  2  0
 17 12  1  0
  1  6  1  0
 17 18  1  0
  8  9  1  0
 15 19  1  0
  2  3  1  0
 19 20  1  0
  9 10  1  0
 20 21  1  0
  3  4  1  0
 21 22  1  0
 10 11  1  0
 22 23  1  0
  4  5  1  0
 23 24  1  0
  4 12  1  1
 24 25  1  0
  5  6  1  0
 19 26  1  0
 12 13  2  0
 19 27  1  0
M  END