
  SciTegic12231509382D

 33 37  0  0  0  0            999 V2000
    9.6147    3.7823    0.0000 C   0  0
    0.0000    9.3814    0.0000 C   0  0
    4.7650    6.5818    0.0000 F   0  0
    5.9809   10.0813    0.0000 C   0  0
    4.7650   10.7812    0.0000 C   0  0
    9.6147   10.7812    0.0000 C   0  0
   12.0396    7.9816    0.0000 C   0  0
    2.2269    8.2502    0.0000 C   0  0
    9.6147    6.5818    0.0000 C   0  0
   17.8932    1.2160    0.0000 C   0  0
   17.1933    0.0000    0.0000 C   0  0
   14.4644    3.7823    0.0000 C   0  0
   13.2555    4.4822    0.0000 C   0  0
   16.9600    2.2553    0.0000 C   0  0
   15.8217    0.2898    0.0000 C   0  0
   14.4644    2.3825    0.0000 C   0  0
    8.4058   10.0813    0.0000 N   0  0
   10.8307   10.0813    0.0000 N   0  0
    2.2269   10.5124    0.0000 N   0  0
   10.8307    4.4822    0.0000 O   0  0
   13.2555    5.8819    0.0000 O   0  0
    7.1898    7.9816    0.0000 O   0  0
    1.3998    9.3814    0.0000 C   0  0
    4.7650    7.9816    0.0000 C   0  0
    5.9809    8.6815    0.0000 C   0  0
   10.8307    5.8819    0.0000 C   0  0
   12.0396    6.5818    0.0000 C   0  0
    8.4058    8.6815    0.0000 C   0  0
   10.8307    8.6815    0.0000 C   0  0
    3.5561   10.0813    0.0000 C   0  0
    3.5561    8.6815    0.0000 C   0  0
    9.6147    7.9816    0.0000 C   0  0
   15.6804    1.6826    0.0000 N   0  0
  1 20  1  0
  2 23  1  0
  3 24  1  0
  4  5  2  0
  4 25  1  0
  5 30  1  0
  6 17  1  0
  6 18  2  0
  7 27  2  0
  7 29  1  0
  8 23  2  0
  8 31  1  0
  9 26  2  0
  9 32  1  0
 10 11  1  0
 10 14  1  0
 11 15  1  0
 12 13  1  0
 12 16  1  0
 13 21  1  0
 14 33  1  0
 15 33  1  0
 16 33  1  0
 17 28  2  0
 18 29  1  0
 19 23  1  0
 19 30  1  0
 20 26  1  0
 21 27  1  0
 22 25  1  0
 22 28  1  0
 24 25  2  0
 24 31  1  0
 26 27  1  0
 28 32  1  0
 29 32  2  0
 30 31  2  0
M  END