
          08180812472D 1   1.00000     0.00000     0

 25 28  0     1  0            999 V2000
   -4.8103   -5.4070    0.0000 C   0  0  0  0  0  0           0  0  0
   -4.8103   -4.5816    0.0000 C   0  0  0  0  0  0           0  0  0
   -4.0959   -4.1690    0.0000 C   0  0  0  0  0  0           0  0  0
   -5.5292   -5.8196    0.0000 O   0  0  0  0  0  0           0  0  0
   -4.0959   -5.8196    0.0000 C   0  0  0  0  0  0           0  0  0
   -3.3815   -5.4070    0.0000 C   0  0  0  0  0  0           0  0  0
   -2.6672   -5.8196    0.0000 C   0  0  0  0  0  0           0  0  0
   -1.9528   -5.4070    0.0000 C   0  0  0  0  0  0           0  0  0
   -1.9528   -4.5816    0.0000 C   0  0  1  0  0  0           0  0  0
   -1.2384   -4.1690    0.0000 C   0  0  2  0  0  0           0  0  0
   -0.4529   -4.4244    0.0000 C   0  0  0  0  0  0           0  0  0
    0.0300   -3.7563    0.0000 C   0  0  2  0  0  0           0  0  0
   -0.4529   -3.0883    0.0000 C   0  0  2  0  0  0           0  0  0
   -0.1975   -2.3028    0.0000 O   0  0  0  0  0  0           0  0  0
   -1.2384   -3.3437    0.0000 C   0  0  2  0  0  0           0  0  0
   -1.2384   -2.5184    0.0000 C   0  0  0  0  0  0           0  0  0
   -1.9528   -2.9310    0.0000 C   0  0  0  0  0  0           0  0  0
   -2.6672   -3.3437    0.0000 C   0  0  0  0  0  0           0  0  0
   -2.6672   -4.1690    0.0000 C   0  0  2  0  0  0           0  0  0
   -3.3815   -4.5816    0.0000 C   0  0  1  0  0  0           0  0  0
   -3.3815   -3.7563    0.0000 C   0  0  0  0  0  0           0  0  0
    0.8553   -3.7563    0.0000 O   0  0  0  0  0  0           0  0  0
   -2.6672   -4.9943    0.0000 H   0  0  0  0  0  0           0  0  0
   -1.9528   -3.7563    0.0000 H   0  0  0  0  0  0           0  0  0
   -1.2384   -4.9943    0.0000 H   0  0  0  0  0  0           0  0  0
  1  2  1  0     0  0
  2  3  1  0     0  0
  1  4  2  0     0  0
  1  5  1  0     0  0
  5  6  2  0     0  0
  6  7  1  0     0  0
  7  8  1  0     0  0
  8  9  1  0     0  0
  9 10  1  0     0  0
 10 11  1  0     0  0
 11 12  1  0     0  0
 12 13  1  0     0  0
 13 14  1  1     0  0
 13 15  1  0     0  0
 10 15  1  0     0  0
 15 16  1  1     0  0
 15 17  1  0     0  0
 17 18  1  0     0  0
 18 19  1  0     0  0
  9 19  1  0     0  0
 19 20  1  0     0  0
  3 20  1  0     0  0
  6 20  1  0     0  0
 20 21  1  1     0  0
 12 22  1  6     0  0
 19 23  1  6     0  0
  9 24  1  1     0  0
 10 25  1  6     0  0
M  END