
  SciTegic12231509382D

 40 43  0  0  0  0            999 V2000
   -1.6742   -3.0435    0.0000 C   0  0  1  0  0  0
   -2.8217   -3.0207    0.0000 O   0  0
   -2.2574   -3.4487    0.0000 C   0  0
   -2.5888   -2.3516    0.0000 C   0  0  2  0  0  0
   -1.8792   -2.3628    0.0000 C   0  0  1  0  0  0
   -1.6493   -1.6914    0.0000 C   0  0
   -2.2169   -1.2652    0.0000 C   0  0
   -2.7974   -1.6734    0.0000 O   0  0
    0.7792   -3.0292    0.0000 C   0  0  2  0  0  0
    0.1678   -3.3869    0.0000 N   0  0
    1.3947   -3.3797    0.0000 C   0  0  1  0  0  0
    2.0060   -3.0219    0.0000 C   0  0
    2.6215   -3.3725    0.0000 N   0  0
    3.2329   -3.0147    0.0000 S   0  0
    3.8484   -3.3653    0.0000 C   0  0
    2.6247   -4.0809    0.0000 C   0  0
    2.9667   -4.7012    0.0000 C   0  0
    2.6005   -5.3076    0.0000 C   0  0
    3.6749   -4.7152    0.0000 C   0  0
    3.8480   -4.0722    0.0000 C   0  0
    4.4628   -4.4227    0.0000 C   0  0
    5.0749   -4.0648    0.0000 C   0  0
    5.0685   -3.3529    0.0000 C   0  0
    4.4532   -3.0056    0.0000 C   0  0
    2.8708   -2.3958    0.0000 O   0  0
    3.5792   -2.3958    0.0000 O   0  0
   -0.4477   -3.0364    0.0000 C   0  0
   -1.0590   -3.3942    0.0000 O   0  0
   -0.4518   -2.3281    0.0000 O   0  0
    5.6909   -4.4146    0.0000 N   0  0
   -1.1750   -2.3625    0.0000 H   0  0
   -3.3000   -2.3500    0.0000 H   0  0
    0.7750   -2.3208    0.0000 C   0  0
    1.3863   -1.9631    0.0000 C   0  0
    2.0015   -2.3150    0.0000 C   0  0
    2.6125   -1.9579    0.0000 C   0  0
    2.6087   -1.2488    0.0000 C   0  0
    1.9889   -0.8984    0.0000 C   0  0
    1.3805   -1.2576    0.0000 C   0  0
    1.3988   -4.0880    0.0000 O   0  0
 20 21  1  0
  9 10  1  0
 21 22  2  0
  1  5  1  0
 22 23  1  0
  9 11  1  0
 23 24  2  0
 24 15  1  0
 14 25  2  0
 11 12  1  0
 14 26  2  0
 10 27  1  0
 12 13  1  0
 27 28  1  0
  4  2  1  0
 27 29  2  0
 13 14  1  0
 22 30  1  0
  1 28  1  1
  2  3  1  0
  5 31  1  6
 14 15  1  0
  4 32  1  6
  5  6  1  0
  9 33  1  1
 13 16  1  0
 33 34  1  0
  6  7  1  0
 34 35  2  0
 16 17  1  0
 35 36  1  0
  7  8  1  0
 36 37  2  0
 17 18  1  0
 37 38  1  0
  8  4  1  0
 38 39  2  0
 39 34  1  0
 17 19  1  0
 11 40  1  1
  3  1  1  0
 15 20  2  0
  4  5  1  0
M  END