
  SciTegic01161211252D

 27 30  0  0  0  0            999 V2000
   -0.0843  -27.0125    0.0000 N   0  0
    0.6296  -27.4260    0.0000 C   0  0
    0.6284  -28.2510    0.0000 O   0  0
    1.3446  -27.0146    0.0000 C   0  0
    2.0569  -27.4290    0.0000 N   0  0
    2.7714  -27.0182    0.0000 C   0  0
    2.7731  -26.1923    0.0000 C   0  0
    2.0542  -25.7790    0.0000 C   0  0
    1.3425  -26.1921    0.0000 C   0  0
    3.4876  -25.7799    0.0000 O   0  0
    4.2020  -26.1925    0.0000 C   0  0
    4.1971  -27.0177    0.0000 C   0  0
    4.9107  -27.4303    0.0000 C   0  0
    5.6262  -27.0178    0.0000 C   0  0
    5.6237  -26.1885    0.0000 C   0  0
    4.9095  -25.7797    0.0000 C   0  0
   -0.7672  -27.4754    0.0000 C   0  0
   -1.5576  -27.2322    0.0000 C   0  0
   -0.0255  -26.1900    0.0000 C   0  0
   -1.8620  -26.4667    0.0000 N   0  0
   -0.6318  -25.6284    0.0000 C   0  0
   -1.4481  -25.7544    0.0000 C   0  0
    6.3412  -27.4294    0.0000 Cl  0  0
   -2.6867  -26.4669    0.0000 C   0  0
   -3.2685  -25.8820    0.0000 C   0  0
   -3.8534  -26.4638    0.0000 C   0  0
   -3.2716  -27.0487    0.0000 C   0  0
  6  7  2  0
 13 14  2  0
  2  4  1  0
 14 15  1  0
  7  8  1  0
 15 16  2  0
 16 11  1  0
  1 17  1  0
  8  9  2  0
 17 18  1  0
  9  4  1  0
  1 19  1  0
  4  5  2  0
 18 20  1  0
  7 10  1  0
 19 21  1  0
  2  3  2  0
 20 22  1  0
 21 22  1  0
 10 11  1  0
 14 23  1  0
 24 25  1  0
  5  6  1  0
 11 12  2  0
  1  2  1  0
 12 13  1  0
 25 26  1  0
 26 27  1  0
 27 24  1  0
 20 24  1  0
M  END