
  SciTegic09261414462D

 34 37  0  0  0  0            999 V2000
    9.7737  -29.1837    0.0000 N   0  0
   10.5908  -29.1837    0.0000 C   0  0
   10.8434  -28.4065    0.0000 S   0  0
   10.1822  -27.9261    0.0000 C   0  0
    9.5212  -28.4065    0.0000 C   0  0
    8.7440  -28.1540    0.0000 O   0  0
   10.1822  -27.1089    0.0000 C   0  0
   11.0712  -29.8448    0.0000 O   0  0
   10.8899  -26.7003    0.0000 C   0  0
   11.6347  -27.0304    0.0000 C   0  0
   12.1815  -26.4230    0.0000 C   0  0
   11.7728  -25.7153    0.0000 C   0  0
   10.9741  -25.8847    0.0000 N   0  0
   10.2860  -25.4516    0.0000 C   0  0
   10.3188  -24.6340    0.0000 C   0  0
    9.6282  -24.1985    0.0000 C   0  0
    8.9043  -24.5796    0.0000 C   0  0
    8.8753  -25.4005    0.0000 C   0  0
    9.5666  -25.8323    0.0000 C   0  0
    9.2933  -29.8448    0.0000 C   0  0
    8.4806  -29.7593    0.0000 C   0  0
    8.0002  -30.4204    0.0000 N   0  0
    8.1482  -29.0128    0.0000 O   0  0
    7.1875  -30.3350    0.0000 C   0  0
    6.8607  -29.5891    0.0000 C   0  0
    6.0488  -29.5034    0.0000 C   0  0
    5.5675  -30.1649    0.0000 C   0  0
    5.9040  -30.9143    0.0000 C   0  0
    6.7149  -30.9964    0.0000 C   0  0
    4.7627  -30.0806    0.0000 O   0  0
    4.4301  -29.3341    0.0000 C   0  0
    8.2104  -24.1454    0.0000 C   0  0
    8.2408  -23.3287    0.0000 O   0  0
    7.4880  -24.5273    0.0000 O   0  0
  1  2  1  0
  2  3  1  0
  3  4  1  0
  4  5  1  0
  5  1  1  0
  5  6  2  0
  4  7  2  0
  2  8  2  0
  7  9  1  0
  9 10  2  0
 10 11  1  0
 11 12  2  0
 12 13  1  0
 13  9  1  0
 14 15  2  0
 15 16  1  0
 16 17  2  0
 17 18  1  0
 18 19  2  0
 19 14  1  0
 13 14  1  0
  1 20  1  0
 20 21  1  0
 21 22  1  0
 21 23  2  0
 22 24  1  0
 24 25  2  0
 25 26  1  0
 26 27  2  0
 27 28  1  0
 28 29  2  0
 29 24  1  0
 27 30  1  0
 30 31  1  0
 32 33  1  0
 32 34  2  0
 17 32  1  0
M  END