
          11280714512D 1   1.00000     0.00000     0

 27 28  0     0  0            999 V2000
    2.3917   -7.2917    0.0000 C   0  0  0  0  0  0           0  0  0
    2.9167   -7.5917    0.0000 O   0  0  0  0  0  0           0  0  0
    2.9000   -3.9792    0.0000 O   0  0  0  0  0  0           0  0  0
    2.9000   -4.5917    0.0000 C   0  0  0  0  0  0           0  0  0
    2.3792   -6.6917    0.0000 C   0  0  0  0  0  0           0  0  0
    3.4167   -3.0750    0.0000 C   0  0  3  0  0  0           0  0  0
    2.9000   -5.7875    0.0000 C   0  0  0  0  0  0           0  0  0
    3.4167   -3.6792    0.0000 C   0  0  0  0  0  0           0  0  0
    4.4667   -3.0875    0.0000 N   0  0  0  0  0  0           0  0  0
    1.8792   -7.6000    0.0000 O   0  0  0  0  0  0           0  0  0
    2.9042   -6.3875    0.0000 C   0  0  0  0  0  0           0  0  0
    3.4167   -4.8917    0.0000 C   0  0  0  0  0  0           0  0  0
    2.3667   -4.8875    0.0000 C   0  0  0  0  0  0           0  0  0
    2.3667   -5.4917    0.0000 C   0  0  0  0  0  0           0  0  0
    3.4167   -5.4792    0.0000 C   0  0  0  0  0  0           0  0  0
    2.9000   -2.7792    0.0000 O   0  0  0  0  0  0           0  0  0
    6.5417   -3.0750    0.0000 C   0  0  0  0  0  0           0  0  0
    3.9417   -2.7792    0.0000 C   0  0  0  0  0  0           0  0  0
    4.9875   -2.7792    0.0000 C   0  0  0  0  0  0           0  0  0
    6.0250   -2.7792    0.0000 C   0  0  0  0  0  0           0  0  0
    1.8750   -8.2000    0.0000 C   0  0  0  0  0  0           0  0  0
    6.5417   -3.6750    0.0000 C   0  0  0  0  0  0           0  0  0
    7.0542   -2.7667    0.0000 C   0  0  0  0  0  0           0  0  0
    5.5042   -3.0792    0.0000 C   0  0  0  0  0  0           0  0  0
    7.5792   -3.0667    0.0000 C   0  0  0  0  0  0           0  0  0
    7.0667   -3.9667    0.0000 C   0  0  0  0  0  0           0  0  0
    7.5875   -3.6667    0.0000 C   0  0  0  0  0  0           0  0  0
  2  1  2  0     0  0
  3  4  1  0     0  0
  4 12  1  0     0  0
  5  1  1  0     0  0
  6  8  1  0     0  0
  7 11  1  0     0  0
  8  3  1  0     0  0
  9 18  1  0     0  0
 10  1  1  0     0  0
 11  5  1  0     0  0
 12 15  2  0     0  0
 13 14  1  0     0  0
 14  7  2  0     0  0
 15  7  1  0     0  0
 16  6  1  0     0  0
 17 20  1  0     0  0
 18  6  1  0     0  0
 19  9  1  0     0  0
 20 24  1  0     0  0
 21 10  1  0     0  0
 22 17  2  0     0  0
 23 17  1  0     0  0
 24 19  1  0     0  0
 25 23  2  0     0  0
 26 22  1  0     0  0
 27 25  1  0     0  0
 13  4  2  0     0  0
 26 27  2  0     0  0
M  END