
  SciTegic04091414152D

 34 38  0  0  0  0            999 V2000
    9.2541   -2.5076    0.0000 C   0  0
    8.6296   -3.0446    0.0000 C   0  0  2  0  0  0
    8.7849   -3.8512    0.0000 C   0  0
    9.5778   -4.0978    0.0000 N   0  3
   10.1884   -3.5827    0.0000 C   0  0
   10.0336   -2.7697    0.0000 C   0  0
    8.8585   -3.2292    0.0000 C   0  0
    9.6621   -3.4151    0.0000 C   0  0
    7.8505   -2.7732    0.0000 O   0  0
    6.4295   -2.6008    0.0000 C   0  0
    5.8841   -3.2246    0.0000 C   0  0
    7.0949   -3.0986    0.0000 C   0  0
    5.6688   -2.2764    0.0000 C   0  0
    5.4400   -1.4824    0.0000 C   0  0
    5.9218   -0.8094    0.0000 C   0  0
    6.7435   -0.7750    0.0000 C   0  0
    7.2911   -1.3921    0.0000 C   0  0
    7.1507   -2.2075    0.0000 C   0  0
    5.0627   -3.1540    0.0000 C   0  0
    4.7370   -3.9157    0.0000 C   0  0
    5.3608   -4.4608    0.0000 C   0  0
    6.0719   -4.0359    0.0000 C   0  0
    6.9970   -3.9178    0.0000 O   0  0
    9.6337   -4.9209    0.0000 C   0  0
   10.3744   -5.2840    0.0000 C   0  0
   10.4304   -6.1071    0.0000 O   0  0
   11.0593   -4.8241    0.0000 N   0  0
   11.8001   -5.1872    0.0000 C   0  0
   11.8530   -6.0078    0.0000 C   0  0
   12.5929   -6.3708    0.0000 N   0  0
   13.2788   -5.9108    0.0000 C   0  0
   13.2200   -5.0835    0.0000 C   0  0
   12.4797   -4.7242    0.0000 N   0  0
   13.9032   -4.6211    0.0000 Cl  0  0
  1  2  1  0
  1  6  1  0
  2  3  1  0
  3  4  1  0
  4  5  1  0
  5  6  1  0
  1  7  1  0
  4  8  1  0
  7  8  1  0
  2  9  1  6
 11 10  1  0
 10 12  1  0
 13 14  1  0
 14 15  1  0
 15 16  1  0
 13 10  1  0
 16 17  1  0
 10 18  1  0
 17 18  1  0
 11 19  2  0
 19 20  1  0
 20 21  2  0
 21 22  1  0
 22 11  1  0
 12 23  2  0
 12  9  1  0
  4 24  1  0
 24 25  1  0
 25 26  2  0
 25 27  1  0
 27 28  1  0
 28 29  2  0
 29 30  1  0
 30 31  2  0
 31 32  1  0
 32 33  2  0
 33 28  1  0
 32 34  1  0
M  CHG  1   4   1
M  END