
  CDK    9/16/09,9:58

 21 24  0  0  0  0  0  0  0  0999 V2000
   -5.0303  -22.2793    0.0000 C   0  0  0  0  0  0  0  0  0  0  0  0
   -5.0316  -23.1055    0.0000 C   0  0  0  0  0  0  0  0  0  0  0  0
   -4.3198  -23.5178    0.0000 C   0  0  0  0  0  0  0  0  0  0  0  0
   -4.3218  -21.8672    0.0000 C   0  0  0  0  0  0  0  0  0  0  0  0
   -3.6048  -22.2753    0.0000 C   0  0  0  0  0  0  0  0  0  0  0  0
   -3.6042  -23.1009    0.0000 C   0  0  0  0  0  0  0  0  0  0  0  0
   -2.8188  -23.3556    0.0000 N   0  0  0  0  0  0  0  0  0  0  0  0
   -2.3340  -22.6873    0.0000 C   0  0  0  0  0  0  0  0  0  0  0  0
   -2.8198  -22.0197    0.0000 N   0  0  0  0  0  0  0  0  0  0  0  0
   -1.5103  -22.6867    0.0000 N   0  0  0  0  0  0  0  0  0  0  0  0
   -1.0980  -23.3997    0.0000 C   0  0  0  0  0  0  0  0  0  0  0  0
   -1.5592  -24.0827    0.0000 C   0  0  0  0  0  0  0  0  0  0  0  0
    0.1682  -24.7564    0.0000 C   0  0  0  0  0  0  0  0  0  0  0  0
   -1.3136  -24.8703    0.0000 C   0  0  0  0  0  0  0  0  0  0  0  0
   -0.5444  -25.1672    0.0000 C   0  0  0  0  0  0  0  0  0  0  0  0
   -0.2814  -23.3389    0.0000 C   0  0  0  0  0  0  0  0  0  0  0  0
    0.2853  -23.9424    0.0000 C   0  0  0  0  0  0  0  0  0  0  0  0
    1.0893  -23.7528    0.0000 C   0  0  0  0  0  0  0  0  0  0  0  0
    1.3276  -22.9602    0.0000 C   0  0  0  0  0  0  0  0  0  0  0  0
    0.7559  -22.3572    0.0000 C   0  0  0  0  0  0  0  0  0  0  0  0
   -0.0459  -22.5499    0.0000 C   0  0  0  0  0  0  0  0  0  0  0  0
  8 10  1  0  0  0  0 
  5  6  1  0  0  0  0 
 10 11  1  0  0  0  0 
 11 16  1  0  0  0  0 
 11 12  1  0  0  0  0 
  2  3  1  0  0  0  0 
 17 13  1  0  0  0  0 
  3  6  2  0  0  0  0 
 12 14  1  0  0  0  0 
  1  2  2  0  0  0  0 
 13 15  1  0  0  0  0 
 14 15  1  0  0  0  0 
  5  4  2  0  0  0  0 
  6  7  1  0  0  0  0 
 16 17  2  0  0  0  0 
  7  8  1  0  0  0  0 
 17 18  1  0  0  0  0 
  8  9  2  0  0  0  0 
 18 19  2  0  0  0  0 
  9  5  1  0  0  0  0 
 19 20  1  0  0  0  0 
  4  1  1  0  0  0  0 
 20 21  2  0  0  0  0 
 21 16  1  0  0  0  0 
M  END