
  SciTegic05071316502D

 23 24  0  0  0  0            999 V2000
   27.9909  -24.9862    0.0000 N   0  0
   28.6986  -25.3948    0.0000 C   0  0
   29.4063  -24.9862    0.0000 N   0  0
   28.6986  -26.2120    0.0000 S   0  0
   27.2832  -25.3948    0.0000 C   0  0
   30.1140  -25.3948    0.0000 C   0  0
   30.1095  -26.2131    0.0000 N   0  0
   30.8164  -26.6216    0.0000 C   0  0
   30.8150  -24.9867    0.0000 C   0  0
   31.5224  -25.3915    0.0000 C   0  0
   31.5215  -26.2115    0.0000 N   0  0
   26.5770  -24.9814    0.0000 C   0  0
   25.8698  -25.3894    0.0000 C   0  0
   25.8693  -26.2074    0.0000 C   0  0
   26.5820  -26.6159    0.0000 C   0  0
   27.2863  -26.2056    0.0000 C   0  0
   30.8175  -27.4388    0.0000 N   0  0
   30.1104  -27.8484    0.0000 C   0  0
   30.1115  -28.6656    0.0000 C   0  0
   31.5258  -27.8464    0.0000 C   0  0
   31.5269  -28.6636    0.0000 C   0  0
   32.2296  -24.9820    0.0000 C   0  0
   26.5849  -27.4330    0.0000 Br  0  0
  1  2  1  0
  2  3  1  0
  2  4  2  0
  1  5  1  0
  3  6  1  0
  6  7  2  0
  7  8  1  0
  8 11  2  0
 10  9  2  0
  9  6  1  0
 10 11  1  0
  5 12  2  0
 12 13  1  0
 13 14  2  0
 14 15  1  0
 15 16  2  0
 16  5  1  0
  8 17  1  0
 17 18  1  0
 18 19  1  0
 17 20  1  0
 20 21  1  0
 10 22  1  0
 15 23  1  0
M  END