
          11280715172D 1   1.00000     0.00000     0

 30 32  0     1  0            999 V2000
    3.7250   -0.4917    0.0000 C   0  0  2  0  0  0           0  0  0
    3.7250    0.3333    0.0000 N   0  0  3  0  0  0           0  0  0
    0.8667    1.9833    0.0000 C   0  0  0  0  0  0           0  0  0
    4.4375   -0.9042    0.0000 C   0  0  1  0  0  0           0  0  0
    3.0125   -0.9042    0.0000 C   0  0  0  0  0  0           0  0  0
    3.7250   -2.1417    0.0000 N   0  0  3  0  0  0           0  0  0
    4.4375   -1.7292    0.0000 C   0  0  0  0  0  0           0  0  0
    1.5875    1.5708    0.0000 C   0  0  0  0  0  0           0  0  0
    3.0125    0.7458    0.0000 C   0  0  0  0  0  0           0  0  0
    0.1542    1.5708    0.0000 N   0  0  3  0  0  0           0  0  0
    0.8667    2.8083    0.0000 O   0  0  0  0  0  0           0  0  0
    4.4375    0.7458    0.0000 C   0  0  0  0  0  0           0  0  0
    3.0125   -1.7292    0.0000 C   0  0  0  0  0  0           0  0  0
    1.5875    0.7458    0.0000 C   0  0  0  0  0  0           0  0  0
    2.3000    1.9833    0.0000 C   0  0  0  0  0  0           0  0  0
    2.3000    0.3333    0.0000 C   0  0  0  0  0  0           0  0  0
    3.0125    1.5708    0.0000 C   0  0  0  0  0  0           0  0  0
    4.4375   -3.3792    0.0000 C   0  0  0  0  0  0           0  0  0
    4.4375   -4.2042    0.0000 C   0  0  0  0  0  0           0  0  0
    3.7250   -2.9667    0.0000 C   0  0  0  0  0  0           0  0  0
    5.1500   -0.4917    0.0000 C   0  0  0  0  0  0           0  0  0
   -0.5625    1.9833    0.0000 C   0  0  0  0  0  0           0  0  0
    0.1542    0.7458    0.0000 C   0  0  0  0  0  0           0  0  0
    5.1500    0.3333    0.0000 C   0  0  0  0  0  0           0  0  0
    4.4375    1.5708    0.0000 C   0  0  0  0  0  0           0  0  0
   -1.2750    1.5708    0.0000 C   0  0  0  0  0  0           0  0  0
   -0.5583    0.3333    0.0000 C   0  0  0  0  0  0           0  0  0
    5.1500    1.9833    0.0000 C   0  0  0  0  0  0           0  0  0
    5.8625    0.7458    0.0000 C   0  0  0  0  0  0           0  0  0
    5.8667    1.5708    0.0000 C   0  0  0  0  0  0           0  0  0
  1  2  1  6     0  0
  3  8  1  0     0  0
  4  1  1  0     0  0
  5  1  1  0     0  0
  6 13  1  0     0  0
  7  4  1  0     0  0
  8 15  2  0     0  0
  9  2  1  0     0  0
 10  3  1  0     0  0
 11  3  2  0     0  0
 12  2  1  0     0  0
 13  5  1  0     0  0
 14 16  2  0     0  0
 15 17  1  0     0  0
 16  9  1  0     0  0
 17  9  2  0     0  0
 18 20  1  0     0  0
 19 18  2  0     0  0
 20  6  1  0     0  0
  4 21  1  6     0  0
 22 10  1  0     0  0
 23 10  1  0     0  0
 24 12  2  0     0  0
 25 12  1  0     0  0
 26 22  1  0     0  0
 27 23  1  0     0  0
 28 25  2  0     0  0
 29 24  1  0     0  0
 30 28  1  0     0  0
  7  6  1  0     0  0
 14  8  1  0     0  0
 29 30  2  0     0  0
M  END