
  SciTegic01161211252D

 28 31  0  0  0  0            999 V2000
   19.0465  -21.1498    0.0000 N   0  0
   19.8475  -20.9708    0.0000 C   0  0
   20.4934  -21.4871    0.0000 C   0  0
   18.6857  -21.8941    0.0000 C   0  0
   20.4951  -22.3107    0.0000 N   0  0
   19.0435  -22.6390    0.0000 C   0  0
   19.8491  -22.8215    0.0000 C   0  0
   21.2090  -22.7241    0.0000 C   0  0
   21.2070  -23.5491    0.0000 O   0  0
   21.9242  -22.3140    0.0000 C   0  0  2  0  0  0
   22.5947  -22.7891    0.0000 N   0  0
   23.2549  -22.2944    0.0000 C   0  0
   22.9885  -21.5136    0.0000 C   0  0  2  0  0  0
   22.1636  -21.5258    0.0000 C   0  0
   23.4636  -20.8390    0.0000 O   0  0
   23.0583  -20.1204    0.0000 C   0  0
   23.4796  -19.4132    0.0000 C   0  0
   23.0750  -18.6951    0.0000 C   0  0
   22.2491  -18.6864    0.0000 C   0  0
   21.8296  -19.4017    0.0000 C   0  0
   22.2366  -20.1169    0.0000 C   0  0
   18.4655  -20.5642    0.0000 C   0  0
   18.6796  -19.7712    0.0000 C   0  0
   17.9894  -19.3193    0.0000 C   0  0
   17.3463  -19.8361    0.0000 C   0  0
   17.6392  -20.6073    0.0000 C   0  0
   21.8419  -17.9705    0.0000 C   0  0
   21.4356  -17.2524    0.0000 N   0  0
 13 14  1  0
 14 10  1  0
  6  7  1  0
 13 15  1  6
  1  4  1  0
 15 16  1  0
  5  8  1  0
 16 17  2  0
 17 18  1  0
  8  9  2  0
 18 19  2  0
  3  5  1  0
 19 20  1  0
 10  8  1  1
 20 21  2  0
 21 16  1  0
 10 11  1  0
  1 22  1  0
 22 23  1  0
  2  3  1  0
  4  6  1  0
  1  2  1  0
  5  7  1  0
 23 24  1  0
 24 25  1  0
 25 26  1  0
 26 22  1  0
 11 12  1  0
 12 13  1  0
 27 28  3  0
 19 27  1  0
M  END