
  SciTegic06051313552D

 36 40  0  0  0  0            999 V2000
    3.0403   -4.0694    0.0000 C   0  0
    3.0392   -4.8889    0.0000 C   0  0
    3.7472   -5.2979    0.0000 C   0  0
    3.7455   -3.6605    0.0000 C   0  0
    5.2378   -3.8097    0.0000 C   0  0
    4.4541   -4.0658    0.0000 C   0  0
    4.4566   -4.8911    0.0000 C   0  0
    5.2429   -5.1424    0.0000 N   0  0
    5.7237   -4.4715    0.0000 N   0  0
    5.4999   -5.9181    0.0000 C   0  0
    5.0815   -6.6192    0.0000 C   0  0
    4.2668   -6.6046    0.0000 C   0  0
    3.8478   -7.3054    0.0000 C   0  0
    4.2460   -8.0200    0.0000 C   0  0
    5.0673   -8.0295    0.0000 C   0  0
    5.4826   -7.3281    0.0000 C   0  0
    5.4679   -8.7418    0.0000 C   0  0
    5.0514   -9.4449    0.0000 N   0  0
    5.4520  -10.1571    0.0000 C   0  0
    5.0355  -10.8602    0.0000 O   0  0
    6.2691  -10.1663    0.0000 C   0  0
    5.6595   -3.1097    0.0000 N   0  0
    6.4766   -3.1249    0.0000 S   0  0
    6.9632   -3.7813    0.0000 C   0  0
    6.4491   -2.3012    0.0000 O   0  0
    7.2580   -2.8818    0.0000 O   0  0
    6.7181   -4.5629    0.0000 C   0  0
    7.3844   -5.0377    0.0000 C   0  0
    8.0411   -4.5494    0.0000 C   0  0
    7.7785   -3.7746    0.0000 S   0  0
    8.8213   -4.7927    0.0000 Cl  0  0
    3.7388   -2.8475    0.0000 O   0  0
    3.0278   -2.4447    0.0000 C   0  0
    6.8397  -10.7498    0.0000 C   0  0
    7.4241  -10.1785    0.0000 O   0  0
    6.8528   -9.5942    0.0000 C   0  0
  1  2  2  0
  2  3  1  0
  3  7  2  0
  6  4  2  0
  4  1  1  0
  6  7  1  0
  5  6  1  0
  7  8  1  0
  8  9  1  0
  9  5  2  0
  8 10  1  0
 10 11  1  0
 11 12  2  0
 12 13  1  0
 13 14  2  0
 14 15  1  0
 15 16  2  0
 16 11  1  0
 15 17  1  0
 17 18  1  0
 18 19  1  0
 19 20  2  0
 19 21  1  0
  5 22  1  0
 22 23  1  0
 23 24  1  0
 23 25  2  0
 23 26  2  0
 27 28  1  0
 24 27  2  0
 28 29  2  0
 29 30  1  0
 30 24  1  0
 29 31  1  0
  4 32  1  0
 32 33  1  0
 21 34  1  0
 34 35  1  0
 35 36  1  0
 36 21  1  0
M  END