
          11280714462D 1   1.00000     0.00000     0

 26 28  0     0  0            999 V2000
    0.7875   -2.4000    0.0000 N   0  0  3  0  0  0           0  0  0
    1.0500   -1.8625    0.0000 C   0  0  0  0  0  0           0  0  0
    0.2000   -2.2917    0.0000 C   0  0  0  0  0  0           0  0  0
   -0.0875   -2.8167    0.0000 N   0  0  0  0  0  0           0  0  0
    0.5250   -1.5625    0.0000 C   0  0  0  0  0  0           0  0  0
    0.8625   -3.0000    0.0000 C   0  0  0  0  0  0           0  0  0
    0.3250   -3.2500    0.0000 C   0  0  0  0  0  0           0  0  0
    0.5250   -0.9500    0.0000 C   0  0  0  0  0  0           0  0  0
    1.5750   -1.5542    0.0000 C   0  0  0  0  0  0           0  0  0
    1.0500   -0.6417    0.0000 O   0  0  0  0  0  0           0  0  0
    3.1875   -1.2000    0.0000 N   0  0  0  0  0  0           0  0  0
    2.1542   -0.7875    0.0000 C   0  0  3  0  0  0           0  0  0
    1.5750   -0.9417    0.0000 C   0  0  0  0  0  0           0  0  0
    2.5875   -1.2000    0.0000 C   0  0  0  0  0  0           0  0  0
    0.0000   -1.8625    0.0000 C   0  0  0  0  0  0           0  0  0
    2.3000   -0.2000    0.0000 O   0  0  0  0  0  0           0  0  0
    1.3500   -3.3375    0.0000 C   0  0  0  0  0  0           0  0  0
    3.5417   -1.6875    0.0000 C   0  0  3  0  0  0           0  0  0
    0.2750   -3.8500    0.0000 C   0  0  0  0  0  0           0  0  0
    0.0000   -0.6500    0.0000 C   0  0  0  0  0  0           0  0  0
    3.3000   -2.2375    0.0000 C   0  0  0  0  0  0           0  0  0
    4.1417   -1.6250    0.0000 C   0  0  0  0  0  0           0  0  0
   -0.5208   -1.5625    0.0000 C   0  0  0  0  0  0           0  0  0
    1.3042   -3.9292    0.0000 C   0  0  0  0  0  0           0  0  0
    0.7625   -4.1875    0.0000 C   0  0  0  0  0  0           0  0  0
   -0.5208   -0.9542    0.0000 C   0  0  0  0  0  0           0  0  0
  2  1  1  0     0  0
  3  1  1  0     0  0
  4  3  2  0     0  0
  5  2  1  0     0  0
  6  1  1  0     0  0
  7  6  2  0     0  0
  8  5  1  0     0  0
  9  2  2  0     0  0
 10  8  1  0     0  0
 11 14  1  0     0  0
 12 13  1  0     0  0
 13 10  1  0     0  0
 14 12  1  0     0  0
 15  5  2  0     0  0
 16 12  1  0     0  0
 17  6  1  0     0  0
 18 11  1  0     0  0
 19  7  1  0     0  0
 20  8  2  0     0  0
 21 18  1  0     0  0
 22 18  1  0     0  0
 23 15  1  0     0  0
 24 17  2  0     0  0
 25 24  1  0     0  0
 26 23  2  0     0  0
  7  4  1  0     0  0
 25 19  2  0     0  0
 26 20  1  0     0  0
M  END