
          11280714582D 1   1.00000     0.00000     0

 26 28  0     0  0            999 V2000
    2.9417   -6.5250    0.0000 S   0  0  3  0  0  0           0  0  0
    2.7417   -5.7667    0.0000 N   0  0  0  0  0  0           0  0  0
    2.7125   -4.5292    0.0000 C   0  0  3  0  0  0           0  0  0
    2.3625   -5.2375    0.0000 C   0  0  3  0  0  0           0  0  0
    2.0500   -4.1292    0.0000 C   0  0  3  0  0  0           0  0  0
    1.7500   -4.9167    0.0000 C   0  0  3  0  0  0           0  0  0
    1.8750   -3.4292    0.0000 C   0  0  0  0  0  0           0  0  0
    2.1750   -6.7167    0.0000 O   0  0  0  0  0  0           0  0  0
    3.7042   -6.3250    0.0000 O   0  0  0  0  0  0           0  0  0
    3.1417   -7.2917    0.0000 C   0  0  0  0  0  0           0  0  0
    7.5125   -4.7667    0.0000 C   0  0  0  0  0  0           0  0  0
    1.3375   -4.5167    0.0000 C   0  0  0  0  0  0           0  0  0
    1.0250   -5.1792    0.0000 C   0  0  0  0  0  0           0  0  0
    8.1125   -4.1667    0.0000 O   0  0  0  0  0  0           0  0  0
    3.8167   -5.5417    0.0000 C   0  0  0  0  0  0           0  0  0
    4.6667   -5.5417    0.0000 C   0  0  0  0  0  0           0  0  0
    7.7375   -5.5792    0.0000 O   0  0  0  0  0  0           0  0  0
    3.1875   -4.9750    0.0000 C   0  0  0  0  0  0           0  0  0
    6.6875   -4.5542    0.0000 C   0  0  0  0  0  0           0  0  0
    3.9125   -7.5042    0.0000 C   0  0  0  0  0  0           0  0  0
    2.5750   -7.8417    0.0000 C   0  0  0  0  0  0           0  0  0
    5.2625   -4.9417    0.0000 C   0  0  0  0  0  0           0  0  0
    6.0875   -5.1542    0.0000 C   0  0  0  0  0  0           0  0  0
    2.7667   -8.6167    0.0000 C   0  0  0  0  0  0           0  0  0
    4.1042   -8.2667    0.0000 C   0  0  0  0  0  0           0  0  0
    3.5417   -8.8292    0.0000 C   0  0  0  0  0  0           0  0  0
  2  1  1  0     0  0
  3  2  1  0     0  0
  4  3  1  0     0  0
  5  3  1  0     0  0
  6  4  1  0     0  0
  7  5  1  0     0  0
  8  1  2  0     0  0
  9  1  2  0     0  0
 10  1  1  0     0  0
 11 19  1  0     0  0
 12  5  1  0     0  0
 13 12  1  0     0  0
 14 11  2  0     0  0
 15 18  1  0     0  0
 16 15  2  0     0  0
 17 11  1  0     0  0
 18  4  1  0     0  0
 19 23  1  0     0  0
 20 10  2  0     0  0
 21 10  1  0     0  0
 22 16  1  0     0  0
 23 22  1  0     0  0
 24 21  2  0     0  0
 25 20  1  0     0  0
 26 24  1  0     0  0
 25 26  2  0     0  0
  6  7  1  0     0  0
 13  6  1  0     0  0
M  END