
          11280714572D 1   1.00000     0.00000     0

 23 24  0     0  0            999 V2000
    1.8750   -7.0042    0.0000 S   0  0  3  0  0  0           0  0  0
    2.5875   -6.5917    0.0000 N   0  0  0  0  0  0           0  0  0
    1.1542   -6.5917    0.0000 C   0  0  0  0  0  0           0  0  0
    2.2792   -7.7167    0.0000 O   0  0  0  0  0  0           0  0  0
    1.2875   -7.5917    0.0000 O   0  0  0  0  0  0           0  0  0
    6.1750  -10.2667    0.0000 C   0  0  0  0  0  0           0  0  0
    5.4625  -10.6875    0.0000 O   0  0  0  0  0  0           0  0  0
    0.4417   -7.0042    0.0000 C   0  0  0  0  0  0           0  0  0
    1.1542   -5.7667    0.0000 C   0  0  0  0  0  0           0  0  0
    3.3042   -6.9917    0.0000 C   0  0  0  0  0  0           0  0  0
   -0.2708   -5.7667    0.0000 C   0  0  0  0  0  0           0  0  0
    6.8917  -10.6792    0.0000 O   0  0  0  0  0  0           0  0  0
   -0.2708   -6.5917    0.0000 C   0  0  0  0  0  0           0  0  0
    0.4417   -5.3542    0.0000 C   0  0  0  0  0  0           0  0  0
    4.7292   -7.8042    0.0000 C   0  0  0  0  0  0           0  0  0
   -0.9833   -5.3542    0.0000 Cl  0  0  0  0  0  0           0  0  0
    4.0042   -6.5750    0.0000 C   0  0  0  0  0  0           0  0  0
    3.3042   -7.8167    0.0000 C   0  0  0  0  0  0           0  0  0
    4.7250   -6.9792    0.0000 C   0  0  0  0  0  0           0  0  0
    4.0167   -8.2250    0.0000 C   0  0  0  0  0  0           0  0  0
    6.1667   -9.4417    0.0000 C   0  0  0  0  0  0           0  0  0
    5.4542   -9.0375    0.0000 C   0  0  0  0  0  0           0  0  0
    5.4417   -8.2125    0.0000 C   0  0  0  0  0  0           0  0  0
  2  1  1  0     0  0
  3  1  1  0     0  0
  4  1  2  0     0  0
  5  1  2  0     0  0
  6 21  1  0     0  0
  7  6  2  0     0  0
  8  3  2  0     0  0
  9  3  1  0     0  0
 10  2  1  0     0  0
 11 14  1  0     0  0
 12  6  1  0     0  0
 13  8  1  0     0  0
 14  9  2  0     0  0
 15 20  2  0     0  0
 16 11  1  0     0  0
 17 10  1  0     0  0
 18 10  2  0     0  0
 19 17  2  0     0  0
 20 18  1  0     0  0
 21 22  1  0     0  0
 22 23  1  0     0  0
 23 15  1  0     0  0
 11 13  2  0     0  0
 19 15  1  0     0  0
M  END