
  SciTegic01161211252D

 21 22  0  0  0  0            999 V2000
    2.5292   -8.1625    0.0000 N   0  0
    3.0167   -8.4250    0.0000 C   0  0
    1.9042   -8.5375    0.0000 C   0  0  2  0  0  0
    3.4375   -8.1625    0.0000 N   0  0
   -1.1583   -7.7292    0.0000 P   0  0
    2.5292   -7.6500    0.0000 C   0  0
    1.2000   -8.1375    0.0000 O   0  0
    1.6375   -9.0750    0.0000 C   0  0
    2.9875   -7.3875    0.0000 C   0  0
    3.4375   -7.6500    0.0000 C   0  0
    0.4875   -8.5375    0.0000 C   0  0  1  0  0  0
    0.7542   -9.0750    0.0000 C   0  0  1  0  0  0
    0.2667   -7.7375    0.0000 C   0  0
    3.0375   -9.0250    0.0000 O   0  0
   -0.5583   -7.7292    0.0000 O   0  0
   -1.7583   -7.7292    0.0000 O   0  0
   -1.1583   -8.3292    0.0000 O   0  0
    4.0500   -7.3167    0.0000 N   0  0
   -1.1583   -7.1292    0.0000 O   0  0
    0.1542   -9.5542    0.0000 O   0  0
    4.6542   -7.6625    0.0000 O   0  0
  2  1  1  0
  3  1  1  1
  4  2  1  0
  5 15  1  0
  6  1  1  0
  7  3  1  0
  8  3  1  0
  9  6  2  0
 10  9  1  0
 11  7  1  0
 12  8  1  0
 11 13  1  1
 14  2  2  0
 15 13  1  0
 16  5  1  0
 17  5  1  0
 18 10  1  0
 19  5  2  0
 12 20  1  6
 21 18  1  0
  4 10  2  0
 11 12  1  0
M  END