
  SciTegic02271515072D

 26 29  0  0  0  0            999 V2000
   12.3679  -13.9706    0.0000 C   0  0
   12.3667  -14.7902    0.0000 C   0  0
   13.0748  -15.1991    0.0000 N   0  0
   13.0730  -13.5618    0.0000 C   0  0
   13.7816  -13.9670    0.0000 C   0  0
   13.7819  -14.7902    0.0000 C   0  0
   14.5648  -15.0444    0.0000 S   0  0
   15.0486  -14.3782    0.0000 N   0  0
   14.5644  -13.7125    0.0000 C   0  0
   14.8167  -12.9352    0.0000 N   0  0
   14.2697  -12.3281    0.0000 C   0  0
   14.5220  -11.5508    0.0000 C   0  0
   13.4704  -12.4983    0.0000 O   0  0
   11.6641  -13.5580    0.0000 C   0  0
   11.6729  -12.7411    0.0000 C   0  0
   10.9699  -12.3286    0.0000 C   0  0
   10.2597  -12.7318    0.0000 C   0  0
   10.2568  -13.5519    0.0000 C   0  0
   10.9603  -13.9608    0.0000 C   0  0
    9.5541  -12.3194    0.0000 O   0  0
    9.5478  -13.9582    0.0000 O   0  0
    8.8414  -13.5474    0.0000 C   0  0
    8.8443  -12.7242    0.0000 C   0  0
   15.2484  -11.1834    0.0000 C   0  0
   14.8772  -10.4554    0.0000 C   0  0
   14.1492  -10.8266    0.0000 C   0  0
  1  2  2  0
  2  3  1  0
  3  6  2  0
  5  4  2  0
  4  1  1  0
  5  6  1  0
  6  7  1  0
  7  8  1  0
  8  9  2  0
  9  5  1  0
  9 10  1  0
 10 11  1  0
 11 12  1  0
 11 13  2  0
  1 14  1  0
 14 15  2  0
 15 16  1  0
 16 17  2  0
 17 18  1  0
 18 19  2  0
 19 14  1  0
 17 20  1  0
 18 21  1  0
 21 22  1  0
 20 23  1  0
 12 24  1  0
 24 25  1  0
 25 26  1  0
 26 12  1  0
M  END