
  SciTegic06141115222D

 32 35  0  0  0  0            999 V2000
    8.0206   -5.8949    0.0000 N   0  0
    8.7065   -5.4305    0.0000 C   0  0
    7.3007   -5.4789    0.0000 C   0  0
    9.8059   -6.4355    0.0000 O   0  0
    7.9694   -6.7215    0.0000 C   0  0
    9.5004   -5.6662    0.0000 C   0  0
    8.5759   -7.2854    0.0000 C   0  0
    9.3937   -7.1576    0.0000 C   0  0
    7.2998   -4.6419    0.0000 N   0  0
    8.5177   -4.6264    0.0000 C   0  0
    6.5727   -3.3998    0.0000 C   0  0
    4.4177   -2.9818    0.0000 S   0  3
    2.9785   -2.9870    0.0000 C   0  0
    5.8528   -2.9839    0.0000 C   0  0
    6.5777   -4.2296    0.0000 N   0  0
    3.6964   -3.4065    0.0000 C   0  0
    2.8866   -2.1656    0.0000 O   0  0
    6.5835   -5.8964    0.0000 O   0  0
    2.2166   -3.3305    0.0000 C   0  0
    2.0796   -1.9950    0.0000 C   0  0
   10.1086   -5.1091    0.0000 C   0  0
    4.4127   -2.1520    0.0000 O   0  5
    1.6673   -2.7171    0.0000 C   0  0
    7.2956   -2.9808    0.0000 O   0  0
    5.1356   -3.4013    0.0000 C   0  0
    9.1191   -4.0558    0.0000 C   0  0
    9.9089   -4.2987    0.0000 C   0  0
    8.9266   -3.2495    0.0000 Cl  0  0
    8.2720   -8.0549    0.0000 C   0  0
    9.9111   -7.8012    0.0000 C   0  0
    8.7967   -8.7027    0.0000 C   0  0
    9.6145   -8.5748    0.0000 C   0  0
  2  1  1  0
  3  1  1  0
  4  6  1  0
  5  1  1  0
  6  2  1  0
  7  5  1  0
  8  7  1  0
  9  3  1  0
 10  2  2  0
 11 15  1  0
 12 25  1  0
 13 16  1  0
 14 11  1  0
 15  9  1  0
 16 12  1  0
 17 13  1  0
 18  3  2  0
 19 13  2  0
 20 17  1  0
 21  6  2  0
 22 12  1  0
 23 19  1  0
 24 11  2  0
 25 14  1  0
 26 10  1  0
 27 26  2  0
 28 26  1  0
 29  7  2  0
 30  8  2  0
 31 29  1  0
 32 31  2  0
  8  4  1  0
 27 21  1  0
 32 30  1  0
 20 23  2  0
M  CHG  2  12   1  22  -1
M  END