
          11280715252D 1   1.00000     0.00000     0

  8  8  0     0  0            999 V2000
    1.4667    0.5333    0.0000 C   0  0  0  0  0  0           0  0  0
    1.7375   -0.2417    0.0000 N   0  0  0  0  0  0           0  0  0
    1.9292    1.2125    0.0000 C   0  0  0  0  0  0           0  0  0
    1.0792   -0.7417    0.0000 N   0  0  0  0  0  0           0  0  0
    0.6417    0.5125    0.0000 C   0  0  0  0  0  0           0  0  0
    0.4042   -0.2792    0.0000 C   0  0  0  0  0  0           0  0  0
    1.5792    1.9583    0.0000 O   0  0  0  0  0  0           0  0  0
    2.7542    1.1458    0.0000 O   0  0  0  0  0  0           0  0  0
  2  1  2  0     0  0
  3  1  1  0     0  0
  4  2  1  0     0  0
  5  1  1  0     0  0
  6  5  2  0     0  0
  7  3  2  0     0  0
  8  3  1  0     0  0
  6  4  1  0     0  0
M  END