
  SciTegic01161211252D

 25 24  0  0  0  0            999 V2000
    5.9417   -2.7042    0.0000 C   0  0
    5.9375   -4.3542    0.0000 C   0  0
    5.2292   -3.9417    0.0000 C   0  0
    5.2292   -3.1167    0.0000 C   0  0
    3.3000   -1.9792    0.0000 N   0  0
    6.6542   -3.9417    0.0000 O   0  0
    6.6542   -3.1167    0.0000 O   0  0
    3.2792   -5.6542    0.0000 N   0  0
    5.9417   -1.8792    0.0000 O   0  0
    5.9292   -5.1792    0.0000 O   0  0
    3.6875   -6.3792    0.0000 C   0  0
    3.3000   -2.8042    0.0000 O   0  0
    2.5875   -1.5667    0.0000 C   0  0
    3.2917   -4.2292    0.0000 C   0  0
    3.7000   -4.9417    0.0000 C   0  0
    3.7125   -3.5167    0.0000 C   0  0
    2.4667   -4.2167    0.0000 O   0  0
    4.5125   -6.3792    0.0000 C   0  0
    3.2667   -7.0917    0.0000 C   0  0
    4.2667   -6.9667    0.0000 C   0  0
    1.8750   -1.9792    0.0000 C   0  0
    2.5875   -0.7417    0.0000 C   0  0
    1.8750   -0.3292    0.0000 C   0  0
    1.1500   -1.5667    0.0000 C   0  0
    1.1500   -0.7417    0.0000 C   0  0
  2  3  1  0
  3  4  2  0
  4  1  1  0
  6  2  1  0
  7  1  1  0
  8 15  1  0
  9  1  2  0
 10  2  2  0
 11  8  1  0
 12  5  1  0
 13  5  2  0
 14 16  1  0
 15 14  1  0
 16 12  1  0
 17 14  1  0
 18 11  1  0
 19 11  1  0
 20 11  1  0
 21 13  1  0
 22 13  1  0
 23 22  1  0
 24 21  1  0
 25 23  1  0
 24 25  1  0
M  END