
          11280715192D 1   1.00000     0.00000     0

 19 20  0     0  0            999 V2000
   -3.0583    2.2333    0.0000 S   0  0  3  0  0  0           0  0  0
   -3.7708    1.8208    0.0000 N   0  0  0  0  0  0           0  0  0
   -2.9958   -2.0917    0.0000 N   0  0  0  0  0  0           0  0  0
   -3.7708    0.9958    0.0000 C   0  0  0  0  0  0           0  0  0
   -3.0625    0.5833    0.0000 C   0  0  0  0  0  0           0  0  0
   -3.0208   -0.2750    0.0000 C   0  0  0  0  0  0           0  0  0
   -2.3500   -1.5792    0.0000 C   0  0  0  0  0  0           0  0  0
   -1.8875   -2.8292    0.0000 N   0  0  0  0  0  0           0  0  0
   -2.7000   -2.8667    0.0000 C   0  0  0  0  0  0           0  0  0
   -3.4750    2.9583    0.0000 O   0  0  0  0  0  0           0  0  0
   -2.6458    1.5125    0.0000 O   0  0  0  0  0  0           0  0  0
   -2.3500   -0.7542    0.0000 C   0  0  0  0  0  0           0  0  0
   -1.6708   -2.0375    0.0000 C   0  0  0  0  0  0           0  0  0
   -2.3375    2.6500    0.0000 C   0  0  0  0  0  0           0  0  0
   -4.4875    0.5833    0.0000 C   0  0  0  0  0  0           0  0  0
   -3.7708   -0.6542    0.0000 C   0  0  0  0  0  0           0  0  0
   -4.4875   -0.2417    0.0000 C   0  0  0  0  0  0           0  0  0
   -2.3583    1.0083    0.0000 C   0  0  0  0  0  0           0  0  0
   -1.6250    2.2333    0.0000 C   0  0  0  0  0  0           0  0  0
  2  1  1  0     0  0
  3  7  1  0     0  0
  4  2  1  0     0  0
  5  4  2  0     0  0
  6  5  1  0     0  0
  7 12  1  0     0  0
  8 13  1  0     0  0
  9  3  2  0     0  0
 10  1  2  0     0  0
 11  1  2  0     0  0
 12  6  1  0     0  0
 13  7  2  0     0  0
 14  1  1  0     0  0
 15  4  1  0     0  0
 16 17  1  0     0  0
 17 15  2  0     0  0
 18  5  1  0     0  0
 19 14  1  0     0  0
 16  6  2  0     0  0
  9  8  1  0     0  0
M  END