
  CDK    9/16/09,9:41

 22 24  0  0  0  0  0  0  0  0999 V2000
   -3.7248   -6.0442    0.0000 C   0  0  0  0  0  0  0  0  0  0  0  0
   -2.6399   -6.8513    0.0000 C   0  0  0  0  0  0  0  0  0  0  0  0
   -3.1658   -6.4188    0.0000 C   0  0  0  0  0  0  0  0  0  0  0  0
   -4.1507   -6.4188    0.0000 C   0  0  0  0  0  0  0  0  0  0  0  0
   -4.2912   -5.5983    0.0000 N   0  0  0  0  0  0  0  0  0  0  0  0
   -2.7844   -6.0249    0.0000 C   0  0  0  0  0  0  0  0  0  0  0  0
   -4.6777   -7.1400    0.0000 C   0  0  0  0  0  0  0  0  0  0  0  0
   -4.0478   -6.7602    0.0000 C   0  0  0  0  0  0  0  0  0  0  0  0
   -4.7099   -4.8886    0.0000 C   0  0  0  0  0  0  0  0  0  0  0  0
   -3.5171   -5.2416    0.0000 H   0  0  0  0  0  0  0  0  0  0  0  0
   -4.9766   -6.4167    0.0000 H   0  0  0  0  0  0  0  0  0  0  0  0
   -2.2574   -5.3890    0.0000 C   0  0  0  0  0  0  0  0  0  0  0  0
   -1.4449   -5.5293    0.0000 O   0  0  0  0  0  0  0  0  0  0  0  0
   -2.5468   -4.6170    0.0000 O   0  0  0  0  0  0  0  0  0  0  0  0
   -2.0238   -3.9811    0.0000 C   0  0  0  0  0  0  0  0  0  0  0  0
   -2.2317   -7.5636    0.0000 C   0  0  0  0  0  0  0  0  0  0  0  0
   -2.6425   -8.2782    0.0000 C   0  0  0  0  0  0  0  0  0  0  0  0
   -2.2303   -8.9929    0.0000 C   0  0  0  0  0  0  0  0  0  0  0  0
   -1.4034   -8.9907    0.0000 C   0  0  0  0  0  0  0  0  0  0  0  0
   -0.9955   -8.2690    0.0000 C   0  0  0  0  0  0  0  0  0  0  0  0
   -1.4112   -7.5587    0.0000 C   0  0  0  0  0  0  0  0  0  0  0  0
   -0.9887   -9.7012    0.0000 I   0  0  0  0  0  0  0  0  0  0  0  0
  2  3  1  0  0  0  0 
  3  4  1  0  0  0  0 
  4  5  1  0  0  0  0 
  5  1  1  0  0  0  0 
  1  6  1  0  0  0  0 
  6  2  1  0  0  0  0 
  4  7  1  0  0  0  0 
  1  8  1  0  0  0  0 
  7  8  1  0  0  0  0 
  5  9  1  0  0  0  0 
  1 10  1  6  0  0  0 
  4 11  1  1  0  0  0 
  6 12  1  1  0  0  0 
 12 13  2  0  0  0  0 
 12 14  1  0  0  0  0 
 14 15  1  0  0  0  0 
 16 17  2  0  0  0  0 
 17 18  1  0  0  0  0 
 18 19  2  0  0  0  0 
 19 20  1  0  0  0  0 
 20 21  2  0  0  0  0 
 21 16  1  0  0  0  0 
  2 16  1  1  0  0  0 
 19 22  1  0  0  0  0 
M  END