
          08180812472D 1   1.00000     0.00000     0

 24 26  0     1  0            999 V2000
    7.2667    1.9875    0.0000 O   0  0  0  0  0  0           0  0  0
    6.4417    1.9917    0.0000 C   0  0  0  0  0  0           0  0  0
    7.6779    1.2749    0.0000 C   0  0  2  0  0  0           0  0  0
    7.2544    0.5611    0.0000 C   0  0  1  0  0  0           0  0  0
    7.8023   -0.0623    0.0000 O   0  0  0  0  0  0           0  0  0
    8.5646    0.2662    0.0000 C   0  0  3  0  0  0           0  0  0
    8.4876    1.0926    0.0000 O   0  0  0  0  0  0           0  0  0
    8.5583   -0.5583    0.0000 C   0  0  0  0  0  0           0  0  0
    9.3875    0.2667    0.0000 C   0  0  0  0  0  0           0  0  0
    8.0833    1.9917    0.0000 C   0  0  0  0  0  0           0  0  0
    8.9083    1.9989    0.0000 N   0  0  0  0  0  0           0  0  0
    9.3145    2.7170    0.0000 S   0  0  3  0  0  0           0  0  0
    9.7208    3.4375    0.0000 N   0  0  0  0  0  0           0  0  0
   10.0328    2.3113    0.0000 O   0  0  0  0  0  0           0  0  0
    8.5951    3.1208    0.0000 O   0  0  0  0  0  0           0  0  0
    6.8375   -0.1500    0.0000 H   0  0  0  0  0  0           0  0  0
    6.4345    0.5661    0.0000 C   0  0  1  0  0  0           0  0  0
    6.0311    1.2866    0.0000 C   0  0  2  0  0  0           0  0  0
    5.2211    1.1257    0.0000 O   0  0  0  0  0  0           0  0  0
    5.1239    0.3056    0.0000 C   0  0  2  0  0  0           0  0  0
    5.8738   -0.0402    0.0000 O   0  0  0  0  0  0           0  0  0
    5.8125    2.0875    0.0000 H   0  0  0  0  0  0           0  0  0
    6.8417    1.2833    0.0000 H   0  0  0  0  0  0           0  0  0
    4.4040   -0.0974    0.0000 C   0  0  0  0  0  0           0  0  0
 10 11  1  0     0  0
  2 18  1  0     0  0
 11 12  1  0     0  0
 17  4  1  0     0  0
 12 13  1  0     0  0
  4  5  1  0     0  0
 12 14  2  0     0  0
  5  6  1  0     0  0
 12 15  2  0     0  0
  6  7  1  0     0  0
  4 16  1  6     0  0
 17 18  1  0     0  0
  7  3  1  0     0  0
  3  4  1  0     0  0
  6  8  1  0     0  0
  6  9  1  0     0  0
 18 19  1  0     0  0
 19 20  1  0     0  0
 20 21  1  0     0  0
 21 17  1  0     0  0
  1  2  1  0     0  0
 18 22  1  1     0  0
  3 10  1  6     0  0
 17 23  1  1     0  0
  1  3  1  0     0  0
 20 24  1  6     0  0
M  END