
  Mrv0541 05211314572D          

 15 16  0  0  0  0            999 V2000
    1.1272   -5.3612    0.0000 N   0  0  0  0  0  0  0  0  0  0  0  0
    1.1272   -6.1862    0.0000 C   0  0  0  0  0  0  0  0  0  0  0  0
    1.8416   -6.5987    0.0000 N   0  0  0  0  0  0  0  0  0  0  0  0
    2.5561   -6.1862    0.0000 C   0  0  0  0  0  0  0  0  0  0  0  0
    2.5561   -5.3612    0.0000 N   0  0  0  0  0  0  0  0  0  0  0  0
    1.8416   -4.9487    0.0000 C   0  0  0  0  0  0  0  0  0  0  0  0
    1.8416   -4.1237    0.0000 C   0  0  0  0  0  0  0  0  0  0  0  0
    1.1272   -3.7112    0.0000 C   0  0  0  0  0  0  0  0  0  0  0  0
    1.1272   -2.8862    0.0000 C   0  0  0  0  0  0  0  0  0  0  0  0
    1.8416   -2.4737    0.0000 C   0  0  0  0  0  0  0  0  0  0  0  0
    2.5561   -2.8862    0.0000 C   0  0  0  0  0  0  0  0  0  0  0  0
    2.5561   -3.7112    0.0000 C   0  0  0  0  0  0  0  0  0  0  0  0
    0.4127   -6.5987    0.0000 N   0  0  0  0  0  0  0  0  0  0  0  0
    3.2706   -6.5987    0.0000 S   0  0  0  0  0  0  0  0  0  0  0  0
    3.9851   -6.1862    0.0000 C   0  0  0  0  0  0  0  0  0  0  0  0
  7  8  2  0  0  0  0
  8  9  1  0  0  0  0
  4  5  1  0  0  0  0
  9 10  2  0  0  0  0
  2  3  1  0  0  0  0
 10 11  1  0  0  0  0
  5  6  2  0  0  0  0
 11 12  2  0  0  0  0
 12  7  1  0  0  0  0
  6  7  1  0  0  0  0
  6  1  1  0  0  0  0
  2 13  1  0  0  0  0
  1  2  2  0  0  0  0
  4 14  1  0  0  0  0
  3  4  2  0  0  0  0
 14 15  1  0  0  0  0
M  END