
          11280715042D 1   1.00000     0.00000     0

 20 22  0     0  0            999 V2000
    5.1167   -7.3042    0.0000 N   0  0  0  0  0  0           0  0  0
    5.6250   -6.4250    0.0000 C   0  0  0  0  0  0           0  0  0
    5.6250   -7.0125    0.0000 C   0  0  0  0  0  0           0  0  0
    7.1292   -6.1292    0.0000 C   0  0  0  0  0  0           0  0  0
    4.6125   -6.4292    0.0000 C   0  0  0  0  0  0           0  0  0
    4.6167   -7.0167    0.0000 C   0  0  0  0  0  0           0  0  0
    6.6292   -6.4250    0.0000 C   0  0  0  0  0  0           0  0  0
    6.1292   -6.1375    0.0000 C   0  0  0  0  0  0           0  0  0
    6.6375   -7.0125    0.0000 N   0  0  0  0  0  0           0  0  0
    7.6375   -6.4167    0.0000 O   0  0  0  0  0  0           0  0  0
    6.1292   -7.3042    0.0000 C   0  0  0  0  0  0           0  0  0
    7.1292   -5.5542    0.0000 O   0  0  0  0  0  0           0  0  0
    8.1375   -6.1292    0.0000 C   0  0  3  0  0  0           0  0  0
    4.1042   -6.1417    0.0000 C   0  0  0  0  0  0           0  0  0
    4.1042   -7.3042    0.0000 C   0  0  0  0  0  0           0  0  0
    8.6417   -6.4167    0.0000 C   0  0  0  0  0  0           0  0  0
    8.1375   -5.5500    0.0000 C   0  0  0  0  0  0           0  0  0
    8.2917   -6.6875    0.0000 C   0  0  0  0  0  0           0  0  0
    3.6042   -6.4292    0.0000 C   0  0  0  0  0  0           0  0  0
    3.6042   -7.0125    0.0000 C   0  0  0  0  0  0           0  0  0
  2  3  1  0     0  0
  3  1  1  0     0  0
  4  7  1  0     0  0
  5  6  1  0     0  0
  6  1  2  0     0  0
  7  9  1  0     0  0
  8  2  1  0     0  0
  9 11  1  0     0  0
 10  4  1  0     0  0
 11  3  2  0     0  0
 12  4  2  0     0  0
 13 10  1  0     0  0
 14  5  1  0     0  0
 15  6  1  0     0  0
 16 13  1  0     0  0
 17 13  1  0     0  0
 18 13  1  0     0  0
 19 20  1  0     0  0
 20 15  2  0     0  0
  5  2  2  0     0  0
  8  7  2  0     0  0
 14 19  2  0     0  0
M  END