
          11280715482D 1   1.00000     0.00000     0

 53 58  0     1  0            999 V2000
    2.1125   -2.6875    0.0000 C   0  0  0  0  0  0           0  0  0
    2.1792   -1.8625    0.0000 N   0  0  3  0  0  0           0  0  0
    1.3042   -2.8750    0.0000 N   0  0  0  0  0  0           0  0  0
    4.9667    0.7458    0.0000 C   0  0  0  0  0  0           0  0  0
    9.5167    0.7375    0.0000 C   0  0  0  0  0  0           0  0  0
    4.2125    0.3083    0.0000 N   0  0  3  0  0  0           0  0  0
   10.2667    0.2958    0.0000 N   0  0  3  0  0  0           0  0  0
    1.4167   -1.5375    0.0000 C   0  0  0  0  0  0           0  0  0
    7.2417    0.3083    0.0000 C   0  0  0  0  0  0           0  0  0
    5.7167    0.3083    0.0000 N   0  0  0  0  0  0           0  0  0
    0.8750   -2.1625    0.0000 C   0  0  0  0  0  0           0  0  0
    8.0042    0.7375    0.0000 N   0  0  0  0  0  0           0  0  0
    8.4417    2.7708    0.0000 C   0  0  0  0  0  0           0  0  0
   12.4292   -0.0167    0.0000 N   0  0  3  0  0  0           0  0  0
    6.4792    0.7375    0.0000 C   0  0  1  0  0  0           0  0  0
    8.4417    2.0583    0.0000 C   0  0  0  0  0  0           0  0  0
    7.8375    3.1125    0.0000 C   0  0  0  0  0  0           0  0  0
    8.7542    0.3083    0.0000 C   0  0  2  0  0  0           0  0  0
    2.8917   -1.4292    0.0000 C   0  0  3  0  0  0           0  0  0
    7.2292    2.0583    0.0000 C   0  0  0  0  0  0           0  0  0
    2.7375   -3.2250    0.0000 O   0  0  0  0  0  0           0  0  0
    7.2292    2.7708    0.0000 C   0  0  0  0  0  0           0  0  0
    7.8375    1.7083    0.0000 C   0  0  0  0  0  0           0  0  0
    6.4792    1.6208    0.0000 C   0  0  0  0  0  0           0  0  0
    3.7625   -1.2792    0.0000 C   0  0  0  0  0  0           0  0  0
    3.3625   -0.8375    0.0000 C   0  0  0  0  0  0           0  0  0
   13.1417   -0.4417    0.0000 C   0  0  0  0  0  0           0  0  0
    3.7542   -0.2500    0.0000 C   0  0  0  0  0  0           0  0  0
    3.3417    0.1583    0.0000 C   0  0  0  0  0  0           0  0  0
    4.9667    1.6208    0.0000 O   0  0  0  0  0  0           0  0  0
   10.8250   -0.3875    0.0000 C   0  0  0  0  0  0           0  0  0
   11.0167    0.1833    0.0000 C   0  0  0  0  0  0           0  0  0
   11.7292    0.1125    0.0000 C   0  0  0  0  0  0           0  0  0
   11.8792    0.6750    0.0000 C   0  0  0  0  0  0           0  0  0
    9.5292    1.2833    0.0000 O   0  0  0  0  0  0           0  0  0
    7.2417   -0.5750    0.0000 O   0  0  0  0  0  0           0  0  0
   14.5792   -1.3000    0.0000 N   0  0  0  0  0  0           0  0  0
    7.8375    3.8125    0.0000 Br  0  0  0  0  0  0           0  0  0
    9.0500    1.7083    0.0000 Br  0  0  0  0  0  0           0  0  0
    9.0500    3.1250    0.0000 O   0  0  0  0  0  0           0  0  0
   13.8667   -0.0292    0.0000 C   0  0  0  0  0  0           0  0  0
   13.1292   -1.2792    0.0000 C   0  0  0  0  0  0           0  0  0
   10.2875   -3.1917    0.0000 N   0  0  0  0  0  0           0  0  0
    1.1542   -0.7542    0.0000 C   0  0  0  0  0  0           0  0  0
    0.0625   -2.0042    0.0000 C   0  0  0  0  0  0           0  0  0
   13.8417   -1.7042    0.0000 C   0  0  0  0  0  0           0  0  0
   14.5875   -0.4625    0.0000 C   0  0  0  0  0  0           0  0  0
    8.7542   -0.5750    0.0000 C   0  0  0  0  0  0           0  0  0
   10.2792   -2.3167    0.0000 C   0  0  0  0  0  0           0  0  0
    9.5167   -1.0042    0.0000 C   0  0  0  0  0  0           0  0  0
    9.5250   -1.8792    0.0000 C   0  0  0  0  0  0           0  0  0
    0.3375   -0.5917    0.0000 C   0  0  0  0  0  0           0  0  0
   -0.2083   -1.2250    0.0000 C   0  0  0  0  0  0           0  0  0
  2  1  1  0     0  0
  3  1  2  0     0  0
  4  6  1  0     0  0
  5 18  1  0     0  0
  6 29  1  0     0  0
  7  5  1  0     0  0
  8  2  1  0     0  0
  9 15  1  0     0  0
 10  4  1  0     0  0
 11  3  1  0     0  0
 12  9  1  0     0  0
 13 16  1  0     0  0
 14 34  1  0     0  0
 15 10  1  0     0  0
 16 23  2  0     0  0
 17 22  1  0     0  0
 18 12  1  0     0  0
 19  2  1  0     0  0
 20 24  1  0     0  0
 21  1  1  0     0  0
 22 20  2  0     0  0
 23 20  1  0     0  0
 15 24  1  1     0  0
 25 19  1  0     0  0
 26 19  1  0     0  0
 27 14  1  0     0  0
 28 25  1  0     0  0
 29 26  1  0     0  0
 30  4  2  0     0  0
 31  7  1  0     0  0
 32  7  1  0     0  0
 33 31  1  0     0  0
 34 32  1  0     0  0
 35  5  2  0     0  0
 36  9  2  0     0  0
 37 46  2  0     0  0
 38 17  1  0     0  0
 39 16  1  0     0  0
 40 13  1  0     0  0
 41 27  1  0     0  0
 42 27  2  0     0  0
 43 49  1  0     0  0
 44  8  2  0     0  0
 45 11  2  0     0  0
 46 42  1  0     0  0
 47 41  2  0     0  0
 18 48  1  1     0  0
 49 51  1  0     0  0
 50 48  1  0     0  0
 51 50  1  0     0  0
 52 44  1  0     0  0
 53 45  1  0     0  0
 11  8  1  0     0  0
 52 53  2  0     0  0
  6 28  1  0     0  0
 13 17  2  0     0  0
 14 33  1  0     0  0
 47 37  1  0     0  0
M  END