
  SciTegic05171617282D

 35 38  0  0  0  0            999 V2000
    3.8969    0.4545    0.0000 N   0  0
    3.8990   -0.7455    0.0000 C   0  0
    4.9395   -1.3433    0.0000 O   0  0
    2.6003   -1.4977    0.0000 C   0  0
    1.2990   -0.7500    0.0000 C   0  0
    1.2990    0.7500    0.0000 C   0  0
    0.0000    1.5000    0.0000 C   0  0
   -1.2990    0.7500    0.0000 C   0  0
   -1.2990   -0.7500    0.0000 C   0  0
    0.0000   -1.5000    0.0000 C   0  0
   -0.0031   -3.0008    0.0000 C   0  0
   -1.3039   -3.7494    0.0000 C   0  0
   -1.3070   -5.2502    0.0000 C   0  0
   -0.0079   -6.0003    0.0000 N   0  0
   -0.0080   -7.5003    0.0000 C   0  0
    1.2902   -8.2535    0.0000 N   0  0
    1.2880   -9.7543    0.0000 C   0  0
    2.5844  -10.5089    0.0000 C   0  0
    2.5792  -12.0089    0.0000 C   0  0
    1.2776  -12.7544    0.0000 C   0  0
   -0.0188  -11.9998    0.0000 C   0  0
   -0.0136  -10.4999    0.0000 C   0  0
    1.2723  -14.2551    0.0000 C   0  0
    2.5676  -15.0118    0.0000 C   0  0
    2.5600  -16.5118    0.0000 C   0  0
    1.2571  -17.2552    0.0000 C   0  0
   -0.0381  -16.4986    0.0000 N   0  0
   -0.0305  -14.9986    0.0000 C   0  0
   -1.3070   -8.2503    0.0000 N   0  0
   -2.6060   -7.5003    0.0000 C   0  0
   -2.6060   -6.0003    0.0000 C   0  0
   -3.9058   -5.2499    0.0000 C   0  0
   -4.9454   -5.8492    0.0000 F   0  0
   -3.9054   -4.0499    0.0000 F   0  0
   -4.9447   -4.6494    0.0000 F   0  0
  1  2  1  0
  2  3  2  0
  2  4  1  0
  4  5  1  0
  5  6  2  0
  6  7  1  0
  7  8  2  0
  8  9  1  0
  9 10  2  0
  5 10  1  0
 10 11  1  0
 11 12  1  0
 12 13  1  0
 13 14  2  0
 14 15  1  0
 15 16  1  0
 16 17  1  0
 17 18  2  0
 18 19  1  0
 19 20  2  0
 20 21  1  0
 21 22  2  0
 17 22  1  0
 20 23  1  0
 23 24  1  0
 24 25  1  0
 25 26  1  0
 26 27  1  0
 27 28  1  0
 23 28  1  0
 15 29  2  0
 29 30  1  0
 30 31  2  0
 13 31  1  0
 31 32  1  0
 32 33  1  0
 32 34  1  0
 32 35  1  0
M  END