
  SciTegic03291108532D

 24 26  0  0  0  0            999 V2000
    0.3979    1.1106    0.0000 S   0  0
   -2.4599    1.9356    0.0000 O   0  0
   -2.4599   -1.3644    0.0000 O   0  0
   -0.0146    1.8250    0.0000 O   0  0
    0.8104    0.3961    0.0000 O   0  0
    3.2558    1.1106    0.0000 O   0  0
    2.5414    2.3481    0.0000 O   0  0
    1.1124    1.5231    0.0000 N   0  0
   -1.7455    0.6981    0.0000 C   0  0
   -1.7455   -0.1269    0.0000 C   0  0
   -2.4599    1.1106    0.0000 C   0  0
   -3.1744    0.6981    0.0000 C   0  0
   -2.4599   -0.5394    0.0000 C   0  0
   -3.1744   -0.1269    0.0000 C   0  0
   -0.3165    0.6981    0.0000 C   0  0
   -1.0310    1.1106    0.0000 C   0  0
   -1.0310   -0.5394    0.0000 C   0  0
   -0.3165   -0.1269    0.0000 C   0  0
   -3.8889    1.1106    0.0000 C   0  0
   -3.8889   -0.5394    0.0000 C   0  0
   -4.6034    0.6981    0.0000 C   0  0
   -4.6034   -0.1269    0.0000 C   0  0
    1.8269    1.1106    0.0000 C   0  0
    2.5414    1.5231    0.0000 C   0  0
  1  4  2  0
  1  5  2  0
  1  8  1  0
  1 15  1  0
  2 11  2  0
  3 13  2  0
  6 24  2  0
  7 24  1  0
  8 23  1  0
  9 10  1  0
  9 11  1  0
  9 16  2  0
 10 13  1  0
 10 17  2  0
 11 12  1  0
 12 14  1  0
 12 19  2  0
 13 14  1  0
 14 20  2  0
 15 16  1  0
 15 18  2  0
 17 18  1  0
 19 21  1  0
 20 22  1  0
 21 22  2  0
 23 24  1  0
M  END