
  SciTegic12231509382D

 25 27  0  0  0  0            999 V2000
    2.4864   -0.6435    0.0000 O   0  0
   -2.5149   -0.2310    0.0000 C   0  0
    2.4864    1.0065    0.0000 O   0  0
    3.2008   -0.2310    0.0000 C   0  0
    3.2008    0.5940    0.0000 C   0  0
    1.7719   -0.2310    0.0000 C   0  0
   -3.2294   -0.6435    0.0000 C   0  0
   -2.5149    0.5940    0.0000 C   0  0
    1.7719    0.5940    0.0000 C   0  0
   -1.8005   -0.6435    0.0000 O   0  0
    0.3429   -0.2310    0.0000 N   0  0
   -3.2294   -1.4685    0.0000 O   0  0
   -1.8005    1.0065    0.0000 O   0  0
    1.0574   -0.6435    0.0000 C   0  0
   -3.9439    0.5940    0.0000 C   0  0
    3.9153   -0.6435    0.0000 C   0  0
   -3.9439   -0.2310    0.0000 C   0  0
   -3.2294    1.0065    0.0000 C   0  0
    3.9153    1.0065    0.0000 C   0  0
   -0.3715   -0.6435    0.0000 C   0  0
   -1.0860   -0.2310    0.0000 C   0  0
   -3.9439   -1.8810    0.0000 C   0  0
   -1.8005    1.8315    0.0000 C   0  0
    4.6298   -0.2310    0.0000 C   0  0
    4.6298    0.5940    0.0000 C   0  0
  1  4  1  0
  3  5  1  0
  4  5  2  0
  1  6  1  0
  2  7  2  0
  2  8  1  0
  3  9  1  0
  6  9  1  0
  2 10  1  0
  7 12  1  0
  8 13  1  0
  6 14  1  0
 11 14  1  0
  4 16  1  0
  7 17  1  0
 15 17  2  0
  8 18  2  0
 15 18  1  0
  5 19  1  0
 11 20  1  0
 10 21  1  0
 20 21  1  0
 12 22  1  0
 13 23  1  0
 16 24  2  0
 19 25  2  0
 24 25  1  0
M  END