
          11280715492D 1   1.00000     0.00000     0

 22 24  0     0  0            999 V2000
   12.7198  -11.5626    0.0000 C   0  0  0  0  0  0           0  0  0
   13.4392  -11.9726    0.0000 C   0  0  0  0  0  0           0  0  0
    9.1583   -9.4958    0.0000 C   0  0  3  0  0  0           0  0  0
    9.1583  -10.3208    0.0000 C   0  0  0  0  0  0           0  0  0
    9.8704  -10.7292    0.0000 C   0  0  0  0  0  0           0  0  0
   10.5824  -10.3208    0.0000 N   0  0  3  0  0  0           0  0  0
   10.5824   -9.4958    0.0000 C   0  0  0  0  0  0           0  0  0
    9.8704   -9.0792    0.0000 C   0  0  0  0  0  0           0  0  0
    8.4427   -9.0854    0.0000 C   0  0  0  0  0  0           0  0  0
    7.7294   -9.5000    0.0000 C   0  0  0  0  0  0           0  0  0
    6.9750   -9.1668    0.0000 C   0  0  0  0  0  0           0  0  0
    6.4248   -9.7815    0.0000 N   0  0  0  0  0  0           0  0  0
    6.8394  -10.4948    0.0000 C   0  0  0  0  0  0           0  0  0
    7.6458  -10.3208    0.0000 N   0  0  0  0  0  0           0  0  0
   11.2962  -10.7344    0.0000 C   0  0  0  0  0  0           0  0  0
   11.2950  -11.5594    0.0000 C   0  0  0  0  0  0           0  0  0
   12.0089  -11.9729    0.0000 C   0  0  0  0  0  0           0  0  0
   13.4389  -12.7966    0.0000 C   0  0  0  0  0  0           0  0  0
   14.1533  -13.2077    0.0000 C   0  0  0  0  0  0           0  0  0
   14.8679  -12.7938    0.0000 C   0  0  0  0  0  0           0  0  0
   14.8637  -11.9645    0.0000 C   0  0  0  0  0  0           0  0  0
   14.1488  -11.5572    0.0000 C   0  0  0  0  0  0           0  0  0
  3  8  1  0     0  0
  4  5  1  0     0  0
  5  6  1  0     0  0
 11 12  1  0     0  0
 12 13  1  0     0  0
 13 14  2  0     0  0
 14 10  1  0     0  0
  6  7  1  0     0  0
  6 15  1  0     0  0
  7  8  1  0     0  0
 15 16  1  0     0  0
 16 17  1  0     0  0
 17  1  1  0     0  0
  3  9  1  0     0  0
  2 18  2  0     0  0
  1  2  1  0     0  0
 18 19  1  0     0  0
  9 10  1  0     0  0
 19 20  2  0     0  0
 10 11  2  0     0  0
 20 21  1  0     0  0
  3  4  1  0     0  0
 21 22  2  0     0  0
 22  2  1  0     0  0
M  END