
          05270816392D 1   1.00000     0.00000     0

 36 41  0     1  0            999 V2000
   -4.1265  -23.4437    0.0000 C   0  0  0  0  0  0           0  0  0
   -4.1278  -24.2667    0.0000 C   0  0  0  0  0  0           0  0  0
   -2.7032  -23.4396    0.0000 C   0  0  0  0  0  0           0  0  0
   -3.4123  -23.0308    0.0000 C   0  0  0  0  0  0           0  0  0
   -2.7002  -24.2661    0.0000 C   0  0  0  0  0  0           0  0  0
   -3.4115  -24.6806    0.0000 C   0  0  0  0  0  0           0  0  0
   -3.4128  -25.5028    0.0000 C   0  0  0  0  0  0           0  0  0
   -2.6998  -25.9167    0.0000 C   0  0  0  0  0  0           0  0  0
   -4.7437  -24.8187    0.0000 N   0  0  0  0  0  0           0  0  0
   -4.1973  -25.7573    0.0000 C   0  0  0  0  0  0           0  0  0
   -1.9854  -24.6783    0.0000 C   0  0  1  0  0  0           0  0  0
   -1.9846  -25.5062    0.0000 C   0  0  1  0  0  0           0  0  0
   -1.2712  -25.9170    0.0000 N   0  0  3  0  0  0           0  0  0
   -0.5541  -25.5046    0.0000 C   0  0  0  0  0  0           0  0  0
   -0.5549  -24.6769    0.0000 C   0  0  2  0  0  0           0  0  0
   -1.2729  -24.2614    0.0000 C   0  0  0  0  0  0           0  0  0
   -1.9937  -26.3265    0.0000 H   0  0  0  0  0  0           0  0  0
   -1.9937  -23.8516    0.0000 H   0  0  0  0  0  0           0  0  0
    0.1595  -24.2643    0.0000 C   0  0  0  0  0  0           0  0  0
    0.1595  -23.4393    0.0000 O   0  0  0  0  0  0           0  0  0
    0.8739  -24.6768    0.0000 N   0  0  3  0  0  0           0  0  0
    0.8689  -25.5070    0.0000 C   0  0  0  0  0  0           0  0  0
    1.5793  -25.9194    0.0000 C   0  0  0  0  0  0           0  0  0
    2.2961  -25.5105    0.0000 N   0  0  3  0  0  0           0  0  0
    2.2981  -24.6846    0.0000 C   0  0  0  0  0  0           0  0  0
    1.5831  -24.2676    0.0000 C   0  0  0  0  0  0           0  0  0
    3.0090  -25.9257    0.0000 C   0  0  0  0  0  0           0  0  0
    3.0010  -26.7495    0.0000 C   0  0  0  0  0  0           0  0  0
    3.7130  -27.1646    0.0000 C   0  0  0  0  0  0           0  0  0
    4.4301  -26.7548    0.0000 C   0  0  0  0  0  0           0  0  0
    4.4306  -25.9255    0.0000 C   0  0  0  0  0  0           0  0  0
    3.7179  -25.5141    0.0000 N   0  0  3  0  0  0           0  0  0
   -1.2715  -26.7420    0.0000 C   0  0  0  0  0  0           0  0  0
    3.7168  -24.6891    0.0000 C   0  0  0  0  0  0           0  0  0
    5.1451  -25.5131    0.0000 O   0  0  0  0  0  0           0  0  0
   -4.4917  -26.5280    0.0000 Br  0  0  0  0  0  0           0  0  0
  6  7  1  0     0  0
 12 17  1  6     0  0
  7  8  1  0     0  0
 11 18  1  1     0  0
  8 12  1  0     0  0
 15 19  1  6     0  0
  3  4  2  0     0  0
 19 20  2  0     0  0
  2  9  1  0     0  0
 19 21  1  0     0  0
 21 22  1  0     0  0
  4  1  1  0     0  0
  7 10  2  0     0  0
  9 10  1  0     0  0
 11 12  1  0     0  0
  5  6  2  0     0  0
 21 26  1  0     0  0
 22 23  1  0     0  0
 23 24  1  0     0  0
 24 25  1  0     0  0
 25 26  1  0     0  0
  2  6  1  0     0  0
 24 27  1  0     0  0
 27 28  2  0     0  0
  5  3  1  0     0  0
 28 29  1  0     0  0
  1  2  2  0     0  0
 29 30  2  0     0  0
  5 11  1  0     0  0
 30 31  1  0     0  0
 11 16  1  0     0  0
 31 32  1  0     0  0
 32 27  1  0     0  0
 12 13  1  0     0  0
 13 33  1  0     0  0
 13 14  1  0     0  0
 32 34  1  0     0  0
 14 15  1  0     0  0
 31 35  2  0     0  0
 15 16  1  0     0  0
 10 36  1  0     0  0
M  END