
  SciTegic10041313202D

 30 29  0  0  0  0            999 V2000
    5.0292   -6.7500    0.0000 S   0  0
    4.3292   -9.6417    0.0000 S   0  0
    3.6125   -9.2292    0.0000 C   0  0
    5.7417   -7.1542    0.0000 C   0  0
    0.7542   -9.2292    0.0000 C   0  0
    8.6042   -7.1417    0.0000 C   0  0
    5.0417   -8.3917    0.0000 C   0  0
    4.3250   -7.9792    0.0000 C   0  0
    4.3125   -6.3375    0.0000 O   0  5
    5.0417  -10.0542    0.0000 O   0  5
    6.4542   -6.7417    0.0000 C   0  0
    2.8917   -9.6417    0.0000 C   0  0
    3.6125   -8.4000    0.0000 C   0  0
    5.7542   -7.9792    0.0000 C   0  0
    4.3167   -7.1667    0.0000 O   0  0
    4.3292  -10.4667    0.0000 O   0  0
    5.0417   -9.2250    0.0000 O   0  0
    5.0167   -5.9250    0.0000 O   0  0
    1.4667   -9.6417    0.0000 N   0  0
    7.8917   -6.7292    0.0000 N   0  0
    9.3167   -7.5542    0.0000 S   0  0
    0.0386   -8.8149    0.0000 S   0  0
    2.1792   -9.2292    0.0000 C   0  0
    7.1792   -7.1500    0.0000 C   0  0
    6.4667   -8.3917    0.0000 C   0  0
    2.8917   -7.9875    0.0000 C   0  0
    7.1792   -7.9750    0.0000 C   0  0
    2.1792   -8.4000    0.0000 C   0  0
    3.2417   -5.7417    0.0000 Na  0  3
    5.6167  -10.5875    0.0000 Na  0  3
  2  3  1  0
  3 13  1  0
  4  1  1  0
  5 19  2  0
  6 20  2  0
  7 14  1  0
  8  7  2  0
  9  1  1  0
 10  2  1  0
 11  4  2  0
 12  3  2  0
 13  8  1  0
 14  4  1  0
 15  1  2  0
 16  2  2  0
 17  2  2  0
 18  1  2  0
 19 23  1  0
 20 24  1  0
 21  6  2  0
 22  5  2  0
 23 28  2  0
 24 11  1  0
 25 14  2  0
 26 13  2  0
 27 25  1  0
 28 26  1  0
 27 24  2  0
 23 12  1  0
M  CHG  4   9  -1  10  -1  29   1  30   1
M  END