
  CDK    9/16/09,9:56

 38 40  0  0  0  0  0  0  0  0999 V2000
   11.2250    2.0917    0.0000 C   0  0  0  0  0  0  0  0  0  0  0  0
   11.2250    1.2667    0.0000 C   0  0  0  0  0  0  0  0  0  0  0  0
   11.9370    0.8583    0.0000 C   0  0  0  0  0  0  0  0  0  0  0  0
   12.6490    1.2667    0.0000 O   0  0  0  0  0  0  0  0  0  0  0  0
   12.6490    2.0917    0.0000 C   0  0  0  0  0  0  0  0  0  0  0  0
   11.9370    2.5083    0.0000 C   0  0  0  0  0  0  0  0  0  0  0  0
   13.3647    2.5021    0.0000 C   0  0  0  0  0  0  0  0  0  0  0  0
   14.0780    2.0875    0.0000 C   0  0  0  0  0  0  0  0  0  0  0  0
   14.7936    2.4979    0.0000 C   0  0  0  0  0  0  0  0  0  0  0  0
   15.5069    2.0833    0.0000 C   0  0  0  0  0  0  0  0  0  0  0  0
   14.7961    3.3229    0.0000 C   0  0  0  0  0  0  0  0  0  0  0  0
   15.5045    1.2583    0.0000 C   0  0  0  0  0  0  0  0  0  0  0  0
   16.2178    0.8437    0.0000 C   0  0  0  0  0  0  0  0  0  0  0  0
   14.7888    0.8479    0.0000 C   0  0  0  0  0  0  0  0  0  0  0  0
   16.2153    0.0187    0.0000 C   0  0  0  0  0  0  0  0  0  0  0  0
   16.9286   -0.3959    0.0000 C   0  0  0  0  0  0  0  0  0  0  0  0
   15.4997   -0.3917    0.0000 C   0  0  0  0  0  0  0  0  0  0  0  0
   11.9366    0.0342    0.0000 C   0  0  0  0  0  0  0  0  0  0  0  0
   11.2205   -0.3777    0.0000 C   0  0  0  0  0  0  0  0  0  0  0  0
   11.2201   -1.2019    0.0000 C   0  0  0  0  0  0  0  0  0  0  0  0
   11.9351   -1.6153    0.0000 C   0  0  0  0  0  0  0  0  0  0  0  0
   10.5054   -1.6141    0.0000 O   0  0  0  0  0  0  0  0  0  0  0  0
   10.5064    0.0355    0.0000 O   0  0  0  0  0  0  0  0  0  0  0  0
   13.3583    1.6792    0.0000 H   0  0  0  0  0  0  0  0  0  0  0  0
   12.6458    0.4458    0.0000 H   0  0  0  0  0  0  0  0  0  0  0  0
   10.5111    0.8531    0.0000 C   0  0  0  0  0  0  0  0  0  0  0  0
   11.9370    3.3333    0.0000 C   0  0  0  0  0  0  0  0  0  0  0  0
   10.5093    2.5021    0.0000 O   0  0  0  0  0  0  0  0  0  0  0  0
   12.6488   -0.3755    0.0000 C   0  0  0  0  0  0  0  0  0  0  0  0
   12.6547   -1.1961    0.0000 C   0  0  0  0  0  0  0  0  0  0  0  0
   13.9147   -0.7768    0.0000 C   0  0  0  0  0  0  0  0  0  0  0  0
   13.4275   -0.1164    0.0000 C   0  0  0  0  0  0  0  0  0  0  0  0
   15.2792   -1.1875    0.0000 C   0  0  0  0  0  0  0  0  0  0  0  0
   14.4958   -0.1875    0.0000 O   0  0  0  0  0  0  0  0  0  0  0  0
   15.6776   -1.9099    0.0000 C   0  0  0  0  0  0  0  0  0  0  0  0
   11.9365   -2.4403    0.0000 C   0  0  0  0  0  0  0  0  0  0  0  0
   13.3714   -1.6047    0.0000 O   0  0  0  0  0  0  0  0  0  0  0  0
   13.6768    0.6701    0.0000 O   0  0  0  0  0  0  0  0  0  0  0  0
  2  3  1  0  0  0  0 
 19 20  1  0  0  0  0 
  9 10  1  0  0  0  0 
 20 21  2  0  0  0  0 
 21 30  1  0  0  0  0 
 29 18  2  0  0  0  0 
  3 18  1  0  0  0  0 
  3  4  1  0  0  0  0 
 20 22  1  0  0  0  0 
  9 11  1  6  0  0  0 
 19 23  2  0  0  0  0 
  4  5  1  0  0  0  0 
  5 24  1  6  0  0  0 
 10 12  2  0  0  0  0 
  3 25  1  6  0  0  0 
  5  6  1  0  0  0  0 
  2 26  1  6  0  0  0 
 12 13  1  0  0  0  0 
  6 27  1  1  0  0  0 
  1 28  1  1  0  0  0 
 29 30  1  0  0  0  0 
 12 14  1  0  0  0  0 
  5  7  1  0  0  0  0 
 13 15  1  0  0  0  0 
  1  2  1  0  0  0  0 
 31 32  1  0  0  0  0 
 32 29  1  0  0  0  0 
 15 16  1  1  0  0  0 
 17 33  1  0  0  0  0 
 31 33  1  0  0  0  0 
  7  8  1  0  0  0  0 
 31 34  2  0  0  0  0 
 15 17  1  0  0  0  0 
 33 35  1  6  0  0  0 
  1  6  1  0  0  0  0 
 21 36  1  0  0  0  0 
  8  9  1  0  0  0  0 
 30 37  2  0  0  0  0 
 18 19  1  0  0  0  0 
 32 38  1  0  0  0  0 
M  END