
  SciTegic01161211242D

 38 43  0  0  0  0            999 V2000
    0.7133   -8.1088    0.0000 C   0  0
    1.3992   -7.6508    0.0000 C   0  0
    2.1708   -7.9398    0.0000 N   0  0
    1.4296   -6.8297    0.0000 C   0  0
    2.2237   -6.6059    0.0000 N   0  0
    2.6765   -7.2915    0.0000 C   0  0
    3.4685   -7.0728    0.0000 S   0  0
    2.7359   -5.9635    0.0000 C   0  0
    3.5059   -6.2562    0.0000 C   0  0
    4.1423   -5.7361    0.0000 C   0  0
    4.0099   -4.9232    0.0000 C   0  0
    3.2355   -4.6332    0.0000 C   0  0
    2.6024   -5.1551    0.0000 C   0  0
   -0.7139   -8.1125    0.0000 C   0  0
   -0.7151   -8.9398    0.0000 C   0  0
   -0.0003   -9.3527    0.0000 C   0  0
    0.7162   -8.9394    0.0000 C   0  0
   -0.0021   -7.6997    0.0000 C   0  0
   -1.4299   -9.3518    0.0000 N   0  0
   -2.1440   -8.9387    0.0000 C   0  0
   -2.8588   -9.3506    0.0000 N   0  0
   -2.1434   -8.1137    0.0000 O   0  0
   -3.5730   -8.9376    0.0000 C   0  0
   -3.6543   -8.1143    0.0000 C   0  0
   -4.4612   -7.9421    0.0000 C   0  0
   -4.8742   -8.6563    0.0000 O   0  0
   -4.3226   -9.2697    0.0000 N   0  0
   -4.7961   -7.1882    0.0000 C   0  0
   -4.3107   -6.5211    0.0000 C   0  0
   -5.6250   -7.1875    0.0000 C   0  0
   -5.2167   -6.4708    0.0000 C   0  0
    4.5336   -4.2865    0.0000 N   0  0
    5.3594   -4.3036    0.0000 C   0  0
    5.7848   -3.6009    0.0000 C   0  0
    5.3890   -2.8766    0.0000 N   0  0
    4.5632   -2.8595    0.0000 C   0  0
    4.1332   -3.5666    0.0000 C   0  0
    5.8172   -2.1714    0.0000 C   0  0
  1 18  2  0
 18 14  1  0
  5  4  1  0
 15 19  1  0
  8  9  2  0
 19 20  1  0
  4  2  2  0
 20 21  1  0
  9 10  1  0
 20 22  2  0
  5  6  1  0
 21 23  1  0
 23 24  1  0
 10 11  2  0
  2  3  1  0
 11 12  1  0
 24 25  2  0
 25 26  1  0
 26 27  1  0
 27 23  2  0
 12 13  2  0
 25 28  1  0
 13  8  1  0
 28 29  1  0
  1  2  1  0
 28 30  1  0
  6  7  1  0
 28 31  1  0
 32 33  1  0
 14 15  2  0
  7  9  1  0
 15 16  1  0
  8  5  1  0
 16 17  2  0
 17  1  1  0
 32 37  1  0
 33 34  1  0
 34 35  1  0
 35 36  1  0
 36 37  1  0
 11 32  1  0
  3  6  2  0
 35 38  1  0
M  END