
  SciTegic05071317022D

 14 15  0  0  0  0            999 V2000
    4.3733   -8.7650    0.0000 N   0  0
    4.3733   -7.9478    0.0000 N   0  0
    2.2502   -9.1778    0.0000 C   0  0
    2.9593   -8.7650    0.0000 N   0  0
    3.6683   -9.1778    0.0000 C   0  0
    3.6683   -9.9949    0.0000 C   0  0
    2.9593  -10.4035    0.0000 C   0  0
    2.2502   -9.9949    0.0000 N   0  0
    4.3733  -10.4035    0.0000 C   0  0
    5.0824   -9.9949    0.0000 C   0  0
    5.7874  -10.4035    0.0000 C   0  0
    5.7874  -11.2207    0.0000 C   0  0
    5.0824  -11.6293    0.0000 C   0  0
    4.3733  -11.2207    0.0000 C   0  0
  1  2  1  0
  3  4  1  0
  4  5  2  0
  5  6  1  0
  6  7  2  0
  7  8  1  0
  3  8  2  0
  9 10  1  0
 10 11  2  0
 11 12  1  0
 12 13  2  0
 13 14  1  0
  9 14  2  0
  6  9  1  0
  1  5  1  0
M  END