
          11280714442D 1   1.00000     0.00000     0

 26 27  0     0  0            999 V2000
    6.5875   -2.0417    0.0000 C   0  0  0  0  0  0           0  0  0
   12.9417   -0.5167    0.0000 C   0  0  0  0  0  0           0  0  0
    7.3167   -2.4250    0.0000 O   0  0  0  0  0  0           0  0  0
   13.6792   -0.9000    0.0000 C   0  0  0  0  0  0           0  0  0
    6.5500   -1.2167    0.0000 O   0  0  0  0  0  0           0  0  0
   12.2542   -0.9667    0.0000 C   0  0  0  0  0  0           0  0  0
    5.8917   -2.4875    0.0000 C   0  0  0  0  0  0           0  0  0
   13.7167   -1.7250    0.0000 C   0  0  0  0  0  0           0  0  0
    8.0125   -1.9792    0.0000 C   0  0  0  0  0  0           0  0  0
   12.2917   -1.7792    0.0000 C   0  0  0  0  0  0           0  0  0
    8.7417   -2.3542    0.0000 C   0  0  3  0  0  0           0  0  0
   13.0250   -2.1667    0.0000 C   0  0  0  0  0  0           0  0  0
   12.9042    0.3083    0.0000 O   0  0  0  0  0  0           0  0  0
   10.1750   -2.2917    0.0000 N   0  0  0  0  0  0           0  0  0
   14.3750   -0.4542    0.0000 O   0  0  0  0  0  0           0  0  0
    8.7792   -3.1792    0.0000 O   0  0  0  0  0  0           0  0  0
    9.4417   -1.9125    0.0000 C   0  0  0  0  0  0           0  0  0
    5.9292   -3.3042    0.0000 C   0  0  0  0  0  0           0  0  0
    5.1542   -2.1042    0.0000 C   0  0  0  0  0  0           0  0  0
   10.8667   -1.8500    0.0000 C   0  0  0  0  0  0           0  0  0
   11.6000   -2.2292    0.0000 C   0  0  0  0  0  0           0  0  0
   13.5917    0.7500    0.0000 C   0  0  0  0  0  0           0  0  0
   15.1042   -0.8292    0.0000 C   0  0  0  0  0  0           0  0  0
    4.4667   -2.5542    0.0000 C   0  0  0  0  0  0           0  0  0
    5.2417   -3.7542    0.0000 C   0  0  0  0  0  0           0  0  0
    4.5042   -3.3750    0.0000 C   0  0  0  0  0  0           0  0  0
  2  6  2  0     0  0
  3  1  1  0     0  0
  4  8  2  0     0  0
  5  1  2  0     0  0
  6 10  1  0     0  0
  7  1  1  0     0  0
  8 12  1  0     0  0
  9  3  1  0     0  0
 10 21  1  0     0  0
 11  9  1  0     0  0
 12 10  2  0     0  0
 13  2  1  0     0  0
 14 17  1  0     0  0
 15  4  1  0     0  0
 16 11  1  0     0  0
 17 11  1  0     0  0
 18  7  1  0     0  0
 19  7  2  0     0  0
 20 14  1  0     0  0
 21 20  1  0     0  0
 22 13  1  0     0  0
 23 15  1  0     0  0
 24 19  1  0     0  0
 25 18  2  0     0  0
 26 24  2  0     0  0
 25 26  1  0     0  0
  4  2  1  0     0  0
M  END