
  SciTegic12211612402D

 46 50  0  0  0  0            999 V2000
  -12.9220   26.1555    0.0000 O   0  0
  -13.9607   25.5545    0.0000 C   0  0
  -13.9588   24.0537    0.0000 C   0  0
  -12.6586   23.3041    0.0000 C   0  0
  -12.6567   21.8033    0.0000 C   0  0
  -13.9564   21.0543    0.0000 C   0  0
  -13.9576   19.5543    0.0000 C   0  0
  -12.6591   18.8032    0.0000 C   0  0
  -12.6573   17.3024    0.0000 O   0  0
  -11.3571   16.5527    0.0000 C   0  0
  -11.3552   15.0519    0.0000 C   0  0
  -10.0568   14.3008    0.0000 C   0  0
  -10.0580   12.8008    0.0000 C   0  0
   -8.7601   12.0473    0.0000 C   0  0
   -7.4592   12.7941    0.0000 C   0  0
   -7.4563   13.9941    0.0000 C   0  0
   -6.1620   12.0410    0.0000 C   0  0
   -6.1655   10.5410    0.0000 C   0  0
   -4.8691    9.7848    0.0000 O   0  0
   -4.8749    8.2840    0.0000 C   0  0
   -3.5785    7.5278    0.0000 C   0  0
   -3.5842    6.0270    0.0000 O   0  0
   -2.2878    5.2708    0.0000 C   0  0
   -2.2935    3.7700    0.0000 C   0  0
   -0.9971    3.0138    0.0000 N   0  0
   -1.0028    1.5132    0.0000 C   0  0
   -2.3155    0.7475    0.0000 C   0  0
   -2.3155   -0.7475    0.0000 C   0  0
   -1.0028   -1.5132    0.0000 C   0  0
   -0.9971   -3.0138    0.0000 N   0  3
    0.0446   -3.6095    0.0000 O   0  5
   -2.0337   -3.6184    0.0000 O   0  0
    0.2917   -0.7475    0.0000 C   0  0
    1.7138   -1.2033    0.0000 N   0  0
    2.5889    0.0182    0.0000 O   0  0
    1.7138    1.2033    0.0000 N   0  0
    0.2917    0.7475    0.0000 C   0  0
   -7.4665    9.7941    0.0000 C   0  0
   -8.7637   10.5473    0.0000 C   0  0
  -11.3577   12.0519    0.0000 C   0  0
  -12.6561   12.8030    0.0000 C   0  0
  -12.6549   14.3030    0.0000 C   0  0
  -11.3595   19.5522    0.0000 C   0  0
  -11.3583   21.0522    0.0000 C   0  0
  -10.3186   21.6514    0.0000 F   0  0
  -15.0003   26.1539    0.0000 O   0  0
  1  2  1  0
  2  3  1  0
  3  4  1  0
  4  5  1  0
  5  6  2  0
  6  7  1  0
  7  8  2  0
  8  9  1  0
  9 10  1  0
 10 11  1  0
 11 12  2  0
 12 13  1  0
 13 14  1  0
 14 15  2  0
 15 16  1  0
 15 17  1  0
 17 18  2  0
 18 19  1  0
 19 20  1  0
 20 21  1  0
 21 22  1  0
 22 23  1  0
 23 24  1  0
 24 25  1  0
 25 26  1  0
 26 27  2  0
 27 28  1  0
 28 29  2  0
 29 30  1  0
 30 31  1  0
 30 32  2  0
 29 33  1  0
 33 34  2  0
 34 35  1  0
 35 36  1  0
 36 37  2  0
 26 37  1  0
 33 37  1  0
 18 38  1  0
 38 39  2  0
 14 39  1  0
 13 40  2  0
 40 41  1  0
 41 42  2  0
 11 42  1  0
  8 43  1  0
 43 44  2  0
  5 44  1  0
 44 45  1  0
  2 46  2  0
M  CHG  2  30   1  31  -1
M  END