
  SciTegic04151115542D

 25 27  0  0  0  0            999 V2000
    0.9445   -6.4004    0.0000 C   0  0
    0.9433   -7.2278    0.0000 C   0  0
    1.6582   -7.6407    0.0000 C   0  0
    2.3746   -7.2274    0.0000 C   0  0
    2.3717   -6.3967    0.0000 C   0  0
    1.6564   -5.9876    0.0000 C   0  0
    0.2285   -7.6398    0.0000 Cl  0  0
    3.0848   -5.9815    0.0000 N   0  0
    3.8008   -6.3913    0.0000 C   0  0
    4.5138   -5.9762    0.0000 C   0  0
    3.8039   -7.2164    0.0000 O   0  0
    5.2298   -6.3860    0.0000 N   0  0
    4.5107   -5.1511    0.0000 O   0  0
    5.9431   -5.9707    0.0000 C   0  0
    1.6580   -8.4657    0.0000 F   0  0
    6.7199   -6.2460    0.0000 C   0  0
    7.2220   -5.5912    0.0000 C   0  0
    6.7543   -4.9114    0.0000 N   0  0
    5.9634   -5.1461    0.0000 C   0  0
    7.1669   -4.1980    0.0000 C   0  0
    7.9900   -4.2050    0.0000 C   0  0
    8.4026   -3.4956    0.0000 C   0  0
    7.9946   -2.7792    0.0000 C   0  0
    7.1694   -2.7766    0.0000 C   0  0
    6.7523   -3.4904    0.0000 C   0  0
  6  1  1  0
 10 13  2  0
  1  2  2  0
 14 12  1  0
  2  7  1  0
  3 15  1  0
 14 16  1  0
  3  4  2  0
  5  8  1  0
  8  9  1  0
 16 17  1  0
 17 18  1  0
 18 19  1  0
 19 14  1  0
  4  5  1  0
 18 20  1  0
 20 21  1  0
  9 10  1  0
  2  3  1  0
  9 11  2  0
  5  6  2  0
 10 12  1  0
 20 25  1  0
 21 22  1  0
 22 23  1  0
 23 24  1  0
 24 25  1  0
M  END