
  SciTegic02011310462D

 34 37  0  0  0  0            999 V2000
    9.2921  -22.6313    0.0000 C   0  0
   10.0048  -23.0514    0.0000 C   0  0
   10.7229  -22.6443    0.0000 N   0  0
   10.7295  -21.8172    0.0000 C   0  0
   10.0120  -21.3989    0.0000 C   0  0
    9.2968  -21.8084    0.0000 C   0  0
   11.4464  -21.4090    0.0000 C   0  0
   11.4515  -20.5842    0.0000 N   0  0
   12.1684  -20.1760    0.0000 O   0  0
   10.0152  -20.5740    0.0000 O   0  0
    2.8485  -20.6918    0.0000 C   0  0
    2.8501  -21.5191    0.0000 C   0  0
    3.5662  -21.9297    0.0000 C   0  0
    3.5590  -20.2768    0.0000 C   0  0
    4.2757  -20.6835    0.0000 C   0  0
    4.2818  -21.5119    0.0000 C   0  0
    4.9983  -21.9187    0.0000 C   0  0
    5.7133  -21.5014    0.0000 N   0  0
    5.7073  -20.6730    0.0000 C   0  0
    4.9862  -20.2617    0.0000 C   0  0
    5.0026  -22.7414    0.0000 C   0  0
    4.2890  -23.1575    0.0000 C   0  0
    4.2935  -23.9817    0.0000 C   0  0
    5.0110  -24.3908    0.0000 C   0  0
    5.7253  -23.9696    0.0000 C   0  0
    5.7172  -23.1467    0.0000 C   0  0
    2.1326  -20.2818    0.0000 O   0  0
    2.1297  -19.4568    0.0000 C   0  0
    2.1367  -21.9334    0.0000 O   0  0
    1.4211  -21.5226    0.0000 C   0  0
    6.4394  -21.8933    0.0000 C   0  0
    7.1417  -21.4606    0.0000 C   0  0
    7.8676  -21.8525    0.0000 C   0  0
    8.5701  -21.4198    0.0000 C   0  0
  1  2  2  0
  2  3  1  0
  3  4  2  0
  4  5  1  0
  5  6  2  0
  6  1  1  0
  4  7  1  0
  7  8  2  0
  8  9  1  0
  5 10  1  0
 11 12  2  0
 12 13  1  0
 13 16  2  0
 15 14  2  0
 14 11  1  0
 15 16  1  0
 15 20  1  0
 16 17  1  0
 17 18  1  0
 18 19  1  0
 19 20  1  0
 21 22  2  0
 22 23  1  0
 23 24  2  0
 24 25  1  0
 25 26  2  0
 26 21  1  0
 17 21  1  0
 11 27  1  0
 27 28  1  0
 12 29  1  0
 29 30  1  0
 18 31  1  0
 31 32  1  0
 32 33  1  0
 33 34  1  0
 34  6  1  0
M  END