
          11280715332D 1   1.00000     0.00000     0

 44 46  0     1  0            999 V2000
    9.2542   -2.6167    0.0000 C   0  0  0  0  0  0           0  0  0
    9.8667   -2.0625    0.0000 C   0  0  0  0  0  0           0  0  0
    5.6542   -1.2417    0.0000 C   0  0  0  0  0  0           0  0  0
    6.3667   -0.8292    0.0000 N   0  0  0  0  0  0           0  0  0
    4.9417   -0.8292    0.0000 C   0  0  2  0  0  0           0  0  0
    3.5125   -0.8292    0.0000 C   0  0  0  0  0  0           0  0  0
    4.9417   -0.0042    0.0000 C   0  0  0  0  0  0           0  0  0
    9.4250   -3.4250    0.0000 N   0  0  0  0  0  0           0  0  0
    4.2292   -1.2417    0.0000 N   0  0  0  0  0  0           0  0  0
    7.0792   -1.2417    0.0000 C   0  0  2  0  0  0           0  0  0
    5.3500    0.7083    0.0000 C   0  0  0  0  0  0           0  0  0
    9.2292   -0.8292    0.0000 N   0  0  0  0  0  0           0  0  0
    9.9417   -1.2417    0.0000 C   0  0  0  0  0  0           0  0  0
    7.8000   -0.8292    0.0000 C   0  0  1  0  0  0           0  0  0
    8.4667   -2.3625    0.0000 O   0  0  0  0  0  0           0  0  0
    5.6542   -2.0667    0.0000 O   0  0  0  0  0  0           0  0  0
    3.5042   -0.0042    0.0000 O   0  0  0  0  0  0           0  0  0
    7.0792   -2.0667    0.0000 C   0  0  0  0  0  0           0  0  0
    8.5125   -1.2417    0.0000 C   0  0  0  0  0  0           0  0  0
   10.2042   -3.6792    0.0000 C   0  0  3  0  0  0           0  0  0
    2.8000   -1.2417    0.0000 O   0  0  0  0  0  0           0  0  0
    6.1750    0.7208    0.0000 O   0  0  0  0  0  0           0  0  0
    4.9292    1.4208    0.0000 N   0  0  0  0  0  0           0  0  0
    2.0792   -0.8292    0.0000 C   0  0  0  0  0  0           0  0  0
    6.6667   -2.7792    0.0000 C   0  0  0  0  0  0           0  0  0
    7.8000   -0.0042    0.0000 O   0  0  0  0  0  0           0  0  0
   10.5417   -2.5417    0.0000 C   0  0  0  0  0  0           0  0  0
    1.3667   -1.2417    0.0000 C   0  0  0  0  0  0           0  0  0
   10.6917   -0.9000    0.0000 C   0  0  0  0  0  0           0  0  0
   10.3792   -4.4875    0.0000 C   0  0  0  0  0  0           0  0  0
   10.8167   -3.1250    0.0000 C   0  0  0  0  0  0           0  0  0
   11.0292   -3.7167    0.0000 C   0  0  0  0  0  0           0  0  0
    5.8417   -2.7625    0.0000 C   0  0  0  0  0  0           0  0  0
    7.0667   -3.4917    0.0000 C   0  0  0  0  0  0           0  0  0
    0.6542   -0.8292    0.0000 C   0  0  0  0  0  0           0  0  0
    1.3667   -2.0625    0.0000 C   0  0  0  0  0  0           0  0  0
   11.2917   -2.1917    0.0000 C   0  0  0  0  0  0           0  0  0
   11.3667   -1.3750    0.0000 C   0  0  0  0  0  0           0  0  0
    6.6500   -4.1917    0.0000 C   0  0  0  0  0  0           0  0  0
   -0.0583   -1.2375    0.0000 C   0  0  0  0  0  0           0  0  0
    0.6625   -2.4792    0.0000 C   0  0  0  0  0  0           0  0  0
    5.4167   -3.4667    0.0000 C   0  0  0  0  0  0           0  0  0
    5.8167   -4.1917    0.0000 C   0  0  0  0  0  0           0  0  0
   -0.0583   -2.0667    0.0000 C   0  0  0  0  0  0           0  0  0
  2  1  1  0     0  0
  3  4  1  0     0  0
  4 10  1  0     0  0
  5  3  1  0     0  0
  6  9  1  0     0  0
  5  7  1  1     0  0
  8  1  1  0     0  0
  9  5  1  0     0  0
 10 14  1  0     0  0
 11  7  1  0     0  0
 12 13  1  0     0  0
 13  2  1  0     0  0
 14 19  1  0     0  0
 15  1  2  0     0  0
 16  3  2  0     0  0
 17  6  2  0     0  0
 10 18  1  6     0  0
 19 12  1  0     0  0
 20  8  1  0     0  0
 21  6  1  0     0  0
 22 11  2  0     0  0
 23 11  1  0     0  0
 24 21  1  0     0  0
 25 18  1  0     0  0
 14 26  1  6     0  0
 27  2  2  0     0  0
 28 24  1  0     0  0
 29 13  2  0     0  0
 30 20  1  0     0  0
 31 20  1  0     0  0
 32 20  1  0     0  0
 33 25  2  0     0  0
 34 25  1  0     0  0
 35 28  2  0     0  0
 36 28  1  0     0  0
 37 27  1  0     0  0
 38 37  2  0     0  0
 39 34  2  0     0  0
 40 35  1  0     0  0
 41 36  2  0     0  0
 42 33  1  0     0  0
 43 39  1  0     0  0
 44 41  1  0     0  0
 29 38  1  0     0  0
 43 42  2  0     0  0
 44 40  2  0     0  0
M  END