
  SciTegic04151115542D

 28 30  0  0  0  0            999 V2000
   12.5736  -12.5291    0.0000 C   0  0
   12.5724  -13.3565    0.0000 C   0  0
   13.2872  -13.7694    0.0000 C   0  0
   14.0037  -13.3560    0.0000 C   0  0
   14.0008  -12.5255    0.0000 C   0  0
   13.2854  -12.1164    0.0000 C   0  0
   11.8590  -12.1168    0.0000 O   0  0
   11.8588  -11.2918    0.0000 C   0  0
   11.8576  -13.7684    0.0000 S   0  0
   11.1435  -13.3554    0.0000 N   0  0
   11.4375  -14.4792    0.0000 O   0  0
   12.4375  -14.3500    0.0000 O   0  0
   14.7188  -13.7674    0.0000 C   0  0
   15.4326  -13.3538    0.0000 C   0  0  2  0  0  0
   16.1477  -13.7652    0.0000 N   0  0
   15.4313  -12.5288    0.0000 C   0  0
   16.8615  -13.3515    0.0000 C   0  0
   18.2905  -13.3493    0.0000 O   0  0
   19.0056  -13.7607    0.0000 C   0  0
   19.0027  -14.5844    0.0000 C   0  0
   19.7170  -14.9957    0.0000 C   0  0
   20.4318  -14.5820    0.0000 C   0  0
   20.4278  -13.7528    0.0000 C   0  0
   19.7130  -13.3452    0.0000 C   0  0
   18.2877  -14.9961    0.0000 O   0  0
   17.5737  -14.5827    0.0000 C   0  0  1  0  0  0
   17.5747  -13.7577    0.0000 C   0  0  2  0  0  0
   16.8588  -14.9943    0.0000 C   0  0
 13 14  1  0
  1  7  1  0
 14 15  1  0
  3  4  2  0
 14 16  1  1
  7  8  1  0
 15 17  1  0
 27 17  1  6
 27 18  1  0
  2  9  1  0
 18 19  1  0
  4  5  1  0
 19 20  2  0
  9 10  1  0
 20 21  1  0
  2  3  1  0
 21 22  2  0
  9 11  2  0
 22 23  1  0
  5  6  2  0
 23 24  2  0
 24 19  1  0
  9 12  2  0
 20 25  1  0
  6  1  1  0
 25 26  1  0
  4 13  1  0
 26 27  1  0
  1  2  2  0
 26 28  1  6
M  END