
  Mrv0541 04051115152D          

 12 12  0  0  0  0            999 V2000
    0.8851   -0.5079    0.0000 C   0  0  2  0  0  0  0  0  0  0  0  0
    0.1706   -0.9204    0.0000 C   0  0  1  0  0  0  0  0  0  0  0  0
   -0.5438   -0.5079    0.0000 C   0  0  2  0  0  0  0  0  0  0  0  0
   -0.5438    0.3171    0.0000 C   0  0  2  0  0  0  0  0  0  0  0  0
    0.1706    0.7296    0.0000 C   0  0  1  0  0  0  0  0  0  0  0  0
    0.1706    1.5546    0.0000 C   0  0  0  0  0  0  0  0  0  0  0  0
    1.5996   -0.9204    0.0000 O   0  0  0  0  0  0  0  0  0  0  0  0
    0.1706   -1.7454    0.0000 O   0  0  0  0  0  0  0  0  0  0  0  0
   -1.2583   -0.9204    0.0000 O   0  0  0  0  0  0  0  0  0  0  0  0
   -1.2583    0.7296    0.0000 O   0  0  0  0  0  0  0  0  0  0  0  0
    0.8851    0.3171    0.0000 O   0  0  0  0  0  0  0  0  0  0  0  0
   -0.5438    1.9671    0.0000 O   0  0  0  0  0  0  0  0  0  0  0  0
  1  2  1  0  0  0  0
  1  7  1  1  0  0  0
  1 11  1  0  0  0  0
  2  3  1  0  0  0  0
  2  8  1  6  0  0  0
  3  4  1  0  0  0  0
  3  9  1  1  0  0  0
  4  5  1  0  0  0  0
  4 10  1  1  0  0  0
  5  6  1  1  0  0  0
  5 11  1  0  0  0  0
  6 12  1  0  0  0  0
M  END