
          11280715092D 1   1.00000     0.00000     0

 12 12  0     0  0            999 V2000
   -2.9958    0.4625    0.0000 C   0  0  0  0  0  0           0  0  0
   -1.5708   -0.3667    0.0000 C   0  0  0  0  0  0           0  0  0
   -2.9958   -0.3667    0.0000 C   0  0  0  0  0  0           0  0  0
   -2.2833    0.8750    0.0000 C   0  0  0  0  0  0           0  0  0
   -0.8500   -0.7792    0.0000 C   0  0  0  0  0  0           0  0  0
   -1.5708    0.4625    0.0000 C   0  0  0  0  0  0           0  0  0
   -2.2833   -0.7792    0.0000 C   0  0  0  0  0  0           0  0  0
   -0.8500   -1.6042    0.0000 O   0  0  0  0  0  0           0  0  0
   -3.7208   -0.7917    0.0000 I   0  0  0  0  0  0           0  0  0
   -2.2833    1.7000    0.0000 I   0  0  0  0  0  0           0  0  0
   -3.7208    0.8875    0.0000 O   0  0  0  0  0  0           0  0  0
   -0.1375   -0.3667    0.0000 O   0  0  0  0  0  0           0  0  0
  2  6  1  0     0  0
  3  1  2  0     0  0
  4  1  1  0     0  0
  5  2  1  0     0  0
  6  4  2  0     0  0
  7  3  1  0     0  0
  8  5  2  0     0  0
  9  3  1  0     0  0
 10  4  1  0     0  0
 11  1  1  0     0  0
 12  5  1  0     0  0
  2  7  2  0     0  0
M  END