
          11280715492D 1   1.00000     0.00000     0

 66 72  0     1  0            999 V2000
   10.1785  -19.8738    0.0000 N   0  0  0  0  0  0           0  0  0
   10.1506  -17.3981    0.0000 C   0  0  0  0  0  0           0  0  0
    9.4212  -16.1709    0.0000 N   0  0  0  0  0  0           0  0  0
   10.1401  -16.5755    0.0000 C   0  0  1  0  0  0           0  0  0
   10.8507  -16.1540    0.0000 C   0  0  0  0  0  0           0  0  0
   10.8423  -15.3278    0.0000 C   0  0  0  0  0  0           0  0  0
   10.1233  -14.9232    0.0000 C   0  0  0  0  0  0           0  0  0
   10.1129  -14.1007    0.0000 C   0  0  0  0  0  0           0  0  0
   10.8235  -13.6791    0.0000 C   0  0  0  0  0  0           0  0  0
   10.8151  -12.8530    0.0000 O   0  0  0  0  0  0           0  0  0
   11.5425  -14.0838    0.0000 C   0  0  0  0  0  0           0  0  0
   11.5508  -14.9099    0.0000 C   0  0  0  0  0  0           0  0  0
   10.8695  -17.8027    0.0000 O   0  0  0  0  0  0           0  0  0
    9.4400  -17.8196    0.0000 N   0  0  3  0  0  0           0  0  0
   12.2698  -15.3145    0.0000 C   0  0  0  0  0  0           0  0  0
    9.4121  -15.3460    0.0000 C   0  0  0  0  0  0           0  0  0
    8.7220  -17.4111    0.0000 C   0  0  0  0  0  0           0  0  0
    8.7393  -19.0624    0.0000 C   0  0  0  0  0  0           0  0  0
    9.4540  -18.6427    0.0000 C   0  0  3  0  0  0           0  0  0
    8.0191  -18.6556    0.0000 C   0  0  0  0  0  0           0  0  0
    8.0139  -17.8329    0.0000 C   0  0  0  0  0  0           0  0  0
    7.2999  -17.4278    0.0000 C   0  0  0  0  0  0           0  0  0
    6.5907  -17.8443    0.0000 C   0  0  0  0  0  0           0  0  0
    6.5998  -18.6701    0.0000 C   0  0  0  0  0  0           0  0  0
    7.3144  -19.0715    0.0000 C   0  0  0  0  0  0           0  0  0
   10.1735  -19.0464    0.0000 C   0  0  0  0  0  0           0  0  0
   10.8828  -18.6252    0.0000 O   0  0  0  0  0  0           0  0  0
    8.7496  -19.8661    0.0000 C   0  0  0  0  0  0           0  0  0
    9.4618  -20.2824    0.0000 C   0  0  0  0  0  0           0  0  0
    5.8837  -21.5239    0.0000 C   0  0  0  0  0  0           0  0  0
    5.8864  -22.3489    0.0000 C   0  0  0  0  0  0           0  0  0
    5.1733  -22.7637    0.0000 N   0  0  0  0  0  0           0  0  0
    3.0429  -21.5010    0.0000 C   0  0  0  0  0  0           0  0  0
    1.6154  -21.4851    0.0000 N   0  0  0  0  0  0           0  0  0
    2.3351  -21.0818    0.0000 C   0  0  1  0  0  0           0  0  0
    2.3451  -20.2557    0.0000 C   0  0  0  0  0  0           0  0  0
    1.6353  -19.8328    0.0000 C   0  0  0  0  0  0           0  0  0
    0.9156  -20.2361    0.0000 C   0  0  0  0  0  0           0  0  0
    0.2078  -19.8169    0.0000 C   0  0  0  0  0  0           0  0  0
    0.2148  -18.9855    0.0000 C   0  0  0  0  0  0           0  0  0
   -0.4950  -18.5627    0.0000 O   0  0  0  0  0  0           0  0  0
    0.9345  -18.5822    0.0000 C   0  0  0  0  0  0           0  0  0
    1.6472  -19.0103    0.0000 C   0  0  0  0  0  0           0  0  0
    3.7626  -21.0977    0.0000 O   0  0  0  0  0  0           0  0  0
    3.0330  -22.3272    0.0000 N   0  0  3  0  0  0           0  0  0
    2.3669  -18.6070    0.0000 C   0  0  0  0  0  0           0  0  0
    0.9063  -21.0634    0.0000 C   0  0  0  0  0  0           0  0  0
    2.3105  -22.7275    0.0000 C   0  0  0  0  0  0           0  0  0
    3.7295  -23.5723    0.0000 C   0  0  0  0  0  0           0  0  0
    3.7431  -22.7436    0.0000 C   0  0  3  0  0  0           0  0  0
    3.0072  -23.9756    0.0000 C   0  0  0  0  0  0           0  0  0
    2.3020  -23.5517    0.0000 C   0  0  0  0  0  0           0  0  0
    1.5845  -23.9505    0.0000 C   0  0  0  0  0  0           0  0  0
    1.5709  -24.7729    0.0000 C   0  0  0  0  0  0           0  0  0
    2.2809  -25.1950    0.0000 C   0  0  0  0  0  0           0  0  0
    2.9955  -24.7938    0.0000 C   0  0  0  0  0  0           0  0  0
    4.4623  -22.3394    0.0000 C   0  0  0  0  0  0           0  0  0
    4.4719  -21.5145    0.0000 O   0  0  0  0  0  0           0  0  0
    6.6015  -20.2765    0.0000 C   0  0  0  0  0  0           0  0  0
    6.6015  -21.1056    0.0000 C   0  0  0  0  0  0           0  0  0
    7.3177  -21.5181    0.0000 N   0  0  0  0  0  0           0  0  0
    8.0297  -21.1056    0.0000 C   0  0  0  0  0  0           0  0  0
    8.0297  -20.2765    0.0000 C   0  0  0  0  0  0           0  0  0
    7.3177  -19.8598    0.0000 N   0  0  0  0  0  0           0  0  0
    8.7478  -21.5233    0.0000 O   0  0  0  0  0  0           0  0  0
    5.8817  -19.8661    0.0000 C   0  0  0  0  0  0           0  0  0
 14 17  1  0     0  0
  4  3  1  1     0  0
  2  4  1  0     0  0
  4  5  1  0     0  0
 14 19  1  0     0  0
 17 21  1  0     0  0
 20 18  1  0     0  0
 18 19  1  0     0  0
  5  6  1  0     0  0
  6  7  2  0     0  0
 20 21  2  0     0  0
  7  8  1  0     0  0
 21 22  1  0     0  0
  8  9  2  0     0  0
 35 34  1  1     0  0
 33 35  1  0     0  0
 35 36  1  0     0  0
 36 37  1  0     0  0
 37 38  2  0     0  0
 38 39  1  0     0  0
 39 40  2  0     0  0
 40 41  1  0     0  0
 40 42  1  0     0  0
 42 43  2  0     0  0
 37 43  1  0     0  0
 33 44  2  0     0  0
 33 45  1  0     0  0
 43 46  1  0     0  0
 38 47  1  0     0  0
 22 23  2  0     0  0
 45 48  1  0     0  0
  9 10  1  0     0  0
 23 24  1  0     0  0
  9 11  1  0     0  0
 45 50  1  0     0  0
 48 52  1  0     0  0
 51 49  1  0     0  0
 49 50  1  0     0  0
 24 25  2  0     0  0
 25 20  1  0     0  0
 51 52  2  0     0  0
 11 12  2  0     0  0
 52 53  1  0     0  0
 19 26  1  0     0  0
 53 54  2  0     0  0
  6 12  1  0     0  0
 54 55  1  0     0  0
 26 27  2  0     0  0
 55 56  2  0     0  0
 56 51  1  0     0  0
  1 26  1  0     0  0
 50 57  1  0     0  0
  2 13  2  0     0  0
 57 58  2  0     0  0
 32 57  1  0     0  0
 59 60  1  0     0  0
  2 14  1  0     0  0
 28 29  1  0     0  0
 29  1  1  0     0  0
 12 15  1  0     0  0
  7 16  1  0     0  0
 30 31  1  0     0  0
 59 64  2  0     0  0
 60 61  2  0     0  0
 61 62  1  0     0  0
 62 63  2  0     0  0
 63 64  1  0     0  0
 62 65  1  0     0  0
 31 32  1  0     0  0
 59 66  1  0     0  0
 63 28  1  0     0  0
 60 30  1  0     0  0
M  END