
  SciTegic11201309402D

 55 62  0  0  0  0            999 V2000
   10.6818   -7.0349    0.0000 C   0  0
   10.6818   -7.8602    0.0000 C   0  0
   11.3927   -8.2706    0.0000 C   0  0  2  0  0  0
   11.3927   -6.6201    0.0000 C   0  0  1  0  0  0
   12.1118   -7.8582    0.0000 C   0  0  2  0  0  0
   12.1079   -7.0349    0.0000 C   0  0  2  0  0  0
   12.7636   -8.3704    0.0000 C   0  0  1  0  0  0
   13.5696   -8.1794    0.0000 C   0  0  1  0  0  0
   13.9208   -7.4295    0.0000 C   0  0  2  0  0  0
   12.7513   -6.5152    0.0000 C   0  0  1  0  0  0
   13.5590   -6.6871    0.0000 C   0  0  2  0  0  0
   13.9721   -5.9722    0.0000 C   0  0  2  0  0  0
   13.4197   -5.3583    0.0000 C   0  0  2  0  0  0
   12.6653   -5.6940    0.0000 C   0  0
   11.0238   -9.0822    0.0000 C   0  0
   11.9676   -8.8497    0.0000 C   0  0
   12.0816   -5.9453    0.0000 C   0  0  2  0  0  0
   11.0238   -7.4043    0.0000 N   0  0
   10.2579   -7.1094    0.0000 C   0  0
    9.6196   -7.6252    0.0000 C   0  0
   14.8811   -5.3935    0.0000 C   0  0  2  0  0  0
   14.9176   -7.4408    0.0000 C   0  0
   11.7525   -9.6416    0.0000 O   0  0
   12.3308  -10.2240    0.0000 C   0  0
   12.1156  -11.0160    0.0000 C   0  0
   13.1242  -10.0143    0.0000 O   0  0
   11.3203  -11.2213    0.0000 C   0  0
   11.1051  -12.0125    0.0000 C   0  0
   11.6836  -12.5957    0.0000 C   0  0
   12.4806  -12.3824    0.0000 C   0  0
   12.6921  -11.5917    0.0000 C   0  0
   13.4877  -11.3770    0.0000 N   0  0
   14.1258  -11.8932    0.0000 C   0  0
   14.8138  -11.4457    0.0000 C   0  0
   14.6010  -10.6530    0.0000 C   0  0  1  0  0  0
   13.7814  -10.6107    0.0000 C   0  0
   15.1170  -10.0150    0.0000 C   0  0
   14.0833  -12.7128    0.0000 O   0  0
   12.9570  -10.6050    0.0000 O   0  0
   12.5871   -9.1719    0.0000 O   0  0
   13.3720   -9.3785    0.0000 C   0  0
   14.1471   -8.7584    0.0000 O   0  0
   14.4981   -8.0061    0.0000 O   0  0
   15.4632   -4.8151    0.0000 O   0  0
   12.7062   -4.9468    0.0000 H   0  0
   11.3915   -5.7994    0.0000 O   0  0
   15.9709   -5.9726    0.0000 O   0  0
   16.3817   -6.6963    0.0000 C   0  0
   15.2534   -4.0217    0.0000 C   0  0
   12.3188   -8.6445    0.0000 H   0  0
   14.3796   -6.6839    0.0000 H   0  0
   13.3264   -5.9316    0.0000 H   0  0
   12.0770   -5.1246    0.0000 H   0  0
   10.6802   -5.3900    0.0000 C   0  0
   10.3074  -12.2230    0.0000 I   0  0
  1  2  1  0
 24 25  1  0
  6  5  1  6
 24 26  2  0
  6 10  1  0
 25 27  2  0
 11 12  1  0
 27 28  1  0
 12 13  1  0
 28 29  2  0
 13 14  1  0
 29 30  1  0
 14 10  1  0
 30 31  2  0
 31 25  1  0
 32 33  1  0
  1  4  1  0
  3 15  1  0
  5  7  1  0
  3 16  1  1
  2  3  1  0
 33 34  1  0
 34 35  1  0
 35 36  1  0
 36 32  1  0
 31 32  1  0
  6 17  1  0
 35 37  1  1
 17  8  1  0
 33 38  2  0
  7  8  1  0
 36 39  2  0
 17 18  1  0
  7 40  1  1
 18 15  1  0
 40 41  1  0
  3  5  1  0
  8 42  1  1
 18 19  1  0
  9 43  1  1
 11  9  1  0
 21 44  1  1
 19 20  1  0
 13 45  1  1
  8  9  1  0
  4 46  1  6
 13 21  1  0
 12 47  1  6
 10 11  1  0
 47 48  1  0
  9 22  1  0
 44 49  1  0
 21 22  1  0
  5 50  1  1
  6  4  1  0
 11 51  1  1
 16 23  1  0
 10 52  1  1
 17 53  1  1
 23 24  1  0
 46 54  1  0
 28 55  1  0
M  ISO  1  55 125
M  END