
  SciTegic12121611482D

 20 23  0  0  0  0            999 V2000
    4.0872    0.0320    0.0000 C   0  0
    4.8506   -1.2602    0.0000 N   0  0
    2.5889    0.0182    0.0000 C   0  0
    4.6772    1.0770    0.0000 O   0  0
    6.3513   -1.2462    0.0000 C   0  0
    7.2249   -2.4499    0.0000 S   0  0
    8.6461   -1.9702    0.0000 C   0  0
    8.6290   -0.4703    0.0000 C   0  0
    7.1973   -0.0230    0.0000 N   0  0
    9.8331    0.4256    0.0000 C   0  0
   11.2294    0.6702    0.0000 C   0  0
   10.2301    1.7888    0.0000 C   0  0
    1.7138    1.2033    0.0000 S   0  0
    1.7138   -1.2033    0.0000 C   0  0
    0.2917   -0.7475    0.0000 C   0  0
    0.2917    0.7475    0.0000 C   0  0
   -1.0028    1.5132    0.0000 C   0  0
   -2.3155    0.7475    0.0000 C   0  0
   -2.3155   -0.7475    0.0000 C   0  0
   -1.0028   -1.5132    0.0000 C   0  0
  1  2  1  0
  1  3  1  0
  1  4  2  0
  2  5  1  0
  5  6  1  0
  6  7  1  0
  7  8  2  0
  8  9  1  0
  9  5  2  0
 11 10  1  0
 12 11  1  0
 10 12  1  0
  8 10  1  0
  3 13  1  0
 13 16  1  0
 15 14  1  0
 14  3  2  0
 15 16  2  0
 16 17  1  0
 17 18  2  0
 18 19  1  0
 19 20  2  0
 20 15  1  0
M  END