
  SciTegic02011310452D

103112  0  0  0  0            999 V2000
   14.3627   -1.2959    0.0000 O   0  0
   15.1774   -1.1548    0.0000 S   0  0
   14.6478   -0.5197    0.0000 O   0  0
   17.0571   -3.2712    0.0000 C   0  0
   16.4229   -3.7988    0.0000 C   0  0
   17.1969   -4.0843    0.0000 C   0  0
   14.6410  -12.6481    0.0000 O   0  0
   14.2713  -11.9102    0.0000 S   0  0
   13.8171  -12.5994    0.0000 O   0  0
   13.0400   -8.6174    0.0000 C   0  0
   13.7349   -9.0621    0.0000 C   0  0
   14.4675   -8.6826    0.0000 C   0  0
   15.1624   -9.1273    0.0000 C   0  0
   16.4578   -9.4618    0.0000 N   0  0
   15.9343   -8.8250    0.0000 C   0  0
   14.9844   -8.3174    0.0000 C   0  0
   16.0131  -10.1568    0.0000 C   0  0
   15.2170   -9.9463    0.0000 C   0  0
   14.6386  -10.5298    0.0000 C   0  0
   14.8551  -11.3241    0.0000 C   0  0
   15.6553  -11.5316    0.0000 C   0  0
   16.2302  -10.9465    0.0000 C   0  0
   13.7168  -11.2956    0.0000 O   0  0
   17.2813   -9.4130    0.0000 C   0  0
   17.7354  -10.1019    0.0000 C   0  0
   16.3686   -8.1236    0.0000 C   0  0
   15.9783   -7.3968    0.0000 C   0  0
   16.4127   -6.6953    0.0000 C   0  0
   16.0224   -5.9685    0.0000 C   0  0
   16.4567   -5.2671    0.0000 C   0  0
   16.0665   -4.5402    0.0000 C   0  0
   15.2478   -4.4304    0.0000 N   0  3
   14.6778   -5.0268    0.0000 C   0  0
   13.8763   -4.8314    0.0000 C   0  0
   15.1011   -3.6185    0.0000 C   0  0
   15.8257   -3.2315    0.0000 C   0  0
   15.8517   -2.4095    0.0000 C   0  0
   15.1540   -1.9792    0.0000 C   0  0
   14.4285   -2.3672    0.0000 C   0  0
   14.4060   -3.1892    0.0000 C   0  0
   15.9053   -0.7637    0.0000 O   0  5
    3.7791  -10.1630    0.0000 N   0  0
    4.5288   -9.7969    0.0000 C   0  0
    4.7072   -8.9844    0.0000 C   0  0
    3.3548   -8.3531    0.0000 C   0  0
    4.1808   -8.3472    0.0000 C   0  0
    9.4745  -12.6690    0.0000 C   0  0
    9.4757  -13.4964    0.0000 C   0  0
    8.7567  -13.9092    0.0000 C   0  0
    8.0444  -13.4959    0.0000 C   0  0
    8.0473  -12.6654    0.0000 C   0  0
    8.7585  -12.2562    0.0000 C   0  0
    7.3350  -12.2509    0.0000 C   0  0
    6.6204  -12.6613    0.0000 N   0  0
    7.3374  -11.4259    0.0000 O   0  0
    5.9082  -12.2468    0.0000 C   0  0
    5.1929  -12.6605    0.0000 C   0  0
    4.4810  -12.2466    0.0000 C   0  0
    4.4830  -11.4208    0.0000 C   0  0
    5.2061  -11.0105    0.0000 C   0  0
    5.9154  -11.4264    0.0000 C   0  0
    3.7712  -11.0055    0.0000 C   0  0
    3.0561  -11.4151    0.0000 O   0  0
    8.7641  -11.4312    0.0000 C   0  0
    2.9493   -7.6563    0.0000 N   0  0
    9.4771  -11.0227    0.0000 C   0  0
    9.4788  -10.1984    0.0000 C   0  0
    8.7656   -9.7840    0.0000 C   0  0
    8.0453  -10.2032    0.0000 C   0  0
    8.0466  -11.0222    0.0000 C   0  0
    3.0372   -9.8135    0.0000 C   0  0
    2.8376   -9.0042    0.0000 C   0  0
    2.0377   -8.7713    0.0000 C   0  0
    1.4368   -9.3511    0.0000 C   0  0
    1.6405  -10.1623    0.0000 C   0  0
    2.4400  -10.3919    0.0000 C   0  0
    3.3590   -6.9403    0.0000 C   0  0
    2.9438   -6.2274    0.0000 O   0  0
    4.1840   -6.9372    0.0000 C   0  0
    4.5938   -6.2211    0.0000 C   0  0
    5.4188   -6.2180    0.0000 C   0  0
    5.8286   -5.5019    0.0000 N   0  0
    5.8340   -6.9309    0.0000 O   0  0
    6.6535   -5.4990    0.0000 C   0  0
    7.1220   -4.8199    0.0000 C   0  0
    7.9422   -4.7987    0.0000 N   0  0
    8.1779   -4.0081    0.0000 N   0  0
    7.4986   -3.5396    0.0000 N   0  0
    6.8435   -4.0408    0.0000 C   0  0
    7.4983   -2.7072    0.0000 C   0  0
    8.2046   -2.2974    0.0000 C   0  0
    8.9079   -2.7244    0.0000 O   0  0
    8.8860   -3.5555    0.0000 C   0  0
    9.5893   -3.9868    0.0000 C   0  0
    9.5674   -4.8115    0.0000 O   0  0
   10.2707   -5.2428    0.0000 C   0  0
   10.2488   -6.0675    0.0000 C   0  0
   10.9521   -6.4988    0.0000 O   0  0
   10.9302   -7.3235    0.0000 C   0  0
   11.6334   -7.7548    0.0000 C   0  0
   11.6116   -8.5795    0.0000 N   0  0
   12.3148   -9.0108    0.0000 C   0  0
   12.2930   -9.8355    0.0000 O   0  0
  2  1  2  0
  3  2  2  0
  5  4  1  0
  6  5  1  0
  8  7  2  0
  9  8  2  0
 10 11  1  0
 11 12  1  0
 12 13  1  0
 13 18  1  0
 17 14  1  0
 14 15  1  0
 15 13  1  0
 13 16  1  0
 17 18  2  0
 18 19  1  0
 19 20  2  0
 20 21  1  0
 21 22  2  0
 22 17  1  0
 20  8  1  0
  8 23  1  0
 14 24  1  0
 24 25  1  0
 15 26  2  0
 26 27  1  0
 27 28  2  0
 28 29  1  0
 29 30  2  0
 30 31  1  0
 31  5  1  0
  5 36  1  0
 35 32  1  0
 32 31  2  0
 32 33  1  0
 33 34  1  0
 35 36  2  0
 36 37  1  0
 37 38  2  0
 38 39  1  0
 39 40  2  0
 40 35  1  0
 38  2  1  0
  2 41  1  0
 71 42  1  0
 42 43  1  0
 43 44  1  0
 72 45  1  0
 44 46  1  0
 45 46  1  0
 47 48  2  0
 48 49  1  0
 49 50  2  0
 50 51  1  0
 51 52  2  0
 52 47  1  0
 51 53  1  0
 53 54  1  0
 53 55  2  0
 54 56  1  0
 56 57  2  0
 57 58  1  0
 58 59  2  0
 59 60  1  0
 60 61  2  0
 61 56  1  0
 59 62  1  0
 62 63  2  0
 62 42  1  0
 52 64  1  0
 45 65  1  0
 64 66  2  0
 66 67  1  0
 67 68  2  0
 68 69  1  0
 69 70  2  0
 70 64  1  0
 71 72  2  0
 72 73  1  0
 73 74  2  0
 74 75  1  0
 75 76  2  0
 76 71  1  0
 65 77  1  0
 77 78  2  0
 77 79  1  0
 79 80  1  0
 80 81  1  0
 81 82  1  0
 81 83  2  0
 82 84  1  0
 84 85  1  0
 85 86  1  0
 86 87  2  0
 87 88  1  0
 88 89  1  0
 89 85  2  0
 88 90  1  0
 90 91  1  0
 91 92  1  0
 92 93  1  0
 93 94  1  0
 94 95  1  0
 95 96  1  0
 96 97  1  0
 97 98  1  0
 98 99  1  0
 99100  1  0
100101  1  0
101102  1  0
102103  2  0
102 10  1  0
M  CHG  2  32   1  41  -1
M  END