
          11280715132D 1   1.00000     0.00000     0

 32 34  0     0  0            999 V2000
   -1.7250   -0.8625    0.0000 C   0  0  0  0  0  0           0  0  0
   -1.7250   -0.2625    0.0000 C   0  0  0  0  0  0           0  0  0
   -2.2458   -1.1625    0.0000 N   0  0  3  0  0  0           0  0  0
   -2.7583   -0.2625    0.0000 N   0  0  3  0  0  0           0  0  0
   -2.7583   -0.8625    0.0000 C   0  0  0  0  0  0           0  0  0
   -2.2458    0.0375    0.0000 C   0  0  0  0  0  0           0  0  0
   -1.1583   -1.0417    0.0000 N   0  0  0  0  0  0           0  0  0
    3.2625   -0.1417    0.0000 S   0  0  3  0  0  0           0  0  0
   -1.1583   -0.0750    0.0000 N   0  0  0  0  0  0           0  0  0
   -0.8000   -0.5625    0.0000 C   0  0  0  0  0  0           0  0  0
    0.9042   -0.5667    0.0000 C   0  0  0  0  0  0           0  0  0
    2.6750   -0.2500    0.0000 C   0  0  0  0  0  0           0  0  0
   -3.2833   -1.1542    0.0000 O   0  0  0  0  0  0           0  0  0
    3.2542    0.4583    0.0000 O   0  0  0  0  0  0           0  0  0
    3.2625   -0.7417    0.0000 O   0  0  0  0  0  0           0  0  0
   -2.2500    0.6375    0.0000 O   0  0  0  0  0  0           0  0  0
    1.4917   -0.4542    0.0000 C   0  0  0  0  0  0           0  0  0
   -0.2000   -0.5625    0.0000 C   0  0  0  0  0  0           0  0  0
    3.8625   -0.1417    0.0000 F   0  0  0  0  0  0           0  0  0
    0.5167   -0.1042    0.0000 O   0  0  0  0  0  0           0  0  0
   -2.2458   -1.7625    0.0000 C   0  0  0  0  0  0           0  0  0
   -3.2833    0.0375    0.0000 C   0  0  0  0  0  0           0  0  0
    2.4667   -0.8167    0.0000 C   0  0  0  0  0  0           0  0  0
    2.2792    0.2083    0.0000 C   0  0  0  0  0  0           0  0  0
    0.7000   -1.1292    0.0000 N   0  0  0  0  0  0           0  0  0
    1.8792   -0.9167    0.0000 C   0  0  0  0  0  0           0  0  0
    1.6917    0.1083    0.0000 C   0  0  0  0  0  0           0  0  0
    0.1000   -1.0792    0.0000 C   0  0  0  0  0  0           0  0  0
   -3.2833    0.6375    0.0000 C   0  0  0  0  0  0           0  0  0
   -2.7708   -2.0542    0.0000 C   0  0  0  0  0  0           0  0  0
   -3.8000    0.9375    0.0000 C   0  0  0  0  0  0           0  0  0
   -2.7708   -2.6542    0.0000 C   0  0  0  0  0  0           0  0  0
  2  1  2  0     0  0
  3  1  1  0     0  0
  4  5  1  0     0  0
  5  3  1  0     0  0
  6  2  1  0     0  0
  7  1  1  0     0  0
  8 12  1  0     0  0
  9  2  1  0     0  0
 10  7  1  0     0  0
 11 25  1  0     0  0
 12 24  1  0     0  0
 13  5  2  0     0  0
 14  8  2  0     0  0
 15  8  2  0     0  0
 16  6  2  0     0  0
 17 11  1  0     0  0
 18 10  1  0     0  0
 19  8  1  0     0  0
 20 11  2  0     0  0
 21  3  1  0     0  0
 22  4  1  0     0  0
 23 26  1  0     0  0
 24 27  2  0     0  0
 25 28  1  0     0  0
 26 17  2  0     0  0
 27 17  1  0     0  0
 28 18  1  0     0  0
 29 22  1  0     0  0
 30 21  1  0     0  0
 31 29  1  0     0  0
 32 30  1  0     0  0
  9 10  2  0     0  0
  4  6  1  0     0  0
 12 23  2  0     0  0
M  END