
          11280714562D 1   1.00000     0.00000     0

 30 32  0     0  0            999 V2000
    7.1750   -2.5250    0.0000 C   0  0  0  0  0  0           0  0  0
    1.4417   -1.7542    0.0000 C   0  0  0  0  0  0           0  0  0
    7.1667   -1.7042    0.0000 C   0  0  0  0  0  0           0  0  0
    7.8792   -2.9417    0.0000 C   0  0  0  0  0  0           0  0  0
    2.1500   -1.3292    0.0000 C   0  0  0  0  0  0           0  0  0
    1.4542   -2.5792    0.0000 C   0  0  0  0  0  0           0  0  0
    6.4542   -2.9292    0.0000 O   0  0  0  0  0  0           0  0  0
    2.1292   -0.5042    0.0000 C   0  0  0  0  0  0           0  0  0
    4.3167   -2.5167    0.0000 N   0  0  0  0  0  0           0  0  0
    6.4542   -1.2917    0.0000 O   0  0  0  0  0  0           0  0  0
    7.8792   -3.7667    0.0000 O   0  0  0  0  0  0           0  0  0
    2.1792   -2.9750    0.0000 O   0  0  0  0  0  0           0  0  0
    8.6042   -1.7042    0.0000 C   0  0  0  0  0  0           0  0  0
    0.7167   -1.3542    0.0000 C   0  0  0  0  0  0           0  0  0
    8.6000   -2.5292    0.0000 C   0  0  0  0  0  0           0  0  0
    7.8792   -1.2917    0.0000 C   0  0  0  0  0  0           0  0  0
    0.7542   -3.0042    0.0000 C   0  0  0  0  0  0           0  0  0
    3.6125   -2.9417    0.0000 C   0  0  0  0  0  0           0  0  0
    5.0292   -2.9292    0.0000 C   0  0  0  0  0  0           0  0  0
    5.7417   -2.5167    0.0000 C   0  0  0  0  0  0           0  0  0
    2.8875   -2.5417    0.0000 C   0  0  0  0  0  0           0  0  0
    2.8375   -0.0792    0.0000 C   0  0  0  0  0  0           0  0  0
    1.4042   -0.1125    0.0000 C   0  0  0  0  0  0           0  0  0
    7.1625   -4.1750    0.0000 C   0  0  0  0  0  0           0  0  0
    6.4542   -0.4667    0.0000 C   0  0  0  0  0  0           0  0  0
    0.0125   -1.7875    0.0000 C   0  0  0  0  0  0           0  0  0
    0.0292   -2.6167    0.0000 C   0  0  0  0  0  0           0  0  0
    1.3875    0.7125    0.0000 C   0  0  0  0  0  0           0  0  0
    2.8167    0.7458    0.0000 C   0  0  0  0  0  0           0  0  0
    2.0917    1.1458    0.0000 C   0  0  0  0  0  0           0  0  0
  2  6  2  0     0  0
  3  1  1  0     0  0
  4  1  2  0     0  0
  5  2  1  0     0  0
  6 12  1  0     0  0
  7  1  1  0     0  0
  8  5  1  0     0  0
  9 19  1  0     0  0
 10  3  1  0     0  0
 11  4  1  0     0  0
 12 21  1  0     0  0
 13 15  2  0     0  0
 14  2  1  0     0  0
 15  4  1  0     0  0
 16  3  2  0     0  0
 17  6  1  0     0  0
 18  9  1  0     0  0
 19 20  1  0     0  0
 20  7  1  0     0  0
 21 18  1  0     0  0
 22  8  2  0     0  0
 23  8  1  0     0  0
 24 11  1  0     0  0
 25 10  1  0     0  0
 26 27  1  0     0  0
 27 17  2  0     0  0
 28 23  2  0     0  0
 29 22  1  0     0  0
 30 28  1  0     0  0
 16 13  1  0     0  0
 26 14  2  0     0  0
 30 29  2  0     0  0
M  END