
  SciTegic01181116592D

 23 25  0  0  0  0            999 V2000
   -0.6376    0.1527    0.0000 C   0  0
    0.1857    0.1516    0.0000 N   0  0
    0.5964    0.8628    0.0000 C   0  0
    0.1852    1.5756    0.0000 C   0  0
   -0.6412    1.5728    0.0000 C   0  0
   -1.0483    0.8610    0.0000 N   0  0
   -1.0564    2.2857    0.0000 N   0  0
   -1.8814    2.2826    0.0000 C   0  0
   -2.2926    2.9982    0.0000 C   0  0
   -3.1168    2.9954    0.0000 C   0  0
   -3.5275    2.2789    0.0000 C   0  0
   -3.1078    1.5636    0.0000 C   0  0
   -2.2850    1.5699    0.0000 C   0  0
   -4.3525    2.2747    0.0000 O   0  0
   -4.7686    2.9870    0.0000 C   0  0
   -5.5936    2.9828    0.0000 F   0  0
   -4.3597    3.7036    0.0000 F   0  0
   -5.1875    3.7042    0.0000 F   0  0
    1.4209    0.8631    0.0000 C   0  0
    1.9057    0.1956    0.0000 C   0  0
    2.6904    0.4503    0.0000 N   0  0
    2.6906    1.2754    0.0000 N   0  0
    1.9060    1.5304    0.0000 C   0  0
  5  6  2  0
 11 12  1  0
  6  1  1  0
 12 13  2  0
 13  8  1  0
  1  2  2  0
 11 14  1  0
  5  7  1  0
 14 15  1  0
  3  4  2  0
 15 16  1  0
  7  8  1  0
 15 17  1  0
 15 18  1  0
 19 20  2  0
  8  9  2  0
  4  5  1  0
  9 10  1  0
  2  3  1  0
 10 11  2  0
 20 21  1  0
 21 22  1  0
 22 23  2  0
 23 19  1  0
  3 19  1  0
M  END