
          11280715292D 1   1.00000     0.00000     0

 16 17  0     0  0            999 V2000
    1.5417   -1.9625    0.0000 C   0  0  0  0  0  0           0  0  0
    2.2542   -2.3750    0.0000 N   0  0  0  0  0  0           0  0  0
    1.8042   -1.1792    0.0000 C   0  0  0  0  0  0           0  0  0
    0.7417   -2.1292    0.0000 C   0  0  0  0  0  0           0  0  0
    1.2542   -0.5667    0.0000 C   0  0  0  0  0  0           0  0  0
    2.6250   -1.1792    0.0000 C   0  0  3  0  0  0           0  0  0
    2.8792   -1.9667    0.0000 C   0  0  0  0  0  0           0  0  0
    3.4542   -1.1917    0.0000 C   0  0  0  0  0  0           0  0  0
    0.1917   -1.5167    0.0000 C   0  0  0  0  0  0           0  0  0
    4.6875   -1.9042    0.0000 N   0  0  3  0  0  0           0  0  0
    0.4500   -0.7292    0.0000 C   0  0  0  0  0  0           0  0  0
    3.8625   -1.9042    0.0000 C   0  0  0  0  0  0           0  0  0
   -0.6125   -1.6917    0.0000 O   0  0  0  0  0  0           0  0  0
    5.1000   -2.6250    0.0000 C   0  0  0  0  0  0           0  0  0
    5.1042   -1.1917    0.0000 C   0  0  0  0  0  0           0  0  0
   -1.1625   -1.0750    0.0000 C   0  0  0  0  0  0           0  0  0
  2  1  1  0     0  0
  3  1  2  0     0  0
  4  1  1  0     0  0
  5  3  1  0     0  0
  6  3  1  0     0  0
  7  2  1  0     0  0
  8  6  1  0     0  0
  9  4  2  0     0  0
 10 12  1  0     0  0
 11  9  1  0     0  0
 12  8  1  0     0  0
 13  9  1  0     0  0
 14 10  1  0     0  0
 15 10  1  0     0  0
 16 13  1  0     0  0
  7  6  1  0     0  0
  5 11  2  0     0  0
M  END