
  SciTegic06271217572D

 27 28  0  0  0  0            999 V2000
    2.5079   -7.0819    0.0000 S   0  0
    2.9202   -7.7965    0.0000 O   0  0
    3.3329   -7.0821    0.0000 O   0  0
    1.7944   -5.0167    0.0000 C   0  0
    1.7933   -5.8440    0.0000 C   0  0
    2.5081   -6.2569    0.0000 C   0  0
    3.2245   -5.8436    0.0000 C   0  0
    3.2217   -5.0130    0.0000 C   0  0
    2.5063   -4.6039    0.0000 C   0  0
    3.9346   -4.5978    0.0000 C   0  0
    4.6506   -5.0076    0.0000 C   0  0
    3.9315   -3.7728    0.0000 O   0  0
    5.3635   -4.5925    0.0000 S   0  0
    6.0795   -5.0023    0.0000 C   0  0
    6.0795   -5.8261    0.0000 N   0  0
    6.7947   -6.2358    0.0000 C   0  0
    7.5086   -5.8206    0.0000 C   0  0
    7.5028   -4.9913    0.0000 C   0  0
    6.7871   -4.5854    0.0000 N   0  0
    1.0785   -6.2560    0.0000 Cl  0  0
    1.7933   -7.4942    0.0000 N   0  0
    8.2143   -4.5736    0.0000 O   0  0
    8.2252   -6.2295    0.0000 C   0  0
    8.2294   -7.0544    0.0000 O   0  0
    8.9375   -5.8133    0.0000 O   0  0
    9.6541   -6.2222    0.0000 C   0  0
   10.3664   -5.8060    0.0000 C   0  0
 13 14  1  0
  7  8  1  0
 14 15  2  0
  4  5  2  0
 15 16  1  0
  8  9  2  0
 16 17  2  0
  9  4  1  0
 17 18  1  0
  1  3  2  0
 18 19  1  0
 19 14  1  0
  8 10  1  0
  5 20  1  0
  6  1  1  0
  5  6  1  0
  1 21  1  0
 10 11  1  0
 18 22  2  0
 17 23  1  0
 10 12  2  0
 23 24  2  0
  6  7  2  0
 23 25  1  0
 11 13  1  0
 25 26  1  0
  2  1  2  0
 26 27  1  0
M  END