
  SciTegic12231509382D

 29 31  0  0  0  0            999 V2000
   -2.6111    0.7486    0.0000 N   0  0
   -2.6111   -0.7486    0.0000 C   0  0
    0.0000    0.7486    0.0000 C   0  0
   -1.2964    1.4973    0.0000 C   0  0
   -1.2964   -1.4973    0.0000 N   0  0
    0.0000   -0.7486    0.0000 C   0  0
   -6.4983   -7.5109    0.0000 C   0  0
    1.2964    1.4973    0.0000 C   0  0
   -7.7964   -8.2641    0.0000 C   0  0
    1.2964   -1.4973    0.0000 C   0  0
    2.5929    0.7486    0.0000 C   0  0
    2.5929   -0.7486    0.0000 C   0  0
   -3.9091   -1.5019    0.0000 N   0  0
   -7.9341   -9.7450    0.0000 O   0  0
   -6.5006   -6.0101    0.0000 N   0  0
   -5.4579   -8.1089    0.0000 O   0  0
   -9.1479   -7.6433    0.0000 C   0  0
   -9.4013  -10.0571    0.0000 C   0  0
  -10.1514   -8.7581    0.0000 C   0  0
   -1.2928    2.6973    0.0000 N   0  0
   -5.2049   -3.7560    0.0000 C   0  0
    3.8911    1.5017    0.0000 O   0  0
    3.8911   -1.5017    0.0000 O   0  0
   -3.9067   -3.0027    0.0000 C   0  0
   -5.2025   -5.2568    0.0000 C   0  0
   -4.9494   -0.9039    0.0000 C   0  0
   -7.5410   -5.4120    0.0000 C   0  0
    3.8894    2.7017    0.0000 C   0  0
    3.8894   -2.7017    0.0000 C   0  0
  1  2  1  0
  1  4  2  0
  3  4  1  0
  2  5  2  0
  3  6  2  0
  5  6  1  0
  3  8  1  0
  7  9  1  0
  6 10  1  0
  8 11  2  0
 10 12  2  0
 11 12  1  0
  2 13  1  0
  9 14  1  0
  7 15  1  0
  7 16  2  0
  9 17  2  0
 14 18  1  0
 17 19  1  0
 18 19  2  0
  4 20  1  0
 11 22  1  0
 12 23  1  0
 13 24  1  0
 21 24  1  0
 15 25  1  0
 21 25  1  0
 13 26  1  0
 15 27  1  0
 22 28  1  0
 23 29  1  0
M  END