
  SciTegic01091216402D

 15 15  0  0  0  0            999 V2000
    4.3111    2.3625    0.0000 N   0  0
    4.3099    1.5352    0.0000 C   0  0
    5.0247    1.1223    0.0000 C   0  0
    5.7412    1.5356    0.0000 C   0  0
    5.7383    2.3662    0.0000 N   0  0
    5.0229    2.7753    0.0000 C   0  0
    5.0205    3.6003    0.0000 N   0  0
    6.4563    1.1243    0.0000 C   0  0
    7.1701    1.5379    0.0000 C   0  0
    7.8852    1.1265    0.0000 C   0  0
    5.0245    0.2973    0.0000 C   0  0
    4.3099   -0.1150    0.0000 O   0  0
    5.7389   -0.1154    0.0000 O   0  0
    5.7387   -0.9404    0.0000 C   0  0
    6.4531   -1.3531    0.0000 C   0  0
  3  4  2  0
  4  8  1  0
  8  9  1  0
  4  5  1  0
  9 10  1  0
  2  3  1  0
  3 11  1  0
  5  6  2  0
 11 12  2  0
  6  1  1  0
 11 13  1  0
  1  2  2  0
 13 14  1  0
  6  7  1  0
 14 15  1  0
M  END