
          11280714482D 1   1.00000     0.00000     0

 16 17  0     0  0            999 V2000
    0.4917   -0.4917    0.0000 N   0  0  0  0  0  0           0  0  0
   -0.2958   -0.2375    0.0000 C   0  0  0  0  0  0           0  0  0
   -0.2958    0.5958    0.0000 C   0  0  0  0  0  0           0  0  0
    0.9792    0.1833    0.0000 C   0  0  0  0  0  0           0  0  0
    0.4917    0.8500    0.0000 C   0  0  0  0  0  0           0  0  0
   -1.0125   -0.6500    0.0000 C   0  0  0  0  0  0           0  0  0
    0.9000    1.5708    0.0000 C   0  0  0  0  0  0           0  0  0
    2.1292    2.2958    0.0000 N   0  0  3  0  0  0           0  0  0
    1.7250    1.5833    0.0000 C   0  0  0  0  0  0           0  0  0
   -1.0125    1.0083    0.0000 C   0  0  0  0  0  0           0  0  0
   -1.7250    0.5875    0.0000 C   0  0  0  0  0  0           0  0  0
   -1.7250   -0.2375    0.0000 C   0  0  0  0  0  0           0  0  0
   -1.0125   -1.4750    0.0000 C   0  0  0  0  0  0           0  0  0
    1.7042    3.0083    0.0000 C   0  0  0  0  0  0           0  0  0
    2.9500    2.3083    0.0000 C   0  0  0  0  0  0           0  0  0
   -1.7250   -1.8875    0.0000 C   0  0  0  0  0  0           0  0  0
  2  1  1  0     0  0
  3  2  1  0     0  0
  4  1  1  0     0  0
  5  4  2  0     0  0
  6  2  2  0     0  0
  7  5  1  0     0  0
  8  9  1  0     0  0
  9  7  1  0     0  0
 10  3  2  0     0  0
 11 12  2  0     0  0
 12  6  1  0     0  0
 13  6  1  0     0  0
 14  8  1  0     0  0
 15  8  1  0     0  0
 16 13  1  0     0  0
  3  5  1  0     0  0
 11 10  1  0     0  0
M  END