
  SciTegic11201309402D

 72 76  0  0  1  0            999 V2000
    3.3563  -15.8995    0.0000 C   0  0
    4.1800  -15.8530    0.0000 C   0  0
    4.3960  -15.0562    0.0000 C   0  0  2  0  0  0
    3.6986  -14.6089    0.0000 N   0  0
    3.0602  -15.1314    0.0000 C   0  0
    5.1649  -14.7588    0.0000 C   0  0
    5.8084  -15.2805    0.0000 N   0  0
    5.2902  -13.9438    0.0000 O   0  0
    6.5772  -14.9832    0.0000 C   0  0  2  0  0  0
    7.2165  -15.5007    0.0000 C   0  0
    6.7025  -14.1682    0.0000 C   0  0
    7.4756  -13.8708    0.0000 C   0  0
    7.6009  -13.0559    0.0000 C   0  0
    8.1149  -14.3884    0.0000 C   0  0
    7.0912  -16.3156    0.0000 O   0  0
    7.9896  -15.2033    0.0000 N   0  0
    8.6288  -15.7209    0.0000 C   0  0
    9.4019  -15.4235    0.0000 C   0  0
   10.0412  -15.9410    0.0000 O   0  0
    9.5272  -14.6085    0.0000 N   0  0
   -2.0138  -11.3132    0.0000 C   0  0
   -2.0138  -12.1382    0.0000 C   0  0  1  0  0  0
   -1.3036  -12.5443    0.0000 N   0  0
   -0.5933  -12.1382    0.0000 C   0  0
   -0.5933  -11.3132    0.0000 C   0  0
   -1.3036  -10.8943    0.0000 N   0  0
   -2.7321  -10.9006    0.0000 O   0  0
   -1.3036  -10.0693    0.0000 C   0  0  2  0  0  0
   -0.5908   -9.6589    0.0000 C   0  0
   -2.0164   -9.6589    0.0000 C   0  0
   -2.0164   -8.8339    0.0000 C   0  0
   -1.3003   -8.4227    0.0000 C   0  0
   -1.3000   -7.5985    0.0000 C   0  0
   -2.0133   -7.1872    0.0000 C   0  0
   -2.7327   -7.6021    0.0000 C   0  0
   -2.7295   -8.4250    0.0000 C   0  0
   -2.7303  -12.5496    0.0000 C   0  0
   -3.4436  -12.1402    0.0000 C   0  0
   -3.4418  -11.3162    0.0000 C   0  0
   -4.1585  -10.9027    0.0000 C   0  0
   -4.8717  -11.3184    0.0000 C   0  0
   -4.8678  -12.1478    0.0000 C   0  0
   -4.1547  -12.5533    0.0000 C   0  0
    0.1262  -10.0693    0.0000 N   0  0
   -0.5908   -8.8339    0.0000 O   0  0
   -1.3036  -13.3693    0.0000 C   0  0
   -2.0164  -13.7839    0.0000 O   0  0
   -0.5908  -13.7839    0.0000 C   0  0
    0.8390   -9.6589    0.0000 C   0  0  2  0  0  0
    1.5560  -10.0693    0.0000 C   0  0
    0.8390   -8.8339    0.0000 C   0  0
    1.5560   -8.4193    0.0000 C   0  0
    1.5560   -7.5943    0.0000 C   0  0
    2.2688   -7.1839    0.0000 N   0  0
    0.8390   -7.1839    0.0000 O   0  0
    2.2688   -9.6589    0.0000 N   0  0
    2.9858  -10.0693    0.0000 C   0  0  1  0  0  0
    3.6986   -9.6589    0.0000 C   0  0
    4.4155  -10.0693    0.0000 C   0  0
    5.1283   -9.6589    0.0000 N   0  0
    4.4155  -10.8943    0.0000 O   0  0
    0.1262  -13.3693    0.0000 C   0  0
    0.8390  -13.7839    0.0000 S   0  0
    1.5560  -10.8943    0.0000 O   0  0
    1.5560  -13.3693    0.0000 S   0  0
    2.2688  -13.7839    0.0000 C   0  0
    2.9858  -13.3693    0.0000 C   0  0  2  0  0  0
    3.6986  -13.7839    0.0000 C   0  0
    2.4823  -11.7235    0.0000 N   0  0
    4.4155  -13.3693    0.0000 O   0  0
    2.9858  -10.8943    0.0000 C   0  0
    3.8912  -11.2919    0.0000 O   0  0
 35 36  2  0
 36 31  1  0
 17 18  1  0
 22 37  1  1
  9  7  1  1
 37 38  1  0
 18 19  2  0
 38 39  2  0
  4  5  1  0
 39 40  1  0
 18 20  1  0
 40 41  2  0
 21 22  1  0
 41 42  1  0
  9 10  1  0
 42 43  2  0
 43 38  1  0
  5  1  1  0
 29 44  1  0
  9 11  1  0
 29 45  2  0
  1  2  1  0
 23 46  1  0
 11 12  1  0
 46 47  2  0
  3  6  1  6
 46 48  1  0
 21 26  1  0
 44 49  1  0
 22 23  1  0
 49 50  1  0
 23 24  1  0
 49 51  1  1
 50 64  2  0
 24 25  1  0
 51 52  1  0
 25 26  1  0
 52 53  1  0
 12 13  1  0
 53 54  1  0
 21 27  2  0
 53 55  2  0
 50 56  1  0
 26 28  1  0
 56 57  1  0
 12 14  1  0
 57 58  1  1
 28 29  1  0
 58 59  1  0
  6  7  1  0
 59 60  1  0
 28 30  1  1
 59 61  2  0
 10 15  2  0
 48 62  1  0
 30 31  1  0
 62 63  1  0
  2  3  1  0
 31 32  2  0
 63 65  1  0
 10 16  1  0
 65 66  1  0
 32 33  1  0
 67 66  1  0
  6  8  2  0
 67 68  1  1
 33 34  2  0
 67 69  1  0
 68  4  1  0
 16 17  1  0
 68 70  2  0
 34 35  1  0
 57 71  1  0
 71 69  1  0
  3  4  1  0
 71 72  2  0
M  END