
  SciTegic12171313022D

 32 36  0  0  0  0            999 V2000
   26.9006   -3.7369    0.0000 C   0  0
   26.9004   -4.5541    0.0000 O   0  0
   26.1930   -3.3281    0.0000 N   0  0
   25.4833   -3.7436    0.0000 C   0  0
   24.7778   -3.3383    0.0000 C   0  0
   24.7738   -2.5208    0.0000 C   0  0
   25.4814   -2.1102    0.0000 C   0  0
   26.1931   -2.5171    0.0000 C   0  0
   24.0646   -2.1143    0.0000 N   0  0
   23.3193   -2.4493    0.0000 C   0  0
   22.7703   -1.8440    0.0000 C   0  0
   23.1764   -1.1348    0.0000 C   0  0
   23.9763   -1.3020    0.0000 C   0  0
   27.6097   -2.5093    0.0000 C   0  0
   27.6086   -3.3289    0.0000 C   0  0
   28.3166   -3.7378    0.0000 C   0  0
   29.0263   -3.3284    0.0000 C   0  0
   29.0235   -2.5057    0.0000 C   0  0
   28.3149   -2.1005    0.0000 C   0  0
   29.7296   -2.0945    0.0000 C   0  0
   30.4389   -2.5004    0.0000 N   0  0
   29.7266   -1.2773    0.0000 O   0  0
   30.4394   -3.3193    0.0000 C   0  0
   31.1446   -3.7252    0.0000 C   0  0
   31.8531   -3.3174    0.0000 C   0  0
   31.8520   -2.4992    0.0000 C   0  0
   31.1423   -2.0889    0.0000 C   0  0
   32.5597   -3.7248    0.0000 N   0  0
   32.6451   -4.5375    0.0000 C   0  0
   33.4445   -4.7074    0.0000 C   0  0
   33.8531   -3.9997    0.0000 C   0  0
   33.3062   -3.3925    0.0000 C   0  0
  1  2  2  0
  1  3  1  0
  3  4  1  0
  3  8  1  0
  4  5  1  0
  5  6  1  0
  6  7  1  0
  7  8  1  0
  9 10  1  0
 10 11  1  0
 11 12  1  0
 12 13  1  0
 13  9  1  0
  6  9  1  0
 14 15  2  0
 15 16  1  0
 16 17  2  0
 17 18  1  0
 18 19  2  0
 19 14  1  0
 18 20  1  0
 20 21  1  0
 20 22  2  0
 21 23  1  0
 21 27  1  0
 23 24  1  0
 24 25  1  0
 25 26  1  0
 26 27  1  0
 28 29  1  0
 29 30  1  0
 30 31  1  0
 31 32  1  0
 32 28  1  0
 25 28  1  0
 15  1  1  0
M  END