
  CDK    7/15/10,13:22

674757  0  0  0  0  0  0  0  0999 V2000
    7.9879   -5.4899    0.0000 P   0  0  0  0  0  0  0  0  0  0  0  0
    8.7037   -5.0617    0.0000 O   0  0  0  0  0  0  0  0  0  0  0  0
    8.3564   -6.2398    0.0000 O   0  0  0  0  0  0  0  0  0  0  0  0
    7.6207   -4.7395    0.0000 O   0  0  0  0  0  0  0  0  0  0  0  0
    8.6907   -4.2263    0.0000 C   0  0  0  0  0  0  0  0  0  0  0  0
    9.4078   -3.7973    0.0000 C   0  0  0  0  0  0  0  0  0  0  0  0
   10.1727   -4.1234    0.0000 C   0  0  0  0  0  0  0  0  0  0  0  0
   10.7220   -3.4939    0.0000 C   0  0  0  0  0  0  0  0  0  0  0  0
   10.2930   -2.7770    0.0000 C   0  0  0  0  0  0  0  0  0  0  0  0
    9.4786   -2.9635    0.0000 O   0  0  0  0  0  0  0  0  0  0  0  0
   10.6208   -2.0084    0.0000 N   0  0  0  0  0  0  0  0  0  0  0  0
   10.1602   -4.9544    0.0000 O   0  0  0  0  0  0  0  0  0  0  0  0
   11.4485   -1.9109    0.0000 C   0  0  0  0  0  0  0  0  0  0  0  0
   11.7767   -1.1465    0.0000 N   0  0  0  0  0  0  0  0  0  0  0  0
   11.2783   -0.4754    0.0000 C   0  0  0  0  0  0  0  0  0  0  0  0
   10.4477   -0.5738    0.0000 C   0  0  0  0  0  0  0  0  0  0  0  0
   10.1155   -1.3433    0.0000 C   0  0  0  0  0  0  0  0  0  0  0  0
    9.9484    0.0960    0.0000 C   0  0  0  0  0  0  0  0  0  0  0  0
   11.6091    0.2918    0.0000 O   0  0  0  0  0  0  0  0  0  0  0  0
   11.9483   -2.5803    0.0000 O   0  0  0  0  0  0  0  0  0  0  0  0
    7.2761   -5.9096    0.0000 O   0  0  0  0  0  0  0  0  0  0  0  0
    6.6300   -5.3948    0.0000 C   0  0  0  0  0  0  0  0  0  0  0  0
    6.6624   -4.5769    0.0000 C   0  0  0  0  0  0  0  0  0  0  0  0
    5.8460   -5.6086    0.0000 C   0  0  0  0  0  0  0  0  0  0  0  0
    5.8785   -4.2873    0.0000 C   0  0  0  0  0  0  0  0  0  0  0  0
    5.3759   -4.9228    0.0000 O   0  0  0  0  0  0  0  0  0  0  0  0
    5.5490   -6.3798    0.0000 C   0  0  0  0  0  0  0  0  0  0  0  0
    6.1813   -6.9126    0.0000 O   0  0  0  0  0  0  0  0  0  0  0  0
    5.6532   -3.4932    0.0000 N   0  0  0  0  0  0  0  0  0  0  0  0
    6.2231   -2.9008    0.0000 C   0  0  0  0  0  0  0  0  0  0  0  0
    5.9979   -2.1064    0.0000 N   0  0  0  0  0  0  0  0  0  0  0  0
    5.1934   -1.9162    0.0000 C   0  0  0  0  0  0  0  0  0  0  0  0
    4.6202   -2.5019    0.0000 C   0  0  0  0  0  0  0  0  0  0  0  0
    4.8456   -3.2963    0.0000 C   0  0  0  0  0  0  0  0  0  0  0  0
    7.0232   -3.1087    0.0000 O   0  0  0  0  0  0  0  0  0  0  0  0
    4.9675   -1.1110    0.0000 O   0  0  0  0  0  0  0  0  0  0  0  0
    3.8163   -2.3042    0.0000 C   0  0  0  0  0  0  0  0  0  0  0  0
    6.4315   -8.5454    0.0000 O   0  0  0  0  0  0  0  0  0  0  0  0
    6.3434   -7.7192    0.0000 P   0  0  0  0  0  0  0  0  0  0  0  0
    7.1573   -7.5960    0.0000 O   0  0  0  0  0  0  0  0  0  0  0  0
    5.5203   -7.8434    0.0000 O   0  0  0  0  0  0  0  0  0  0  0  0
    3.4759   -7.6199    0.0000 C   0  0  0  0  0  0  0  0  0  0  0  0
    2.8411   -7.0982    0.0000 N   0  0  0  0  0  0  0  0  0  0  0  0
    3.4353   -8.4547    0.0000 O   0  0  0  0  0  0  0  0  0  0  0  0
    4.2460   -7.3933    0.0000 C   0  0  0  0  0  0  0  0  0  0  0  0
    2.9650   -6.3031    0.0000 C   0  0  0  0  0  0  0  0  0  0  0  0
    2.0824   -7.3951    0.0000 C   0  0  0  0  0  0  0  0  0  0  0  0
    4.2265   -8.7336    0.0000 C   0  0  0  0  0  0  0  0  0  0  0  0
    4.7238   -8.0841    0.0000 C   0  0  0  0  0  0  0  0  0  0  0  0
    4.7655   -6.7301    0.0000 O   0  0  0  0  0  0  0  0  0  0  0  0
    2.3302   -5.7810    0.0000 N   0  0  0  0  0  0  0  0  0  0  0  0
    3.7373   -5.9992    0.0000 O   0  0  0  0  0  0  0  0  0  0  0  0
    1.4398   -6.8818    0.0000 C   0  0  0  0  0  0  0  0  0  0  0  0
    4.4570   -9.5265    0.0000 C   0  0  0  0  0  0  0  0  0  0  0  0
    1.5790   -6.0738    0.0000 C   0  0  0  0  0  0  0  0  0  0  0  0
    0.9322   -5.5490    0.0000 N   0  0  0  0  0  0  0  0  0  0  0  0
    3.8983  -10.1253    0.0000 O   0  0  0  0  0  0  0  0  0  0  0  0
    3.6654  -11.6227    0.0000 O   0  0  0  0  0  0  0  0  0  0  0  0
    4.0915  -10.9138    0.0000 P   0  0  0  0  0  0  0  0  0  0  0  0
    4.8117  -11.3221    0.0000 O   0  0  0  0  0  0  0  0  0  0  0  0
    3.3766  -10.5119    0.0000 O   0  0  0  0  0  0  0  0  0  0  0  0
    3.0053  -13.1323    0.0000 O   0  0  0  0  0  0  0  0  0  0  0  0
    2.2702  -12.7603    0.0000 C   0  0  0  0  0  0  0  0  0  0  0  0
    2.2209  -11.9245    0.0000 C   0  0  0  0  0  0  0  0  0  0  0  0
    2.8604  -11.4045    0.0000 C   0  0  0  0  0  0  0  0  0  0  0  0
    2.5603  -10.6359    0.0000 C   0  0  0  0  0  0  0  0  0  0  0  0
    3.0160   -9.9379    0.0000 O   0  0  0  0  0  0  0  0  0  0  0  0
    1.7273  -10.6888    0.0000 C   0  0  0  0  0  0  0  0  0  0  0  0
    1.5231  -11.4902    0.0000 O   0  0  0  0  0  0  0  0  0  0  0  0
    1.1743  -10.0709    0.0000 N   0  0  0  0  0  0  0  0  0  0  0  0
    1.4046   -9.2740    0.0000 C   0  0  0  0  0  0  0  0  0  0  0  0
    0.7061   -8.8164    0.0000 N   0  0  0  0  0  0  0  0  0  0  0  0
    0.0543   -9.3413    0.0000 C   0  0  0  0  0  0  0  0  0  0  0  0
   -0.7590   -9.2029    0.0000 C   0  0  0  0  0  0  0  0  0  0  0  0
   -1.0644   -8.4272    0.0000 N   0  0  0  0  0  0  0  0  0  0  0  0
   -1.2710   -9.8466    0.0000 N   0  0  0  0  0  0  0  0  0  0  0  0
   -0.9763  -10.6213    0.0000 C   0  0  0  0  0  0  0  0  0  0  0  0
   -0.1629  -10.7545    0.0000 N   0  0  0  0  0  0  0  0  0  0  0  0
    0.3660  -10.1066    0.0000 C   0  0  0  0  0  0  0  0  0  0  0  0
   -0.2525  -14.0893    0.0000 C   0  0  0  0  0  0  0  0  0  0  0  0
    0.0127  -14.8057    0.0000 N   0  0  0  0  0  0  0  0  0  0  0  0
   -1.1652  -14.0963    0.0000 C   0  0  0  0  0  0  0  0  0  0  0  0
    0.1515  -13.3575    0.0000 N   0  0  0  0  0  0  0  0  0  0  0  0
    0.7771  -15.0455    0.0000 C   0  0  0  0  0  0  0  0  0  0  0  0
   -0.7020  -15.3208    0.0000 C   0  0  0  0  0  0  0  0  0  0  0  0
   -1.4093  -14.8307    0.0000 N   0  0  0  0  0  0  0  0  0  0  0  0
   -1.5887  -13.4138    0.0000 C   0  0  0  0  0  0  0  0  0  0  0  0
   -0.2845  -12.6183    0.0000 C   0  0  0  0  0  0  0  0  0  0  0  0
    1.0408  -15.8366    0.0000 O   0  0  0  0  0  0  0  0  0  0  0  0
    1.4054  -14.5819    0.0000 C   0  0  0  0  0  0  0  0  0  0  0  0
   -1.1703  -12.6378    0.0000 N   0  0  0  0  0  0  0  0  0  0  0  0
   -2.4070  -13.4298    0.0000 O   0  0  0  0  0  0  0  0  0  0  0  0
    0.1187  -11.9159    0.0000 N   0  0  0  0  0  0  0  0  0  0  0  0
    1.8441  -15.8272    0.0000 C   0  0  0  0  0  0  0  0  0  0  0  0
    2.0783  -15.0579    0.0000 C   0  0  0  0  0  0  0  0  0  0  0  0
    1.3013  -13.7659    0.0000 O   0  0  0  0  0  0  0  0  0  0  0  0
    2.3372  -16.4755    0.0000 C   0  0  0  0  0  0  0  0  0  0  0  0
    1.8796  -17.1522    0.0000 O   0  0  0  0  0  0  0  0  0  0  0  0
    2.8582  -14.7882    0.0000 O   0  0  0  0  0  0  0  0  0  0  0  0
    2.4792  -18.7028    0.0000 O   0  0  0  0  0  0  0  0  0  0  0  0
    2.1731  -17.9230    0.0000 P   0  0  0  0  0  0  0  0  0  0  0  0
    2.9559  -17.6237    0.0000 O   0  0  0  0  0  0  0  0  0  0  0  0
    1.4032  -18.2295    0.0000 O   0  0  0  0  0  0  0  0  0  0  0  0
    1.6576  -18.7990    0.0000 C   0  0  0  0  0  0  0  0  0  0  0  0
    1.1033  -18.1967    0.0000 C   0  0  0  0  0  0  0  0  0  0  0  0
    1.2532  -19.5040    0.0000 C   0  0  0  0  0  0  0  0  0  0  0  0
    0.3437  -18.5450    0.0000 C   0  0  0  0  0  0  0  0  0  0  0  0
    0.4361  -19.3498    0.0000 O   0  0  0  0  0  0  0  0  0  0  0  0
    1.5871  -20.2599    0.0000 C   0  0  0  0  0  0  0  0  0  0  0  0
    2.4111  -20.1907    0.0000 O   0  0  0  0  0  0  0  0  0  0  0  0
   -0.3765  -18.1415    0.0000 N   0  0  0  0  0  0  0  0  0  0  0  0
   -0.3911  -17.3196    0.0000 C   0  0  0  0  0  0  0  0  0  0  0  0
   -1.1113  -16.9158    0.0000 N   0  0  0  0  0  0  0  0  0  0  0  0
   -1.8153  -17.3490    0.0000 C   0  0  0  0  0  0  0  0  0  0  0  0
   -1.8080  -18.1684    0.0000 C   0  0  0  0  0  0  0  0  0  0  0  0
   -1.0876  -18.5720    0.0000 C   0  0  0  0  0  0  0  0  0  0  0  0
   -2.5438  -16.9380    0.0000 O   0  0  0  0  0  0  0  0  0  0  0  0
   -2.5170  -18.5959    0.0000 C   0  0  0  0  0  0  0  0  0  0  0  0
    0.0959  -17.0414    0.0000 C   0  0  0  0  0  0  0  0  0  0  0  0
    3.5026  -28.4878    0.0000 O   0  0  0  0  0  0  0  0  0  0  0  0
    0.6546  -30.6636    0.0000 C   0  0  0  0  0  0  0  0  0  0  0  0
    1.1758  -31.2223    0.0000 N   0  0  0  0  0  0  0  0  0  0  0  0
   -0.1845  -31.0225    0.0000 C   0  0  0  0  0  0  0  0  0  0  0  0
    0.7449  -29.8328    0.0000 N   0  0  0  0  0  0  0  0  0  0  0  0
    1.9737  -31.1485    0.0000 C   0  0  0  0  0  0  0  0  0  0  0  0
    0.7155  -31.9733    0.0000 C   0  0  0  0  0  0  0  0  0  0  0  0
   -0.1263  -31.7941    0.0000 N   0  0  0  0  0  0  0  0  0  0  0  0
   -0.8387  -30.5562    0.0000 C   0  0  0  0  0  0  0  0  0  0  0  0
    0.0575  -29.3190    0.0000 C   0  0  0  0  0  0  0  0  0  0  0  0
    2.5222  -31.7766    0.0000 O   0  0  0  0  0  0  0  0  0  0  0  0
    2.3743  -30.4784    0.0000 C   0  0  0  0  0  0  0  0  0  0  0  0
   -0.7524  -29.6788    0.0000 N   0  0  0  0  0  0  0  0  0  0  0  0
   -1.5872  -30.8868    0.0000 O   0  0  0  0  0  0  0  0  0  0  0  0
    0.1583  -28.5154    0.0000 N   0  0  0  0  0  0  0  0  0  0  0  0
    3.2596  -31.4578    0.0000 C   0  0  0  0  0  0  0  0  0  0  0  0
    3.1788  -30.6577    0.0000 C   0  0  0  0  0  0  0  0  0  0  0  0
    1.9632  -29.7657    0.0000 O   0  0  0  0  0  0  0  0  0  0  0  0
    3.9649  -31.8655    0.0000 C   0  0  0  0  0  0  0  0  0  0  0  0
    3.8039  -32.6663    0.0000 O   0  0  0  0  0  0  0  0  0  0  0  0
    3.7942  -30.1078    0.0000 O   0  0  0  0  0  0  0  0  0  0  0  0
    3.6268  -29.2991    0.0000 P   0  0  0  0  0  0  0  0  0  0  0  0
    2.8098  -29.4456    0.0000 O   0  0  0  0  0  0  0  0  0  0  0  0
    4.4395  -29.1558    0.0000 O   0  0  0  0  0  0  0  0  0  0  0  0
    1.1861  -35.2608    0.0000 C   0  0  0  0  0  0  0  0  0  0  0  0
    1.7832  -35.7372    0.0000 N   0  0  0  0  0  0  0  0  0  0  0  0
    0.4083  -35.7382    0.0000 C   0  0  0  0  0  0  0  0  0  0  0  0
    1.1543  -34.4255    0.0000 N   0  0  0  0  0  0  0  0  0  0  0  0
    2.5618  -35.5479    0.0000 C   0  0  0  0  0  0  0  0  0  0  0  0
    1.4374  -36.5474    0.0000 C   0  0  0  0  0  0  0  0  0  0  0  0
    0.5784  -36.4930    0.0000 N   0  0  0  0  0  0  0  0  0  0  0  0
   -0.3068  -35.3722    0.0000 C   0  0  0  0  0  0  0  0  0  0  0  0
    0.3993  -34.0175    0.0000 C   0  0  0  0  0  0  0  0  0  0  0  0
    3.1961  -36.0892    0.0000 O   0  0  0  0  0  0  0  0  0  0  0  0
    2.8604  -34.8264    0.0000 C   0  0  0  0  0  0  0  0  0  0  0  0
   -0.3495  -34.4918    0.0000 N   0  0  0  0  0  0  0  0  0  0  0  0
   -0.9993  -35.8086    0.0000 O   0  0  0  0  0  0  0  0  0  0  0  0
    0.3818  -33.2079    0.0000 N   0  0  0  0  0  0  0  0  0  0  0  0
    3.8792  -35.6664    0.0000 C   0  0  0  0  0  0  0  0  0  0  0  0
    3.6825  -34.8866    0.0000 C   0  0  0  0  0  0  0  0  0  0  0  0
    2.3497  -34.1814    0.0000 O   0  0  0  0  0  0  0  0  0  0  0  0
    4.6362  -35.9668    0.0000 C   0  0  0  0  0  0  0  0  0  0  0  0
    4.5939  -36.7825    0.0000 O   0  0  0  0  0  0  0  0  0  0  0  0
    4.2111  -34.2528    0.0000 O   0  0  0  0  0  0  0  0  0  0  0  0
    5.6826  -38.0383    0.0000 O   0  0  0  0  0  0  0  0  0  0  0  0
    5.1303  -37.4084    0.0000 P   0  0  0  0  0  0  0  0  0  0  0  0
    5.7654  -36.8615    0.0000 O   0  0  0  0  0  0  0  0  0  0  0  0
    4.5098  -37.9575    0.0000 O   0  0  0  0  0  0  0  0  0  0  0  0
    3.9276  -33.4772    0.0000 P   0  0  0  0  0  0  0  0  0  0  0  0
    3.1406  -33.7414    0.0000 O   0  0  0  0  0  0  0  0  0  0  0  0
    4.7105  -33.2169    0.0000 O   0  0  0  0  0  0  0  0  0  0  0  0
   -0.4367  -22.3691    0.0000 C   0  0  0  0  0  0  0  0  0  0  0  0
    0.0845  -22.9276    0.0000 N   0  0  0  0  0  0  0  0  0  0  0  0
   -1.2759  -22.7278    0.0000 C   0  0  0  0  0  0  0  0  0  0  0  0
   -0.3465  -21.5381    0.0000 N   0  0  0  0  0  0  0  0  0  0  0  0
    0.8822  -22.8538    0.0000 C   0  0  0  0  0  0  0  0  0  0  0  0
   -0.3760  -23.6786    0.0000 C   0  0  0  0  0  0  0  0  0  0  0  0
   -1.2178  -23.4994    0.0000 N   0  0  0  0  0  0  0  0  0  0  0  0
   -1.9301  -22.2615    0.0000 C   0  0  0  0  0  0  0  0  0  0  0  0
   -1.0338  -21.0243    0.0000 C   0  0  0  0  0  0  0  0  0  0  0  0
    1.4308  -23.4819    0.0000 O   0  0  0  0  0  0  0  0  0  0  0  0
    1.2830  -22.1836    0.0000 C   0  0  0  0  0  0  0  0  0  0  0  0
   -1.8437  -21.3841    0.0000 N   0  0  0  0  0  0  0  0  0  0  0  0
   -2.6787  -22.5921    0.0000 O   0  0  0  0  0  0  0  0  0  0  0  0
   -0.9330  -20.2207    0.0000 N   0  0  0  0  0  0  0  0  0  0  0  0
    2.1683  -23.1633    0.0000 C   0  0  0  0  0  0  0  0  0  0  0  0
    2.0875  -22.3630    0.0000 C   0  0  0  0  0  0  0  0  0  0  0  0
    0.8719  -21.4710    0.0000 O   0  0  0  0  0  0  0  0  0  0  0  0
    2.8734  -23.5709    0.0000 C   0  0  0  0  0  0  0  0  0  0  0  0
    2.7125  -24.3718    0.0000 O   0  0  0  0  0  0  0  0  0  0  0  0
    2.7027  -21.8131    0.0000 O   0  0  0  0  0  0  0  0  0  0  0  0
    2.5355  -21.0046    0.0000 P   0  0  0  0  0  0  0  0  0  0  0  0
    1.7183  -21.1510    0.0000 O   0  0  0  0  0  0  0  0  0  0  0  0
    3.3481  -20.8613    0.0000 O   0  0  0  0  0  0  0  0  0  0  0  0
    0.0948  -26.9661    0.0000 C   0  0  0  0  0  0  0  0  0  0  0  0
    0.6920  -27.4425    0.0000 N   0  0  0  0  0  0  0  0  0  0  0  0
   -0.6830  -27.4434    0.0000 C   0  0  0  0  0  0  0  0  0  0  0  0
    0.0628  -26.1308    0.0000 N   0  0  0  0  0  0  0  0  0  0  0  0
    1.4703  -27.2532    0.0000 C   0  0  0  0  0  0  0  0  0  0  0  0
    0.3459  -28.2527    0.0000 C   0  0  0  0  0  0  0  0  0  0  0  0
   -0.5130  -28.1983    0.0000 N   0  0  0  0  0  0  0  0  0  0  0  0
   -1.3983  -27.0775    0.0000 C   0  0  0  0  0  0  0  0  0  0  0  0
   -0.6922  -25.7230    0.0000 C   0  0  0  0  0  0  0  0  0  0  0  0
    2.1046  -27.7946    0.0000 O   0  0  0  0  0  0  0  0  0  0  0  0
    1.7691  -26.5317    0.0000 C   0  0  0  0  0  0  0  0  0  0  0  0
   -1.4408  -26.1971    0.0000 N   0  0  0  0  0  0  0  0  0  0  0  0
   -2.0907  -27.5139    0.0000 O   0  0  0  0  0  0  0  0  0  0  0  0
   -0.7097  -24.9132    0.0000 N   0  0  0  0  0  0  0  0  0  0  0  0
    2.7877  -27.3717    0.0000 C   0  0  0  0  0  0  0  0  0  0  0  0
    2.5910  -26.5919    0.0000 C   0  0  0  0  0  0  0  0  0  0  0  0
    1.2582  -25.8867    0.0000 O   0  0  0  0  0  0  0  0  0  0  0  0
    3.5449  -27.6721    0.0000 C   0  0  0  0  0  0  0  0  0  0  0  0
    3.1196  -25.9581    0.0000 O   0  0  0  0  0  0  0  0  0  0  0  0
    2.8361  -25.1825    0.0000 P   0  0  0  0  0  0  0  0  0  0  0  0
    2.0491  -25.4467    0.0000 O   0  0  0  0  0  0  0  0  0  0  0  0
    3.6191  -24.9222    0.0000 O   0  0  0  0  0  0  0  0  0  0  0  0
    4.9716  -38.4583    0.0000 C   0  0  0  0  0  0  0  0  0  0  0  0
    4.2221  -38.1292    0.0000 C   0  0  0  0  0  0  0  0  0  0  0  0
    4.8840  -39.2663    0.0000 C   0  0  0  0  0  0  0  0  0  0  0  0
    3.6661  -38.7530    0.0000 C   0  0  0  0  0  0  0  0  0  0  0  0
    4.0738  -39.4532    0.0000 O   0  0  0  0  0  0  0  0  0  0  0  0
    5.4933  -39.8246    0.0000 C   0  0  0  0  0  0  0  0  0  0  0  0
    6.2203  -39.4306    0.0000 O   0  0  0  0  0  0  0  0  0  0  0  0
    2.8446  -38.6726    0.0000 N   0  0  0  0  0  0  0  0  0  0  0  0
    2.5013  -37.9255    0.0000 C   0  0  0  0  0  0  0  0  0  0  0  0
    1.6797  -37.8449    0.0000 N   0  0  0  0  0  0  0  0  0  0  0  0
    1.2085  -38.5241    0.0000 C   0  0  0  0  0  0  0  0  0  0  0  0
    1.5443  -39.2718    0.0000 C   0  0  0  0  0  0  0  0  0  0  0  0
    2.3661  -39.3524    0.0000 C   0  0  0  0  0  0  0  0  0  0  0  0
    2.9873  -37.2568    0.0000 O   0  0  0  0  0  0  0  0  0  0  0  0
    0.3764  -38.4401    0.0000 O   0  0  0  0  0  0  0  0  0  0  0  0
    1.0665  -39.9479    0.0000 C   0  0  0  0  0  0  0  0  0  0  0  0
    7.3427  -40.6348    0.0000 O   0  0  0  0  0  0  0  0  0  0  0  0
    6.7642  -40.0454    0.0000 P   0  0  0  0  0  0  0  0  0  0  0  0
    6.1565  -40.6109    0.0000 O   0  0  0  0  0  0  0  0  0  0  0  0
    7.3698  -39.4850    0.0000 O   0  0  0  0  0  0  0  0  0  0  0  0
    6.7802  -41.2399    0.0000 C   0  0  0  0  0  0  0  0  0  0  0  0
    5.9670  -41.1453    0.0000 C   0  0  0  0  0  0  0  0  0  0  0  0
    6.9338  -42.0379    0.0000 C   0  0  0  0  0  0  0  0  0  0  0  0
    5.6188  -41.9049    0.0000 C   0  0  0  0  0  0  0  0  0  0  0  0
    6.2141  -42.4544    0.0000 O   0  0  0  0  0  0  0  0  0  0  0  0
    7.6801  -42.3928    0.0000 C   0  0  0  0  0  0  0  0  0  0  0  0
    8.2594  -41.8026    0.0000 O   0  0  0  0  0  0  0  0  0  0  0  0
    4.8099  -42.0692    0.0000 N   0  0  0  0  0  0  0  0  0  0  0  0
    4.2624  -41.4560    0.0000 C   0  0  0  0  0  0  0  0  0  0  0  0
    3.4533  -41.6201    0.0000 N   0  0  0  0  0  0  0  0  0  0  0  0
    3.2025  -42.4079    0.0000 C   0  0  0  0  0  0  0  0  0  0  0  0
    3.7429  -43.0240    0.0000 C   0  0  0  0  0  0  0  0  0  0  0  0
    4.5519  -42.8595    0.0000 C   0  0  0  0  0  0  0  0  0  0  0  0
    4.5306  -40.6740    0.0000 O   0  0  0  0  0  0  0  0  0  0  0  0
    2.3822  -42.5718    0.0000 O   0  0  0  0  0  0  0  0  0  0  0  0
    3.4848  -43.8106    0.0000 C   0  0  0  0  0  0  0  0  0  0  0  0
    9.6859  -42.6240    0.0000 O   0  0  0  0  0  0  0  0  0  0  0  0
    8.9598  -42.2305    0.0000 P   0  0  0  0  0  0  0  0  0  0  0  0
    8.5450  -42.9497    0.0000 O   0  0  0  0  0  0  0  0  0  0  0  0
    9.3741  -41.5171    0.0000 O   0  0  0  0  0  0  0  0  0  0  0  0
    8.2721  -45.4818    0.0000 C   0  0  0  0  0  0  0  0  0  0  0  0
    9.0310  -45.3933    0.0000 N   0  0  0  0  0  0  0  0  0  0  0  0
    8.0637  -46.3703    0.0000 C   0  0  0  0  0  0  0  0  0  0  0  0
    7.6566  -44.9164    0.0000 N   0  0  0  0  0  0  0  0  0  0  0  0
    9.4445  -44.7071    0.0000 C   0  0  0  0  0  0  0  0  0  0  0  0
    9.3629  -46.2092    0.0000 C   0  0  0  0  0  0  0  0  0  0  0  0
    8.7195  -46.7810    0.0000 N   0  0  0  0  0  0  0  0  0  0  0  0
    7.3002  -46.6207    0.0000 C   0  0  0  0  0  0  0  0  0  0  0  0
    6.8353  -45.1655    0.0000 C   0  0  0  0  0  0  0  0  0  0  0  0
   10.2755  -44.6377    0.0000 O   0  0  0  0  0  0  0  0  0  0  0  0
    9.1425  -43.9870    0.0000 C   0  0  0  0  0  0  0  0  0  0  0  0
    6.6449  -46.0311    0.0000 N   0  0  0  0  0  0  0  0  0  0  0  0
    7.1227  -47.4195    0.0000 O   0  0  0  0  0  0  0  0  0  0  0  0
    6.2479  -44.6079    0.0000 N   0  0  0  0  0  0  0  0  0  0  0  0
   10.4562  -43.8548    0.0000 C   0  0  0  0  0  0  0  0  0  0  0  0
    9.7639  -43.4454    0.0000 C   0  0  0  0  0  0  0  0  0  0  0  0
    8.3247  -43.8956    0.0000 O   0  0  0  0  0  0  0  0  0  0  0  0
   11.2025  -43.5286    0.0000 C   0  0  0  0  0  0  0  0  0  0  0  0
   11.7520  -44.1329    0.0000 O   0  0  0  0  0  0  0  0  0  0  0  0
   12.2894  -47.7792    0.0000 C   0  0  0  0  0  0  0  0  0  0  0  0
   13.0271  -47.5808    0.0000 N   0  0  0  0  0  0  0  0  0  0  0  0
   12.2127  -48.6885    0.0000 C   0  0  0  0  0  0  0  0  0  0  0  0
   11.5979  -47.3097    0.0000 N   0  0  0  0  0  0  0  0  0  0  0  0
   13.3362  -46.8417    0.0000 C   0  0  0  0  0  0  0  0  0  0  0  0
   13.4745  -48.3397    0.0000 C   0  0  0  0  0  0  0  0  0  0  0  0
   12.9215  -48.9990    0.0000 N   0  0  0  0  0  0  0  0  0  0  0  0
   11.4941  -49.0476    0.0000 C   0  0  0  0  0  0  0  0  0  0  0  0
   10.8217  -47.6760    0.0000 C   0  0  0  0  0  0  0  0  0  0  0  0
   14.1482  -46.6516    0.0000 O   0  0  0  0  0  0  0  0  0  0  0  0
   12.9322  -46.1733    0.0000 C   0  0  0  0  0  0  0  0  0  0  0  0
   10.7597  -48.5599    0.0000 N   0  0  0  0  0  0  0  0  0  0  0  0
   11.4349  -49.8639    0.0000 O   0  0  0  0  0  0  0  0  0  0  0  0
   10.1593  -47.2100    0.0000 N   0  0  0  0  0  0  0  0  0  0  0  0
   14.2126  -45.8510    0.0000 C   0  0  0  0  0  0  0  0  0  0  0  0
   13.4679  -45.5469    0.0000 C   0  0  0  0  0  0  0  0  0  0  0  0
   12.1100  -46.2024    0.0000 O   0  0  0  0  0  0  0  0  0  0  0  0
   14.9034  -45.4192    0.0000 C   0  0  0  0  0  0  0  0  0  0  0  0
   15.5351  -45.9371    0.0000 O   0  0  0  0  0  0  0  0  0  0  0  0
   13.2709  -44.7457    0.0000 O   0  0  0  0  0  0  0  0  0  0  0  0
   16.9261  -45.0261    0.0000 O   0  0  0  0  0  0  0  0  0  0  0  0
   16.2274  -45.4884    0.0000 P   0  0  0  0  0  0  0  0  0  0  0  0
   15.7712  -44.7853    0.0000 O   0  0  0  0  0  0  0  0  0  0  0  0
   16.6879  -46.1774    0.0000 O   0  0  0  0  0  0  0  0  0  0  0  0
   12.4783  -44.5141    0.0000 P   0  0  0  0  0  0  0  0  0  0  0  0
   12.2245  -45.3044    0.0000 O   0  0  0  0  0  0  0  0  0  0  0  0
   12.7328  -43.7293    0.0000 O   0  0  0  0  0  0  0  0  0  0  0  0
   18.4972  -44.5123    0.0000 O   0  0  0  0  0  0  0  0  0  0  0  0
   18.7066  -45.3092    0.0000 C   0  0  0  0  0  0  0  0  0  0  0  0
   18.1138  -45.9007    0.0000 C   0  0  0  0  0  0  0  0  0  0  0  0
   17.3005  -45.7671    0.0000 C   0  0  0  0  0  0  0  0  0  0  0  0
   16.9245  -46.5015    0.0000 C   0  0  0  0  0  0  0  0  0  0  0  0
   16.0999  -46.6237    0.0000 O   0  0  0  0  0  0  0  0  0  0  0  0
   17.5167  -47.0896    0.0000 C   0  0  0  0  0  0  0  0  0  0  0  0
   18.2520  -46.7109    0.0000 O   0  0  0  0  0  0  0  0  0  0  0  0
   17.4212  -47.9135    0.0000 N   0  0  0  0  0  0  0  0  0  0  0  0
   16.6721  -48.2698    0.0000 C   0  0  0  0  0  0  0  0  0  0  0  0
   16.7931  -49.0960    0.0000 N   0  0  0  0  0  0  0  0  0  0  0  0
   17.6184  -49.2356    0.0000 C   0  0  0  0  0  0  0  0  0  0  0  0
   18.0544  -49.9358    0.0000 C   0  0  0  0  0  0  0  0  0  0  0  0
   17.6767  -50.6790    0.0000 N   0  0  0  0  0  0  0  0  0  0  0  0
   18.8756  -49.8918    0.0000 N   0  0  0  0  0  0  0  0  0  0  0  0
   19.2599  -49.1574    0.0000 C   0  0  0  0  0  0  0  0  0  0  0  0
   18.8201  -48.4606    0.0000 N   0  0  0  0  0  0  0  0  0  0  0  0
   17.9843  -48.4944    0.0000 C   0  0  0  0  0  0  0  0  0  0  0  0
   19.3657  -43.1106    0.0000 O   0  0  0  0  0  0  0  0  0  0  0  0
   18.8938  -43.7946    0.0000 P   0  0  0  0  0  0  0  0  0  0  0  0
   18.1964  -43.3575    0.0000 O   0  0  0  0  0  0  0  0  0  0  0  0
   19.5990  -44.2371    0.0000 O   0  0  0  0  0  0  0  0  0  0  0  0
   20.6393  -45.8777    0.0000 C   0  0  0  0  0  0  0  0  0  0  0  0
   20.5413  -46.6936    0.0000 N   0  0  0  0  0  0  0  0  0  0  0  0
   21.3649  -45.4626    0.0000 O   0  0  0  0  0  0  0  0  0  0  0  0
   20.0339  -45.3504    0.0000 C   0  0  0  0  0  0  0  0  0  0  0  0
   19.8043  -47.0168    0.0000 C   0  0  0  0  0  0  0  0  0  0  0  0
   21.1997  -47.1730    0.0000 C   0  0  0  0  0  0  0  0  0  0  0  0
   21.1743  -44.6455    0.0000 C   0  0  0  0  0  0  0  0  0  0  0  0
   20.3591  -44.5759    0.0000 C   0  0  0  0  0  0  0  0  0  0  0  0
   19.1952  -45.2695    0.0000 O   0  0  0  0  0  0  0  0  0  0  0  0
   19.7059  -47.8327    0.0000 N   0  0  0  0  0  0  0  0  0  0  0  0
   19.1326  -46.5295    0.0000 O   0  0  0  0  0  0  0  0  0  0  0  0
   21.1128  -47.9909    0.0000 C   0  0  0  0  0  0  0  0  0  0  0  0
   21.7186  -44.0248    0.0000 C   0  0  0  0  0  0  0  0  0  0  0  0
   20.3567  -48.3084    0.0000 C   0  0  0  0  0  0  0  0  0  0  0  0
   20.2625  -49.1359    0.0000 N   0  0  0  0  0  0  0  0  0  0  0  0
   22.5213  -44.1741    0.0000 O   0  0  0  0  0  0  0  0  0  0  0  0
   24.0210  -44.3910    0.0000 O   0  0  0  0  0  0  0  0  0  0  0  0
   23.3076  -43.9725    0.0000 P   0  0  0  0  0  0  0  0  0  0  0  0
   23.7081  -43.2479    0.0000 O   0  0  0  0  0  0  0  0  0  0  0  0
   22.9133  -44.6916    0.0000 O   0  0  0  0  0  0  0  0  0  0  0  0
   24.3963  -47.5566    0.0000 C   0  0  0  0  0  0  0  0  0  0  0  0
   24.9936  -47.0711    0.0000 N   0  0  0  0  0  0  0  0  0  0  0  0
   24.7101  -48.4153    0.0000 C   0  0  0  0  0  0  0  0  0  0  0  0
   23.5773  -47.4245    0.0000 N   0  0  0  0  0  0  0  0  0  0  0  0
   24.9642  -46.2749    0.0000 C   0  0  0  0  0  0  0  0  0  0  0  0
   25.7137  -47.5707    0.0000 C   0  0  0  0  0  0  0  0  0  0  0  0
   25.4839  -48.3982    0.0000 N   0  0  0  0  0  0  0  0  0  0  0  0
   24.2059  -49.0458    0.0000 C   0  0  0  0  0  0  0  0  0  0  0  0
   23.0283  -48.0834    0.0000 C   0  0  0  0  0  0  0  0  0  0  0  0
   25.6165  -45.7634    0.0000 O   0  0  0  0  0  0  0  0  0  0  0  0
   24.3166  -45.8322    0.0000 C   0  0  0  0  0  0  0  0  0  0  0  0
   23.3322  -48.9045    0.0000 N   0  0  0  0  0  0  0  0  0  0  0  0
   24.4971  -49.8102    0.0000 O   0  0  0  0  0  0  0  0  0  0  0  0
   22.2295  -47.9407    0.0000 N   0  0  0  0  0  0  0  0  0  0  0  0
   25.3489  -45.0007    0.0000 C   0  0  0  0  0  0  0  0  0  0  0  0
   24.5320  -45.0362    0.0000 C   0  0  0  0  0  0  0  0  0  0  0  0
   23.5751  -46.2011    0.0000 O   0  0  0  0  0  0  0  0  0  0  0  0
   25.7845  -44.3257    0.0000 C   0  0  0  0  0  0  0  0  0  0  0  0
   26.5811  -44.5228    0.0000 O   0  0  0  0  0  0  0  0  0  0  0  0
   27.8607  -43.4721    0.0000 O   0  0  0  0  0  0  0  0  0  0  0  0
   27.2158  -44.0005    0.0000 P   0  0  0  0  0  0  0  0  0  0  0  0
   26.6839  -43.3625    0.0000 O   0  0  0  0  0  0  0  0  0  0  0  0
   27.7520  -44.6372    0.0000 O   0  0  0  0  0  0  0  0  0  0  0  0
   28.5865  -46.5733    0.0000 C   0  0  0  0  0  0  0  0  0  0  0  0
   29.1215  -46.0221    0.0000 N   0  0  0  0  0  0  0  0  0  0  0  0
   29.0048  -47.3858    0.0000 C   0  0  0  0  0  0  0  0  0  0  0  0
   27.7623  -46.5247    0.0000 N   0  0  0  0  0  0  0  0  0  0  0  0
   28.9960  -45.2358    0.0000 C   0  0  0  0  0  0  0  0  0  0  0  0
   29.8956  -46.4371    0.0000 C   0  0  0  0  0  0  0  0  0  0  0  0
   29.7617  -47.2826    0.0000 N   0  0  0  0  0  0  0  0  0  0  0  0
   28.5690  -48.0731    0.0000 C   0  0  0  0  0  0  0  0  0  0  0  0
   27.2800  -47.2460    0.0000 C   0  0  0  0  0  0  0  0  0  0  0  0
   29.5968  -44.6458    0.0000 O   0  0  0  0  0  0  0  0  0  0  0  0
   28.3105  -44.8659    0.0000 C   0  0  0  0  0  0  0  0  0  0  0  0
   27.6852  -48.0393    0.0000 N   0  0  0  0  0  0  0  0  0  0  0  0
   28.9311  -48.7994    0.0000 O   0  0  0  0  0  0  0  0  0  0  0  0
   26.4692  -47.1971    0.0000 N   0  0  0  0  0  0  0  0  0  0  0  0
   29.2401  -43.9278    0.0000 C   0  0  0  0  0  0  0  0  0  0  0  0
   28.4373  -44.0538    0.0000 C   0  0  0  0  0  0  0  0  0  0  0  0
   27.6170  -45.3147    0.0000 O   0  0  0  0  0  0  0  0  0  0  0  0
   29.6024  -43.2006    0.0000 C   0  0  0  0  0  0  0  0  0  0  0  0
   30.4159  -43.3128    0.0000 O   0  0  0  0  0  0  0  0  0  0  0  0
   31.9621  -42.7432    0.0000 O   0  0  0  0  0  0  0  0  0  0  0  0
   31.1893  -43.0317    0.0000 P   0  0  0  0  0  0  0  0  0  0  0  0
   30.9032  -42.2515    0.0000 O   0  0  0  0  0  0  0  0  0  0  0  0
   31.4781  -43.8038    0.0000 O   0  0  0  0  0  0  0  0  0  0  0  0
   32.7394  -45.8385    0.0000 C   0  0  0  0  0  0  0  0  0  0  0  0
   33.2646  -45.2779    0.0000 N   0  0  0  0  0  0  0  0  0  0  0  0
   33.1546  -46.6450    0.0000 C   0  0  0  0  0  0  0  0  0  0  0  0
   31.9001  -45.7986    0.0000 N   0  0  0  0  0  0  0  0  0  0  0  0
   33.1281  -44.4867    0.0000 C   0  0  0  0  0  0  0  0  0  0  0  0
   34.0430  -45.6865    0.0000 C   0  0  0  0  0  0  0  0  0  0  0  0
   33.9098  -46.5284    0.0000 N   0  0  0  0  0  0  0  0  0  0  0  0
   32.7269  -47.3297    0.0000 C   0  0  0  0  0  0  0  0  0  0  0  0
   31.4404  -46.5240    0.0000 C   0  0  0  0  0  0  0  0  0  0  0  0
   33.7159  -43.8936    0.0000 O   0  0  0  0  0  0  0  0  0  0  0  0
   32.4334  -44.1361    0.0000 C   0  0  0  0  0  0  0  0  0  0  0  0
   31.8523  -47.3071    0.0000 N   0  0  0  0  0  0  0  0  0  0  0  0
   33.1056  -48.0595    0.0000 O   0  0  0  0  0  0  0  0  0  0  0  0
   30.6247  -46.4792    0.0000 N   0  0  0  0  0  0  0  0  0  0  0  0
   33.3536  -43.1848    0.0000 C   0  0  0  0  0  0  0  0  0  0  0  0
   32.5602  -43.3275    0.0000 C   0  0  0  0  0  0  0  0  0  0  0  0
   31.7507  -44.5899    0.0000 O   0  0  0  0  0  0  0  0  0  0  0  0
   33.7173  -42.4570    0.0000 C   0  0  0  0  0  0  0  0  0  0  0  0
   34.5180  -42.5554    0.0000 O   0  0  0  0  0  0  0  0  0  0  0  0
   35.2270  -41.0611    0.0000 O   0  0  0  0  0  0  0  0  0  0  0  0
   34.8776  -41.8050    0.0000 P   0  0  0  0  0  0  0  0  0  0  0  0
   34.1230  -41.4599    0.0000 O   0  0  0  0  0  0  0  0  0  0  0  0
   35.6295  -42.1536    0.0000 O   0  0  0  0  0  0  0  0  0  0  0  0
   36.6111  -39.8873    0.0000 C   0  0  0  0  0  0  0  0  0  0  0  0
   36.6693  -40.7156    0.0000 C   0  0  0  0  0  0  0  0  0  0  0  0
   36.0237  -41.2520    0.0000 C   0  0  0  0  0  0  0  0  0  0  0  0
   36.3446  -42.0134    0.0000 C   0  0  0  0  0  0  0  0  0  0  0  0
   35.8920  -42.7217    0.0000 O   0  0  0  0  0  0  0  0  0  0  0  0
   37.1741  -41.9561    0.0000 C   0  0  0  0  0  0  0  0  0  0  0  0
   37.3687  -41.1481    0.0000 O   0  0  0  0  0  0  0  0  0  0  0  0
   37.7422  -42.5582    0.0000 N   0  0  0  0  0  0  0  0  0  0  0  0
   37.5231  -43.3562    0.0000 C   0  0  0  0  0  0  0  0  0  0  0  0
   38.2319  -43.8049    0.0000 N   0  0  0  0  0  0  0  0  0  0  0  0
   38.8684  -43.2802    0.0000 C   0  0  0  0  0  0  0  0  0  0  0  0
   39.6815  -43.4031    0.0000 C   0  0  0  0  0  0  0  0  0  0  0  0
   39.9908  -44.1784    0.0000 N   0  0  0  0  0  0  0  0  0  0  0  0
   40.1869  -42.7512    0.0000 N   0  0  0  0  0  0  0  0  0  0  0  0
   39.8841  -41.9809    0.0000 C   0  0  0  0  0  0  0  0  0  0  0  0
   39.0708  -41.8720    0.0000 N   0  0  0  0  0  0  0  0  0  0  0  0
   38.5500  -42.5168    0.0000 C   0  0  0  0  0  0  0  0  0  0  0  0
   35.8664  -39.5288    0.0000 O   0  0  0  0  0  0  0  0  0  0  0  0
   36.6982  -38.0981    0.0000 O   0  0  0  0  0  0  0  0  0  0  0  0
   37.5163  -38.1628    0.0000 C   0  0  0  0  0  0  0  0  0  0  0  0
   37.9469  -38.8632    0.0000 C   0  0  0  0  0  0  0  0  0  0  0  0
   38.0463  -37.5432    0.0000 C   0  0  0  0  0  0  0  0  0  0  0  0
   38.7604  -38.6527    0.0000 C   0  0  0  0  0  0  0  0  0  0  0  0
   38.8182  -37.8503    0.0000 O   0  0  0  0  0  0  0  0  0  0  0  0
   37.8551  -36.7411    0.0000 C   0  0  0  0  0  0  0  0  0  0  0  0
   37.0370  -36.6606    0.0000 O   0  0  0  0  0  0  0  0  0  0  0  0
   39.3946  -39.1859    0.0000 N   0  0  0  0  0  0  0  0  0  0  0  0
   39.2485  -39.9959    0.0000 C   0  0  0  0  0  0  0  0  0  0  0  0
   39.8826  -40.5292    0.0000 N   0  0  0  0  0  0  0  0  0  0  0  0
   40.6582  -40.2352    0.0000 C   0  0  0  0  0  0  0  0  0  0  0  0
   40.8014  -39.4318    0.0000 C   0  0  0  0  0  0  0  0  0  0  0  0
   40.1670  -38.8987    0.0000 C   0  0  0  0  0  0  0  0  0  0  0  0
   38.4721  -40.2762    0.0000 O   0  0  0  0  0  0  0  0  0  0  0  0
   41.2960  -40.7678    0.0000 O   0  0  0  0  0  0  0  0  0  0  0  0
   41.5806  -39.1443    0.0000 C   0  0  0  0  0  0  0  0  0  0  0  0
   36.7973  -35.0332    0.0000 O   0  0  0  0  0  0  0  0  0  0  0  0
   36.9338  -35.8423    0.0000 P   0  0  0  0  0  0  0  0  0  0  0  0
   37.7508  -35.7198    0.0000 O   0  0  0  0  0  0  0  0  0  0  0  0
   36.1203  -35.9615    0.0000 O   0  0  0  0  0  0  0  0  0  0  0  0
   39.9488  -34.5727    0.0000 C   0  0  0  0  0  0  0  0  0  0  0  0
   39.4409  -33.9897    0.0000 N   0  0  0  0  0  0  0  0  0  0  0  0
   40.7977  -34.2322    0.0000 C   0  0  0  0  0  0  0  0  0  0  0  0
   39.8379  -35.3916    0.0000 N   0  0  0  0  0  0  0  0  0  0  0  0
   38.6451  -34.0365    0.0000 C   0  0  0  0  0  0  0  0  0  0  0  0
   39.9235  -33.2544    0.0000 C   0  0  0  0  0  0  0  0  0  0  0  0
   40.7546  -33.4625    0.0000 N   0  0  0  0  0  0  0  0  0  0  0  0
   41.4368  -34.7201    0.0000 C   0  0  0  0  0  0  0  0  0  0  0  0
   40.4976  -35.9271    0.0000 C   0  0  0  0  0  0  0  0  0  0  0  0
   38.1086  -33.3996    0.0000 O   0  0  0  0  0  0  0  0  0  0  0  0
   38.2162  -34.6969    0.0000 C   0  0  0  0  0  0  0  0  0  0  0  0
   41.3262  -35.5963    0.0000 N   0  0  0  0  0  0  0  0  0  0  0  0
   42.1898  -34.4134    0.0000 O   0  0  0  0  0  0  0  0  0  0  0  0
   40.3825  -36.7288    0.0000 N   0  0  0  0  0  0  0  0  0  0  0  0
   37.3610  -33.6926    0.0000 C   0  0  0  0  0  0  0  0  0  0  0  0
   37.4270  -34.4973    0.0000 C   0  0  0  0  0  0  0  0  0  0  0  0
   38.6140  -35.4293    0.0000 O   0  0  0  0  0  0  0  0  0  0  0  0
   36.6759  -33.2651    0.0000 C   0  0  0  0  0  0  0  0  0  0  0  0
   36.8558  -32.4724    0.0000 O   0  0  0  0  0  0  0  0  0  0  0  0
   36.7613  -30.8277    0.0000 O   0  0  0  0  0  0  0  0  0  0  0  0
   36.8142  -31.6526    0.0000 P   0  0  0  0  0  0  0  0  0  0  0  0
   35.9816  -31.7030    0.0000 O   0  0  0  0  0  0  0  0  0  0  0  0
   37.6415  -31.5983    0.0000 O   0  0  0  0  0  0  0  0  0  0  0  0
   39.8556  -30.0648    0.0000 C   0  0  0  0  0  0  0  0  0  0  0  0
   39.3000  -29.5304    0.0000 N   0  0  0  0  0  0  0  0  0  0  0  0
   40.6667  -29.6455    0.0000 C   0  0  0  0  0  0  0  0  0  0  0  0
   39.8184  -30.8897    0.0000 N   0  0  0  0  0  0  0  0  0  0  0  0
   38.5111  -29.6569    0.0000 C   0  0  0  0  0  0  0  0  0  0  0  0
   39.7086  -28.7607    0.0000 C   0  0  0  0  0  0  0  0  0  0  0  0
   40.5558  -28.8828    0.0000 N   0  0  0  0  0  0  0  0  0  0  0  0
   41.3527  -30.0688    0.0000 C   0  0  0  0  0  0  0  0  0  0  0  0
   40.5361  -31.3664    0.0000 C   0  0  0  0  0  0  0  0  0  0  0  0
   37.9173  -29.0739    0.0000 O   0  0  0  0  0  0  0  0  0  0  0  0
   38.1478  -30.3544    0.0000 C   0  0  0  0  0  0  0  0  0  0  0  0
   41.3209  -30.9574    0.0000 N   0  0  0  0  0  0  0  0  0  0  0  0
   42.0739  -29.6969    0.0000 O   0  0  0  0  0  0  0  0  0  0  0  0
   40.4984  -32.1777    0.0000 N   0  0  0  0  0  0  0  0  0  0  0  0
   37.2070  -29.4336    0.0000 C   0  0  0  0  0  0  0  0  0  0  0  0
   37.3369  -30.2317    0.0000 C   0  0  0  0  0  0  0  0  0  0  0  0
   38.6061  -31.0417    0.0000 O   0  0  0  0  0  0  0  0  0  0  0  0
   36.4776  -29.0741    0.0000 C   0  0  0  0  0  0  0  0  0  0  0  0
   36.5751  -28.2639    0.0000 O   0  0  0  0  0  0  0  0  0  0  0  0
   35.7564  -27.0854    0.0000 O   0  0  0  0  0  0  0  0  0  0  0  0
   35.8298  -27.9159    0.0000 P   0  0  0  0  0  0  0  0  0  0  0  0
   35.0058  -27.9924    0.0000 O   0  0  0  0  0  0  0  0  0  0  0  0
   36.6579  -27.8314    0.0000 O   0  0  0  0  0  0  0  0  0  0  0  0
   36.4189  -26.5990    0.0000 C   0  0  0  0  0  0  0  0  0  0  0  0
   37.1991  -26.8421    0.0000 C   0  0  0  0  0  0  0  0  0  0  0  0
   36.4086  -25.7802    0.0000 C   0  0  0  0  0  0  0  0  0  0  0  0
   37.6765  -26.1478    0.0000 C   0  0  0  0  0  0  0  0  0  0  0  0
   37.2004  -25.5107    0.0000 O   0  0  0  0  0  0  0  0  0  0  0  0
   35.7406  -25.3032    0.0000 C   0  0  0  0  0  0  0  0  0  0  0  0
   35.0669  -25.7784    0.0000 O   0  0  0  0  0  0  0  0  0  0  0  0
   38.5058  -26.1319    0.0000 N   0  0  0  0  0  0  0  0  0  0  0  0
   38.9273  -26.8399    0.0000 C   0  0  0  0  0  0  0  0  0  0  0  0
   39.7566  -26.8244    0.0000 N   0  0  0  0  0  0  0  0  0  0  0  0
   40.1558  -26.0983    0.0000 C   0  0  0  0  0  0  0  0  0  0  0  0
   39.7213  -25.4012    0.0000 C   0  0  0  0  0  0  0  0  0  0  0  0
   38.9047  -25.4056    0.0000 C   0  0  0  0  0  0  0  0  0  0  0  0
   38.5279  -27.5665    0.0000 O   0  0  0  0  0  0  0  0  0  0  0  0
   40.9848  -26.0814    0.0000 O   0  0  0  0  0  0  0  0  0  0  0  0
   40.1205  -24.6746    0.0000 C   0  0  0  0  0  0  0  0  0  0  0  0
   33.8134  -24.7139    0.0000 O   0  0  0  0  0  0  0  0  0  0  0  0
   34.4539  -25.2261    0.0000 P   0  0  0  0  0  0  0  0  0  0  0  0
   34.9915  -24.6001    0.0000 O   0  0  0  0  0  0  0  0  0  0  0  0
   33.9261  -25.8571    0.0000 O   0  0  0  0  0  0  0  0  0  0  0  0
   35.7248  -22.1616    0.0000 C   0  0  0  0  0  0  0  0  0  0  0  0
   34.9584  -22.1012    0.0000 N   0  0  0  0  0  0  0  0  0  0  0  0
   36.0833  -21.3157    0.0000 C   0  0  0  0  0  0  0  0  0  0  0  0
   36.2287  -22.8224    0.0000 N   0  0  0  0  0  0  0  0  0  0  0  0
   34.4324  -22.6999    0.0000 C   0  0  0  0  0  0  0  0  0  0  0  0
   34.7854  -21.2441    0.0000 C   0  0  0  0  0  0  0  0  0  0  0  0
   35.5187  -20.7993    0.0000 N   0  0  0  0  0  0  0  0  0  0  0  0
   36.8873  -21.2136    0.0000 C   0  0  0  0  0  0  0  0  0  0  0  0
   37.0797  -22.7273    0.0000 C   0  0  0  0  0  0  0  0  0  0  0  0
   33.5972  -22.6259    0.0000 O   0  0  0  0  0  0  0  0  0  0  0  0
   34.5963  -23.4738    0.0000 C   0  0  0  0  0  0  0  0  0  0  0  0
   37.4296  -21.9116    0.0000 N   0  0  0  0  0  0  0  0  0  0  0  0
   37.2157  -20.4656    0.0000 O   0  0  0  0  0  0  0  0  0  0  0  0
   37.5668  -23.3807    0.0000 N   0  0  0  0  0  0  0  0  0  0  0  0
   33.2812  -23.3559    0.0000 C   0  0  0  0  0  0  0  0  0  0  0  0
   33.8857  -23.8887    0.0000 C   0  0  0  0  0  0  0  0  0  0  0  0
   35.3832  -23.7100    0.0000 O   0  0  0  0  0  0  0  0  0  0  0  0
   32.4884  -23.5415    0.0000 C   0  0  0  0  0  0  0  0  0  0  0  0
   32.0493  -22.8573    0.0000 O   0  0  0  0  0  0  0  0  0  0  0  0
   31.0765  -21.5175    0.0000 O   0  0  0  0  0  0  0  0  0  0  0  0
   31.5638  -22.1888    0.0000 P   0  0  0  0  0  0  0  0  0  0  0  0
   30.8971  -22.6828    0.0000 O   0  0  0  0  0  0  0  0  0  0  0  0
   32.2324  -21.6989    0.0000 O   0  0  0  0  0  0  0  0  0  0  0  0
   32.1354  -19.7568    0.0000 C   0  0  0  0  0  0  0  0  0  0  0  0
   32.8669  -19.3815    0.0000 N   0  0  0  0  0  0  0  0  0  0  0  0
   31.3856  -19.3658    0.0000 O   0  0  0  0  0  0  0  0  0  0  0  0
   32.0204  -20.5508    0.0000 C   0  0  0  0  0  0  0  0  0  0  0  0
   33.5442  -19.8300    0.0000 C   0  0  0  0  0  0  0  0  0  0  0  0
   32.9182  -18.5729    0.0000 C   0  0  0  0  0  0  0  0  0  0  0  0
   30.8127  -19.9624    0.0000 C   0  0  0  0  0  0  0  0  0  0  0  0
   31.2040  -20.6935    0.0000 C   0  0  0  0  0  0  0  0  0  0  0  0
   32.4009  -21.2898    0.0000 O   0  0  0  0  0  0  0  0  0  0  0  0
   34.2897  -19.4733    0.0000 N   0  0  0  0  0  0  0  0  0  0  0  0
   33.4982  -20.6599    0.0000 O   0  0  0  0  0  0  0  0  0  0  0  0
   33.6485  -18.2041    0.0000 C   0  0  0  0  0  0  0  0  0  0  0  0
   29.9946  -19.8519    0.0000 C   0  0  0  0  0  0  0  0  0  0  0  0
   34.3323  -18.6609    0.0000 C   0  0  0  0  0  0  0  0  0  0  0  0
   35.0748  -18.2935    0.0000 N   0  0  0  0  0  0  0  0  0  0  0  0
   29.6868  -19.0891    0.0000 O   0  0  0  0  0  0  0  0  0  0  0  0
   28.2633  -18.2572    0.0000 O   0  0  0  0  0  0  0  0  0  0  0  0
   28.9590  -18.7113    0.0000 P   0  0  0  0  0  0  0  0  0  0  0  0
   28.5401  -19.4197    0.0000 O   0  0  0  0  0  0  0  0  0  0  0  0
   29.3831  -17.9949    0.0000 O   0  0  0  0  0  0  0  0  0  0  0  0
   30.8487  -16.5522    0.0000 C   0  0  0  0  0  0  0  0  0  0  0  0
   31.6543  -16.3900    0.0000 N   0  0  0  0  0  0  0  0  0  0  0  0
   30.2275  -15.9928    0.0000 O   0  0  0  0  0  0  0  0  0  0  0  0
   30.5375  -17.2922    0.0000 C   0  0  0  0  0  0  0  0  0  0  0  0
   32.1921  -16.9888    0.0000 C   0  0  0  0  0  0  0  0  0  0  0  0
   31.9038  -15.6146    0.0000 C   0  0  0  0  0  0  0  0  0  0  0  0
   29.5111  -16.4297    0.0000 C   0  0  0  0  0  0  0  0  0  0  0  0
   29.7002  -17.2256    0.0000 C   0  0  0  0  0  0  0  0  0  0  0  0
   30.7229  -18.1139    0.0000 O   0  0  0  0  0  0  0  0  0  0  0  0
   32.9978  -16.8269    0.0000 N   0  0  0  0  0  0  0  0  0  0  0  0
   31.9393  -17.7793    0.0000 O   0  0  0  0  0  0  0  0  0  0  0  0
   32.7075  -15.4411    0.0000 C   0  0  0  0  0  0  0  0  0  0  0  0
   28.7511  -16.1070    0.0000 C   0  0  0  0  0  0  0  0  0  0  0  0
   33.2458  -16.0598    0.0000 C   0  0  0  0  0  0  0  0  0  0  0  0
   34.0612  -15.8903    0.0000 N   0  0  0  0  0  0  0  0  0  0  0  0
   28.6404  -15.2956    0.0000 O   0  0  0  0  0  0  0  0  0  0  0  0
   27.6273  -14.1686    0.0000 O   0  0  0  0  0  0  0  0  0  0  0  0
   28.1685  -13.5444    0.0000 C   0  0  0  0  0  0  0  0  0  0  0  0
   28.9844  -13.6108    0.0000 C   0  0  0  0  0  0  0  0  0  0  0  0
   27.9875  -12.7520    0.0000 C   0  0  0  0  0  0  0  0  0  0  0  0
   29.3064  -12.8396    0.0000 C   0  0  0  0  0  0  0  0  0  0  0  0
   28.6925  -12.3109    0.0000 O   0  0  0  0  0  0  0  0  0  0  0  0
   27.2294  -12.4233    0.0000 C   0  0  0  0  0  0  0  0  0  0  0  0
   26.6708  -13.0329    0.0000 O   0  0  0  0  0  0  0  0  0  0  0  0
   30.1092  -12.6475    0.0000 N   0  0  0  0  0  0  0  0  0  0  0  0
   30.6775  -13.2414    0.0000 C   0  0  0  0  0  0  0  0  0  0  0  0
   31.4805  -13.0495    0.0000 N   0  0  0  0  0  0  0  0  0  0  0  0
   31.7038  -12.2535    0.0000 C   0  0  0  0  0  0  0  0  0  0  0  0
   31.1425  -11.6565    0.0000 C   0  0  0  0  0  0  0  0  0  0  0  0
   30.3395  -11.8488    0.0000 C   0  0  0  0  0  0  0  0  0  0  0  0
   30.4365  -14.0323    0.0000 O   0  0  0  0  0  0  0  0  0  0  0  0
   32.5179  -12.0614    0.0000 O   0  0  0  0  0  0  0  0  0  0  0  0
   31.3734  -10.8614    0.0000 C   0  0  0  0  0  0  0  0  0  0  0  0
   26.7198   -9.4495    0.0000 C   0  0  0  0  0  0  0  0  0  0  0  0
   25.9585   -9.5140    0.0000 N   0  0  0  0  0  0  0  0  0  0  0  0
   26.9564   -8.5679    0.0000 C   0  0  0  0  0  0  0  0  0  0  0  0
   27.3173  -10.0339    0.0000 N   0  0  0  0  0  0  0  0  0  0  0  0
   25.5236  -10.1870    0.0000 C   0  0  0  0  0  0  0  0  0  0  0  0
   25.6526   -8.6880    0.0000 C   0  0  0  0  0  0  0  0  0  0  0  0
   26.3138   -8.1369    0.0000 N   0  0  0  0  0  0  0  0  0  0  0  0
   27.7272   -8.3418    0.0000 C   0  0  0  0  0  0  0  0  0  0  0  0
   28.1461   -9.8108    0.0000 C   0  0  0  0  0  0  0  0  0  0  0  0
   24.6908  -10.2300    0.0000 O   0  0  0  0  0  0  0  0  0  0  0  0
   25.8029  -10.9160    0.0000 C   0  0  0  0  0  0  0  0  0  0  0  0
   28.3635   -8.9518    0.0000 N   0  0  0  0  0  0  0  0  0  0  0  0
   27.9297   -7.5489    0.0000 O   0  0  0  0  0  0  0  0  0  0  0  0
   28.7156  -10.3866    0.0000 N   0  0  0  0  0  0  0  0  0  0  0  0
   24.4857  -11.0069    0.0000 C   0  0  0  0  0  0  0  0  0  0  0  0
   25.1647  -11.4378    0.0000 C   0  0  0  0  0  0  0  0  0  0  0  0
   26.6173  -11.0332    0.0000 O   0  0  0  0  0  0  0  0  0  0  0  0
   23.7296  -11.3094    0.0000 C   0  0  0  0  0  0  0  0  0  0  0  0
   23.1992  -10.6881    0.0000 O   0  0  0  0  0  0  0  0  0  0  0  0
   25.2170  -12.2612    0.0000 O   0  0  0  0  0  0  0  0  0  0  0  0
   19.2842   -7.4553    0.0000 C   0  0  0  0  0  0  0  0  0  0  0  0
   18.6423   -7.9882    0.0000 O   0  0  0  0  0  0  0  0  0  0  0  0
   17.9407   -7.5327    0.0000 C   0  0  0  0  0  0  0  0  0  0  0  0
   17.1684   -7.8432    0.0000 O   0  0  0  0  0  0  0  0  0  0  0  0
   18.1401   -6.7358    0.0000 C   0  0  0  0  0  0  0  0  0  0  0  0
   17.6881   -6.0428    0.0000 C   0  0  0  0  0  0  0  0  0  0  0  0
   18.0594   -5.3028    0.0000 C   0  0  0  0  0  0  0  0  0  0  0  0
   18.8876   -5.2482    0.0000 C   0  0  0  0  0  0  0  0  0  0  0  0
   19.3493   -5.9333    0.0000 C   0  0  0  0  0  0  0  0  0  0  0  0
   18.9801   -6.6780    0.0000 C   0  0  0  0  0  0  0  0  0  0  0  0
   19.8613   -6.8671    0.0000 C   0  0  0  0  0  0  0  0  0  0  0  0
   19.6433   -6.0646    0.0000 C   0  0  0  0  0  0  0  0  0  0  0  0
   20.2204   -5.4763    0.0000 C   0  0  0  0  0  0  0  0  0  0  0  0
   21.0231   -5.6901    0.0000 C   0  0  0  0  0  0  0  0  0  0  0  0
   21.6072   -5.0944    0.0000 O   0  0  0  0  0  0  0  0  0  0  0  0
   21.2433   -6.4854    0.0000 C   0  0  0  0  0  0  0  0  0  0  0  0
   20.6684   -7.0709    0.0000 C   0  0  0  0  0  0  0  0  0  0  0  0
   20.8886   -7.8662    0.0000 O   0  0  0  0  0  0  0  0  0  0  0  0
   20.3045   -8.4619    0.0000 C   0  0  0  0  0  0  0  0  0  0  0  0
   20.5276   -9.2644    0.0000 C   0  0  0  0  0  0  0  0  0  0  0  0
   19.9507   -9.8573    0.0000 C   0  0  0  0  0  0  0  0  0  0  0  0
   20.1638  -10.6555    0.0000 O   0  0  0  0  0  0  0  0  0  0  0  0
   19.1438   -9.6537    0.0000 C   0  0  0  0  0  0  0  0  0  0  0  0
   18.9203   -8.8464    0.0000 C   0  0  0  0  0  0  0  0  0  0  0  0
   19.5048   -8.2553    0.0000 C   0  0  0  0  0  0  0  0  0  0  0  0
   19.8683  -11.4247    0.0000 C   0  0  0  0  0  0  0  0  0  0  0  0
   20.3928  -12.0774    0.0000 C   0  0  0  0  0  0  0  0  0  0  0  0
   21.2157  -12.0338    0.0000 C   0  0  0  0  0  0  0  0  0  0  0  0
   21.6690  -11.3382    0.0000 O   0  0  0  0  0  0  0  0  0  0  0  0
   21.5093  -12.8050    0.0000 C   0  0  0  0  0  0  0  0  0  0  0  0
   22.3154  -13.0168    0.0000 O   0  0  0  0  0  0  0  0  0  0  0  0
   20.8562  -13.3247    0.0000 C   0  0  0  0  0  0  0  0  0  0  0  0
   20.1669  -12.8677    0.0000 O   0  0  0  0  0  0  0  0  0  0  0  0
   20.8608  -14.1540    0.0000 N   0  0  0  0  0  0  0  0  0  0  0  0
   21.5665  -14.5902    0.0000 C   0  0  0  0  0  0  0  0  0  0  0  0
   21.3557  -15.3982    0.0000 N   0  0  0  0  0  0  0  0  0  0  0  0
   20.5201  -15.4466    0.0000 C   0  0  0  0  0  0  0  0  0  0  0  0
   20.0101  -16.0949    0.0000 C   0  0  0  0  0  0  0  0  0  0  0  0
   20.3041  -16.8749    0.0000 N   0  0  0  0  0  0  0  0  0  0  0  0
   19.1985  -15.9613    0.0000 N   0  0  0  0  0  0  0  0  0  0  0  0
   18.8970  -15.1892    0.0000 C   0  0  0  0  0  0  0  0  0  0  0  0
   19.4106  -14.5448    0.0000 N   0  0  0  0  0  0  0  0  0  0  0  0
   20.2375  -14.6699    0.0000 C   0  0  0  0  0  0  0  0  0  0  0  0
   22.4385  -11.0071    0.0000 P   0  0  0  0  0  0  0  0  0  0  0  0
   22.7630  -11.7798    0.0000 O   0  0  0  0  0  0  0  0  0  0  0  0
   22.1074  -10.2475    0.0000 O   0  0  0  0  0  0  0  0  0  0  0  0
   25.9561  -12.6295    0.0000 P   0  0  0  0  0  0  0  0  0  0  0  0
   26.3458  -11.8966    0.0000 O   0  0  0  0  0  0  0  0  0  0  0  0
   25.5667  -13.3569    0.0000 O   0  0  0  0  0  0  0  0  0  0  0  0
   27.9073  -14.9468    0.0000 P   0  0  0  0  0  0  0  0  0  0  0  0
   27.1355  -15.2468    0.0000 O   0  0  0  0  0  0  0  0  0  0  0  0
   28.6706  -14.6471    0.0000 O   0  0  0  0  0  0  0  0  0  0  0  0
   36.2292  -38.7850    0.0000 P   0  0  0  0  0  0  0  0  0  0  0  0
   35.5110  -38.3674    0.0000 O   0  0  0  0  0  0  0  0  0  0  0  0
   36.9471  -39.1861    0.0000 O   0  0  0  0  0  0  0  0  0  0  0  0
    3.0164  -13.9679    0.0000 P   0  0  0  0  0  0  0  0  0  0  0  0
    3.8486  -14.0418    0.0000 O   0  0  0  0  0  0  0  0  0  0  0  0
    2.1843  -13.8939    0.0000 O   0  0  0  0  0  0  0  0  0  0  0  0
   11.4373   -3.9032    0.0000 O   0  0  0  0  0  0  0  0  0  0  0  0
    9.6206   -4.6008    0.0000 C   0  0  0  0  0  0  0  0  0  0  0  0
   10.4177   -4.3786    0.0000 N   0  0  0  0  0  0  0  0  0  0  0  0
310319  1  0  0  0  0 
144145  1  0  0  0  0 
144146  2  0  0  0  0 
320321  1  0  0  0  0 
321302  1  0  0  0  0 
144147  1  0  0  0  0 
321322  2  0  0  0  0 
148145  1  1  0  0  0 
321323  1  0  0  0  0 
145149  1  0  0  0  0 
146150  1  0  0  0  0 
146151  1  0  0  0  0 
147152  2  0  0  0  0 
148153  1  0  0  0  0 
154148  1  0  0  0  0 
151155  1  0  0  0  0 
151156  2  0  0  0  0 
152157  1  0  0  0  0 
153158  1  0  0  0  0 
154159  1  0  0  0  0 
154160  1  6  0  0  0 
158161  1  1  0  0  0 
161162  1  0  0  0  0 
149150  2  0  0  0  0 
324325  1  1  0  0  0 
324326  1  0  0  0  0 
327324  1  0  0  0  0 
325328  1  0  0  0  0 
325329  1  0  0  0  0 
326330  1  0  0  0  0 
327331  1  0  0  0  0 
327332  1  6  0  0  0 
328333  1  0  0  0  0 
328334  2  0  0  0  0 
329335  2  0  0  0  0 
330336  1  1  0  0  0 
331323  1  6  0  0  0 
333337  2  0  0  0  0 
337338  1  0  0  0  0 
331330  1  0  0  0  0 
335337  1  0  0  0  0 
152155  1  0  0  0  0 
336339  1  0  0  0  0 
159158  1  0  0  0  0 
 77 78  2  0  0  0  0 
340341  1  0  0  0  0 
341339  1  0  0  0  0 
159163  1  6  0  0  0 
341342  2  0  0  0  0 
 78 79  1  0  0  0  0 
341343  1  0  0  0  0 
 73 79  2  0  0  0  0 
 70 79  1  0  0  0  0 
 38 39  1  0  0  0  0 
164165  1  0  0  0  0 
165162  1  0  0  0  0 
165166  1  0  0  0  0 
165167  2  0  0  0  0 
 39 28  1  0  0  0  0 
163168  1  0  0  0  0 
168139  1  0  0  0  0 
 15 19  2  0  0  0  0 
168169  2  0  0  0  0 
 39 40  2  0  0  0  0 
168170  1  0  0  0  0 
  9 10  1  0  0  0  0 
 39 41  1  0  0  0  0 
 13 20  2  0  0  0  0 
 10  6  1  0  0  0  0 
  1  3  1  0  0  0  0 
344345  1  0  0  0  0 
344346  2  0  0  0  0 
344347  1  0  0  0  0 
348345  1  1  0  0  0 
345349  1  0  0  0  0 
346350  1  0  0  0  0 
346351  1  0  0  0  0 
347352  2  0  0  0  0 
348353  1  0  0  0  0 
354348  1  0  0  0  0 
351355  1  0  0  0  0 
351356  2  0  0  0  0 
352357  1  0  0  0  0 
353358  1  0  0  0  0 
354359  1  0  0  0  0 
354360  1  6  0  0  0 
358361  1  1  0  0  0 
361362  1  0  0  0  0 
349350  2  0  0  0  0 
352355  1  0  0  0  0 
359358  1  0  0  0  0 
359340  1  6  0  0  0 
  9 11  1  1  0  0  0 
  6  5  1  1  0  0  0 
  7 12  1  6  0  0  0 
 11 13  1  0  0  0  0 
363364  1  0  0  0  0 
364362  1  0  0  0  0 
364365  1  0  0  0  0 
364366  2  0  0  0  0 
  6  7  1  0  0  0  0 
  1  2  1  0  0  0  0 
  1  4  2  0  0  0  0 
  2  5  1  0  0  0  0 
 11 17  1  0  0  0  0 
 80 81  1  0  0  0  0 
 80 82  2  0  0  0  0 
 80 83  1  0  0  0  0 
 84 81  1  1  0  0  0 
171172  1  0  0  0  0 
171173  2  0  0  0  0 
171174  1  0  0  0  0 
175172  1  1  0  0  0 
172176  1  0  0  0  0 
173177  1  0  0  0  0 
173178  1  0  0  0  0 
174179  2  0  0  0  0 
175180  1  0  0  0  0 
367368  1  0  0  0  0 
367369  2  0  0  0  0 
367370  1  0  0  0  0 
371368  1  1  0  0  0 
368372  1  0  0  0  0 
369373  1  0  0  0  0 
369374  1  0  0  0  0 
370375  2  0  0  0  0 
371376  1  0  0  0  0 
377371  1  0  0  0  0 
374378  1  0  0  0  0 
374379  2  0  0  0  0 
375380  1  0  0  0  0 
376381  1  0  0  0  0 
377382  1  0  0  0  0 
377383  1  6  0  0  0 
381384  1  1  0  0  0 
384385  1  0  0  0  0 
372373  2  0  0  0  0 
375378  1  0  0  0  0 
382381  1  0  0  0  0 
382363  1  6  0  0  0 
181175  1  0  0  0  0 
178182  1  0  0  0  0 
178183  2  0  0  0  0 
179184  1  0  0  0  0 
386387  1  0  0  0  0 
387385  1  0  0  0  0 
387388  1  0  0  0  0 
387389  2  0  0  0  0 
180185  1  0  0  0  0 
181186  1  0  0  0  0 
181187  1  6  0  0  0 
185188  1  1  0  0  0 
188189  1  0  0  0  0 
176177  2  0  0  0  0 
179182  1  0  0  0  0 
186185  1  0  0  0  0 
 81 85  1  0  0  0  0 
186190  1  6  0  0  0 
 82 86  1  0  0  0  0 
190191  1  0  0  0  0 
191110  1  0  0  0  0 
 82 87  1  0  0  0  0 
191192  2  0  0  0  0 
 83 88  2  0  0  0  0 
191193  1  0  0  0  0 
 84 89  1  0  0  0  0 
 90 84  1  0  0  0  0 
390391  1  0  0  0  0 
390392  2  0  0  0  0 
390393  1  0  0  0  0 
394391  1  1  0  0  0 
391395  1  0  0  0  0 
392396  1  0  0  0  0 
392397  1  0  0  0  0 
393398  2  0  0  0  0 
394399  1  0  0  0  0 
400394  1  0  0  0  0 
397401  1  0  0  0  0 
397402  2  0  0  0  0 
398403  1  0  0  0  0 
399404  1  0  0  0  0 
400405  1  0  0  0  0 
400406  1  6  0  0  0 
404407  1  1  0  0  0 
407408  1  0  0  0  0 
395396  2  0  0  0  0 
398401  1  0  0  0  0 
405404  1  0  0  0  0 
405386  1  6  0  0  0 
 87 91  1  0  0  0  0 
 87 92  2  0  0  0  0 
 88 93  1  0  0  0  0 
 89 94  1  0  0  0  0 
409410  1  0  0  0  0 
410408  1  0  0  0  0 
410411  1  0  0  0  0 
410412  2  0  0  0  0 
 90 95  1  0  0  0  0 
 90 96  1  6  0  0  0 
 94 97  1  1  0  0  0 
 97 98  1  0  0  0  0 
 85 86  2  0  0  0  0 
 88 91  1  0  0  0  0 
 95 94  1  0  0  0  0 
 13 14  1  0  0  0  0 
 95 99  1  6  0  0  0 
 14 15  1  0  0  0  0 
 42 43  1  1  0  0  0 
 42 44  1  0  0  0  0 
194195  1  0  0  0  0 
194196  2  0  0  0  0 
194197  1  0  0  0  0 
198195  1  1  0  0  0 
195199  1  0  0  0  0 
414413  1  1  0  0  0 
414415  1  0  0  0  0 
415409  1  6  0  0  0 
415416  1  0  0  0  0 
416417  1  6  0  0  0 
416418  1  0  0  0  0 
418419  1  0  0  0  0 
414419  1  0  0  0  0 
418420  1  1  0  0  0 
420421  1  0  0  0  0 
421422  2  0  0  0  0 
422423  1  0  0  0  0 
423424  1  0  0  0  0 
424425  1  0  0  0  0 
424426  2  0  0  0  0 
426427  1  0  0  0  0 
427428  2  0  0  0  0 
428429  1  0  0  0  0 
423429  2  0  0  0  0 
420429  1  0  0  0  0 
196200  1  0  0  0  0 
413430  1  0  0  0  0 
196201  1  0  0  0  0 
197202  2  0  0  0  0 
198203  1  0  0  0  0 
204198  1  0  0  0  0 
201205  1  0  0  0  0 
201206  2  0  0  0  0 
202207  1  0  0  0  0 
203208  1  0  0  0  0 
204209  1  0  0  0  0 
204210  1  6  0  0  0 
208211  1  1  0  0  0 
211120  1  0  0  0  0 
199200  2  0  0  0  0 
202205  1  0  0  0  0 
209208  1  0  0  0  0 
 45 42  1  0  0  0  0 
209212  1  6  0  0  0 
432433  1  0  0  0  0 
432434  1  0  0  0  0 
433435  1  0  0  0  0 
434436  1  0  0  0  0 
435436  1  0  0  0  0 
432431  1  6  0  0  0 
437438  1  0  0  0  0 
434437  1  1  0  0  0 
439440  1  0  0  0  0 
440441  1  0  0  0  0 
441442  1  0  0  0  0 
442443  1  0  0  0  0 
443444  2  0  0  0  0 
444439  1  0  0  0  0 
435439  1  1  0  0  0 
440445  2  0  0  0  0 
442446  2  0  0  0  0 
443447  1  0  0  0  0 
100101  1  0  0  0  0 
212213  1  0  0  0  0 
448449  1  0  0  0  0 
449438  1  0  0  0  0 
213189  1  0  0  0  0 
449450  2  0  0  0  0 
101 98  1  0  0  0  0 
449451  1  0  0  0  0 
213214  2  0  0  0  0 
101102  1  0  0  0  0 
213215  1  0  0  0  0 
101103  2  0  0  0  0 
 43 46  1  0  0  0  0 
 43 47  1  0  0  0  0 
 44 48  1  0  0  0  0 
 45 49  1  0  0  0  0 
 45 50  1  6  0  0  0 
 46 51  1  0  0  0  0 
 46 52  2  0  0  0  0 
 47 53  2  0  0  0  0 
 48 54  1  1  0  0  0 
 49 41  1  6  0  0  0 
 51 55  2  0  0  0  0 
 55 56  1  0  0  0  0 
 49 48  1  0  0  0  0 
 53 55  1  0  0  0  0 
 15 16  1  0  0  0  0 
452453  1  0  0  0  0 
452454  2  0  0  0  0 
452455  1  0  0  0  0 
456453  1  1  0  0  0 
453457  1  0  0  0  0 
454458  1  0  0  0  0 
454459  1  0  0  0  0 
455460  2  0  0  0  0 
456461  1  0  0  0  0 
462456  1  0  0  0  0 
459463  1  0  0  0  0 
459464  2  0  0  0  0 
460465  1  0  0  0  0 
461466  1  0  0  0  0 
462467  1  0  0  0  0 
462468  1  6  0  0  0 
466469  1  1  0  0  0 
469470  1  0  0  0  0 
457458  2  0  0  0  0 
460463  1  0  0  0  0 
467466  1  0  0  0  0 
467448  1  6  0  0  0 
216217  1  0  0  0  0 
216218  1  0  0  0  0 
217219  1  0  0  0  0 
218220  1  0  0  0  0 
471472  1  0  0  0  0 
472470  1  0  0  0  0 
472473  1  0  0  0  0 
472474  2  0  0  0  0 
219220  1  0  0  0  0 
216164  1  6  0  0  0 
221222  1  0  0  0  0 
218221  1  1  0  0  0 
223224  1  0  0  0  0 
224225  1  0  0  0  0 
225226  1  0  0  0  0 
226227  1  0  0  0  0 
227228  2  0  0  0  0 
228223  1  0  0  0  0 
219223  1  1  0  0  0 
224229  2  0  0  0  0 
226230  2  0  0  0  0 
227231  1  0  0  0  0 
104105  1  0  0  0  0 
104106  1  0  0  0  0 
232233  1  0  0  0  0 
233222  1  0  0  0  0 
105107  1  0  0  0  0 
475476  1  0  0  0  0 
475477  2  0  0  0  0 
475478  1  0  0  0  0 
479476  1  1  0  0  0 
476480  1  0  0  0  0 
477481  1  0  0  0  0 
477482  1  0  0  0  0 
478483  2  0  0  0  0 
479484  1  0  0  0  0 
485479  1  0  0  0  0 
482486  1  0  0  0  0 
482487  2  0  0  0  0 
483488  1  0  0  0  0 
484489  1  0  0  0  0 
485490  1  0  0  0  0 
485491  1  6  0  0  0 
489492  1  1  0  0  0 
492493  1  0  0  0  0 
480481  2  0  0  0  0 
483486  1  0  0  0  0 
490489  1  0  0  0  0 
490471  1  6  0  0  0 
233234  2  0  0  0  0 
106108  1  0  0  0  0 
233235  1  0  0  0  0 
107108  1  0  0  0  0 
494495  1  0  0  0  0 
495493  1  0  0  0  0 
495496  1  0  0  0  0 
495497  2  0  0  0  0 
104100  1  6  0  0  0 
109110  1  0  0  0  0 
106109  1  1  0  0  0 
111112  1  0  0  0  0 
112113  1  0  0  0  0 
113114  1  0  0  0  0 
114115  1  0  0  0  0 
115116  2  0  0  0  0 
116111  1  0  0  0  0 
107111  1  1  0  0  0 
112119  2  0  0  0  0 
114117  2  0  0  0  0 
115118  1  0  0  0  0 
 54 57  1  0  0  0  0 
 16 17  2  0  0  0  0 
236237  1  0  0  0  0 
498499  1  0  0  0  0 
498500  1  0  0  0  0 
499501  1  0  0  0  0 
500502  1  0  0  0  0 
501502  1  0  0  0  0 
498494  1  6  0  0  0 
503504  1  0  0  0  0 
500503  1  1  0  0  0 
505506  1  0  0  0  0 
506507  1  0  0  0  0 
507508  1  0  0  0  0 
508509  1  0  0  0  0 
509510  2  0  0  0  0 
510505  1  0  0  0  0 
501505  1  1  0  0  0 
506511  2  0  0  0  0 
508512  2  0  0  0  0 
509513  1  0  0  0  0 
236238  1  0  0  0  0 
237239  1  0  0  0  0 
514515  1  0  0  0  0 
515504  1  0  0  0  0 
238240  1  0  0  0  0 
515516  2  0  0  0  0 
239240  1  0  0  0  0 
515517  1  0  0  0  0 
236232  1  6  0  0  0 
241242  1  0  0  0  0 
238241  1  1  0  0  0 
243244  1  0  0  0  0 
244245  1  0  0  0  0 
245246  1  0  0  0  0 
246247  1  0  0  0  0 
247248  2  0  0  0  0 
248243  1  0  0  0  0 
239243  1  1  0  0  0 
244249  2  0  0  0  0 
246250  2  0  0  0  0 
247251  1  0  0  0  0 
  7  8  1  0  0  0  0 
 58 59  1  0  0  0  0 
252253  1  0  0  0  0 
253242  1  0  0  0  0 
 59 57  1  0  0  0  0 
253254  2  0  0  0  0 
518519  1  0  0  0  0 
518520  2  0  0  0  0 
518521  1  0  0  0  0 
522519  1  1  0  0  0 
519523  1  0  0  0  0 
520524  1  0  0  0  0 
520525  1  0  0  0  0 
521526  2  0  0  0  0 
522527  1  0  0  0  0 
528522  1  0  0  0  0 
525529  1  0  0  0  0 
525530  2  0  0  0  0 
526531  1  0  0  0  0 
527532  1  0  0  0  0 
528533  1  0  0  0  0 
528534  1  6  0  0  0 
532535  1  1  0  0  0 
535536  1  0  0  0  0 
523524  2  0  0  0  0 
526529  1  0  0  0  0 
533532  1  0  0  0  0 
533514  1  6  0  0  0 
 22 23  1  0  0  0  0 
253255  1  0  0  0  0 
 59 60  2  0  0  0  0 
 22 24  1  0  0  0  0 
537538  1  0  0  0  0 
538536  1  0  0  0  0 
538539  1  0  0  0  0 
538540  2  0  0  0  0 
 59 61  1  0  0  0  0 
 23 25  1  0  0  0  0 
 24 26  1  0  0  0  0 
 25 26  1  0  0  0  0 
 22 21  1  6  0  0  0 
 27 28  1  0  0  0  0 
 24 27  1  1  0  0  0 
 29 30  1  0  0  0  0 
 30 31  1  0  0  0  0 
 31 32  1  0  0  0  0 
 32 33  1  0  0  0  0 
 33 34  2  0  0  0  0 
 34 29  1  0  0  0  0 
121122  1  0  0  0  0 
121123  2  0  0  0  0 
541542  1  1  0  0  0 
541543  1  0  0  0  0 
544541  1  0  0  0  0 
542545  1  0  0  0  0 
542546  1  0  0  0  0 
543547  1  0  0  0  0 
544548  1  0  0  0  0 
544549  1  6  0  0  0 
545550  1  0  0  0  0 
545551  2  0  0  0  0 
546552  2  0  0  0  0 
547553  1  1  0  0  0 
548537  1  6  0  0  0 
550554  2  0  0  0  0 
554555  1  0  0  0  0 
548547  1  0  0  0  0 
552554  1  0  0  0  0 
121124  1  0  0  0  0 
553556  1  0  0  0  0 
125122  1  1  0  0  0 
256257  1  0  0  0  0 
557558  1  0  0  0  0 
558556  1  0  0  0  0 
256258  2  0  0  0  0 
558559  2  0  0  0  0 
256259  1  0  0  0  0 
558560  1  0  0  0  0 
260257  1  1  0  0  0 
257261  1  0  0  0  0 
258262  1  0  0  0  0 
258263  1  0  0  0  0 
259264  2  0  0  0  0 
260265  1  0  0  0  0 
266260  1  0  0  0  0 
263267  1  0  0  0  0 
263268  2  0  0  0  0 
264269  1  0  0  0  0 
265270  1  0  0  0  0 
266271  1  0  0  0  0 
266272  1  6  0  0  0 
270273  1  1  0  0  0 
273274  1  0  0  0  0 
561562  1  1  0  0  0 
561563  1  0  0  0  0 
564561  1  0  0  0  0 
562565  1  0  0  0  0 
562566  1  0  0  0  0 
563567  1  0  0  0  0 
564568  1  0  0  0  0 
564569  1  6  0  0  0 
565570  1  0  0  0  0 
565571  2  0  0  0  0 
566572  2  0  0  0  0 
567573  1  1  0  0  0 
568560  1  6  0  0  0 
570574  2  0  0  0  0 
574575  1  0  0  0  0 
568567  1  0  0  0  0 
572574  1  0  0  0  0 
261262  2  0  0  0  0 
573576  1  0  0  0  0 
264267  1  0  0  0  0 
271270  1  0  0  0  0 
271252  1  6  0  0  0 
122126  1  0  0  0  0 
123127  1  0  0  0  0 
123128  1  0  0  0  0 
124129  2  0  0  0  0 
125130  1  0  0  0  0 
131125  1  0  0  0  0 
128132  1  0  0  0  0 
128133  2  0  0  0  0 
129134  1  0  0  0  0 
130135  1  0  0  0  0 
131136  1  0  0  0  0 
131137  1  6  0  0  0 
135138  1  1  0  0  0 
138139  1  0  0  0  0 
578579  1  0  0  0  0 
578580  1  0  0  0  0 
579581  1  0  0  0  0 
580582  1  0  0  0  0 
581582  1  0  0  0  0 
578577  1  6  0  0  0 
583584  1  0  0  0  0 
580583  1  1  0  0  0 
585586  1  0  0  0  0 
586587  1  0  0  0  0 
587588  1  0  0  0  0 
588589  1  0  0  0  0 
589590  2  0  0  0  0 
590585  1  0  0  0  0 
581585  1  1  0  0  0 
586591  2  0  0  0  0 
588592  2  0  0  0  0 
589593  1  0  0  0  0 
126127  2  0  0  0  0 
129132  1  0  0  0  0 
136135  1  0  0  0  0 
 25 29  1  1  0  0  0 
136140  1  6  0  0  0 
275276  1  0  0  0  0 
275277  2  0  0  0  0 
275278  1  0  0  0  0 
279276  1  1  0  0  0 
276280  1  0  0  0  0 
277281  1  0  0  0  0 
277282  1  0  0  0  0 
278283  2  0  0  0  0 
279284  1  0  0  0  0 
285279  1  0  0  0  0 
282286  1  0  0  0  0 
282287  2  0  0  0  0 
283288  1  0  0  0  0 
284289  1  0  0  0  0 
594595  1  0  0  0  0 
594596  2  0  0  0  0 
594597  1  0  0  0  0 
598595  1  1  0  0  0 
595599  1  0  0  0  0 
596600  1  0  0  0  0 
596601  1  0  0  0  0 
597602  2  0  0  0  0 
598603  1  0  0  0  0 
604598  1  0  0  0  0 
601605  1  0  0  0  0 
601606  2  0  0  0  0 
602607  1  0  0  0  0 
603608  1  0  0  0  0 
604609  1  0  0  0  0 
604610  1  6  0  0  0 
608611  1  1  0  0  0 
611612  1  0  0  0  0 
599600  2  0  0  0  0 
602605  1  0  0  0  0 
609608  1  0  0  0  0 
285290  1  0  0  0  0 
609613  1  6  0  0  0 
285291  1  6  0  0  0 
289292  1  1  0  0  0 
292293  1  0  0  0  0 
280281  2  0  0  0  0 
283286  1  0  0  0  0 
290289  1  0  0  0  0 
 30 35  2  0  0  0  0 
290294  1  6  0  0  0 
140141  1  0  0  0  0 
141120  1  0  0  0  0 
 32 36  2  0  0  0  0 
141142  2  0  0  0  0 
295296  1  0  0  0  0 
296293  1  0  0  0  0 
296297  1  0  0  0  0 
296298  2  0  0  0  0 
 33 37  1  0  0  0  0 
294299  1  0  0  0  0 
299274  1  0  0  0  0 
141143  1  0  0  0  0 
299300  2  0  0  0  0 
 16 18  1  0  0  0  0 
299301  1  0  0  0  0 
  8  9  1  0  0  0  0 
 62 63  1  0  0  0  0 
614615  1  0  0  0  0 
615616  1  0  0  0  0 
616617  2  0  0  0  0 
616618  1  0  0  0  0 
618619  1  0  0  0  0 
619620  2  0  0  0  0 
620621  1  0  0  0  0 
621622  2  0  0  0  0 
622623  1  0  0  0  0 
618623  2  0  0  0  0 
614623  1  0  0  0  0 
614624  1  0  0  0  0 
624625  1  0  0  0  0 
625626  2  0  0  0  0 
626627  1  0  0  0  0 
627628  1  0  0  0  0 
627629  2  0  0  0  0 
629630  1  0  0  0  0 
624630  2  0  0  0  0 
630631  1  0  0  0  0 
631632  1  0  0  0  0 
632633  1  0  0  0  0 
633634  2  0  0  0  0 
634635  1  0  0  0  0 
634636  1  0  0  0  0 
636637  2  0  0  0  0 
637638  1  0  0  0  0 
614638  1  0  0  0  0 
632638  2  0  0  0  0 
 64 63  1  1  0  0  0 
 64 65  1  0  0  0  0 
 65 58  1  6  0  0  0 
 65 66  1  0  0  0  0 
 66 67  1  6  0  0  0 
 66 68  1  0  0  0  0 
 68 69  1  0  0  0  0 
 64 69  1  0  0  0  0 
 68 70  1  1  0  0  0 
 70 71  1  0  0  0  0 
 71 72  2  0  0  0  0 
 72 73  1  0  0  0  0 
 73 74  1  0  0  0  0 
 74 75  1  0  0  0  0 
 74 76  2  0  0  0  0 
 76 77  1  0  0  0  0 
302303  1  0  0  0  0 
304303  1  1  0  0  0 
304305  1  0  0  0  0 
305295  1  6  0  0  0 
305306  1  0  0  0  0 
635639  1  0  0  0  0 
640639  1  6  0  0  0 
640641  1  0  0  0  0 
641642  1  1  0  0  0 
641643  1  0  0  0  0 
643644  1  1  0  0  0 
643645  1  0  0  0  0 
645646  1  0  0  0  0 
640646  1  0  0  0  0 
645647  1  6  0  0  0 
647648  1  0  0  0  0 
648649  2  0  0  0  0 
649650  1  0  0  0  0 
650651  1  0  0  0  0 
651652  1  0  0  0  0 
651653  2  0  0  0  0 
653654  1  0  0  0  0 
654655  2  0  0  0  0 
655656  1  0  0  0  0 
650656  2  0  0  0  0 
647656  1  0  0  0  0 
642657  1  0  0  0  0 
657612  1  0  0  0  0 
657658  1  0  0  0  0 
657659  2  0  0  0  0 
306307  1  6  0  0  0 
613660  1  0  0  0  0 
660584  1  0  0  0  0 
306308  1  0  0  0  0 
660661  2  0  0  0  0 
308309  1  0  0  0  0 
660662  1  0  0  0  0 
304309  1  0  0  0  0 
577663  1  0  0  0  0 
663576  1  0  0  0  0 
308310  1  1  0  0  0 
663664  2  0  0  0  0 
310311  1  0  0  0  0 
663665  1  0  0  0  0 
311312  2  0  0  0  0 
431666  1  0  0  0  0 
666430  1  0  0  0  0 
312313  1  0  0  0  0 
666667  1  0  0  0  0 
313314  1  0  0  0  0 
666668  2  0  0  0  0 
314315  1  0  0  0  0 
 99669  1  0  0  0  0 
669 62  1  0  0  0  0 
314316  2  0  0  0  0 
669670  1  0  0  0  0 
316317  1  0  0  0  0 
669671  2  0  0  0  0 
 21  1  1  0  0  0  0 
317318  2  0  0  0  0 
  8672  1  6  0  0  0 
318319  1  0  0  0  0 
  6673  1  0  0  0  0 
313319  2  0  0  0  0 
673674  1  0  0  0  0 
672674  1  0  0  0  0 
M  END