
  SciTegic02131210002D

 52 54  0  0  0  0            999 V2000
   -2.2833    0.2417    0.0000 C   0  0  1  0  0  0
   -2.2833   -0.5833    0.0000 C   0  0  1  0  0  0
   -1.5713   -0.9917    0.0000 C   0  0  2  0  0  0
   -0.8593   -0.5833    0.0000 C   0  0  2  0  0  0
   -0.8593    0.2417    0.0000 C   0  0  2  0  0  0
   -1.5713    0.6583    0.0000 C   0  0  2  0  0  0
   -0.1436    0.6521    0.0000 O   0  0
   -1.5713    1.4833    0.0000 O   0  0
   -2.9990    0.6521    0.0000 O   0  0
   -2.9972   -0.9969    0.0000 O   0  0
   -1.5713   -1.8167    0.0000 O   0  0
   -0.1454   -0.9969    0.0000 O   0  0
    0.5696    0.2375    0.0000 P   0  0
    1.1500    0.8250    0.0000 O   0  0
   -0.1000   -0.2542    0.0000 O   0  0
    1.2792   -0.1750    0.0000 O   0  0
    1.9949    0.2354    0.0000 C   0  0
    2.7081   -0.1793    0.0000 C   0  0
    3.4238    0.2311    0.0000 C   0  0
    4.1370   -0.1835    0.0000 C   0  0
    4.8527    0.2268    0.0000 C   0  0
    5.5660   -0.1878    0.0000 C   0  0
    6.2817    0.2225    0.0000 N   0  0
    6.9949   -0.1921    0.0000 C   0  0
    7.7106    0.2183    0.0000 C   0  0
    6.9924   -1.0171    0.0000 O   0  0
    8.4238   -0.1964    0.0000 C   0  0
    9.1395    0.2140    0.0000 C   0  0
    9.8528   -0.2006    0.0000 C   0  0
   10.5678    0.2094    0.0000 C   0  0  2  0  0  0
   11.2150   -0.2989    0.0000 S   0  0
   11.8993    0.1620    0.0000 C   0  0
   10.8479    0.9844    0.0000 C   0  0  2  0  0  0
   11.6706    0.9541    0.0000 C   0  0  1  0  0  0
   11.9538    1.7272    0.0000 N   0  0
   11.3059    2.2354    0.0000 C   0  0
   10.6225    1.7763    0.0000 N   0  0
   11.3363    3.0599    0.0000 O   0  0
   12.4917    0.9542    0.0000 H   0  0
   10.0208    0.9875    0.0000 H   0  0
   -0.8568   -2.2292    0.0000 P   0  0
   -2.9960   -1.8219    0.0000 P   0  0
   -3.7123    0.2375    0.0000 P   0  0
   -1.4458   -2.8125    0.0000 O   0  0
   -0.1458   -1.8125    0.0000 O   0  0
   -0.2750   -2.8125    0.0000 O   0  0
   -3.7167   -2.2292    0.0000 O   0  0
   -3.0042   -2.6458    0.0000 O   0  0
   -2.2875   -2.2333    0.0000 O   0  0
   -4.4279    0.6479    0.0000 O   0  0
   -4.3000   -0.3458    0.0000 O   0  0
   -3.1292   -0.3458    0.0000 O   0  0
 24 26  2  0
  7 13  1  0
 25 27  1  0
 27 28  1  0
 13 14  2  0
 28 29  1  0
  5  7  1  6
 30 29  1  1
 30 31  1  0
 13 15  1  0
  1  2  1  0
 31 32  1  0
 32 34  1  0
 33 30  1  0
 33 34  1  0
 13 16  1  0
  6  8  1  1
 16 17  1  0
  1  6  1  0
 17 18  1  0
 34 35  1  0
 35 36  1  0
 36 37  1  0
 37 33  1  0
  1  9  1  6
 36 38  2  0
 18 19  1  0
 34 39  1  6
  2  3  1  0
 33 40  1  6
 19 20  1  0
 11 41  1  0
  2 10  1  1
 10 42  1  0
 20 21  1  0
  9 43  1  0
  3  4  1  0
 41 44  1  0
 21 22  1  0
 41 45  1  0
  3 11  1  6
 41 46  2  0
 22 23  1  0
 42 47  1  0
  4  5  1  0
 42 48  2  0
 23 24  1  0
 42 49  1  0
  4 12  1  6
 43 50  1  0
 24 25  1  0
 43 51  2  0
  5  6  1  0
 43 52  1  0
M  END