
  SciTegic11111309142D

 52 56  0  0  1  0            999 V2000
    4.1829   -7.3302    0.0000 C   0  0
    5.0917  -14.3447    0.0000 C   0  0
    5.8785  -14.5959    0.0000 C   0  0
    6.3604  -13.9274    0.0000 C   0  0
    5.8748  -13.2653    0.0000 C   0  0
    5.0917  -13.5197    0.0000 C   0  0
    3.0605  -10.0853    0.0000 O   0  0
    2.5753  -10.7532    0.0000 C   0  0
    2.8780  -11.5211    0.0000 C   0  0
    2.3763  -12.1332    0.0000 C   0  0
    2.6570  -12.8674    0.0000 C   0  0
    3.4340  -12.9712    0.0000 C   0  0
    3.8959  -12.3367    0.0000 C   0  0
    3.5734  -11.6142    0.0000 C   0  0
    1.5614  -12.0011    0.0000 Cl  0  0
    4.0677  -10.9530    0.0000 Cl  0  0
    4.7169  -12.4230    0.0000 S   0  0
    4.8032  -11.6020    0.0000 O   0  0
    4.6306  -13.2440    0.0000 O   0  0
    6.5897  -12.8525    0.0000 C   0  0
    7.3039  -13.2649    0.0000 N   0  0
    6.5897  -12.0262    0.0000 O   0  0
    7.3039  -14.0920    0.0000 C   0  0
    8.0141  -14.5020    0.0000 C   0  0
    8.7249  -14.0916    0.0000 N   0  0
    8.7249  -13.2694    0.0000 C   0  0
    8.0143  -12.8547    0.0000 C   0  0
    9.4363  -14.5024    0.0000 C   0  0
    9.4363  -15.3235    0.0000 O   0  0
   10.1550  -14.0874    0.0000 C   0  0  2  0  0  0
   10.8659  -14.4979    0.0000 C   0  0
   11.5848  -14.0829    0.0000 C   0  0
   12.2957  -14.4933    0.0000 C   0  0
   13.0146  -14.0781    0.0000 C   0  0
    2.7238   -9.3289    0.0000 C   0  0
    2.0523   -7.8205    0.0000 C   0  0
    1.5653   -8.4954    0.0000 C   0  0
    1.9041   -9.2486    0.0000 C   0  0
    2.8766   -7.9076    0.0000 C   0  0
    3.2088   -8.6647    0.0000 C   0  0
    4.0287   -8.7543    0.0000 N   0  0
    4.5174   -8.0878    0.0000 C   0  0
    3.3613   -7.2435    0.0000 C   0  0
    5.3407   -8.1763    0.0000 C   0  0
    3.0253   -6.4867    0.0000 C   0  0
   13.7317  -14.4921    0.0000 N   0  0
   10.1549  -13.2594    0.0000 N   0  0
   10.8720  -12.8454    0.0000 C   0  0
    9.4379  -12.8454    0.0000 C   0  0
   13.7317  -15.3202    0.0000 C   0  0
   14.4488  -14.0781    0.0000 C   0  0
    5.5370  -12.5126    0.0000 N   0  0
 17 19  2  0
  5 20  1  0
 20 21  1  0
 20 22  2  0
 21 23  1  0
 21 27  1  0
 23 24  1  0
 24 25  1  0
 25 26  1  0
 26 27  1  0
 25 28  1  0
 28 29  2  0
 28 30  1  0
 30 31  1  0
 31 32  1  0
 32 33  1  0
 33 34  1  0
  7 35  1  0
 35 40  2  0
  2  3  1  0
 39 36  2  0
  3  4  1  0
 36 37  1  0
  4  5  1  0
 37 38  2  0
 38 35  1  0
  5  6  1  0
  6  2  1  0
 39 40  1  0
  7  8  1  0
 40 41  1  0
  8  9  1  0
 41 42  2  0
 42  1  1  0
  9 10  2  0
  1 43  2  0
 43 39  1  0
 10 11  1  0
 42 44  1  0
 11 12  2  0
 43 45  1  0
 12 13  1  0
 34 46  1  0
 13 14  2  0
 30 47  1  1
 14  9  1  0
 47 48  1  0
 10 15  1  0
 47 49  1  0
 14 16  1  0
 46 50  1  0
 13 17  1  0
 46 51  1  0
 17 18  2  0
 17 52  1  0
 52  5  1  0
M  END