
          11280715452D 1   1.00000     0.00000     0

 41 45  0     1  0            999 V2000
   -0.1625    0.4250    0.0000 N   0  0  3  0  0  0           0  0  0
   -0.8750    0.8375    0.0000 C   0  0  0  0  0  0           0  0  0
    0.5917    0.7625    0.0000 C   0  0  2  0  0  0           0  0  0
    0.7625    1.5708    0.0000 C   0  0  0  0  0  0           0  0  0
   -2.3000    0.8458    0.0000 N   0  0  0  0  0  0           0  0  0
   -1.5875    0.4250    0.0000 C   0  0  1  0  0  0           0  0  0
   -3.0208    0.4333    0.0000 C   0  0  0  0  0  0           0  0  0
    1.5500    1.8250    0.0000 N   0  0  0  0  0  0           0  0  0
    2.3750    1.8250    0.0000 C   0  0  3  0  0  0           0  0  0
   -0.0875   -0.3917    0.0000 C   0  0  0  0  0  0           0  0  0
    1.1417    0.1500    0.0000 C   0  0  0  0  0  0           0  0  0
    0.7250   -0.5667    0.0000 C   0  0  2  0  0  0           0  0  0
    2.7875    1.1125    0.0000 C   0  0  0  0  0  0           0  0  0
   -0.8708    1.6625    0.0000 O   0  0  0  0  0  0           0  0  0
    0.1500    2.1208    0.0000 O   0  0  0  0  0  0           0  0  0
   -3.0208   -0.3917    0.0000 O   0  0  0  0  0  0           0  0  0
    1.0625   -1.3250    0.0000 O   0  0  0  0  0  0           0  0  0
    3.6000    1.1125    0.0000 C   0  0  0  0  0  0           0  0  0
   -1.5958   -0.4000    0.0000 C   0  0  3  0  0  0           0  0  0
   -3.7333    0.8500    0.0000 C   0  0  3  0  0  0           0  0  0
   -4.4458    0.4375    0.0000 N   0  0  0  0  0  0           0  0  0
    0.5750   -1.9875    0.0000 C   0  0  0  0  0  0           0  0  0
    2.7750    2.5375    0.0000 C   0  0  0  0  0  0           0  0  0
    3.6000    2.5375    0.0000 C   0  0  0  0  0  0           0  0  0
    2.3750    0.4125    0.0000 C   0  0  0  0  0  0           0  0  0
    4.0125    1.8250    0.0000 C   0  0  0  0  0  0           0  0  0
    4.0125    0.4125    0.0000 C   0  0  0  0  0  0           0  0  0
   -0.8750   -0.8125    0.0000 C   0  0  0  0  0  0           0  0  0
   -2.3125   -0.8000    0.0000 C   0  0  0  0  0  0           0  0  0
   -5.1583    0.8500    0.0000 C   0  0  0  0  0  0           0  0  0
   -3.7250    1.6750    0.0000 C   0  0  0  0  0  0           0  0  0
   -0.2458   -1.9000    0.0000 C   0  0  0  0  0  0           0  0  0
    0.9167   -2.7375    0.0000 C   0  0  0  0  0  0           0  0  0
    2.7875   -0.3000    0.0000 C   0  0  0  0  0  0           0  0  0
    3.6042   -0.3000    0.0000 C   0  0  0  0  0  0           0  0  0
   -0.8875   -1.6375    0.0000 C   0  0  0  0  0  0           0  0  0
   -2.3208   -1.6250    0.0000 C   0  0  0  0  0  0           0  0  0
    0.4375   -3.4042    0.0000 C   0  0  0  0  0  0           0  0  0
   -0.7250   -2.5667    0.0000 C   0  0  0  0  0  0           0  0  0
   -0.3875   -3.3250    0.0000 C   0  0  0  0  0  0           0  0  0
   -1.6083   -2.0500    0.0000 C   0  0  0  0  0  0           0  0  0
  2  1  1  0     0  0
  3  1  1  0     0  0
  3  4  1  6     0  0
  5  6  1  0     0  0
  6  2  1  0     0  0
  7  5  1  0     0  0
  8  4  1  0     0  0
  9  8  1  0     0  0
 10  1  1  0     0  0
 11  3  1  0     0  0
 12 10  1  0     0  0
 13  9  1  0     0  0
 14  2  2  0     0  0
 15  4  2  0     0  0
 16  7  2  0     0  0
 12 17  1  6     0  0
 18 13  2  0     0  0
  6 19  1  6     0  0
 20  7  1  0     0  0
 21 20  1  0     0  0
 22 17  1  0     0  0
 23  9  1  0     0  0
 24 23  1  0     0  0
 25 13  1  0     0  0
 26 24  1  0     0  0
 27 18  1  0     0  0
 28 19  1  0     0  0
 29 19  1  0     0  0
 30 21  1  0     0  0
 31 20  1  0     0  0
 32 22  2  0     0  0
 33 22  1  0     0  0
 34 25  2  0     0  0
 35 34  1  0     0  0
 36 28  1  0     0  0
 37 29  1  0     0  0
 38 33  2  0     0  0
 39 32  1  0     0  0
 40 38  1  0     0  0
 41 37  1  0     0  0
 11 12  1  0     0  0
 36 41  1  0     0  0
 39 40  2  0     0  0
 18 26  1  0     0  0
 27 35  2  0     0  0
M  END