
          03140815512D 1   1.00000     0.00000     0

 18 19  0     0  0            999 V2000
   15.7491  -14.7053    0.0000 C   0  0  0  0  0  0           0  0  0
   15.7491  -15.5340    0.0000 C   0  0  0  0  0  0           0  0  0
   16.4629  -15.9460    0.0000 N   0  0  3  0  0  0           0  0  0
   17.1810  -15.5340    0.0000 C   0  0  0  0  0  0           0  0  0
   17.1810  -14.7053    0.0000 C   0  0  0  0  0  0           0  0  0
   16.4629  -14.2887    0.0000 C   0  0  0  0  0  0           0  0  0
   16.4617  -16.7701    0.0000 S   0  0  3  0  0  0           0  0  0
   16.4542  -17.5896    0.0000 N   0  0  0  0  0  0           0  0  0
   17.2857  -16.7744    0.0000 O   0  0  0  0  0  0           0  0  0
   15.6376  -16.7703    0.0000 O   0  0  0  0  0  0           0  0  0
   15.7368  -17.9951    0.0000 C   0  0  0  0  0  0           0  0  0
   15.0301  -17.5737    0.0000 C   0  0  0  0  0  0           0  0  0
   14.3131  -17.9785    0.0000 C   0  0  0  0  0  0           0  0  0
   14.3052  -18.8035    0.0000 C   0  0  0  0  0  0           0  0  0
   15.0201  -19.2219    0.0000 C   0  0  0  0  0  0           0  0  0
   15.7341  -18.8147    0.0000 C   0  0  0  0  0  0           0  0  0
   15.0155  -20.0460    0.0000 Cl  0  0  0  0  0  0           0  0  0
   13.6034  -17.5597    0.0000 Cl  0  0  0  0  0  0           0  0  0
  7  9  2  0     0  0
  2  3  1  0     0  0
  7 10  2  0     0  0
  3  4  1  0     0  0
  8 11  1  0     0  0
  4  5  1  0     0  0
 11 12  2  0     0  0
  5  6  1  0     0  0
 12 13  1  0     0  0
 13 14  2  0     0  0
  3  7  1  0     0  0
 14 15  1  0     0  0
  1  2  1  0     0  0
 15 16  2  0     0  0
 16 11  1  0     0  0
  7  8  1  0     0  0
 15 17  1  0     0  0
  1  6  1  0     0  0
 13 18  1  0     0  0
M  END