
  SciTegic06051315212D

 34 39  0  0  0  0            999 V2000
    3.2238   -6.8671    0.0000 C   0  0
    3.2226   -7.6946    0.0000 N   0  0
    3.9375   -8.1074    0.0000 C   0  0
    4.6540   -7.6941    0.0000 C   0  0
    4.6511   -6.8634    0.0000 C   0  0
    3.9357   -6.4543    0.0000 C   0  0
    5.3026   -6.3570    0.0000 N   0  0
    6.0505   -5.2485    0.0000 N   0  0
    5.2748   -5.5313    0.0000 C   0  0
    6.5586   -5.9000    0.0000 C   0  0
    6.0948   -6.5815    0.0000 C   0  0
    6.4531   -7.3218    0.0000 C   0  0
    7.2751   -7.3818    0.0000 C   0  0
    7.7374   -6.6955    0.0000 C   0  0
    7.3764   -5.9580    0.0000 C   0  0
    3.9373   -8.9325    0.0000 N   0  0
    3.2226   -9.3448    0.0000 C   0  0
    4.5448   -5.1503    0.0000 C   0  0
    4.5140   -4.3247    0.0000 C   0  0
    3.1209   -5.2092    0.0000 C   0  0
    3.8505   -5.5897    0.0000 C   0  0
    3.0859   -4.3806    0.0000 C   0  0
    3.7873   -3.9411    0.0000 C   0  0
    3.7564   -3.1158    0.0000 C   0  0
    3.0249   -2.7290    0.0000 C   0  0
    2.3230   -3.1737    0.0000 C   0  0
    2.3574   -3.9974    0.0000 C   0  0
    2.5094   -8.9338    0.0000 C   0  0
    1.7969   -9.3426    0.0000 C   0  0
    1.7925  -10.1680    0.0000 C   0  0
    2.5067  -10.5829    0.0000 C   0  0
    3.2254  -10.1724    0.0000 C   0  0
    8.5604   -6.7523    0.0000 O   0  0
    8.9229   -7.4934    0.0000 C   0  0
  1  2  2  0
  2  3  1  0
  3  4  2  0
  4  5  1  0
  5  6  2  0
  6  1  1  0
  5  7  1  0
  7 11  1  0
 10  8  1  0
  8  9  2  0
  9  7  1  0
 10 11  2  0
 11 12  1  0
 12 13  2  0
 13 14  1  0
 14 15  2  0
 15 10  1  0
  3 16  1  0
 16 17  1  0
 18 19  2  0
 19 23  1  0
 22 20  1  0
 20 21  2  0
 21 18  1  0
  9 18  1  0
 22 23  1  0
 23 24  2  0
 24 25  1  0
 25 26  2  0
 26 27  1  0
 27 22  2  0
 17 28  1  0
 17 32  1  0
 28 29  1  0
 29 30  1  0
 30 31  1  0
 31 32  1  0
 14 33  1  0
 33 34  1  0
M  END