
          01230816042D 1   1.00000     0.00000     0

 35 40  0     0  0            999 V2000
   20.9482  -12.3904    0.0000 C   0  0  0  0  0  0           0  0  0
   20.3101  -13.0770    0.0000 C   0  0  3  0  0  0           0  0  0
   20.1448  -12.6191    0.0000 C   0  0  3  0  0  0           0  0  0
   19.5975  -12.8217    0.0000 C   0  0  0  0  0  0           0  0  0
   19.3908  -12.3239    0.0000 C   0  0  0  0  0  0           0  0  0
   18.8506  -13.0106    0.0000 C   0  0  3  0  0  0           0  0  0
   20.1513  -13.4716    0.0000 C   0  0  0  0  0  0           0  0  0
   19.5977  -14.1320    0.0000 C   0  0  3  0  0  0           0  0  0
   20.3181  -13.8765    0.0000 C   0  0  0  0  0  0           0  0  0
   18.8484  -13.8295    0.0000 C   0  0  0  0  0  0           0  0  0
   15.0487  -10.1506    0.0000 C   0  0  0  0  0  0           0  0  0
   14.2238  -10.1665    0.0000 C   0  0  0  0  0  0           0  0  0
   13.8293  -10.8863    0.0000 C   0  0  0  0  0  0           0  0  0
   14.2513  -11.5903    0.0000 C   0  0  0  0  0  0           0  0  0
   15.0761  -11.5744    0.0000 C   0  0  0  0  0  0           0  0  0
   15.4790  -10.8544    0.0000 C   0  0  3  0  0  0           0  0  0
   16.3039  -10.8385    0.0000 C   0  0  0  0  0  0           0  0  0
   16.8026  -11.4923    0.0000 N   0  0  0  0  0  0           0  0  0
   17.5822  -11.2222    0.0000 C   0  0  0  0  0  0           0  0  0
   17.5663  -10.3974    0.0000 C   0  0  0  0  0  0           0  0  0
   16.7769  -10.1576    0.0000 N   0  0  0  0  0  0           0  0  0
   18.2588  -11.6942    0.0000 C   0  0  0  0  0  0           0  0  0
   18.1883  -12.5162    0.0000 O   0  0  0  0  0  0           0  0  0
   18.2242   -9.8997    0.0000 C   0  0  0  0  0  0           0  0  0
   18.9842  -10.2207    0.0000 O   0  0  0  0  0  0           0  0  0
   18.1222   -9.0810    0.0000 N   0  0  0  0  0  0           0  0  0
   18.7802   -8.5834    0.0000 C   0  0  0  0  0  0           0  0  0
   19.5397   -8.9082    0.0000 C   0  0  0  0  0  0           0  0  0
   20.1973   -8.4113    0.0000 C   0  0  0  0  0  0           0  0  0
   20.0956   -7.5917    0.0000 C   0  0  0  0  0  0           0  0  0
   19.3306   -7.2715    0.0000 C   0  0  0  0  0  0           0  0  0
   18.6762   -7.7704    0.0000 C   0  0  0  0  0  0           0  0  0
   20.9571   -8.7327    0.0000 C   0  0  0  0  0  0           0  0  0
   21.0587   -9.5514    0.0000 O   0  0  0  0  0  0           0  0  0
   21.6153   -8.2353    0.0000 O   0  0  0  0  0  0           0  0  0
  5  6  1  0     0  0
 16 17  1  0     0  0
 20 21  1  0     0  0
  7  8  1  0     0  0
 18 19  1  0     0  0
  3  7  1  0     0  0
  2  9  1  0     0  0
  6 10  1  0     0  0
 17 18  1  0     0  0
 19 20  2  0     0  0
 21 17  2  0     0  0
 10  8  1  0     0  0
 19 22  1  0     0  0
  8  9  1  0     0  0
 22 23  1  0     0  0
 23  6  1  0     0  0
 11 12  1  0     0  0
 20 24  1  0     0  0
 24 25  2  0     0  0
  1  2  1  0     0  0
 24 26  1  0     0  0
  1  3  1  0     0  0
 26 27  1  0     0  0
  2  4  1  0     0  0
 27 28  2  0     0  0
  3  5  1  0     0  0
 28 29  1  0     0  0
  4  6  1  0     0  0
 29 30  2  0     0  0
 11 16  1  0     0  0
 30 31  1  0     0  0
 12 13  1  0     0  0
 31 32  2  0     0  0
 32 27  1  0     0  0
 13 14  1  0     0  0
 29 33  1  0     0  0
 14 15  1  0     0  0
 33 34  2  0     0  0
 15 16  1  0     0  0
 33 35  1  0     0  0
M  END