
  SciTegic07101214422D

113114  0  0  0  0            999 V2000
   -7.6990  -24.3764    0.0000 O   0  0
   -7.1115  -24.9598    0.0000 S   0  0
   -7.9043  -25.1769    0.0000 O   0  0
   -9.2518  -27.0181    0.0000 N   0  0
   -9.2506  -26.1908    0.0000 C   0  0
   -8.5404  -25.7779    0.0000 C   0  0
   -8.5386  -27.4309    0.0000 C   0  0
   -7.8290  -27.0218    0.0000 C   0  0
   -7.8214  -26.1949    0.0000 C   0  0
   -7.1117  -25.7840    0.0000 C   0  0
   -6.3934  -26.1987    0.0000 C   0  0
   -6.3970  -27.0287    0.0000 C   0  0
   -7.1144  -27.4359    0.0000 C   0  0
   -6.3954  -24.5480    0.0000 N   0  0
   -5.6744  -24.9622    0.0000 C   0  0
   -4.9590  -24.5514    0.0000 C   0  0
   -4.2455  -24.9656    0.0000 N   0  0
   -3.5300  -24.5548    0.0000 C   0  0
   -2.8165  -24.9691    0.0000 C   0  0
   -2.1011  -24.5583    0.0000 N   0  0
   -1.3876  -24.9725    0.0000 C   0  0
   -3.5280  -23.7298    0.0000 O   0  0
   -0.6721  -24.5617    0.0000 C   0  0
    0.0413  -24.9759    0.0000 N   0  0
   -0.6702  -23.7367    0.0000 O   0  0
    0.7568  -24.5652    0.0000 C   0  0
    1.4703  -24.9794    0.0000 C   0  0
    2.1857  -24.5686    0.0000 C   0  0
    2.8992  -24.9828    0.0000 N   0  0
    3.6147  -24.5720    0.0000 C   0  0  1  0  0  0
    2.1877  -23.7436    0.0000 O   0  0
   18.6150  -25.0258    0.0000 N   0  0
   19.3304  -24.6150    0.0000 C   0  0  1  0  0  0
   20.0439  -25.0292    0.0000 C   0  0
   20.7594  -24.6184    0.0000 N   0  0
   20.0419  -25.8542    0.0000 O   0  0
   19.3324  -23.7900    0.0000 C   0  0
   18.6189  -23.3758    0.0000 C   0  0
   18.6209  -22.5508    0.0000 C   0  0
   17.9074  -22.1365    0.0000 N   0  0
   17.9094  -21.3115    0.0000 C   0  0
   17.1960  -20.8973    0.0000 N   0  0
   18.6249  -20.9008    0.0000 N   0  0
   21.4728  -25.0326    0.0000 C   0  0  1  0  0  0
   22.1883  -24.6219    0.0000 C   0  0
   21.4708  -25.8576    0.0000 C   0  0
   20.7554  -26.2684    0.0000 C   0  0
   20.7534  -27.0934    0.0000 C   0  0
   20.0379  -27.5042    0.0000 N   0  0
   20.0360  -28.3292    0.0000 C   0  0
   19.3205  -28.7400    0.0000 N   0  0
   20.7494  -28.7434    0.0000 N   0  0
   22.9018  -25.0361    0.0000 N   0  0
   22.1903  -23.7969    0.0000 O   0  0
   14.3281  -25.0154    0.0000 N   0  0
   15.0436  -24.6047    0.0000 C   0  0  1  0  0  0
   15.7571  -25.0189    0.0000 C   0  0
   16.4725  -24.6081    0.0000 N   0  0
   15.7551  -25.8439    0.0000 O   0  0
   15.0456  -23.7797    0.0000 C   0  0
   14.3321  -23.3654    0.0000 C   0  0
   14.3341  -22.5404    0.0000 C   0  0
   13.6206  -22.1262    0.0000 N   0  0
   13.6226  -21.3012    0.0000 C   0  0
   12.9091  -20.8870    0.0000 N   0  0
   14.3381  -20.8904    0.0000 N   0  0
   17.1860  -25.0223    0.0000 C   0  0  1  0  0  0
   17.9015  -24.6115    0.0000 C   0  0
   17.1840  -25.8473    0.0000 C   0  0
   16.4686  -26.2581    0.0000 C   0  0
   16.4666  -27.0831    0.0000 C   0  0
   15.7511  -27.4939    0.0000 N   0  0
   15.7491  -28.3189    0.0000 C   0  0
   15.0337  -28.7296    0.0000 N   0  0
   16.4626  -28.7331    0.0000 N   0  0
   17.9035  -23.7865    0.0000 O   0  0
   10.0413  -25.0051    0.0000 N   0  0
   10.7568  -24.5943    0.0000 C   0  0  1  0  0  0
   11.4703  -25.0086    0.0000 C   0  0
   12.1857  -24.5978    0.0000 N   0  0
   11.4683  -25.8335    0.0000 O   0  0
   10.7588  -23.7693    0.0000 C   0  0
   10.0453  -23.3551    0.0000 C   0  0
   10.0473  -22.5301    0.0000 C   0  0
    9.3338  -22.1159    0.0000 N   0  0
    9.3358  -21.2909    0.0000 C   0  0
    8.6223  -20.8767    0.0000 N   0  0
   10.0513  -20.8801    0.0000 N   0  0
   12.8992  -25.0120    0.0000 C   0  0  1  0  0  0
   13.6147  -24.6012    0.0000 C   0  0
   12.8972  -25.8370    0.0000 C   0  0
   12.1818  -26.2478    0.0000 C   0  0
   12.1798  -27.0728    0.0000 C   0  0
   11.4643  -27.4835    0.0000 N   0  0
   11.4623  -28.3085    0.0000 C   0  0
   10.7469  -28.7193    0.0000 N   0  0
   12.1758  -28.7228    0.0000 N   0  0
   13.6167  -23.7762    0.0000 O   0  0
    4.3244  -24.9877    0.0000 C   0  0
    5.0399  -24.5769    0.0000 N   0  0
    4.3225  -25.8127    0.0000 O   0  0
    3.6130  -23.7485    0.0000 C   0  0
    2.8995  -23.3343    0.0000 C   0  0
    2.9015  -22.5093    0.0000 C   0  0
    5.7534  -24.9912    0.0000 C   0  0
    6.4688  -24.5804    0.0000 C   0  0
    2.1880  -22.0951    0.0000 C   0  0
    2.1900  -21.2701    0.0000 N   0  0
    7.1823  -24.9946    0.0000 C   0  0
    7.8978  -24.5838    0.0000 C   0  0
    8.6113  -24.9980    0.0000 C   0  0
    9.3267  -24.5873    0.0000 C   0  0
    9.3287  -23.7623    0.0000 O   0  0
 56 57  1  0
 27 28  1  0
 57 58  1  0
  8  7  2  0
 57 59  2  0
 28 29  1  0
 56 60  1  6
  2 14  1  0
 60 61  1  0
 29 30  1  0
 61 62  1  0
  7  4  1  0
 62 63  1  0
 28 31  2  0
 63 64  1  0
 14 15  1  0
 64 65  1  0
  2  1  2  0
 64 66  2  0
 32 33  1  0
 58 67  1  0
 15 16  1  0
 67 68  1  0
 33 34  1  0
 67 69  1  1
  4  5  2  0
 69 70  1  0
 34 35  1  0
 70 71  1  0
 16 17  1  0
 71 72  1  0
 34 36  2  0
 72 73  1  0
  8  9  1  0
 73 74  1  0
 33 37  1  6
 73 75  2  0
 68 32  1  0
 17 18  1  0
 68 76  2  0
 37 38  1  0
  3  2  2  0
 77 78  1  0
 38 39  1  0
 78 79  1  0
 18 19  1  0
 79 80  1  0
 39 40  1  0
 79 81  2  0
  9 10  1  0
 78 82  1  6
 40 41  1  0
 82 83  1  0
 19 20  1  0
 83 84  1  0
 41 42  1  0
 84 85  1  0
  5  6  1  0
 85 86  1  0
 41 43  2  0
 86 87  1  0
 20 21  1  0
 86 88  2  0
 35 44  1  0
 80 89  1  0
 10 11  2  0
 89 90  1  0
 44 45  1  0
 89 91  1  1
 18 22  2  0
 91 92  1  0
 44 46  1  1
 92 93  1  0
  6  9  2  0
 93 94  1  0
 46 47  1  0
 94 95  1  0
 21 23  1  0
 95 96  1  0
 47 48  1  0
 95 97  2  0
 90 55  1  0
 11 12  1  0
 90 98  2  0
 48 49  1  0
 30 99  1  0
 23 24  1  0
 99100  1  0
 49 50  1  0
 99101  2  0
 30102  1  6
 50 51  1  0
102103  1  0
 23 25  2  0
103104  1  0
 50 52  2  0
100105  1  0
 12 13  2  0
105106  1  0
 45 53  1  0
104107  1  0
 24 26  1  0
107108  1  0
 45 54  2  0
106109  1  0
 13  8  1  0
109110  1  0
 26 27  1  0
110111  1  0
 55 56  1  0
111112  1  0
112 77  1  0
 10  2  1  0
112113  2  0
M  END