
  SciTegic          2D

 38 41  0  0  0  0            999 V2000
  -11.9716   13.0166    0.0000 C   0  0
  -14.0499   13.0229    0.0000 C   0  0
  -13.0089   13.6196    0.0000 C   0  0
  -19.8317    3.3412    0.0000 O   0  0
   -9.4253    8.6619    0.0000 O   0  0
  -19.4521    5.3845    0.0000 O   0  0
    1.2990   -0.7500    0.0000 C   0  0
    0.0000   -1.5000    0.0000 C   0  0
    1.2990    0.7500    0.0000 C   0  0
   -1.2990   -0.7500    0.0000 C   0  0
    0.0000    1.5000    0.0000 C   0  0
  -15.1255    4.8494    0.0000 C   0  0
  -17.1036    6.5338    0.0000 C   0  0
  -14.1530    5.9915    0.0000 C   0  0
  -16.1311    7.6758    0.0000 C   0  0
   -5.3273    7.4917    0.0000 C   0  0
  -11.8073   10.0354    0.0000 C   0  0
   -3.8933    3.7570    0.0000 C   0  0
   -3.8912    5.2578    0.0000 C   0  0
   -2.5973    1.5031    0.0000 C   0  0
  -17.5761    3.9799    0.0000 C   0  0
   -6.5408    5.3898    0.0000 N   0  0
  -14.2344   10.0439    0.0000 N   0  0
  -11.4082    7.4127    0.0000 N   0  0
   -9.0349    6.3510    0.0000 N   0  0
   -2.5951    3.0039    0.0000 O   0  0
   -6.7945    7.8036    0.0000 S   0  0
  -19.0518    4.2532    0.0000 C   0  0
   -9.9153    7.5665    0.0000 C   0  0
   -1.2990    0.7500    0.0000 C   0  0
  -16.6008    5.1205    0.0000 C   0  0
   -5.1894    6.0109    0.0000 C   0  0
  -14.6550    7.3994    0.0000 C   0  0
  -13.0178   10.9214    0.0000 C   0  0
  -12.2886    8.6282    0.0000 C   0  0
   -7.5445    6.5046    0.0000 C   0  0
  -13.7758    8.6157    0.0000 N   0  0
  -13.0125   12.4196    0.0000 C   0  0
  1 38  1  0
  2 38  1  0
  3 38  1  0
 28  4  2  0
 29  5  2  0
 28  6  1  0
  7  9  2  0
  7  8  1  0
  8 10  2  0
  9 11  1  0
 10 30  1  0
 11 30  2  0
 12 14  2  0
 12 31  1  0
 13 15  1  0
 13 31  2  0
 14 33  1  0
 15 33  2  0
 16 27  1  0
 16 32  2  0
 17 34  1  0
 17 35  2  0
 18 26  1  0
 18 19  1  0
 19 32  1  0
 20 30  1  0
 20 26  1  0
 21 31  1  0
 21 28  1  0
 32 22  1  0
 36 22  2  0
 34 23  2  0
 23 37  1  0
 29 24  1  0
 35 24  1  0
 36 25  1  0
 29 25  1  0
 36 27  1  0
 33 37  1  0
 34 38  1  0
 35 37  1  0
M  END