
  SciTegic01161211212D

 37 38  0  0  0  0            999 V2000
   -3.0209   -9.0351    0.0000 C   0  0
   -2.3058   -8.6237    0.0000 C   0  0
   -1.5919   -9.0374    0.0000 C   0  0  2  0  0  0
   -3.7342   -8.6185    0.0000 C   0  0
   -4.4489   -9.0292    0.0000 C   0  0
   -4.4506   -9.8551    0.0000 C   0  0
   -3.7318  -10.2686    0.0000 C   0  0
   -3.0201   -9.8555    0.0000 C   0  0
   -5.1652  -10.2674    0.0000 O   0  0
   -1.5933   -9.8624    0.0000 N   0  0
   -0.8768   -8.6260    0.0000 C   0  0
   -0.1630   -9.0396    0.0000 N   0  0
   -0.8755   -7.8010    0.0000 O   0  0
    0.5521   -8.6283    0.0000 C   0  0  1  0  0  0
    1.2659   -9.0419    0.0000 C   0  0
    0.5534   -7.8033    0.0000 C   0  0
    1.2646   -9.8669    0.0000 O   0  0
    1.9811   -8.6305    0.0000 N   0  0
    2.6949   -9.0442    0.0000 C   0  0
    3.4100   -8.6328    0.0000 C   0  0
    4.1238   -9.0464    0.0000 N   0  0
    3.4113   -7.8078    0.0000 O   0  0
    4.1225   -9.8714    0.0000 C   0  0
    4.8389   -8.6351    0.0000 C   0  0  2  0  0  0
    5.5528   -9.0487    0.0000 C   0  0
    4.8402   -7.8101    0.0000 C   0  0
    5.5554   -7.3987    0.0000 C   0  0
    6.2679   -8.6373    0.0000 O   0  0
    5.5514   -9.8737    0.0000 N   0  0
    6.2653  -10.2873    0.0000 C   0  0
    6.2640  -11.1123    0.0000 C   0  0
    6.9778  -11.5260    0.0000 O   0  0
    6.2676   -7.8165    0.0000 C   0  0
    6.9822   -7.4058    0.0000 C   0  0
    6.9840   -6.5799    0.0000 C   0  0
    6.2651   -6.1664    0.0000 C   0  0
    5.5534   -6.5795    0.0000 C   0  0
  6  9  1  0
 18 19  1  0
  4  5  1  0
 19 20  1  0
  3 10  1  1
 20 21  1  0
  2  3  1  0
 20 22  2  0
  3 11  1  0
 21 23  1  0
  5  6  2  0
 24 21  1  1
 11 12  1  0
 24 25  1  0
  1  2  1  0
 24 26  1  0
 11 13  2  0
 26 27  1  0
  6  7  1  0
 25 28  2  0
 14 12  1  6
 25 29  1  0
  1  4  2  0
 29 30  1  0
 14 15  1  0
 30 31  1  0
  7  8  2  0
 31 32  1  0
 14 16  1  0
 27 33  2  0
  8  1  1  0
 33 34  1  0
 15 17  2  0
 34 35  2  0
 35 36  1  0
 15 18  1  0
 36 37  2  0
 37 27  1  0
M  END