
  SciTegic12171312592D

 24 25  0  0  0  0            999 V2000
   17.1227  -26.7061    0.0000 C   0  0
   17.1227  -27.5216    0.0000 C   0  0
   17.8307  -27.9335    0.0000 C   0  0
   18.5386  -27.5216    0.0000 C   0  0
   18.5386  -26.7061    0.0000 C   0  0
   17.8307  -26.2942    0.0000 C   0  0
   19.2507  -27.9335    0.0000 C   0  0
   19.9587  -27.5216    0.0000 N   0  0
   19.9587  -26.7061    0.0000 C   0  0
   19.2507  -26.2942    0.0000 C   0  0
   19.2507  -28.7528    0.0000 Cl  0  0
   19.2507  -25.4749    0.0000 O   0  0
   20.6663  -26.2944    0.0000 C   0  0
   20.6663  -25.4751    0.0000 O   0  0
   21.3780  -26.7061    0.0000 N   0  0
   22.0856  -26.2944    0.0000 C   0  0  2  0  0  0
   22.7932  -26.7061    0.0000 C   0  0
   22.0854  -25.4752    0.0000 C   0  0
   23.5008  -26.2944    0.0000 O   0  0
   22.7932  -27.5212    0.0000 O   0  0
   22.7933  -25.0665    0.0000 C   0  0
   22.7933  -24.2493    0.0000 C   0  0
   23.5010  -23.8408    0.0000 O   0  0
   22.0856  -23.8407    0.0000 O   0  0
  1  2  2  0
  2  3  1  0
  3  4  2  0
  4  5  1  0
  5  6  2  0
  6  1  1  0
  4  7  1  0
  7  8  2  0
  8  9  1  0
  9 10  2  0
 10  5  1  0
  7 11  1  0
 10 12  1  0
  9 13  1  0
 13 14  2  0
 13 15  1  0
 15 16  1  0
 16 17  1  0
 16 18  1  1
 17 19  1  0
 17 20  2  0
 18 21  1  0
 21 22  1  0
 22 23  1  0
 22 24  2  0
M  END