
          11280715132D 1   1.00000     0.00000     0

 38 41  0     0  0            999 V2000
    5.0875    0.0875    0.0000 S   0  0  3  0  0  0           0  0  0
    6.6667   -6.7375    0.0000 C   0  0  0  0  0  0           0  0  0
    5.8042    0.5083    0.0000 C   0  0  3  0  0  0           0  0  0
    6.1375   -7.9667    0.0000 N   0  0  0  0  0  0           0  0  0
    6.8417   -7.5417    0.0000 N   0  0  0  0  0  0           0  0  0
    5.5167   -7.4292    0.0000 N   0  0  0  0  0  0           0  0  0
    3.6542   -2.4042    0.0000 C   0  0  0  0  0  0           0  0  0
    5.8500   -6.6625    0.0000 N   0  0  0  0  0  0           0  0  0
    7.2167   -6.1167    0.0000 C   0  0  0  0  0  0           0  0  0
    4.3667   -2.8167    0.0000 N   0  0  3  0  0  0           0  0  0
    4.3667   -0.3292    0.0000 N   0  0  0  0  0  0           0  0  0
    3.6542   -1.5792    0.0000 C   0  0  0  0  0  0           0  0  0
    7.2167   -5.2917    0.0000 C   0  0  0  0  0  0           0  0  0
    5.0875    0.9208    0.0000 O   0  0  0  0  0  0           0  0  0
    5.8042   -0.3250    0.0000 O   0  0  0  0  0  0           0  0  0
    2.9417   -2.8167    0.0000 N   0  0  0  0  0  0           0  0  0
    6.5042   -4.8792    0.0000 C   0  0  0  0  0  0           0  0  0
    4.3750   -1.1542    0.0000 C   0  0  0  0  0  0           0  0  0
    4.3667   -3.6417    0.0000 C   0  0  0  0  0  0           0  0  0
    6.4500    0.8875    0.0000 F   0  0  0  0  0  0           0  0  0
    6.6125    0.2083    0.0000 F   0  0  0  0  0  0           0  0  0
    5.9292    1.3583    0.0000 F   0  0  0  0  0  0           0  0  0
    5.7917   -5.2917    0.0000 C   0  0  0  0  0  0           0  0  0
    6.5042   -4.0542    0.0000 C   0  0  0  0  0  0           0  0  0
    5.0792   -4.0542    0.0000 C   0  0  0  0  0  0           0  0  0
    5.7875   -3.6417    0.0000 C   0  0  0  0  0  0           0  0  0
    5.0792   -4.8792    0.0000 C   0  0  0  0  0  0           0  0  0
    5.0792   -2.4042    0.0000 C   0  0  0  0  0  0           0  0  0
    7.9292   -6.5292    0.0000 C   0  0  0  0  0  0           0  0  0
    2.9417   -1.1667    0.0000 C   0  0  0  0  0  0           0  0  0
    7.9292   -4.8792    0.0000 C   0  0  0  0  0  0           0  0  0
    2.2292   -2.4042    0.0000 C   0  0  0  0  0  0           0  0  0
    5.7875   -2.8167    0.0000 C   0  0  0  0  0  0           0  0  0
    2.2292   -1.5792    0.0000 C   0  0  0  0  0  0           0  0  0
    6.4917   -2.4125    0.0000 C   0  0  0  0  0  0           0  0  0
    8.6417   -6.1167    0.0000 C   0  0  0  0  0  0           0  0  0
    8.6417   -5.2917    0.0000 C   0  0  0  0  0  0           0  0  0
    7.2042   -2.8167    0.0000 C   0  0  0  0  0  0           0  0  0
  2  9  1  0     0  0
  3  1  1  0     0  0
  4  5  2  0     0  0
  5  2  1  0     0  0
  6  8  1  0     0  0
  7 12  1  0     0  0
  8  2  2  0     0  0
  9 13  2  0     0  0
 10  7  1  0     0  0
 11  1  1  0     0  0
 12 18  1  0     0  0
 13 17  1  0     0  0
 14  1  2  0     0  0
 15  1  2  0     0  0
 16  7  2  0     0  0
 17 23  2  0     0  0
 18 11  1  0     0  0
 19 10  1  0     0  0
 20  3  1  0     0  0
 21  3  1  0     0  0
 22  3  1  0     0  0
 23 27  1  0     0  0
 24 26  2  0     0  0
 25 19  1  0     0  0
 26 25  1  0     0  0
 27 25  2  0     0  0
 28 10  1  0     0  0
 29  9  1  0     0  0
 30 12  2  0     0  0
 31 13  1  0     0  0
 32 34  2  0     0  0
 33 28  1  0     0  0
 34 30  1  0     0  0
 35 33  1  0     0  0
 36 37  1  0     0  0
 37 31  2  0     0  0
 38 35  1  0     0  0
 16 32  1  0     0  0
 17 24  1  0     0  0
 36 29  2  0     0  0
  4  6  1  0     0  0
M  END