
          08180812482D 1   1.00000     0.00000     0

 16 17  0     0  0            999 V2000
    4.6544   -4.6944    0.0000 C   0  0  0  0  0  0           0  0  0
    5.4816   -4.6809    0.0000 C   0  0  0  0  0  0           0  0  0
    5.8817   -3.9588    0.0000 C   0  0  0  0  0  0           0  0  0
    5.4557   -3.2499    0.0000 C   0  0  0  0  0  0           0  0  0
    4.6254   -3.2675    0.0000 C   0  0  0  0  0  0           0  0  0
    4.2290   -3.9900    0.0000 C   0  0  0  0  0  0           0  0  0
    3.4042   -4.0071    0.0000 C   0  0  0  0  0  0           0  0  0
    2.9770   -3.3014    0.0000 C   0  0  0  0  0  0           0  0  0
    2.1521   -3.3185    0.0000 N   0  0  0  0  0  0           0  0  0
    6.7066   -3.9444    0.0000 O   0  0  0  0  0  0           0  0  0
    5.8518   -2.5292    0.0000 C   0  0  0  0  0  0           0  0  0
    6.6778   -2.5146    0.0000 C   0  0  0  0  0  0           0  0  0
    7.0763   -1.7931    0.0000 C   0  0  0  0  0  0           0  0  0
    6.6500   -1.0858    0.0000 C   0  0  0  0  0  0           0  0  0
    5.8210   -1.1044    0.0000 C   0  0  0  0  0  0           0  0  0
    5.4261   -1.8264    0.0000 C   0  0  0  0  0  0           0  0  0
  7  8  1  0     0  0
  8  9  1  0     0  0
  4  5  1  0     0  0
  3 10  1  0     0  0
  2  3  1  0     0  0
  5  6  2  0     0  0
 11 12  2  0     0  0
  6  1  1  0     0  0
 12 13  1  0     0  0
  1  2  2  0     0  0
 13 14  2  0     0  0
  6  7  1  0     0  0
 14 15  1  0     0  0
  3  4  2  0     0  0
 15 16  2  0     0  0
 16 11  1  0     0  0
  4 11  1  0     0  0
M  END