
  SciTegic09261414532D

 50 57  0  0  0  0            999 V2000
    8.6422   -9.5162    0.0000 N   0  0
    7.8565   -9.7235    0.0000 C   0  0
    7.8119  -10.5395    0.0000 N   0  0
    9.0895  -10.1989    0.0000 C   0  0
    8.5743  -10.8287    0.0000 C   0  0
    8.8624  -11.5877    0.0000 C   0  0
    9.6654  -11.7180    0.0000 C   0  0
   10.1795  -11.0833    0.0000 C   0  0
    9.8886  -10.3268    0.0000 C   0  0
    7.0964   -9.4286    0.0000 C   0  0
    6.9748   -8.6194    0.0000 C   0  0
    6.2146   -8.3217    0.0000 C   0  0
    5.5753   -8.8322    0.0000 C   0  0
    5.7014   -9.6439    0.0000 C   0  0
    6.4616   -9.9378    0.0000 C   0  0
    1.3771   -6.9420    0.0000 C   0  0
    1.3759   -7.7615    0.0000 C   0  0
    2.0840   -8.1705    0.0000 C   0  0
    2.0822   -6.5331    0.0000 C   0  0
    2.7908   -6.9384    0.0000 C   0  0
    2.7911   -7.7615    0.0000 C   0  0
    3.5740   -8.0157    0.0000 N   0  0
    4.0577   -7.3496    0.0000 C   0  0
    3.5736   -6.6838    0.0000 N   0  0
    3.8268   -8.7928    0.0000 C   0  0
    4.8717   -7.3479    0.0000 N   0  0
    5.2799   -8.0571    0.0000 C   0  0
    6.0964   -8.0571    0.0000 C   0  0
    6.5055   -7.3487    0.0000 C   0  0
    6.0923   -6.6388    0.0000 C   0  0
    5.2772   -6.6422    0.0000 C   0  0
    7.3227   -7.3474    0.0000 C   0  0
    7.7325   -8.0544    0.0000 O   0  0
    8.5497   -8.0530    0.0000 C   0  0
    3.2801   -9.4003    0.0000 C   0  0
    2.4826   -9.2292    0.0000 C   0  0
    1.9362   -9.8358    0.0000 C   0  0
    2.1888  -10.6139    0.0000 C   0  0
    2.9928  -10.7819    0.0000 C   0  0
    3.5357  -10.1740    0.0000 C   0  0
    8.9595   -8.7600    0.0000 C   0  0
    7.7301   -6.6390    0.0000 O   0  0
    9.7738   -8.7094    0.0000 C   0  0
   10.2258   -9.3914    0.0000 C   0  0
   11.0378   -9.3413    0.0000 C   0  0
   11.4043   -8.6105    0.0000 N   0  0
   10.9523   -7.9285    0.0000 C   0  0
   10.1340   -7.9773    0.0000 C   0  0
    2.2308   -8.4518    0.0000 F   0  0
    4.3358  -10.3403    0.0000 Cl  0  0
  1  2  1  0
  2  3  2  0
  3  5  1  0
  4  1  1  0
  4  5  2  0
  5  6  1  0
  6  7  2  0
  7  8  1  0
  8  9  2  0
  9  4  1  0
 10 11  2  0
 11 12  1  0
 12 13  2  0
 13 14  1  0
 14 15  2  0
 15 10  1  0
  2 10  1  0
 16 17  2  0
 17 18  1  0
 18 21  2  0
 20 19  2  0
 19 16  1  0
 20 21  1  0
 21 22  1  0
 22 23  1  0
 23 24  2  0
 24 20  1  0
 22 25  1  0
 26 27  1  0
 27 28  1  0
 28 29  1  0
 29 30  1  0
 30 31  1  0
 31 26  1  0
 23 26  1  0
 29 32  1  0
 32 33  1  0
 33 34  1  0
 25 35  1  0
 35 36  2  0
 36 37  1  0
 37 38  2  0
 38 39  1  0
 39 40  2  0
 40 35  1  0
 34 41  1  0
 41  1  1  0
 32 42  2  0
 43 44  1  0
 43 48  1  0
 44 45  1  0
 45 46  1  0
 46 47  1  0
 47 48  1  0
 41 43  1  0
 36 49  1  0
 40 50  1  0
M  END