
  SciTegic01161211232D

 19 21  0  0  0  0            999 V2000
   -4.6774    0.2656    0.0000 C   0  0
   -4.6785   -0.5583    0.0000 C   0  0
   -3.9668   -0.9694    0.0000 C   0  0
   -3.9686    0.6766    0.0000 C   0  0
   -3.2562    0.2692    0.0000 C   0  0
   -3.2528   -0.5603    0.0000 C   0  0
   -2.5366   -0.9699    0.0000 C   0  0
   -1.8193   -0.5544    0.0000 C   0  0
   -2.5435    0.6892    0.0000 C   0  0  1  0  0  0
   -1.8223    0.2731    0.0000 C   0  0  2  0  0  0
   -1.2036    0.8305    0.0000 N   0  0
   -1.5426    1.5911    0.0000 C   0  0
   -2.3706    1.5037    0.0000 C   0  0
   -3.9710    1.4981    0.0000 O   0  0
   -0.3815    0.8369    0.0000 C   0  0
    0.0244    1.5512    0.0000 C   0  0
    0.8459    1.5568    0.0000 C   0  0
   -3.2612    1.1036    0.0000 H   0  0
   -1.0331    0.0622    0.0000 H   0  0
  9 10  1  0
  5  4  2  0
  4  1  1  0
  5  6  1  0
  2  3  1  0
 10 11  1  0
 11 12  1  0
 12 13  1  0
 13  9  1  0
  3  6  2  0
  4 14  1  0
  1  2  2  0
 11 15  1  0
  5  9  1  0
 15 16  1  0
  6  7  1  0
 16 17  1  0
  7  8  1  0
  9 18  1  1
  8 10  1  0
 10 19  1  1
M  END