
  SciTegic05281310212D

 56 58  0  0  0  0            999 V2000
    5.0521   -3.5866    0.0000 C   0  0  2  0  0  0
    1.1441   -2.8601    0.0000 C   0  0  2  0  0  0
    1.5574   -2.1587    0.0000 C   0  0  2  0  0  0
    5.8663   -3.5866    0.0000 C   0  0  2  0  0  0
   -0.6346   -3.8497    0.0000 C   0  0  1  0  0  0
    2.7850   -2.8726    0.0000 C   0  0  2  0  0  0
   -0.6346   -5.2901    0.0000 S   0  0
    7.1064   -4.3131    0.0000 S   0  0
   -0.2213   -3.1482    0.0000 C   0  0  1  0  0  0
    3.9331   -1.9708    0.0000 S   0  0
    4.6388   -2.8726    0.0000 C   0  0  1  0  0  0
    2.3716   -2.1587    0.0000 O   0  0
    5.4655   -0.0167    0.0000 S   0  0
   -1.0354   -0.2923    0.0000 S   0  0
    2.3716   -3.5741    0.0000 C   0  0  1  0  0  0
    1.5574   -3.5741    0.0000 C   0  0  1  0  0  0
   -1.4613   -3.8497    0.0000 C   0  0  2  0  0  0
    1.1441   -3.6868    0.0000 O   0  0
   -0.6346   -2.4342    0.0000 O   0  0
    5.0396   -2.1461    0.0000 C   0  0  2  0  0  0
    4.6388   -3.6994    0.0000 O   0  0
    6.2797   -2.8852    0.0000 C   0  0  2  0  0  0
    5.8663   -2.1712    0.0000 O   0  0
   -1.4488   -2.4342    0.0000 C   0  0  1  0  0  0
   -1.8622   -3.1357    0.0000 C   0  0  1  0  0  0
    6.2797   -4.3006    0.0000 N   0  0
   -0.2213   -4.5762    0.0000 N   0  0
    5.1857   -2.9102    0.0000 O   0  0
    1.1441   -1.4447    0.0000 C   0  0
    4.6388   -1.4447    0.0000 C   0  0
   -1.8622   -1.7203    0.0000 C   0  0
   -1.4488   -1.0063    0.0000 O   0  0
    5.0521   -0.7307    0.0000 O   0  0
    7.1064   -5.1398    0.0000 O   0  0
   -1.3486   -4.8643    0.0000 O   0  0
    3.3110   -1.4154    0.0000 O   0  0
   -0.3215   -0.7057    0.0000 O   0  0
    6.1795   -0.4301    0.0000 O   0  0
    0.0668   -5.7035    0.0000 O   0  0
   -1.0480   -6.0041    0.0000 O   0  0
    7.9331   -4.3131    0.0000 O   0  0
    7.1189   -3.4864    0.0000 O   0  0
    3.1440   -2.2213    0.0000 O   0  0
    4.1002   -1.1566    0.0000 O   0  0
   -0.6346    0.4342    0.0000 O   0  0
   -1.7619    0.1336    0.0000 O   0  0
    5.8789    0.6972    0.0000 O   0  0
    4.7515    0.3966    0.0000 O   0  0
    1.5574   -0.7182    0.0000 O   0  0
    0.3174   -1.4447    0.0000 O   0  0
    2.7850   -4.2881    0.0000 O   0  0
    2.1336   -3.0355    0.0000 O   0  0
   -0.8726   -3.3110    0.0000 O   0  0
   -1.8622   -3.9624    0.0000 O   0  0
    7.1064   -2.8852    0.0000 O   0  0
    7.6951   -2.2964    0.0000 C   0  0
  2 16  1  0
  3 12  1  0
  4  1  1  0
  5  9  1  0
  6 21  1  1
  7 27  1  0
  8 26  1  0
  9 18  1  6
 10 28  1  0
 11  1  1  0
 12  6  1  0
 13 33  1  0
 14 32  1  0
 15  6  1  0
 16 15  1  0
 17  5  1  0
  2 18  1  6
 19  9  1  0
 20 11  1  0
 11 21  1  6
 22  4  1  0
 23 20  1  0
 24 19  1  0
 25 24  1  0
  4 26  1  6
  5 27  1  6
  1 28  1  1
  3 29  1  1
 20 30  1  1
 24 31  1  1
 32 31  1  0
 33 30  1  0
 34  8  1  0
 35  7  1  0
 36 10  1  0
 37 14  1  0
 38 13  1  0
 39  7  2  0
 40  7  2  0
 41  8  2  0
 42  8  2  0
 43 10  2  0
 44 10  2  0
 45 14  2  0
 46 14  2  0
 47 13  2  0
 48 13  2  0
 49 29  1  0
 50 29  2  0
 15 51  1  6
 16 52  1  1
 17 53  1  1
 25 54  1  6
 22 55  1  6
 56 55  1  0
 22 23  1  0
  3  2  1  0
 17 25  1  0
M  END