
  SciTegic02271515152D

 35 38  0  0  0  0            999 V2000
   30.0654   -9.9094    0.0000 C   0  0
   30.0643  -10.7290    0.0000 C   0  0
   30.7723  -11.1379    0.0000 C   0  0
   31.4820  -10.7285    0.0000 C   0  0
   31.4792   -9.9058    0.0000 C   0  0
   30.7706   -9.5006    0.0000 C   0  0
   29.3576   -9.5010    0.0000 C   0  0
   28.6500   -9.9098    0.0000 N   0  0
   32.1863  -11.1341    0.0000 C   0  0
   32.2731  -11.9466    0.0000 C   0  0
   33.0727  -12.1153    0.0000 N   0  0
   33.4802  -11.4069    0.0000 C   0  0
   32.9324  -10.8005    0.0000 S   0  0
   27.9422   -9.5014    0.0000 C   0  0
   27.2346   -9.9101    0.0000 O   0  0
   27.9420   -8.6842    0.0000 C   0  0  2  0  0  0
   28.6084   -8.2047    0.0000 C   0  0
   28.3557   -7.4276    0.0000 C   0  0  2  0  0  0
   27.5385   -7.4278    0.0000 C   0  0
   27.2862   -8.2051    0.0000 N   0  0
   26.5088   -8.4567    0.0000 C   0  0
   25.9021   -7.9092    0.0000 C   0  0  2  0  0  0
   26.3380   -9.2558    0.0000 O   0  0
   28.8359   -6.7663    0.0000 O   0  0
   31.6667  -12.4944    0.0000 C   0  0
   26.0729   -7.1101    0.0000 C   0  0
   25.1246   -8.1609    0.0000 N   0  0
   24.5179   -7.6134    0.0000 C   0  0
   23.7405   -7.8650    0.0000 C   0  0
   24.6887   -6.8142    0.0000 O   0  0
   26.8498   -6.8628    0.0000 C   0  0
   27.0208   -6.0644    0.0000 C   0  0
   26.4137   -5.5160    0.0000 C   0  0
   25.6330   -5.7715    0.0000 C   0  0
   25.4657   -6.5692    0.0000 C   0  0
  1  2  2  0
  2  3  1  0
  3  4  2  0
  4  5  1  0
  5  6  2  0
  6  1  1  0
  1  7  1  0
  7  8  1  0
  9 10  2  0
 10 11  1  0
 11 12  2  0
 12 13  1  0
 13  9  1  0
  4  9  1  0
  8 14  1  0
 14 15  2  0
 16 14  1  1
 16 17  1  0
 17 18  1  0
 18 19  1  0
 19 20  1  0
 20 16  1  0
 20 21  1  0
 21 22  1  0
 21 23  2  0
 18 24  1  6
 10 25  1  0
 22 26  1  1
 22 27  1  0
 27 28  1  0
 28 29  1  0
 28 30  2  0
 26 31  2  0
 31 32  1  0
 32 33  2  0
 33 34  1  0
 34 35  2  0
 35 26  1  0
M  END