
          05080814032D 1   1.00000     0.00000     0

 29 33  0     1  0            999 V2000
   -6.1198  -22.2298    0.0000 C   0  0  0  0  0  0           0  0  0
   -6.1198  -23.0590    0.0000 C   0  0  0  0  0  0           0  0  0
   -5.4056  -23.4712    0.0000 N   0  0  3  0  0  0           0  0  0
   -4.6871  -23.0590    0.0000 C   0  0  0  0  0  0           0  0  0
   -4.6871  -22.2298    0.0000 C   0  0  0  0  0  0           0  0  0
   -5.4056  -21.8131    0.0000 O   0  0  0  0  0  0           0  0  0
   -5.4068  -24.2957    0.0000 C   0  0  0  0  0  0           0  0  0
   -4.6934  -24.7090    0.0000 C   0  0  0  0  0  0           0  0  0
   -4.6945  -25.5335    0.0000 C   0  0  0  0  0  0           0  0  0
   -3.9810  -25.9467    0.0000 O   0  0  0  0  0  0           0  0  0
   -3.2664  -25.5355    0.0000 C   0  0  0  0  0  0           0  0  0
   -2.5556  -25.9500    0.0000 C   0  0  0  0  0  0           0  0  0
   -2.5583  -24.3009    0.0000 C   0  0  0  0  0  0           0  0  0
   -3.2695  -24.7139    0.0000 C   0  0  0  0  0  0           0  0  0
   -1.8398  -24.7140    0.0000 C   0  0  0  0  0  0           0  0  0
   -1.8414  -25.5416    0.0000 C   0  0  0  0  0  0           0  0  0
   -0.4096  -24.7168    0.0000 C   0  0  0  0  0  0           0  0  0
   -1.1262  -24.2994    0.0000 C   0  0  1  0  0  0           0  0  0
   -0.4113  -25.5445    0.0000 N   0  0  3  0  0  0           0  0  0
   -1.1296  -25.9501    0.0000 C   0  0  2  0  0  0           0  0  0
   -0.9658  -26.7587    0.0000 C   0  0  0  0  0  0           0  0  0
   -0.1461  -26.8528    0.0000 C   0  0  0  0  0  0           0  0  0
    0.1965  -26.1023    0.0000 C   0  0  0  0  0  0           0  0  0
   -1.1257  -23.4748    0.0000 C   0  0  0  0  0  0           0  0  0
   -1.8460  -26.3570    0.0000 H   0  0  0  0  0  0           0  0  0
   -0.4614  -22.9884    0.0000 S   0  0  0  0  0  0           0  0  0
   -0.7158  -22.2040    0.0000 C   0  0  0  0  0  0           0  0  0
   -1.5403  -22.2035    0.0000 N   0  0  0  0  0  0           0  0  0
   -1.7955  -22.9876    0.0000 C   0  0  0  0  0  0           0  0  0
 13 14  2  0     0  0
 14 11  1  0     0  0
 15 16  2  0     0  0
  3  7  1  0     0  0
  1  2  1  0     0  0
  7  8  1  0     0  0
  1  6  1  0     0  0
 15 18  1  0     0  0
 16 20  1  0     0  0
 19 17  1  0     0  0
 17 18  1  0     0  0
 19 20  1  0     0  0
  8  9  1  0     0  0
  2  3  1  0     0  0
  9 10  1  0     0  0
  3  4  1  0     0  0
 10 11  1  0     0  0
 20 21  1  0     0  0
 21 22  1  0     0  0
 22 23  1  0     0  0
 23 19  1  0     0  0
  4  5  1  0     0  0
 18 24  1  6     0  0
 11 12  2  0     0  0
 20 25  1  1     0  0
 24 26  1  0     0  0
 12 16  1  0     0  0
  5  6  1  0     0  0
 15 13  1  0     0  0
 26 27  1  0     0  0
 27 28  2  0     0  0
 28 29  1  0     0  0
 29 24  2  0     0  0
M  END