
          11280714452D 1   1.00000     0.00000     0

 27 30  0     0  0            999 V2000
    0.7625   -0.6042    0.0000 N   0  0  0  0  0  0           0  0  0
    0.3542   -1.0500    0.0000 C   0  0  0  0  0  0           0  0  0
    0.6542   -1.5667    0.0000 N   0  0  0  0  0  0           0  0  0
    1.3042   -0.8500    0.0000 C   0  0  0  0  0  0           0  0  0
    1.2417   -1.4375    0.0000 C   0  0  0  0  0  0           0  0  0
    2.3500    0.3583    0.0000 N   0  0  3  0  0  0           0  0  0
   -1.1500   -0.5375    0.0000 C   0  0  3  0  0  0           0  0  0
   -0.5458   -0.5292    0.0000 C   0  0  0  0  0  0           0  0  0
    1.8292   -0.5500    0.0000 C   0  0  0  0  0  0           0  0  0
   -0.2458   -1.0500    0.0000 C   0  0  0  0  0  0           0  0  0
   -1.4583   -0.0125    0.0000 C   0  0  0  0  0  0           0  0  0
   -1.4500   -1.0667    0.0000 C   0  0  0  0  0  0           0  0  0
    1.8292    0.0583    0.0000 C   0  0  0  0  0  0           0  0  0
    2.9167    0.1708    0.0000 C   0  0  0  0  0  0           0  0  0
    2.3500    0.9583    0.0000 C   0  0  0  0  0  0           0  0  0
   -2.0500   -1.0667    0.0000 C   0  0  0  0  0  0           0  0  0
   -1.1458   -1.5875    0.0000 C   0  0  0  0  0  0           0  0  0
   -2.0625   -0.0125    0.0000 C   0  0  0  0  0  0           0  0  0
   -1.1625    0.5125    0.0000 C   0  0  0  0  0  0           0  0  0
    2.9167    1.1458    0.0000 C   0  0  0  0  0  0           0  0  0
    3.2625    0.6583    0.0000 C   0  0  0  0  0  0           0  0  0
   -2.3708    0.5125    0.0000 C   0  0  0  0  0  0           0  0  0
   -2.3500   -1.5875    0.0000 C   0  0  0  0  0  0           0  0  0
   -1.4458   -2.1042    0.0000 C   0  0  0  0  0  0           0  0  0
   -1.4625    1.0333    0.0000 C   0  0  0  0  0  0           0  0  0
   -2.0708    1.0333    0.0000 C   0  0  0  0  0  0           0  0  0
   -2.0500   -2.1042    0.0000 C   0  0  0  0  0  0           0  0  0
  2  1  2  0     0  0
  3  2  1  0     0  0
  4  1  1  0     0  0
  5  4  2  0     0  0
  6 13  1  0     0  0
  7  8  1  0     0  0
  8 10  1  0     0  0
  9  4  1  0     0  0
 10  2  1  0     0  0
 11  7  1  0     0  0
 12  7  1  0     0  0
 13  9  1  0     0  0
 14  6  1  0     0  0
 15  6  1  0     0  0
 16 12  2  0     0  0
 17 12  1  0     0  0
 18 11  1  0     0  0
 19 11  2  0     0  0
 20 15  1  0     0  0
 21 14  1  0     0  0
 22 18  2  0     0  0
 23 16  1  0     0  0
 24 17  2  0     0  0
 25 19  1  0     0  0
 26 25  2  0     0  0
 27 24  1  0     0  0
  5  3  1  0     0  0
 20 21  1  0     0  0
 27 23  2  0     0  0
 26 22  1  0     0  0
M  END