
  SciTegic04151115542D

 38 41  0  0  0  0            999 V2000
   10.3330  -10.0410    0.0000 C   0  0
   10.7413   -9.3242    0.0000 C   0  0
   11.5667   -9.3195    0.0000 C   0  0
   10.3247   -8.6117    0.0000 C   0  0
   10.7331   -7.8948    0.0000 O   0  0
    9.4993   -8.6164    0.0000 C   0  0
    9.0827   -7.9042    0.0000 O   0  0
    8.2574   -7.9089    0.0000 C   0  0
    9.0908   -9.3336    0.0000 O   0  0
   11.9834  -10.0317    0.0000 O   0  0
   11.9752   -8.6023    0.0000 C   0  0
   12.8005   -8.5976    0.0000 N   0  0
   11.5585   -7.8901    0.0000 O   0  0
   13.2090   -7.8807    0.0000 C   0  0
   14.0327   -7.8789    0.0000 C   0  0
   14.4410   -7.1626    0.0000 C   0  0
   14.0243   -6.4491    0.0000 C   0  0
   13.1948   -6.4565    0.0000 C   0  0
   12.7901   -7.1735    0.0000 C   0  0
    9.5067  -10.0429    0.0000 N   0  0
   10.3444  -11.4650    0.0000 N   0  0
   10.7489  -10.7482    0.0000 C   0  0
    9.5149  -11.4724    0.0000 C   0  0
    9.1013  -10.7607    0.0000 C   0  0
    8.2801  -10.7642    0.0000 C   0  0
    7.8716  -11.4787    0.0000 C   0  0
    8.2903  -12.1908    0.0000 C   0  0
    9.1102  -12.1838    0.0000 C   0  0
   11.5743  -10.7409    0.0000 O   0  0
    7.8836  -12.9089    0.0000 C   0  0
    7.0582  -12.9157    0.0000 O   0  0
    8.3031  -13.6174    0.0000 C   0  0
    7.8946  -14.3358    0.0000 C   0  0
    8.3124  -15.0467    0.0000 C   0  0
    9.1385  -15.0404    0.0000 C   0  0
    9.5451  -14.3172    0.0000 C   0  0
    9.1249  -13.6093    0.0000 C   0  0
   14.4319   -5.7317    0.0000 C   0  0
 19 14  1  0
  3 10  2  0
  1 20  1  0
 20 24  2  0
  2  3  1  0
 23 21  2  0
  3 11  1  0
 21 22  1  0
 22  1  2  0
  4  6  1  0
 11 12  1  0
 23 24  1  0
  1  2  1  0
 24 25  1  0
 11 13  2  0
 25 26  2  0
  6  7  1  0
 26 27  1  0
 12 14  1  0
 27 28  2  0
 28 23  1  0
  2  4  1  0
 22 29  1  0
 14 15  2  0
 27 30  1  0
  7  8  1  0
 30 31  2  0
 15 16  1  0
 32 33  2  0
 16 17  2  0
 33 34  1  0
  6  9  2  0
 34 35  2  0
 17 18  1  0
 35 36  1  0
  4  5  2  0
 36 37  2  0
 37 32  1  0
 30 32  1  0
 18 19  2  0
 17 38  1  0
M  END