
  SciTegic10311316212D

 27 30  0  0  0  0            999 V2000
   11.8644   -0.3054    0.0000 C   0  0
   11.8632   -1.1249    0.0000 C   0  0
   12.5713   -1.5339    0.0000 C   0  0
   12.5695    0.1111    0.0000 C   0  0
   13.2781   -0.3018    0.0000 C   0  0
   13.2784   -1.1204    0.0000 C   0  0
   14.0570   -1.3732    0.0000 S   0  0
   14.5380   -0.7107    0.0000 C   0  0
   14.0566   -0.0486    0.0000 C   0  0
   11.1597   -1.5321    0.0000 N   0  0
   10.4135   -1.1991    0.0000 C   0  0
    9.8662   -1.8060    0.0000 N   0  0
   10.2742   -2.5141    0.0000 N   0  0
   11.0736   -2.3447    0.0000 C   0  0
   11.6793   -2.8887    0.0000 C   0  0
   11.5073   -3.6887    0.0000 C   0  0
   12.1134   -4.2357    0.0000 C   0  0
   12.8917   -3.9839    0.0000 C   0  0
   13.0605   -3.1800    0.0000 C   0  0
   12.4531   -2.6365    0.0000 C   0  0
   10.2442   -0.3997    0.0000 S   0  0
   15.3532   -0.7083    0.0000 C   0  0
   15.7620   -1.4158    0.0000 O   0  0
   15.7615   -0.0004    0.0000 O   0  0
   14.3088    0.7324    0.0000 Cl  0  0
   10.7296   -3.9399    0.0000 Br  0  0
   11.9425   -5.0348    0.0000 C   0  0
  1  2  2  0
  2  3  1  0
  3  6  2  0
  5  4  2  0
  4  1  1  0
  5  6  1  0
  6  7  1  0
  7  8  1  0
  8  9  2  0
  9  5  1  0
 10 11  1  0
 11 12  2  0
 12 13  1  0
 13 14  2  0
 14 10  1  0
  2 10  1  0
 15 16  2  0
 16 17  1  0
 17 18  2  0
 18 19  1  0
 19 20  2  0
 20 15  1  0
 14 15  1  0
 11 21  1  0
 22 23  1  0
 22 24  2  0
  8 22  1  0
  9 25  1  0
 16 26  1  0
 17 27  1  0
M  END