
          11280714522D 1   1.00000     0.00000     0

 25 27  0     1  0            999 V2000
    5.8042   -4.7167    0.0000 S   0  0  3  0  0  0           0  0  0
    5.6042   -5.5167    0.0000 C   0  0  3  0  0  0           0  0  0
    6.0250   -3.9250    0.0000 N   0  0  3  0  0  0           0  0  0
    4.7375   -2.0917    0.0000 C   0  0  2  0  0  0           0  0  0
    4.7292   -2.9167    0.0000 C   0  0  0  0  0  0           0  0  0
    5.4542   -1.6875    0.0000 N   0  0  3  0  0  0           0  0  0
    5.4417   -3.3417    0.0000 C   0  0  1  0  0  0           0  0  0
    4.0167   -1.6875    0.0000 C   0  0  0  0  0  0           0  0  0
    6.6042   -4.9292    0.0000 O   0  0  0  0  0  0           0  0  0
    5.0042   -4.5042    0.0000 O   0  0  0  0  0  0           0  0  0
    6.1625   -2.9292    0.0000 C   0  0  0  0  0  0           0  0  0
    6.1667   -2.1042    0.0000 C   0  0  0  0  0  0           0  0  0
    4.0167   -0.8542    0.0000 C   0  0  0  0  0  0           0  0  0
    5.4542   -0.8542    0.0000 C   0  0  0  0  0  0           0  0  0
    5.4250   -6.2500    0.0000 F   0  0  0  0  0  0           0  0  0
    4.8250   -5.8792    0.0000 F   0  0  0  0  0  0           0  0  0
    6.1167   -6.2125    0.0000 F   0  0  0  0  0  0           0  0  0
    4.7375   -0.4292    0.0000 C   0  0  0  0  0  0           0  0  0
    6.8167   -3.7042    0.0000 C   0  0  0  0  0  0           0  0  0
    3.3042   -2.0917    0.0000 C   0  0  0  0  0  0           0  0  0
    3.3042   -0.4417    0.0000 C   0  0  0  0  0  0           0  0  0
    2.5917   -1.6792    0.0000 C   0  0  0  0  0  0           0  0  0
    2.5917   -0.8542    0.0000 C   0  0  0  0  0  0           0  0  0
    4.7250   -3.7500    0.0000 H   0  0  0  0  0  0           0  0  0
    4.0167   -2.5042    0.0000 H   0  0  0  0  0  0           0  0  0
  2  1  1  0     0  0
  3  1  1  0     0  0
  4  5  1  0     0  0
  5  7  1  0     0  0
  6 12  1  0     0  0
  7  3  1  0     0  0
  8  4  1  0     0  0
  9  1  2  0     0  0
 10  1  2  0     0  0
 11  7  1  0     0  0
 12 11  1  0     0  0
 13  8  1  0     0  0
 14  6  1  0     0  0
 15  2  1  0     0  0
 16  2  1  0     0  0
 17  2  1  0     0  0
 18 14  1  0     0  0
 19  3  1  0     0  0
 20  8  2  0     0  0
 21 13  2  0     0  0
 22 20  1  0     0  0
 23 22  2  0     0  0
  7 24  1  6     0  0
  4 25  1  6     0  0
  4  6  1  0     0  0
 18 13  1  0     0  0
 23 21  1  0     0  0
M  END