
  SciTegic09081514162D

 31 34  0  0  0  0            999 V2000
    1.2990   -0.7500    0.0000 C   0  0
    1.2990    0.7500    0.0000 C   0  0
    0.0000    1.5000    0.0000 C   0  0
   -1.2990    0.7500    0.0000 N   0  0
   -1.2990   -0.7500    0.0000 C   0  0
    0.0000   -1.5000    0.0000 C   0  0
   -2.5987   -1.5004    0.0000 C   0  0
   -3.8991   -0.7525    0.0000 N   0  0
   -5.1969   -1.5046    0.0000 C   0  0
   -5.1945   -3.0046    0.0000 C   0  0
   -3.8943   -3.7525    0.0000 C   0  0
   -2.5964   -3.0004    0.0000 N   0  0
   -6.4915   -3.7597    0.0000 C   0  0
   -6.4870   -5.2605    0.0000 N   0  0
   -7.5327   -3.1632    0.0000 O   0  0
   -7.7840   -6.0157    0.0000 C   0  0
   -7.7795   -7.5165    0.0000 C   0  0
   -9.0747   -8.2732    0.0000 C   0  0
   -9.0671   -9.7731    0.0000 C   0  0
   -7.7643  -10.5166    0.0000 C   0  0
   -6.4691   -9.7600    0.0000 C   0  0
   -6.4766   -8.2600    0.0000 C   0  0
   -7.7567  -12.0173    0.0000 C   0  0
   -8.9645  -12.8852    0.0000 N   0  0
   -8.4915  -14.3087    0.0000 C   0  0
   -6.9916  -14.2987    0.0000 O   0  0
   -6.5375  -12.8691    0.0000 N   0  0
   -9.3641  -15.5266    0.0000 C   0  0
   -8.8684  -16.6194    0.0000 C   0  0
  -10.0625  -16.5024    0.0000 C   0  0
  -10.5584  -15.4098    0.0000 O   0  0
  1  2  2  0
  2  3  1  0
  3  4  2  0
  4  5  1  0
  5  6  2  0
  6  1  1  0
  7  8  2  0
  8  9  1  0
  9 10  2  0
 10 11  1  0
 11 12  2  0
 12  7  1  0
  5  7  1  0
 10 13  1  0
 13 14  1  0
 13 15  2  0
 14 16  1  0
 16 17  1  0
 17 18  2  0
 18 19  1  0
 19 20  2  0
 20 21  1  0
 21 22  2  0
 22 17  1  0
 23 24  1  0
 24 25  2  0
 25 26  1  0
 26 27  1  0
 27 23  2  0
 20 23  1  0
 25 28  1  0
 28 29  1  0
 28 30  1  0
 28 31  1  0
M  END