
          08180812492D 1   1.00000     0.00000     0

 30 33  0     0  0            999 V2000
    0.5819  -17.0916    0.0000 C   0  0  0  0  0  0           0  0  0
    0.5807  -17.9190    0.0000 C   0  0  0  0  0  0           0  0  0
    1.2956  -18.3319    0.0000 C   0  0  0  0  0  0           0  0  0
    2.0120  -17.9185    0.0000 C   0  0  0  0  0  0           0  0  0
    2.0091  -17.0880    0.0000 C   0  0  0  0  0  0           0  0  0
    1.2938  -16.6789    0.0000 C   0  0  0  0  0  0           0  0  0
   -0.1339  -18.3307    0.0000 C   0  0  0  0  0  0           0  0  0
   -0.8764  -17.9711    0.0000 N   0  0  3  0  0  0           0  0  0
   -0.1347  -19.1559    0.0000 O   0  0  0  0  0  0           0  0  0
    2.7221  -16.6728    0.0000 O   0  0  0  0  0  0           0  0  0
    2.7189  -15.8478    0.0000 C   0  0  0  0  0  0           0  0  0
    3.4336  -15.4374    0.0000 C   0  0  0  0  0  0           0  0  0
    3.4309  -14.6132    0.0000 C   0  0  0  0  0  0           0  0  0
    2.7143  -14.2026    0.0000 C   0  0  0  0  0  0           0  0  0
    1.9990  -14.6222    0.0000 C   0  0  0  0  0  0           0  0  0
    2.0053  -15.4451    0.0000 C   0  0  0  0  0  0           0  0  0
    2.7271  -18.3299    0.0000 C   0  0  0  0  0  0           0  0  0
    3.4409  -17.9163    0.0000 N   0  0  0  0  0  0           0  0  0
    4.1561  -18.3277    0.0000 C   0  0  0  0  0  0           0  0  0
   -1.5203  -18.4837    0.0000 C   0  0  0  0  0  0           0  0  0
   -2.3265  -18.2997    0.0000 C   0  0  0  0  0  0           0  0  0
   -0.8756  -17.1470    0.0000 C   0  0  0  0  0  0           0  0  0
   -2.6866  -17.5588    0.0000 C   0  0  0  0  0  0           0  0  0
   -1.5218  -16.6318    0.0000 C   0  0  0  0  0  0           0  0  0
   -2.3266  -16.8178    0.0000 N   0  0  3  0  0  0           0  0  0
   -2.8407  -16.1726    0.0000 C   0  0  3  0  0  0           0  0  0
    2.7101  -13.3776    0.0000 S   0  0  0  0  0  0           0  0  0
    3.4225  -12.9615    0.0000 C   0  0  0  0  0  0           0  0  0
   -2.9659  -15.3536    0.0000 C   0  0  0  0  0  0           0  0  0
   -3.6111  -15.8677    0.0000 C   0  0  0  0  0  0           0  0  0
 14 15  1  0     0  0
  3  4  2  0     0  0
 15 16  2  0     0  0
 16 11  1  0     0  0
  7  8  1  0     0  0
  4 17  1  0     0  0
 17 18  1  0     0  0
  7  9  2  0     0  0
 18 19  1  0     0  0
  4  5  1  0     0  0
  8 20  1  0     0  0
  5 10  1  0     0  0
 20 21  1  0     0  0
  2  3  1  0     0  0
  8 22  1  0     0  0
 10 11  1  0     0  0
 21 23  1  0     0  0
  5  6  2  0     0  0
 22 24  1  0     0  0
 11 12  2  0     0  0
 23 25  1  0     0  0
 24 25  1  0     0  0
  6  1  1  0     0  0
 25 26  1  0     0  0
 12 13  1  0     0  0
 14 27  1  0     0  0
  1  2  2  0     0  0
 27 28  1  0     0  0
 29 26  1  0     0  0
 30 29  1  0     0  0
 26 30  1  0     0  0
 13 14  2  0     0  0
  2  7  1  0     0  0
M  END