
  SciTegic12231509382D

 24 26  0  0  0  0            999 V2000
   -2.0581    2.2104    0.0000 S   0  0
   -0.8205    0.0000    0.0000 C   0  0  2  0  0  0
   -2.1332    0.6928    0.0000 C   0  0
   -0.8205   -1.5498    0.0000 N   0  0
   -3.3694    1.4804    0.0000 N   0  0
   -3.4277    0.0000    0.0000 C   0  0  2  0  0  0
    0.4558    0.6928    0.0000 C   0  0
   -1.0286    1.5938    0.0000 O   0  0
   -1.0093    2.7935    0.0000 O   0  0
   -3.4277   -1.5498    0.0000 C   0  0
   -2.1332   -2.2973    0.0000 C   0  0
    1.7503    0.0000    0.0000 C   0  0
    0.4558   -2.2973    0.0000 C   0  0
    1.7503   -1.5498    0.0000 C   0  0
   -2.0336    3.7110    0.0000 C   0  0
   -4.3989    2.0969    0.0000 C   0  0
    0.4558    2.1879    0.0000 C   0  0
    3.0631    0.6928    0.0000 C   0  0
   -0.7223    4.4409    0.0000 C   0  0
    1.7503    2.9537    0.0000 C   0  0
   -0.7027    5.6408    0.0000 C   0  0
    3.0631    2.1879    0.0000 C   0  0
   -0.8263    1.0000    0.0000 H   0  0
   -4.2902   -0.5061    0.0000 H   0  0
  2  3  1  0
  2  4  1  0
  1  5  1  0
  3  6  1  0
  5  6  1  0
  2  7  1  0
  1  8  2  0
  1  9  2  0
  6 10  1  0
  4 11  1  0
 10 11  1  0
  7 12  2  0
  4 13  1  0
 12 14  1  0
 13 14  1  0
  1 15  1  0
  5 16  1  0
  7 17  1  0
 12 18  1  0
 15 19  1  0
 17 20  2  0
 19 21  1  0
 18 22  2  0
 20 22  1  0
  2 23  1  6
  6 24  1  6
M  END