
  SciTegic02131210002D

 27 27  0  0  0  0            999 V2000
    1.7500   -6.9417    0.0000 C   0  0
    2.1667   -7.6584    0.0000 N   0  3
    2.5790   -6.9392    0.0000 C   0  0
    5.7402   -8.0708    0.0000 C   0  0
    5.7391   -8.8982    0.0000 C   0  0
    6.4539   -9.3111    0.0000 C   0  0
    7.1703   -8.8977    0.0000 C   0  0
    7.1675   -8.0672    0.0000 C   0  0
    6.4521   -7.6581    0.0000 C   0  0
    7.8855   -9.3091    0.0000 N   0  0
    8.5993   -8.8955    0.0000 C   0  0
    9.3144   -9.3069    0.0000 C   0  0
   10.0282   -8.8932    0.0000 C   0  0
   10.7433   -9.3046    0.0000 C   0  0
    5.0257   -7.6585    0.0000 C   0  0
    5.0255   -6.8335    0.0000 O   0  0
    4.3113   -8.0712    0.0000 O   0  0
    3.5967   -7.6588    0.0000 C   0  0
    2.8824   -8.0715    0.0000 C   0  0
    1.4534   -8.0719    0.0000 C   0  0
    0.7388   -7.6595    0.0000 C   0  0
    0.0245   -8.0722    0.0000 C   0  0
   -0.6901   -7.6599    0.0000 N   0  0
   -1.4045   -8.0725    0.0000 C   0  0
   -2.1190   -7.6602    0.0000 C   0  0
   -2.8334   -8.0729    0.0000 C   0  0
   -3.5480   -7.6606    0.0000 N   0  0
  7  8  1  0
 15 16  2  0
 15 17  1  0
  8  9  2  0
 17 18  1  0
  9  4  1  0
 18 19  1  0
 19  2  1  0
  4  5  2  0
  2 20  1  0
  7 10  1  0
 20 21  1  0
 21 22  1  0
 10 11  1  0
 22 23  1  0
  5  6  1  0
 23 24  1  0
 11 12  1  0
 24 25  1  0
  2  1  1  0
 25 26  1  0
 12 13  1  0
 26 27  1  0
  6  7  2  0
 13 14  1  0
  3  2  1  0
  4 15  1  0
M  CHG  1   2   1
M  END