
          11280715332D 1   1.00000     0.00000     0

 43 44  0     1  0            999 V2000
    1.7667   -2.7875    0.0000 C   0  0  0  0  0  0           0  0  0
    1.0542   -3.2000    0.0000 N   0  0  3  0  0  0           0  0  0
    6.0542   -2.7875    0.0000 N   0  0  3  0  0  0           0  0  0
    2.4792   -3.2000    0.0000 C   0  0  1  0  0  0           0  0  0
    5.3417   -3.2000    0.0000 C   0  0  0  0  0  0           0  0  0
    0.3417   -2.7875    0.0000 C   0  0  3  0  0  0           0  0  0
    6.7667   -3.2000    0.0000 C   0  0  3  0  0  0           0  0  0
    4.6292   -2.7875    0.0000 C   0  0  1  0  0  0           0  0  0
    3.2000   -2.7875    0.0000 C   0  0  1  0  0  0           0  0  0
    3.9125   -3.2000    0.0000 C   0  0  0  0  0  0           0  0  0
    2.4792   -4.0250    0.0000 O   0  0  0  0  0  0           0  0  0
    6.7667   -4.0250    0.0000 C   0  0  0  0  0  0           0  0  0
    0.3417   -1.9625    0.0000 C   0  0  0  0  0  0           0  0  0
    1.7667   -1.9625    0.0000 O   0  0  0  0  0  0           0  0  0
    5.3417   -4.0250    0.0000 O   0  0  0  0  0  0           0  0  0
    4.6292   -1.9625    0.0000 O   0  0  0  0  0  0           0  0  0
    6.0542   -4.4375    0.0000 O   0  0  0  0  0  0           0  0  0
    1.0542   -1.5500    0.0000 O   0  0  0  0  0  0           0  0  0
    1.7667   -4.4417    0.0000 C   0  0  0  0  0  0           0  0  0
   -0.3708   -3.2000    0.0000 C   0  0  3  0  0  0           0  0  0
    7.4875   -2.7875    0.0000 C   0  0  3  0  0  0           0  0  0
    7.4875   -4.4375    0.0000 O   0  0  0  0  0  0           0  0  0
   -0.3708   -1.5500    0.0000 O   0  0  0  0  0  0           0  0  0
    1.0542   -4.0250    0.0000 C   0  0  0  0  0  0           0  0  0
    5.4125   -1.5292    0.0000 C   0  0  0  0  0  0           0  0  0
    6.0542   -1.9625    0.0000 C   0  0  0  0  0  0           0  0  0
    3.2000   -1.9625    0.0000 O   0  0  0  0  0  0           0  0  0
    1.7667   -5.2667    0.0000 C   0  0  0  0  0  0           0  0  0
    5.3792   -0.7042    0.0000 C   0  0  0  0  0  0           0  0  0
   -1.0875   -2.7875    0.0000 C   0  0  0  0  0  0           0  0  0
    8.2000   -3.2000    0.0000 C   0  0  0  0  0  0           0  0  0
   -0.3708   -4.0250    0.0000 C   0  0  0  0  0  0           0  0  0
    7.4875   -1.9625    0.0000 C   0  0  0  0  0  0           0  0  0
    4.6500   -0.3125    0.0000 C   0  0  0  0  0  0           0  0  0
    6.0792   -0.2625    0.0000 C   0  0  0  0  0  0           0  0  0
    1.0542   -5.6792    0.0000 C   0  0  0  0  0  0           0  0  0
    2.4792   -5.6750    0.0000 C   0  0  0  0  0  0           0  0  0
    4.6250    0.5125    0.0000 C   0  0  0  0  0  0           0  0  0
    1.0542   -6.5042    0.0000 C   0  0  0  0  0  0           0  0  0
    2.4875   -6.5000    0.0000 C   0  0  0  0  0  0           0  0  0
    6.0542    0.5625    0.0000 C   0  0  0  0  0  0           0  0  0
    5.3250    0.9458    0.0000 C   0  0  0  0  0  0           0  0  0
    1.7667   -6.9167    0.0000 C   0  0  0  0  0  0           0  0  0
  2  1  1  0     0  0
  3  5  1  0     0  0
  4  1  1  0     0  0
  5  8  1  0     0  0
  6  2  1  0     0  0
  7  3  1  0     0  0
  8 10  1  0     0  0
  9  4  1  0     0  0
 10  9  1  0     0  0
  4 11  1  1     0  0
 12  7  1  0     0  0
 13  6  1  0     0  0
 14  1  2  0     0  0
 15  5  2  0     0  0
  8 16  1  1     0  0
 17 12  2  0     0  0
 18 13  2  0     0  0
 19 11  1  0     0  0
 20  6  1  0     0  0
 21  7  1  0     0  0
 22 12  1  0     0  0
 23 13  1  0     0  0
 24  2  1  0     0  0
 25 16  1  0     0  0
 26  3  1  0     0  0
  9 27  1  6     0  0
 28 19  1  0     0  0
 29 25  1  0     0  0
 30 20  1  0     0  0
 31 21  1  0     0  0
 32 20  1  0     0  0
 33 21  1  0     0  0
 34 29  1  0     0  0
 35 29  2  0     0  0
 36 28  2  0     0  0
 37 28  1  0     0  0
 38 34  2  0     0  0
 39 36  1  0     0  0
 40 37  2  0     0  0
 41 35  1  0     0  0
 42 41  2  0     0  0
 43 40  1  0     0  0
 43 39  2  0     0  0
 42 38  1  0     0  0
M  END