
  SciTegic12201609252D

 20 21  0  0  0  0            999 V2000
    1.0388    3.6015    0.0000 O   0  0
    0.0000    3.0008    0.0000 S   0  0
   -1.0394    3.6005    0.0000 O   0  0
    1.2990   -0.7500    0.0000 C   0  0
    1.2990    0.7500    0.0000 C   0  0
    0.0000    1.5000    0.0000 C   0  0
   -1.2990    0.7500    0.0000 C   0  0
   -1.2990   -0.7500    0.0000 C   0  0
    0.0000   -1.5000    0.0000 C   0  0
   -0.0006    4.2008    0.0000 N   0  0
    0.0000   -3.0008    0.0000 N   0  0
   -2.3383   -1.3500    0.0000 F   0  0
    2.3383   -1.3500    0.0000 F   0  0
    2.3383    1.3500    0.0000 F   0  0
   -2.3383    1.3500    0.0000 F   0  0
   -1.2978   -3.7529    0.0000 C   0  0
   -1.2955   -5.2529    0.0000 C   0  0
    0.0048   -6.0009    0.0000 C   0  0
    1.3026   -5.2488    0.0000 C   0  0
    1.3002   -3.7488    0.0000 C   0  0
  2  1  2  0
  3  2  2  0
  4  5  2  0
  5  6  1  0
  6  7  2  0
  7  8  1  0
  8  9  2  0
  9  4  1  0
  6  2  1  0
  2 10  1  0
  9 11  1  0
  8 12  1  0
  4 13  1  0
  5 14  1  0
  7 15  1  0
 11 16  1  0
 11 20  1  0
 16 17  1  0
 17 18  1  0
 18 19  1  0
 19 20  1  0
M  END