
  SciTegic09171211542D

119115  0  0  0  0            999 V2000
    6.0692   -0.4088    0.0000 C   0  0
    6.0828   -1.2337    0.0000 C   0  0  1  0  0  0
    6.8015   -1.6302    0.0000 C   0  0
    6.7742    0.0196    0.0000 C   0  0
    7.4930   -0.3852    0.0000 C   0  0  1  0  0  0
    7.5032   -1.2102    0.0000 C   0  0  1  0  0  0
    8.2187   -1.6116    0.0000 C   0  0
    8.9287   -1.1927    0.0000 C   0  0
    8.1984    0.0382    0.0000 C   0  0  2  0  0  0
    8.9147   -0.3703    0.0000 C   0  0  2  0  0  0
    8.9044    1.2759    0.0000 C   0  0
    8.1902    0.8605    0.0000 C   0  0
    9.6206    0.8674    0.0000 C   0  0  1  0  0  0
    9.6253    0.0458    0.0000 C   0  0  1  0  0  0
   10.4081   -0.2037    0.0000 C   0  0
   10.8873    0.4637    0.0000 C   0  0
   10.4006    1.1256    0.0000 C   0  0  2  0  0  0
    7.4720    0.4395    0.0000 C   0  0
    8.2049   -0.7860    0.0000 H   0  0
    8.8928    0.4547    0.0000 H   0  0
    9.6341   -0.7791    0.0000 H   0  0
    9.6016    1.6957    0.0000 C   0  0
   10.6511    1.9117    0.0000 C   0  0  1  0  0  0
   11.4571    2.0878    0.0000 C   0  0
   10.0956    2.5216    0.0000 C   0  0
   12.0126    1.4778    0.0000 C   0  0
   12.8186    1.6539    0.0000 C   0  0
   13.3740    1.0439    0.0000 C   0  0
   14.1800    1.2200    0.0000 C   0  0
   13.1236    0.2579    0.0000 C   0  0
   11.2234    1.1432    0.0000 H   0  0
    7.5087   -2.0310    0.0000 H   0  0
    5.4112   -1.7116    0.0000 O   0  0
    2.0030   -3.6786    0.0000 O   0  0
    1.8083   -2.8771    0.0000 S   0  0
    1.2115   -3.4465    0.0000 O   0  0
   -1.0410    1.1236    0.0000 O   0  0
   -0.2515    0.8851    0.0000 S   0  0
   -0.4397    1.6882    0.0000 O   0  0
   -0.2862    2.3492    0.0000 O   0  0
    0.5034    2.1107    0.0000 S   0  0
    0.3151    2.9137    0.0000 O   0  0
   -3.4420   -0.9986    0.0000 O   0  0
   -3.8389   -0.2749    0.0000 S   0  0
   -4.2672   -0.9805    0.0000 O   0  0
   -2.3376   -2.3670    0.0000 O   0  0
   -3.1624   -2.3485    0.0000 S   0  0
   -2.7660   -3.0721    0.0000 O   0  0
   -0.6003   -2.0981    0.0000 O   0  0
   -1.0324   -2.8031    0.0000 S   0  0
   -0.2058   -2.8248    0.0000 O   0  0
    5.8606    0.0292    0.0000 O   0  0
    5.4637    0.7528    0.0000 S   0  0
    5.0354    0.0473    0.0000 O   0  0
    1.8165    1.0533    0.0000 O   0  0
    2.6060    0.8148    0.0000 S   0  0
    2.4178    1.6179    0.0000 O   0  0
   -3.1960    2.1675    0.0000 O   0  0
   -2.3713    2.1436    0.0000 S   0  0
   -2.4113   -0.3041    0.0000 C   0  0  1  0  0  0
   -2.4283   -1.1289    0.0000 C   0  0  1  0  0  0
   -1.7248   -1.5518    0.0000 C   0  0  1  0  0  0
   -1.0045   -1.1582    0.0000 C   0  0  2  0  0  0
   -0.9875   -0.3334    0.0000 O   0  0
   -1.6908    0.0978    0.0000 C   0  0  2  0  0  0
   -1.6693    0.9234    0.0000 C   0  0
   -2.3939    1.3147    0.0000 O   0  0
   -1.6438    2.5310    0.0000 O   0  5
   -3.1505   -1.5276    0.0000 O   0  0
   -1.7418   -2.3766    0.0000 O   0  0
   -0.2993   -1.5864    0.0000 O   0  0
    0.4241   -1.1897    0.0000 C   0  0  2  0  0  0
    1.1254   -1.6217    0.0000 C   0  0  1  0  0  0
    1.8466   -1.2285    0.0000 C   0  0  2  0  0  0
    1.8691   -0.4035    0.0000 O   0  0
    1.1641    0.0269    0.0000 C   0  0  1  0  0  0
    0.4366   -0.3678    0.0000 C   0  0  1  0  0  0
    1.1851    0.8516    0.0000 C   0  0
   -0.2691    0.0595    0.0000 O   0  0
    1.1036   -2.4464    0.0000 O   0  0
    2.5502   -1.6593    0.0000 O   0  0
    3.2768   -1.2667    0.0000 C   0  0  1  0  0  0
    4.9280   -2.1374    0.0000 O   0  0
    4.6827   -2.9291    0.0000 S   0  0
    5.4910   -2.7457    0.0000 O   0  0
    4.7010   -1.2907    0.0000 C   0  0  1  0  0  0
    4.7193   -0.4677    0.0000 O   0  0
    4.0158   -0.0437    0.0000 C   0  0  1  0  0  0
    3.2923   -0.4409    0.0000 C   0  0  1  0  0  0
    3.9848   -1.6953    0.0000 C   0  0  1  0  0  0
    3.9760   -2.5111    0.0000 O   0  0
    4.6734   -3.7583    0.0000 O   0  5
    4.0325    0.7812    0.0000 C   0  0
    4.7551    1.1792    0.0000 O   0  0
    6.1837    1.1504    0.0000 O   0  5
    2.5863   -0.0140    0.0000 O   0  0
    3.3339    1.2116    0.0000 O   0  5
    0.4813    1.2822    0.0000 O   0  0
    1.2271    2.5011    0.0000 O   0  5
   -3.1183    0.1210    0.0000 O   0  0
    2.5321   -2.4842    0.0000 O   0  5
   -1.0530   -3.6286    0.0000 O   0  5
   -3.8885   -2.7512    0.0000 O   0  5
   -4.5470    0.1463    0.0000 O   0  5
    1.8268   -2.0523    0.0000 H   0  0
   -0.2759   -0.7606    0.0000 H   0  0
    0.5733    0.8666    0.0000 O   0  5
   -2.7561    2.8715    0.0000 O   0  0
    5.4125   -0.8708    0.0000 H   0  0
    3.5938    3.7187    0.0000 Na  0  3
    4.8438    3.6875    0.0000 Na  0  3
    5.8125    3.6875    0.0000 Na  0  3
    6.9375    3.6875    0.0000 Na  0  3
    4.2500    3.0312    0.0000 Na  0  3
    5.2500    3.0312    0.0000 Na  0  3
    6.3125    3.0000    0.0000 Na  0  3
    4.9375    2.4375    0.0000 Na  0  3
    5.7813    2.3438    0.0000 Na  0  3
    5.2813    1.8750    0.0000 Na  0  3
 13 11  1  0
 59 58  2  0
 26 27  1  0
 11 12  1  0
 60 61  1  0
 27 28  1  0
 13 14  1  0
 28 29  1  0
  1  2  1  0
 28 30  1  0
  1  4  1  0
 60 65  1  0
 61 62  1  0
 62 63  1  0
 63 64  1  0
 64 65  1  0
 17 31  1  6
 65 66  1  1
  2  3  1  0
 66 67  1  0
 67 59  1  0
  6 32  1  6
 59 68  1  0
  5  9  1  0
 61 69  1  1
  2 33  1  1
 62 70  1  1
 35 34  2  0
 63 71  1  0
 36 35  2  0
 72 71  1  1
 72 73  1  0
  6  7  1  0
 14 15  1  0
 15 16  1  0
 38 37  2  0
 39 38  2  0
 72 77  1  0
 73 74  1  0
 74 75  1  0
 75 76  1  0
 76 77  1  0
 16 17  1  0
 76 78  1  1
 17 13  1  0
 77 79  1  6
  7  8  1  0
 73 80  1  1
 41 40  2  0
 74 81  1  0
 42 41  2  0
 82 81  1  1
 84 83  2  0
 85 84  2  0
  5 18  1  1
  8 10  1  0
  9 19  1  6
 44 43  2  0
 86 33  1  0
 86 87  1  0
 45 44  2  0
  9 10  1  0
 10 20  1  1
  3  6  1  0
 86 90  1  0
 87 88  1  0
 88 89  1  0
 89 82  1  0
 82 90  1  0
 47 46  2  0
 90 91  1  1
 91 84  1  0
 48 47  2  0
 84 92  1  0
 14 21  1  6
 88 93  1  1
  5  4  1  0
 93 94  1  0
 94 53  1  0
 13 22  1  1
 53 95  1  0
 50 49  2  0
 89 96  1  6
 96 56  1  0
 51 50  2  0
 56 97  1  0
  5  6  1  0
 78 98  1  0
 98 41  1  0
 17 23  1  0
 41 99  1  0
 60100  1  6
 80 35  1  0
 53 52  2  0
 35101  1  0
 70 50  1  0
 54 53  2  0
 50102  1  0
 69 47  1  0
 23 24  1  0
 47103  1  0
100 44  1  0
  9 12  1  0
 44104  1  0
 23 25  1  6
 74105  1  1
 56 55  2  0
 63106  1  1
 79 38  1  0
 57 56  2  0
 38107  1  0
 10 14  1  0
 59108  2  0
 24 26  1  0
 86109  1  1
M  CHG  8  68  -1  92  -1  95  -1  97  -1  99  -1 101  -1 102  -1 103  -1
M  CHG  8 104  -1 107  -1 110   1 111   1 112   1 113   1 114   1 115   1
M  CHG  4 116   1 117   1 118   1 119   1
M  END