
          11280714522D 1   1.00000     0.00000     0

 24 26  0     1  0            999 V2000
    5.4792   -4.4667    0.0000 S   0  0  3  0  0  0           0  0  0
    5.6917   -3.6667    0.0000 N   0  0  3  0  0  0           0  0  0
    4.4042   -1.8417    0.0000 C   0  0  2  0  0  0           0  0  0
    4.4000   -2.6667    0.0000 C   0  0  0  0  0  0           0  0  0
    5.1292   -1.4292    0.0000 N   0  0  3  0  0  0           0  0  0
    5.1125   -3.0875    0.0000 C   0  0  1  0  0  0           0  0  0
    3.6875   -1.4292    0.0000 C   0  0  0  0  0  0           0  0  0
    5.2792   -5.2667    0.0000 N   0  0  3  0  0  0           0  0  0
    6.2750   -4.6792    0.0000 O   0  0  0  0  0  0           0  0  0
    4.6792   -4.2500    0.0000 O   0  0  0  0  0  0           0  0  0
    5.8292   -2.6792    0.0000 C   0  0  0  0  0  0           0  0  0
    5.8417   -1.8500    0.0000 C   0  0  0  0  0  0           0  0  0
    3.6917   -0.6000    0.0000 C   0  0  0  0  0  0           0  0  0
    5.1292   -0.6000    0.0000 C   0  0  0  0  0  0           0  0  0
    4.4042   -0.1792    0.0000 C   0  0  0  0  0  0           0  0  0
    6.4917   -3.4542    0.0000 C   0  0  0  0  0  0           0  0  0
    2.9750   -1.8417    0.0000 C   0  0  0  0  0  0           0  0  0
    5.8667   -5.8292    0.0000 C   0  0  0  0  0  0           0  0  0
    4.4792   -5.4917    0.0000 C   0  0  0  0  0  0           0  0  0
    2.9750   -0.1875    0.0000 C   0  0  0  0  0  0           0  0  0
    2.2542   -1.4292    0.0000 C   0  0  0  0  0  0           0  0  0
    2.2542   -0.6000    0.0000 C   0  0  0  0  0  0           0  0  0
    3.6917   -2.2500    0.0000 H   0  0  0  0  0  0           0  0  0
    4.3917   -3.4917    0.0000 H   0  0  0  0  0  0           0  0  0
  2  1  1  0     0  0
  3  4  1  0     0  0
  4  6  1  0     0  0
  5 12  1  0     0  0
  6  2  1  0     0  0
  7  3  1  0     0  0
  8  1  1  0     0  0
  9  1  2  0     0  0
 10  1  2  0     0  0
 11  6  1  0     0  0
 12 11  1  0     0  0
 13  7  1  0     0  0
 14  5  1  0     0  0
 15 14  1  0     0  0
 16  2  1  0     0  0
 17  7  2  0     0  0
 18  8  1  0     0  0
 19  8  1  0     0  0
 20 13  2  0     0  0
 21 17  1  0     0  0
 22 21  2  0     0  0
  3 23  1  6     0  0
  6 24  1  6     0  0
  3  5  1  0     0  0
 15 13  1  0     0  0
 22 20  1  0     0  0
M  END