
          11280715022D 1   1.00000     0.00000     0

 24 26  0     1  0            999 V2000
    7.2292   -3.3792    0.0000 C   0  0  2  0  0  0           0  0  0
    6.4375   -4.7500    0.0000 N   0  0  3  0  0  0           0  0  0
    7.2292   -4.2917    0.0000 C   0  0  1  0  0  0           0  0  0
    7.4667   -2.4792    0.0000 C   0  0  0  0  0  0           0  0  0
    8.0250   -3.8375    0.0000 C   0  0  0  0  0  0           0  0  0
    6.4375   -5.6667    0.0000 C   0  0  0  0  0  0           0  0  0
    7.2292   -6.1250    0.0000 C   0  0  3  0  0  0           0  0  0
    7.6917   -6.9167    0.0000 C   0  0  0  0  0  0           0  0  0
    8.1500   -6.1167    0.0000 C   0  0  0  0  0  0           0  0  0
    7.4667   -1.5667    0.0000 C   0  0  0  0  0  0           0  0  0
    8.0167   -4.7542    0.0000 O   0  0  0  0  0  0           0  0  0
    6.4375   -2.9167    0.0000 C   0  0  0  0  0  0           0  0  0
    5.6542   -4.2917    0.0000 C   0  0  0  0  0  0           0  0  0
    8.2500   -1.1167    0.0000 C   0  0  0  0  0  0           0  0  0
    8.8167   -3.3792    0.0000 O   0  0  0  0  0  0           0  0  0
    8.2542   -2.9417    0.0000 C   0  0  0  0  0  0           0  0  0
    8.2500   -0.2000    0.0000 O   0  0  0  0  0  0           0  0  0
    7.4667   -5.1792    0.0000 C   0  0  0  0  0  0           0  0  0
    5.6542   -3.3792    0.0000 C   0  0  0  0  0  0           0  0  0
    9.0500   -2.4875    0.0000 C   0  0  0  0  0  0           0  0  0
    9.0500   -1.5667    0.0000 C   0  0  0  0  0  0           0  0  0
    9.6042   -3.8417    0.0000 C   0  0  0  0  0  0           0  0  0
   10.4042   -3.3792    0.0000 C   0  0  0  0  0  0           0  0  0
    6.9917   -5.1792    0.0000 H   0  0  0  0  0  0           0  0  0
  2  3  1  0     0  0
  3  1  1  0     0  0
  1  4  1  6     0  0
  1  5  1  1     0  0
  6  2  1  0     0  0
  7  6  1  0     0  0
  8  7  1  0     0  0
  9  7  1  0     0  0
 10  4  1  0     0  0
 11  5  2  0     0  0
 12  1  1  0     0  0
 13 19  1  0     0  0
 14 10  2  0     0  0
 15  5  1  0     0  0
 16  4  2  0     0  0
 17 14  1  0     0  0
  3 18  1  6     0  0
 19 12  1  0     0  0
 20 16  1  0     0  0
 21 20  2  0     0  0
 22 15  1  0     0  0
 23 22  1  0     0  0
  3 24  1  1     0  0
 13  2  1  0     0  0
 21 14  1  0     0  0
  9  8  1  0     0  0
M  END