
          11280715122D 1   1.00000     0.00000     0

 24 24  0     0  0            999 V2000
    1.1292    0.5333    0.0000 N   0  0  0  0  0  0           0  0  0
    1.9167    0.2833    0.0000 C   0  0  0  0  0  0           0  0  0
    1.1375   -0.8042    0.0000 N   0  0  0  0  0  0           0  0  0
    0.6417   -0.1417    0.0000 C   0  0  0  0  0  0           0  0  0
    5.7375   -3.8917    0.0000 C   0  0  0  0  0  0           0  0  0
    4.1042   -3.8542    0.0000 C   0  0  0  0  0  0           0  0  0
    4.5167   -3.1417    0.0000 C   0  0  0  0  0  0           0  0  0
    5.3417   -3.1667    0.0000 C   0  0  0  0  0  0           0  0  0
    1.9167   -0.5417    0.0000 C   0  0  0  0  0  0           0  0  0
    4.5042   -4.5750    0.0000 O   0  0  0  0  0  0           0  0  0
    6.5625   -3.9250    0.0000 O   0  0  0  0  0  0           0  0  0
    5.3042   -4.6000    0.0000 O   0  0  0  0  0  0           0  0  0
    3.2792   -3.8417    0.0000 O   0  0  0  0  0  0           0  0  0
    2.6292    0.6958    0.0000 C   0  0  0  0  0  0           0  0  0
    3.3417    0.2958    0.0000 O   0  0  0  0  0  0           0  0  0
    6.2042    0.3208    0.0000 C   0  0  3  0  0  0           0  0  0
    4.0542    0.7083    0.0000 C   0  0  0  0  0  0           0  0  0
    5.4792    0.7250    0.0000 C   0  0  0  0  0  0           0  0  0
    6.2042   -0.5125    0.0000 C   0  0  0  0  0  0           0  0  0
    6.9125    0.7458    0.0000 C   0  0  0  0  0  0           0  0  0
    4.7750    0.3083    0.0000 C   0  0  0  0  0  0           0  0  0
    7.6292    0.3333    0.0000 C   0  0  0  0  0  0           0  0  0
    6.9250   -0.9167    0.0000 C   0  0  0  0  0  0           0  0  0
    7.6417   -0.5000    0.0000 C   0  0  0  0  0  0           0  0  0
  2  1  1  0     0  0
  3  4  1  0     0  0
  4  1  2  0     0  0
  6  7  1  0     0  0
  7  8  2  0     0  0
  8  5  1  0     0  0
  9  2  2  0     0  0
 10  6  2  0     0  0
 11  5  2  0     0  0
 12  5  1  0     0  0
 13  6  1  0     0  0
 14  2  1  0     0  0
 15 14  1  0     0  0
 16 18  1  0     0  0
 17 15  1  0     0  0
 18 21  1  0     0  0
 19 16  1  0     0  0
 20 16  1  0     0  0
 21 17  1  0     0  0
 22 20  1  0     0  0
 23 19  1  0     0  0
 24 22  1  0     0  0
  9  3  1  0     0  0
 24 23  1  0     0  0
M  END