
          05080814042D 1   1.00000     0.00000     0

 33 37  0     1  0            999 V2000
    7.0685    2.7428    0.0000 C   0  0  0  0  0  0           0  0  0
    6.3577    2.3280    0.0000 C   0  0  0  0  0  0           0  0  0
    6.3647    1.5016    0.0000 C   0  0  0  0  0  0           0  0  0
    7.0786    1.0982    0.0000 C   0  0  0  0  0  0           0  0  0
    7.7817    2.3356    0.0000 C   0  0  0  0  0  0           0  0  0
    7.7878    1.5080    0.0000 C   0  0  0  0  0  0           0  0  0
    8.5036    1.1016    0.0000 C   0  0  0  0  0  0           0  0  0
    8.4915    2.7570    0.0000 C   0  0  0  0  0  0           0  0  0
    9.2120    2.3461    0.0000 C   0  0  2  0  0  0           0  0  0
    9.2165    1.5165    0.0000 C   0  0  2  0  0  0           0  0  0
    9.9333    1.1079    0.0000 N   0  0  3  0  0  0           0  0  0
   10.6501    1.5243    0.0000 C   0  0  0  0  0  0           0  0  0
   10.6456    2.3539    0.0000 C   0  0  1  0  0  0           0  0  0
    9.9242    2.7671    0.0000 C   0  0  0  0  0  0           0  0  0
    9.2042    3.1750    0.0000 H   0  0  0  0  0  0           0  0  0
    9.2083    0.6917    0.0000 H   0  0  0  0  0  0           0  0  0
   11.3582    2.7696    0.0000 C   0  0  0  0  0  0           0  0  0
   12.0745    2.3603    0.0000 N   0  0  3  0  0  0           0  0  0
   11.3545    3.5946    0.0000 O   0  0  0  0  0  0           0  0  0
   12.0722    1.5322    0.0000 C   0  0  0  0  0  0           0  0  0
   12.7844    1.1229    0.0000 C   0  0  0  0  0  0           0  0  0
   13.4995    1.5351    0.0000 N   0  0  3  0  0  0           0  0  0
   13.4978    2.3611    0.0000 C   0  0  0  0  0  0           0  0  0
   12.7810    2.7749    0.0000 C   0  0  0  0  0  0           0  0  0
    7.0645    3.5678    0.0000 O   0  0  0  0  0  0           0  0  0
    6.3480    3.9769    0.0000 C   0  0  0  0  0  0           0  0  0
    9.9367    0.2829    0.0000 C   0  0  0  0  0  0           0  0  0
   14.2142    1.1231    0.0000 C   0  0  0  0  0  0           0  0  0
   14.2103    0.2989    0.0000 C   0  0  0  0  0  0           0  0  0
   14.9242   -0.1130    0.0000 C   0  0  0  0  0  0           0  0  0
   15.6394    0.3000    0.0000 N   0  0  0  0  0  0           0  0  0
   15.6362    1.1293    0.0000 C   0  0  0  0  0  0           0  0  0
   14.9217    1.5375    0.0000 C   0  0  0  0  0  0           0  0  0
  5  8  1  0     0  0
 10 16  1  1     0  0
  6  7  1  0     0  0
 13 17  1  1     0  0
  7 10  1  0     0  0
 17 18  1  0     0  0
  9  8  1  0     0  0
 17 19  2  0     0  0
 18 20  1  0     0  0
  9 10  1  0     0  0
  3  4  2  0     0  0
  4  6  1  0     0  0
  5  6  2  0     0  0
  1  2  2  0     0  0
 18 24  1  0     0  0
 20 21  1  0     0  0
 21 22  1  0     0  0
 22 23  1  0     0  0
 23 24  1  0     0  0
  5  1  1  0     0  0
  1 25  1  0     0  0
  2  3  1  0     0  0
 25 26  1  0     0  0
  9 14  1  0     0  0
 11 27  1  0     0  0
 10 11  1  0     0  0
 22 28  1  0     0  0
 11 12  1  0     0  0
 28 29  2  0     0  0
 12 13  1  0     0  0
 29 30  1  0     0  0
 13 14  1  0     0  0
 30 31  2  0     0  0
 31 32  1  0     0  0
  9 15  1  6     0  0
 32 33  2  0     0  0
 33 28  1  0     0  0
M  END