
  SciTegic11201309402D

 79 83  0  0  1  0            999 V2000
   14.2500   -5.5375    0.0000 N   0  0
   14.0875   -6.5625    0.0000 C   0  0
    7.2250   -6.3167    0.0000 N   0  0
   13.1167   -6.9375    0.0000 C   0  0  2  0  0  0
    8.8167   -5.0250    0.0000 C   0  0
   12.5917   -6.0292    0.0000 N   0  0
    9.8375   -4.8042    0.0000 N   0  0
    6.9042   -9.3167    0.0000 N   0  0
    6.8042   -7.2667    0.0000 C   0  0
   11.8250   -5.3375    0.0000 C   0  0
    7.4292  -10.2167    0.0000 C   0  0
   16.1042   -5.5375    0.0000 C   0  0
    7.9167   -5.5417    0.0000 C   0  0  2  0  0  0
   10.8750   -4.9167    0.0000 C   0  0  1  0  0  0
    9.1542  -11.3375    0.0000 N   0  0
   15.1750   -5.0625    0.0000 C   0  0  2  0  0  0
    6.6917   -8.3000    0.0000 C   0  0  1  0  0  0
   10.1875  -11.4417    0.0000 C   0  0
    8.2042  -10.9125    0.0000 C   0  0  2  0  0  0
   16.9750   -4.9667    0.0000 N   0  0
   11.1417   -3.9125    0.0000 C   0  0
   18.7750   -4.8750    0.0000 C   0  0
   19.9167   -9.5000    0.0000 C   0  0
   11.2042  -11.2292    0.0000 C   0  0
   13.2250   -8.9875    0.0000 S   0  0
   12.8000   -9.9375    0.0000 S   0  0
   10.4042   -3.1750    0.0000 C   0  0
   19.7000   -5.3417    0.0000 N   0  0
   12.1042  -10.7042    0.0000 C   0  0
   17.9042   -5.4417    0.0000 C   0  0  2  0  0  0
   21.5000   -5.2542    0.0000 C   0  0
   20.8417   -9.9750    0.0000 N   0  0
   14.8917   -7.2167    0.0000 O   0  0
    8.4792   -4.1667    0.0000 O   0  0
   13.3292   -7.9542    0.0000 C   0  0
   16.1542   -6.5750    0.0000 O   0  0
    5.7917   -6.9917    0.0000 O   0  0
   12.3917   -4.4667    0.0000 O   0  0
    6.6167  -10.8750    0.0000 O   0  0
    7.6375  -11.7875    0.0000 C   0  0
    5.6542   -8.3542    0.0000 C   0  0
   10.2417  -12.4792    0.0000 O   0  0
   18.7167   -3.8375    0.0000 O   0  0
   10.6750   -2.1667    0.0000 O   0  0
   21.5542   -6.2917    0.0000 O   0  0
   19.8625   -8.4625    0.0000 N   0  0
   20.5750   -4.7792    0.0000 C   0  0
   19.0417  -10.0667    0.0000 N   0  0
    7.2667   -4.7292    0.0000 C   0  0
   13.5167   -4.8000    0.0000 C   0  0
    9.2417   -3.2792    0.0000 N   0  0
    6.5917  -11.7292    0.0000 C   0  0
   22.3667   -4.6875    0.0000 N   0  0
    4.5167  -11.6250    0.0000 C   0  0
    5.0875   -7.4792    0.0000 C   0  0
    6.0292  -12.6042    0.0000 C   0  0
    6.1250  -10.8042    0.0000 C   0  0
    4.9917  -12.5500    0.0000 C   0  0
    5.0875  -10.7500    0.0000 C   0  0
   15.0125   -4.0375    0.0000 C   0  0
    3.4792  -11.5667    0.0000 O   0  0
   13.9875   -3.8750    0.0000 C   0  0
   11.6417  -11.5667    0.0000 C   0  0
   13.0417  -10.4375    0.0000 C   0  0
   17.9542   -6.4792    0.0000 C   0  0
   18.9375   -7.9917    0.0000 C   0  0
    6.2375   -4.8917    0.0000 C   0  0
    7.6375   -3.7625    0.0000 C   0  0
    2.9167  -12.4417    0.0000 C   0  0
    4.0500   -7.5375    0.0000 C   0  0
    5.5625   -6.5542    0.0000 C   0  0
   18.8792   -6.9500    0.0000 C   0  0
    1.8750  -12.3875    0.0000 C   0  0
   13.7000  -11.2417    0.0000 C   0  0
   12.3000  -12.3792    0.0000 C   0  0
    4.9917   -5.6792    0.0000 C   0  0
    3.4792   -6.6667    0.0000 C   0  0
   13.3250  -12.2167    0.0000 C   0  0
    3.9542   -5.7375    0.0000 C   0  0
  2  1  1  0
  3 13  1  0
  4  2  1  1
  5  7  1  0
  6  4  1  0
  7 14  1  0
  8 11  1  0
  9  3  1  0
 10  6  1  0
 11 19  1  0
 16 12  1  1
 13  5  1  0
 14 10  1  0
 15 18  1  0
 16  1  1  0
 17  9  1  0
 18 24  1  0
 19 15  1  0
 20 12  1  0
 14 21  1  6
 22 30  1  0
 23 46  2  0
 24 29  1  0
 25 35  1  0
 26 25  1  0
 27 21  1  0
 28 22  1  0
 29 26  1  0
 30 20  1  6
 31 47  1  0
 32 23  1  0
 33  2  2  0
 34  5  2  0
  4 35  1  0
 36 12  2  0
 37  9  2  0
 38 10  2  0
 39 11  2  0
 19 40  1  6
 17 41  1  6
 42 18  2  0
 43 22  2  0
 44 27  2  0
 45 31  2  0
 46 66  1  0
 47 28  1  0
 48 23  1  0
 13 49  1  1
 50  1  1  0
 51 27  1  0
 52 40  1  0
 53 31  1  0
 54 59  2  0
 55 41  1  0
 56 52  1  0
 57 52  2  0
 58 56  2  0
 59 57  1  0
 16 60  1  0
 61 54  1  0
 62 50  1  0
 63 29  1  0
 64 29  1  0
 30 65  1  0
 66 72  1  0
 67 49  1  0
 68 49  1  0
 69 61  1  0
 70 55  1  0
 71 55  2  0
 72 65  1  0
 73 69  1  0
 74 64  1  0
 75 63  1  0
 76 71  1  0
 77 70  2  0
 78 74  1  0
 79 76  2  0
 62 60  1  0
 75 78  1  0
  8 17  1  0
 58 54  1  0
 77 79  1  0
M  END