
  Mrv0541 04051115152D          

 21 22  0  0  0  0            999 V2000
   -2.4620   -1.9919    0.0000 O   0  0  0  0  0  0  0  0  0  0  0  0
   -2.2070   -1.2073    0.0000 C   0  0  0  0  0  0  0  0  0  0  0  0
   -2.7591   -0.5942    0.0000 N   0  0  0  0  0  0  0  0  0  0  0  0
   -2.5041    0.1905    0.0000 C   0  0  0  0  0  0  0  0  0  0  0  0
   -3.0562    0.8036    0.0000 O   0  0  0  0  0  0  0  0  0  0  0  0
   -1.4001   -1.0357    0.0000 N   0  0  0  0  0  0  0  0  0  0  0  0
   -1.1451   -0.2511    0.0000 C   0  0  0  0  0  0  0  0  0  0  0  0
   -1.6972    0.3620    0.0000 C   0  0  0  0  0  0  0  0  0  0  0  0
   -1.2847    1.0765    0.0000 N   0  0  0  0  0  0  0  0  0  0  0  0
   -0.3915    0.0845    0.0000 N   0  0  0  0  0  0  0  0  0  0  0  0
   -0.4777    0.9049    0.0000 C   0  0  0  0  0  0  0  0  0  0  0  0
    0.1354    1.4570    0.0000 O   0  0  0  0  0  0  0  0  0  0  0  0
    0.3230   -0.3280    0.0000 C   0  0  0  0  0  0  0  0  0  0  0  0
    1.0375    0.0845    0.0000 C   0  0  1  0  0  0  0  0  0  0  0  0
    1.0375    0.9095    0.0000 O   0  0  0  0  0  0  0  0  0  0  0  0
    1.7520   -0.3280    0.0000 C   0  0  2  0  0  0  0  0  0  0  0  0
    1.7520   -1.1530    0.0000 O   0  0  0  0  0  0  0  0  0  0  0  0
    2.4664    0.0845    0.0000 C   0  0  2  0  0  0  0  0  0  0  0  0
    2.4664    0.9095    0.0000 O   0  0  0  0  0  0  0  0  0  0  0  0
    3.1809   -0.3280    0.0000 C   0  0  0  0  0  0  0  0  0  0  0  0
    3.8954    0.0845    0.0000 O   0  0  0  0  0  0  0  0  0  0  0  0
  2  1  2  0  0  0  0
  2  3  1  0  0  0  0
  2  6  1  0  0  0  0
  4  3  1  0  0  0  0
  4  5  2  0  0  0  0
  4  8  1  0  0  0  0
  7  6  1  0  0  0  0
  7  8  2  0  0  0  0
  7 10  1  0  0  0  0
  8  9  1  0  0  0  0
 11  9  1  0  0  0  0
 11 10  1  0  0  0  0
 13 10  1  0  0  0  0
 11 12  2  0  0  0  0
 13 14  1  0  0  0  0
 14 15  1  1  0  0  0
 14 16  1  0  0  0  0
 16 17  1  1  0  0  0
 16 18  1  0  0  0  0
 18 19  1  6  0  0  0
 18 20  1  0  0  0  0
 20 21  1  0  0  0  0
M  END