
          11280715202D 1   1.00000     0.00000     0

 27 29  0     0  0            999 V2000
    3.0292   -2.2167    0.0000 N   0  0  3  0  0  0           0  0  0
    2.9750   -1.6167    0.0000 C   0  0  0  0  0  0           0  0  0
    3.5917   -2.4292    0.0000 C   0  0  0  0  0  0           0  0  0
    1.9125   -1.4667    0.0000 O   0  0  0  0  0  0           0  0  0
    2.5917   -2.6250    0.0000 C   0  0  0  0  0  0           0  0  0
    2.4792   -1.2875    0.0000 C   0  0  0  0  0  0           0  0  0
    2.0042   -2.5417    0.0000 C   0  0  0  0  0  0           0  0  0
    1.6917   -2.0250    0.0000 C   0  0  0  0  0  0           0  0  0
    4.1125   -2.1250    0.0000 N   0  0  0  0  0  0           0  0  0
    3.5042   -1.3417    0.0000 C   0  0  0  0  0  0           0  0  0
    4.6292   -2.4250    0.0000 N   0  0  0  0  0  0           0  0  0
    5.1542   -2.1250    0.0000 C   0  0  0  0  0  0           0  0  0
    3.5917   -3.0292    0.0000 O   0  0  0  0  0  0           0  0  0
    2.5042   -0.6917    0.0000 C   0  0  0  0  0  0           0  0  0
    5.1542   -1.5167    0.0000 O   0  0  0  0  0  0           0  0  0
    3.5417   -0.7500    0.0000 C   0  0  0  0  0  0           0  0  0
    3.0417   -0.4250    0.0000 C   0  0  0  0  0  0           0  0  0
    4.0792   -0.4792    0.0000 Cl  0  0  0  0  0  0           0  0  0
    7.7542   -2.4250    0.0000 Cl  0  0  0  0  0  0           0  0  0
    1.7042   -3.0750    0.0000 C   0  0  0  0  0  0           0  0  0
    1.0917   -2.0292    0.0000 C   0  0  0  0  0  0           0  0  0
    5.6792   -2.4250    0.0000 C   0  0  0  0  0  0           0  0  0
    7.2292   -2.1250    0.0000 C   0  0  0  0  0  0           0  0  0
    6.2000   -2.1250    0.0000 C   0  0  0  0  0  0           0  0  0
    6.7167   -2.4250    0.0000 C   0  0  0  0  0  0           0  0  0
    1.0917   -3.0792    0.0000 C   0  0  0  0  0  0           0  0  0
    0.7917   -2.5542    0.0000 C   0  0  0  0  0  0           0  0  0
  2  1  1  0     0  0
  3  1  1  0     0  0
  4  6  1  0     0  0
  5  1  1  0     0  0
  6  2  2  0     0  0
  7  5  1  0     0  0
  8  7  2  0     0  0
  9  3  1  0     0  0
 10  2  1  0     0  0
 11  9  1  0     0  0
 12 11  1  0     0  0
 13  3  2  0     0  0
 14  6  1  0     0  0
 15 12  2  0     0  0
 16 10  2  0     0  0
 17 16  1  0     0  0
 18 16  1  0     0  0
 19 23  1  0     0  0
 20  7  1  0     0  0
 21  8  1  0     0  0
 22 12  1  0     0  0
 23 25  1  0     0  0
 24 22  1  0     0  0
 25 24  1  0     0  0
 26 20  2  0     0  0
 27 26  1  0     0  0
  8  4  1  0     0  0
 17 14  2  0     0  0
 21 27  2  0     0  0
M  END