
  SciTegic11201309402D

 65 69  0  0  0  0            999 V2000
   -1.5747   -2.3991    0.0000 C   0  0  1  0  0  0
   -2.2892   -1.9866    0.0000 C   0  0  1  0  0  0
   -2.2892   -1.1616    0.0000 O   0  0
   -1.5747   -0.7491    0.0000 C   0  0  2  0  0  0
   -0.8603   -1.1616    0.0000 C   0  0
   -0.8603   -1.9866    0.0000 C   0  0  2  0  0  0
   -1.9620   -0.0207    0.0000 C   0  0
   -1.1874   -0.0207    0.0000 O   0  0
   -0.3629    0.0081    0.0000 C   0  0  2  0  0  0
    0.0244    0.7365    0.0000 C   0  0  2  0  0  0
    0.8489    0.7653    0.0000 C   0  0  1  0  0  0
    1.2861    0.0657    0.0000 O   0  0
    0.8988   -0.6628    0.0000 C   0  0  1  0  0  0
    0.0743   -0.6916    0.0000 C   0  0  2  0  0  0
    1.3359   -1.3624    0.0000 C   0  0
    1.2362    1.4937    0.0000 O   0  0
    0.7990    2.1934    0.0000 C   0  0  2  0  0  0
   -0.0255    2.1646    0.0000 C   0  0
   -0.4627    2.8642    0.0000 C   0  0
   -0.0753    3.5927    0.0000 O   0  0
    0.7491    3.6215    0.0000 C   0  0  1  0  0  0
    1.1863    2.9218    0.0000 C   0  0  2  0  0  0
    1.1365    4.3499    0.0000 C   0  0
    1.9610    4.3787    0.0000 O   0  0
    2.3483    5.1071    0.0000 C   0  0
    3.1728    5.1359    0.0000 C   0  0
    3.5601    5.8643    0.0000 C   0  0
    4.3846    5.8931    0.0000 C   0  0
    4.8218    5.1935    0.0000 C   0  0
    4.4345    4.4651    0.0000 C   0  0
    3.6100    4.4363    0.0000 C   0  0
   -1.5249    0.6789    0.0000 O   0  0
   -2.7865    0.0081    0.0000 O   0  5
   -0.8603   -3.6366    0.0000 C   0  0
   -0.8603   -4.4616    0.0000 O   0  0
   -3.0037   -2.3991    0.0000 C   0  0  1  0  0  0
   -3.0037   -3.2241    0.0000 C   0  0  1  0  0  0
   -3.7181   -3.6366    0.0000 C   0  0
   -4.4326   -4.8741    0.0000 C   0  0
   -4.4326   -5.6991    0.0000 C   0  0
   -5.1471   -4.4616    0.0000 O   0  0
   -3.7181   -6.1116    0.0000 C   0  0
   -3.7181   -6.9366    0.0000 C   0  0
   -4.4326   -7.3491    0.0000 C   0  0
   -5.1471   -6.9366    0.0000 C   0  0
   -5.1471   -6.1116    0.0000 C   0  0
   -2.2892   -2.8116    0.0000 H   0  0
    5.6463    5.2223    0.0000 C   0  0
    6.0336    5.9507    0.0000 C   0  0
    6.8581    5.9795    0.0000 C   0  0
    7.2953    5.2799    0.0000 C   0  0
    6.9079    4.5514    0.0000 C   0  0
    6.0834    4.5226    0.0000 C   0  0
    0.4117    1.4650    0.0000 H   0  0
    9.5345    0.0000    0.0000 Na  0  3
   -0.3131   -1.4200    0.0000 O   0  0
    0.9486   -2.0908    0.0000 O   0  0
   -0.4128    1.4362    0.0000 O   0  0
    2.0108    2.9506    0.0000 O   0  0
   -0.1458   -2.3991    0.0000 O   0  0
   -1.5747   -3.2241    0.0000 N   0  0
   -0.1458   -3.2241    0.0000 O   0  0
   -2.2892   -3.6366    0.0000 O   0  0
   -3.7181   -4.4616    0.0000 N   0  0
   -3.7181   -1.9866    0.0000 O   0  0
  9 10  1  0
  9 14  1  0
 10 11  1  0
 11 12  1  0
 12 13  1  0
 13 14  1  0
 13 15  1  6
 11 16  1  0
 17 16  1  6
 17 18  1  0
 17 22  1  0
 18 19  1  0
 19 20  1  0
 20 21  1  0
 21 22  1  0
 21 23  1  6
 23 24  1  0
 24 25  1  0
 25 26  1  0
 26 27  2  0
 27 28  1  0
 28 29  2  0
 29 30  1  0
 30 31  2  0
 31 26  1  0
  7 32  2  0
  7 33  1  0
 34 35  2  0
  2 36  1  0
 36 37  1  0
 37 38  1  0
 39 40  1  0
 39 41  2  0
 40 42  2  0
 42 43  1  0
 43 44  2  0
 44 45  1  0
 45 46  2  0
 46 40  1  0
  2 47  1  1
 48 49  2  0
 49 50  1  0
 50 51  2  0
 51 52  1  0
 52 53  2  0
 53 48  1  0
 29 48  1  0
 11 54  1  1
  1  2  1  0
  1  6  1  0
  2  3  1  0
  3  4  1  0
  4  5  1  0
  5  6  1  0
  4  7  1  0
  4  8  1  6
  9  8  1  6
  6 60  1  6
 15 57  1  0
  1 61  1  1
 61 34  1  0
 34 62  1  0
 10 58  1  1
 37 63  1  6
 14 56  1  6
 38 64  1  0
 64 39  1  0
 22 59  1  6
 36 65  1  1
M  CHG  2  33  -1  55   1
M  END