
  SciTegic02271514512D

 25 28  0  0  0  0            999 V2000
   13.4087    0.3647    0.0000 N   0  0
   11.5876   -0.8050    0.0000 C   0  0
   12.3823   -0.6136    0.0000 N   0  0
   12.6139    0.1764    0.0000 C   0  0
   12.0508    0.7642    0.0000 C   0  0
   11.2561    0.5759    0.0000 C   0  0
   11.0244   -0.2125    0.0000 N   0  0
   12.2824    1.5485    0.0000 F   0  0
   10.6076   -2.6796    0.0000 C   0  0
   10.5856   -1.8624    0.0000 C   0  0
    9.8669   -1.4729    0.0000 C   0  0
    9.1702   -1.9005    0.0000 C   0  0
    9.1922   -2.7177    0.0000 C   0  0
    9.9109   -3.1073    0.0000 N   0  0
   11.3915   -2.9112    0.0000 N   0  0
   11.3560   -1.5890    0.0000 C   0  0
   11.8541   -2.2372    0.0000 C   0  0
    8.4515   -1.5110    0.0000 Cl  0  0
   13.9716   -0.2306    0.0000 C   0  0  2  0  0  0
   13.7368   -1.0149    0.0000 C   0  0
   14.2958   -1.6060    0.0000 C   0  0
   15.0916   -1.4187    0.0000 C   0  0
   15.3253   -0.6347    0.0000 C   0  0
   14.7632   -0.0379    0.0000 C   0  0  1  0  0  0
   14.9955    0.7485    0.0000 N   0  0
  2  3  1  0
  3  4  2  0
  4  5  1  0
  5  6  2  0
  6  7  1  0
  2  7  2  0
  5  8  1  0
  9 10  1  0
 10 11  2  0
 11 12  1  0
 12 13  2  0
 13 14  1  0
  9 14  2  0
 16 17  2  0
 15 17  1  0
  9 15  1  0
 10 16  1  0
 12 18  1  0
  2 16  1  0
  1  4  1  0
 19  1  1  1
 19 20  1  0
 19 24  1  0
 20 21  1  0
 21 22  1  0
 22 23  1  0
 23 24  1  0
 24 25  1  6
M  END