
          11280715412D 1   1.00000     0.00000     0

 21 22  0     0  0            999 V2000
   -3.6708   -0.5750    0.0000 O   0  0  0  0  0  0           0  0  0
   -3.2375    0.2250    0.0000 C   0  0  3  0  0  0           0  0  0
   -3.7083   -0.0125    0.0000 C   0  0  3  0  0  0           0  0  0
   -3.4833    0.4375    0.0000 C   0  0  3  0  0  0           0  0  0
   -2.9458    0.6250    0.0000 C   0  0  3  0  0  0           0  0  0
    0.8792    0.6000    0.0000 C   0  0  0  0  0  0           0  0  0
   -4.1833    0.3625    0.0000 C   0  0  0  0  0  0           0  0  0
   -3.9333    0.7500    0.0000 C   0  0  0  0  0  0           0  0  0
    0.8750    1.2000    0.0000 O   0  0  0  0  0  0           0  0  0
   -1.9083    0.6250    0.0000 C   0  0  0  0  0  0           0  0  0
   -1.2500    0.6250    0.0000 C   0  0  0  0  0  0           0  0  0
   -2.8958   -0.1250    0.0000 C   0  0  0  0  0  0           0  0  0
    1.4000    0.3000    0.0000 O   0  0  0  0  0  0           0  0  0
   -2.4250    0.3250    0.0000 C   0  0  0  0  0  0           0  0  0
   -2.8958   -0.6125    0.0000 S   0  0  0  0  0  0           0  0  0
    0.3542    0.3000    0.0000 C   0  0  0  0  0  0           0  0  0
   -0.6833    0.2958    0.0000 C   0  0  0  0  0  0           0  0  0
   -2.4833   -0.8625    0.0000 C   0  0  0  0  0  0           0  0  0
   -0.1625    0.5958    0.0000 C   0  0  0  0  0  0           0  0  0
   -2.0583   -0.6250    0.0000 C   0  0  0  0  0  0           0  0  0
   -1.6458   -0.8667    0.0000 C   0  0  0  0  0  0           0  0  0
  2  3  1  0     0  0
  3  1  1  0     0  0
  4  1  1  0     0  0
  5  4  1  0     0  0
  6 16  1  0     0  0
  7  3  1  0     0  0
  8  4  1  0     0  0
  9  6  2  0     0  0
 10 14  1  0     0  0
 11 10  2  0     0  0
 12  2  1  0     0  0
 13  6  1  0     0  0
 14  5  1  0     0  0
 15 12  1  0     0  0
 16 19  1  0     0  0
 17 11  1  0     0  0
 18 15  1  0     0  0
 19 17  1  0     0  0
 20 18  1  0     0  0
 21 20  1  0     0  0
  7  8  1  0     0  0
  5  2  1  0     0  0
M  END