
  Mrv0541 04051115152D          

 20 22  0  0  0  0            999 V2000
   -1.6778    0.4707    0.0000 C   0  0  0  0  0  0  0  0  0  0  0  0
   -2.3922    0.0582    0.0000 C   0  0  0  0  0  0  0  0  0  0  0  0
   -2.3922   -0.7668    0.0000 C   0  0  0  0  0  0  0  0  0  0  0  0
   -1.6778   -1.1793    0.0000 C   0  0  0  0  0  0  0  0  0  0  0  0
   -0.9633   -0.7668    0.0000 C   0  0  0  0  0  0  0  0  0  0  0  0
   -0.9633    0.0582    0.0000 C   0  0  0  0  0  0  0  0  0  0  0  0
   -0.2488   -1.1793    0.0000 C   0  0  0  0  0  0  0  0  0  0  0  0
    0.4656   -0.7668    0.0000 C   0  0  0  0  0  0  0  0  0  0  0  0
    0.4656    0.0582    0.0000 C   0  0  2  0  0  0  0  0  0  0  0  0
   -0.2488    0.4707    0.0000 O   0  0  0  0  0  0  0  0  0  0  0  0
   -0.2488   -2.0043    0.0000 O   0  0  0  0  0  0  0  0  0  0  0  0
    1.1801    0.4707    0.0000 C   0  0  0  0  0  0  0  0  0  0  0  0
    1.1801    1.2957    0.0000 C   0  0  0  0  0  0  0  0  0  0  0  0
    1.8946    1.7082    0.0000 C   0  0  0  0  0  0  0  0  0  0  0  0
    2.6091    1.2957    0.0000 C   0  0  0  0  0  0  0  0  0  0  0  0
    2.6091    0.4707    0.0000 C   0  0  0  0  0  0  0  0  0  0  0  0
    1.8946    0.0582    0.0000 C   0  0  0  0  0  0  0  0  0  0  0  0
    3.3235    1.7082    0.0000 O   0  0  0  0  0  0  0  0  0  0  0  0
   -3.1067    0.4707    0.0000 O   0  0  0  0  0  0  0  0  0  0  0  0
   -1.6778   -2.0043    0.0000 O   0  0  0  0  0  0  0  0  0  0  0  0
  1  2  2  0  0  0  0
  1  6  1  0  0  0  0
  2  3  1  0  0  0  0
  2 19  1  0  0  0  0
  3  4  2  0  0  0  0
  4  5  1  0  0  0  0
  4 20  1  0  0  0  0
  5  6  2  0  0  0  0
  5  7  1  0  0  0  0
  6 10  1  0  0  0  0
  7  8  1  0  0  0  0
  7 11  2  0  0  0  0
  8  9  1  0  0  0  0
  9 10  1  0  0  0  0
  9 12  1  6  0  0  0
 12 13  1  0  0  0  0
 12 17  2  0  0  0  0
 13 14  2  0  0  0  0
 14 15  1  0  0  0  0
 15 16  2  0  0  0  0
 15 18  1  0  0  0  0
 16 17  1  0  0  0  0
M  END