
          11280714552D 1   1.00000     0.00000     0

 21 23  0     0  0            999 V2000
    1.9792   -1.2875    0.0000 C   0  0  0  0  0  0           0  0  0
    1.4542   -1.8750    0.0000 C   0  0  3  0  0  0           0  0  0
    1.4167   -0.8417    0.0000 C   0  0  3  0  0  0           0  0  0
    0.9292   -2.1917    0.0000 C   0  0  0  0  0  0           0  0  0
    0.9000   -1.1625    0.0000 C   0  0  0  0  0  0           0  0  0
    0.9042   -1.5917    0.0000 C   0  0  0  0  0  0           0  0  0
    0.8750   -0.5625    0.0000 C   0  0  0  0  0  0           0  0  0
    2.5917   -1.2875    0.0000 N   0  0  0  0  0  0           0  0  0
    5.2625   -1.0167    0.0000 N   0  0  0  0  0  0           0  0  0
    3.2667   -1.2875    0.0000 O   0  0  0  0  0  0           0  0  0
    5.8625   -1.0167    0.0000 C   0  0  0  0  0  0           0  0  0
    4.3125   -1.1417    0.0000 C   0  0  3  0  0  0           0  0  0
    3.8417   -0.8167    0.0000 C   0  0  0  0  0  0           0  0  0
    4.7875   -0.7917    0.0000 C   0  0  0  0  0  0           0  0  0
    7.0500   -1.0125    0.0000 C   0  0  0  0  0  0           0  0  0
    6.1542   -1.5292    0.0000 C   0  0  0  0  0  0           0  0  0
    6.1542   -0.5042    0.0000 C   0  0  0  0  0  0           0  0  0
    6.7417   -0.4917    0.0000 C   0  0  0  0  0  0           0  0  0
    6.7542   -1.5292    0.0000 C   0  0  0  0  0  0           0  0  0
    4.3125   -1.5667    0.0000 O   0  0  0  0  0  0           0  0  0
    7.6500   -1.0125    0.0000 C   0  0  0  0  0  0           0  0  0
  2  1  1  0     0  0
  3  1  1  0     0  0
  4  2  1  0     0  0
  5  3  1  0     0  0
  6  2  1  0     0  0
  7  3  1  0     0  0
  8  1  2  0     0  0
  9 14  1  0     0  0
 10  8  1  0     0  0
 11  9  1  0     0  0
 12 13  1  0     0  0
 13 10  1  0     0  0
 14 12  1  0     0  0
 15 18  1  0     0  0
 16 11  2  0     0  0
 17 11  1  0     0  0
 18 17  2  0     0  0
 19 16  1  0     0  0
 20 12  1  0     0  0
 21 15  1  0     0  0
  7  5  1  0     0  0
  6  4  1  0     0  0
 15 19  2  0     0  0
M  END