
          11280715052D 1   1.00000     0.00000     0

 29 33  0     0  0            999 V2000
    1.3875    0.0875    0.0000 N   0  0  3  0  0  0           0  0  0
    1.8667    0.7583    0.0000 C   0  0  0  0  0  0           0  0  0
    1.3917    1.4208    0.0000 N   0  0  0  0  0  0           0  0  0
    0.6042    0.3458    0.0000 C   0  0  0  0  0  0           0  0  0
    0.6042    1.1708    0.0000 C   0  0  0  0  0  0           0  0  0
    2.6917    0.7583    0.0000 C   0  0  3  0  0  0           0  0  0
    5.1125   -2.1750    0.0000 C   0  0  0  0  0  0           0  0  0
    4.8542   -1.3917    0.0000 C   0  0  0  0  0  0           0  0  0
    4.5542   -2.7917    0.0000 C   0  0  0  0  0  0           0  0  0
    3.4167    0.3375    0.0000 C   0  0  0  0  0  0           0  0  0
    3.4125    1.1583    0.0000 C   0  0  0  0  0  0           0  0  0
    1.6417   -0.6917    0.0000 C   0  0  0  0  0  0           0  0  0
   -0.1083   -0.0667    0.0000 N   0  0  0  0  0  0           0  0  0
    4.0542   -1.2167    0.0000 C   0  0  0  0  0  0           0  0  0
   -0.1083    1.5833    0.0000 C   0  0  0  0  0  0           0  0  0
    3.7500   -2.6167    0.0000 O   0  0  0  0  0  0           0  0  0
    3.7917   -0.4292    0.0000 C   0  0  0  0  0  0           0  0  0
    3.5000   -1.8292    0.0000 C   0  0  0  0  0  0           0  0  0
    2.4417   -0.8667    0.0000 C   0  0  0  0  0  0           0  0  0
    4.8042   -3.5750    0.0000 O   0  0  0  0  0  0           0  0  0
   -0.8250    0.3458    0.0000 C   0  0  0  0  0  0           0  0  0
    2.6917   -1.6542    0.0000 C   0  0  0  0  0  0           0  0  0
    2.9917   -0.2542    0.0000 C   0  0  0  0  0  0           0  0  0
    5.9167   -2.3500    0.0000 C   0  0  0  0  0  0           0  0  0
    5.4042   -0.7792    0.0000 C   0  0  0  0  0  0           0  0  0
   -0.8250    1.1708    0.0000 C   0  0  0  0  0  0           0  0  0
   -0.1083    2.4083    0.0000 C   0  0  0  0  0  0           0  0  0
    6.4667   -1.7375    0.0000 C   0  0  0  0  0  0           0  0  0
    6.2125   -0.9500    0.0000 C   0  0  0  0  0  0           0  0  0
  2  1  1  0     0  0
  3  2  2  0     0  0
  4  1  1  0     0  0
  5  4  2  0     0  0
  6  2  1  0     0  0
  7  8  2  0     0  0
  8 14  1  0     0  0
  9  7  1  0     0  0
 10  6  1  0     0  0
 11  6  1  0     0  0
 12  1  1  0     0  0
 13  4  1  0     0  0
 14 17  1  0     0  0
 15  5  1  0     0  0
 16  9  2  0     0  0
 17 23  2  0     0  0
 18 22  1  0     0  0
 19 12  1  0     0  0
 20  9  1  0     0  0
 21 13  2  0     0  0
 22 19  2  0     0  0
 23 19  1  0     0  0
 24  7  1  0     0  0
 25  8  1  0     0  0
 26 21  1  0     0  0
 27 15  1  0     0  0
 28 29  1  0     0  0
 29 25  2  0     0  0
  5  3  1  0     0  0
 11 10  1  0     0  0
 14 18  2  0     0  0
 26 15  2  0     0  0
 28 24  2  0     0  0
M  END