
          11280714582D 1   1.00000     0.00000     0

 34 37  0     0  0            999 V2000
    4.2292   -6.5667    0.0000 N   0  0  3  0  0  0           0  0  0
    4.9500   -6.1542    0.0000 C   0  0  0  0  0  0           0  0  0
    6.3875  -10.3000    0.0000 C   0  0  0  0  0  0           0  0  0
    3.5167   -6.1542    0.0000 C   0  0  0  0  0  0           0  0  0
    5.6667   -6.5667    0.0000 C   0  0  0  0  0  0           0  0  0
    5.0667  -10.5792    0.0000 N   0  0  0  0  0  0           0  0  0
    5.6292   -9.9625    0.0000 N   0  0  0  0  0  0           0  0  0
    5.4875  -11.2917    0.0000 N   0  0  0  0  0  0           0  0  0
    6.3000  -11.1250    0.0000 N   0  0  0  0  0  0           0  0  0
    7.1042   -9.8792    0.0000 C   0  0  0  0  0  0           0  0  0
    7.1042   -9.0500    0.0000 C   0  0  0  0  0  0           0  0  0
    6.3875   -6.1542    0.0000 C   0  0  0  0  0  0           0  0  0
    4.9500   -5.3292    0.0000 C   0  0  0  0  0  0           0  0  0
    4.2292   -4.9042    0.0000 C   0  0  3  0  0  0           0  0  0
    3.5167   -5.3292    0.0000 C   0  0  0  0  0  0           0  0  0
    4.2292   -7.3917    0.0000 C   0  0  0  0  0  0           0  0  0
    6.3875   -8.6417    0.0000 C   0  0  0  0  0  0           0  0  0
    2.8042   -6.5667    0.0000 O   0  0  0  0  0  0           0  0  0
    6.3917   -5.3292    0.0000 O   0  0  0  0  0  0           0  0  0
    6.3792   -7.8042    0.0000 C   0  0  0  0  0  0           0  0  0
    5.6667   -9.0542    0.0000 C   0  0  0  0  0  0           0  0  0
    4.9542   -7.8125    0.0000 C   0  0  0  0  0  0           0  0  0
    7.1000   -6.5667    0.0000 O   0  0  0  0  0  0           0  0  0
    4.9500   -8.6417    0.0000 C   0  0  0  0  0  0           0  0  0
    5.6667   -7.3917    0.0000 C   0  0  0  0  0  0           0  0  0
    7.8250  -10.3000    0.0000 C   0  0  0  0  0  0           0  0  0
    7.8167   -8.6375    0.0000 C   0  0  0  0  0  0           0  0  0
    4.9500   -4.4917    0.0000 C   0  0  0  0  0  0           0  0  0
    3.5167   -4.4917    0.0000 C   0  0  0  0  0  0           0  0  0
    7.8167   -6.1625    0.0000 C   0  0  0  0  0  0           0  0  0
    4.9542   -3.6750    0.0000 C   0  0  0  0  0  0           0  0  0
    3.5167   -3.6667    0.0000 C   0  0  0  0  0  0           0  0  0
    8.5292   -9.0417    0.0000 C   0  0  0  0  0  0           0  0  0
    8.5375   -9.8792    0.0000 C   0  0  0  0  0  0           0  0  0
  2  1  1  0     0  0
  3 10  1  0     0  0
  4  1  1  0     0  0
  5  2  2  0     0  0
  6  7  2  0     0  0
  7  3  1  0     0  0
  8  9  1  0     0  0
  9  3  2  0     0  0
 10 11  2  0     0  0
 11 17  1  0     0  0
 12  5  1  0     0  0
 13  2  1  0     0  0
 14 15  1  0     0  0
 15  4  1  0     0  0
 16  1  1  0     0  0
 17 20  2  0     0  0
 18  4  2  0     0  0
 19 12  2  0     0  0
 20 25  1  0     0  0
 21 24  2  0     0  0
 22 16  1  0     0  0
 23 12  1  0     0  0
 24 22  1  0     0  0
 25 22  2  0     0  0
 26 10  1  0     0  0
 27 11  1  0     0  0
 28 14  1  0     0  0
 29 14  1  0     0  0
 30 23  1  0     0  0
 31 28  1  0     0  0
 32 29  1  0     0  0
 33 27  2  0     0  0
 34 33  1  0     0  0
 14 13  1  0     0  0
 17 21  1  0     0  0
 34 26  2  0     0  0
  8  6  1  0     0  0
M  END