
          05080814032D 1   1.00000     0.00000     0

 29 33  0     1  0            999 V2000
   11.6859  -11.1087    0.0000 C   0  0  0  0  0  0           0  0  0
   11.6859  -11.9378    0.0000 C   0  0  0  0  0  0           0  0  0
   12.4000  -12.3500    0.0000 N   0  0  3  0  0  0           0  0  0
   13.1186  -11.9378    0.0000 C   0  0  0  0  0  0           0  0  0
   13.1186  -11.1087    0.0000 C   0  0  0  0  0  0           0  0  0
   12.4000  -10.6918    0.0000 C   0  0  0  0  0  0           0  0  0
   12.3988  -13.1746    0.0000 C   0  0  0  0  0  0           0  0  0
   13.1123  -13.5879    0.0000 C   0  0  0  0  0  0           0  0  0
   13.1112  -14.4124    0.0000 C   0  0  0  0  0  0           0  0  0
   13.8247  -14.8257    0.0000 O   0  0  0  0  0  0           0  0  0
   14.5393  -14.4144    0.0000 C   0  0  0  0  0  0           0  0  0
   15.2503  -14.8290    0.0000 C   0  0  0  0  0  0           0  0  0
   15.2474  -13.1799    0.0000 C   0  0  0  0  0  0           0  0  0
   14.5362  -13.5928    0.0000 C   0  0  0  0  0  0           0  0  0
   15.9660  -13.5929    0.0000 C   0  0  0  0  0  0           0  0  0
   15.9644  -14.4207    0.0000 C   0  0  0  0  0  0           0  0  0
   17.3962  -13.5958    0.0000 C   0  0  0  0  0  0           0  0  0
   16.6797  -13.1782    0.0000 C   0  0  1  0  0  0           0  0  0
   17.3946  -14.4234    0.0000 N   0  0  3  0  0  0           0  0  0
   16.6762  -14.8291    0.0000 C   0  0  2  0  0  0           0  0  0
   16.8401  -15.6378    0.0000 C   0  0  0  0  0  0           0  0  0
   17.6598  -15.7318    0.0000 C   0  0  0  0  0  0           0  0  0
   18.0025  -14.9814    0.0000 C   0  0  0  0  0  0           0  0  0
   16.6802  -12.3537    0.0000 C   0  0  0  0  0  0           0  0  0
   15.9599  -15.2360    0.0000 H   0  0  0  0  0  0           0  0  0
   17.3445  -11.8672    0.0000 S   0  0  0  0  0  0           0  0  0
   17.0901  -11.0829    0.0000 C   0  0  0  0  0  0           0  0  0
   16.2655  -11.0823    0.0000 C   0  0  0  0  0  0           0  0  0
   16.0103  -11.8664    0.0000 C   0  0  0  0  0  0           0  0  0
 13 14  2  0     0  0
 14 11  1  0     0  0
 15 16  2  0     0  0
  3  7  1  0     0  0
  1  2  1  0     0  0
  7  8  1  0     0  0
  1  6  1  0     0  0
 15 18  1  0     0  0
 16 20  1  0     0  0
 19 17  1  0     0  0
 17 18  1  0     0  0
 19 20  1  0     0  0
  8  9  1  0     0  0
  2  3  1  0     0  0
  9 10  1  0     0  0
  3  4  1  0     0  0
 10 11  1  0     0  0
 20 21  1  0     0  0
 21 22  1  0     0  0
 22 23  1  0     0  0
 23 19  1  0     0  0
  4  5  1  0     0  0
 18 24  1  6     0  0
 11 12  2  0     0  0
 20 25  1  1     0  0
 24 26  1  0     0  0
 12 16  1  0     0  0
  5  6  1  0     0  0
 15 13  1  0     0  0
 26 27  1  0     0  0
 27 28  2  0     0  0
 28 29  1  0     0  0
 29 24  2  0     0  0
M  END