
  SciTegic01161211222D

 26 27  0  0  0  0            999 V2000
   -4.1419    1.4282    0.0000 C   0  0
   -4.1429    0.6010    0.0000 C   0  0
   -3.4287    0.1882    0.0000 C   0  0
   -3.4303    1.8409    0.0000 C   0  0
   -2.7155    1.4316    0.0000 C   0  0
   -2.7123    0.5989    0.0000 C   0  0
   -1.9935    0.1876    0.0000 O   0  0
   -1.2734    0.6045    0.0000 C   0  0
   -1.2765    1.4372    0.0000 C   0  0  1  0  0  0
   -2.0000    1.8531    0.0000 O   0  0
   -0.5633    1.8518    0.0000 C   0  0
    0.1523    1.4413    0.0000 N   0  0
    0.8656    1.8559    0.0000 C   0  0
    1.5813    1.4454    0.0000 C   0  0
    2.2945    1.8600    0.0000 O   0  0
    3.0102    1.4495    0.0000 C   0  0
    3.0075    0.6256    0.0000 C   0  0
    3.7224    0.2152    0.0000 C   0  0
    4.4367    0.6299    0.0000 C   0  0
    4.4316    1.4590    0.0000 C   0  0
    3.7162    1.8657    0.0000 C   0  0
    3.7097    2.6906    0.0000 O   0  0
    2.2930    0.2133    0.0000 O   0  0
    2.2926   -0.6116    0.0000 C   0  0
    4.4209    3.1088    0.0000 C   0  0
   -0.1829    2.3622    0.0000 Cl  0  0
 11 12  1  0
  1  2  2  0
 12 13  1  0
 13 14  1  0
  2  3  1  0
 14 15  1  0
  3  6  2  0
 15 16  1  0
 16 17  2  0
  5  4  2  0
 17 18  1  0
  5 10  1  0
 18 19  2  0
  6  7  1  0
 19 20  1  0
  7  8  1  0
 20 21  2  0
 21 16  1  0
  8  9  1  0
 21 22  1  0
  9 10  1  0
 17 23  1  0
  4  1  1  0
 23 24  1  0
  9 11  1  1
 22 25  1  0
  5  6  1  0
M  END