
          11280715492D 1   1.00000     0.00000     0

 31 36  0     0  0            999 V2000
   -0.4284  -12.8597    0.0000 C   0  0  0  0  0  0           0  0  0
   -0.7004  -13.6407    0.0000 C   0  0  0  0  0  0           0  0  0
   -0.0417  -14.1408    0.0000 N   0  0  0  0  0  0           0  0  0
   -1.8007  -12.2619    0.0000 C   0  0  0  0  0  0           0  0  0
   -0.9662  -12.2377    0.0000 C   0  0  0  0  0  0           0  0  0
   -0.7316  -11.4375    0.0000 C   0  0  0  0  0  0           0  0  0
   -1.4203  -10.9670    0.0000 N   0  0  0  0  0  0           0  0  0
   -2.0804  -11.4766    0.0000 C   0  0  0  0  0  0           0  0  0
    0.3985  -12.8771    0.0000 C   0  0  0  0  0  0           0  0  0
    0.6351  -13.6683    0.0000 C   0  0  0  0  0  0           0  0  0
    1.4370  -13.8576    0.0000 C   0  0  0  0  0  0           0  0  0
    2.0031  -13.2566    0.0000 C   0  0  0  0  0  0           0  0  0
    1.7617  -12.4635    0.0000 C   0  0  0  0  0  0           0  0  0
    0.9603  -12.2780    0.0000 C   0  0  0  0  0  0           0  0  0
   -3.7168  -12.1093    0.0000 C   0  0  0  0  0  0           0  0  0
   -4.5353  -12.2143    0.0000 C   0  0  0  0  0  0           0  0  0
   -4.8521  -12.9800    0.0000 C   0  0  0  0  0  0           0  0  0
   -4.3508  -13.6318    0.0000 C   0  0  0  0  0  0           0  0  0
    0.0453  -11.1600    0.0000 O   0  0  0  0  0  0           0  0  0
   -2.8721  -11.2446    0.0000 O   0  0  0  0  0  0           0  0  0
   -2.4012  -12.8287    0.0000 C   0  0  0  0  0  0           0  0  0
   -3.2175  -12.7643    0.0000 C   0  0  0  0  0  0           0  0  0
   -3.5310  -13.5208    0.0000 C   0  0  0  0  0  0           0  0  0
   -2.2097  -13.6255    0.0000 C   0  0  0  0  0  0           0  0  0
   -2.9073  -14.0526    0.0000 N   0  0  3  0  0  0           0  0  0
   -2.8863  -14.8657    0.0000 C   0  0  0  0  0  0           0  0  0
   -2.1693  -15.2580    0.0000 C   0  0  0  0  0  0           0  0  0
   -1.4717  -14.8309    0.0000 C   0  0  3  0  0  0           0  0  0
   -1.4912  -14.0115    0.0000 C   0  0  0  0  0  0           0  0  0
   -0.7472  -15.2256    0.0000 C   0  0  0  0  0  0           0  0  0
   -0.7268  -16.0503    0.0000 N   0  0  0  0  0  0           0  0  0
 14  9  2  0     0  0
  4 21  1  0     0  0
 22 15  2  0     0  0
  2  3  1  0     0  0
 15 16  1  0     0  0
  5  6  1  0     0  0
 16 17  2  0     0  0
  6  7  1  0     0  0
 17 18  1  0     0  0
 18 23  2  0     0  0
  7  8  1  0     0  0
  6 19  2  0     0  0
  8  4  1  0     0  0
  8 20  2  0     0  0
 21 22  1  0     0  0
  3 10  1  0     0  0
  9  1  1  0     0  0
  9 10  1  0     0  0
 22 23  1  0     0  0
 23 25  1  0     0  0
 24 21  2  0     0  0
 24 25  1  0     0  0
  4  5  2  0     0  0
 10 11  2  0     0  0
  1  2  2  0     0  0
 11 12  1  0     0  0
 12 13  2  0     0  0
 24 29  1  0     0  0
 25 26  1  0     0  0
 26 27  1  0     0  0
 27 28  1  0     0  0
 28 29  1  0     0  0
  1  5  1  0     0  0
 28 30  1  0     0  0
 13 14  1  0     0  0
 30 31  1  0     0  0
M  END