
  Mrv0541 04051115152D          

 16 17  0  0  0  0            999 V2000
   -0.9348    0.2969    0.0000 C   0  0  0  0  0  0  0  0  0  0  0  0
   -0.9348   -1.3531    0.0000 C   0  0  0  0  0  0  0  0  0  0  0  0
    0.4941   -1.3531    0.0000 C   0  0  0  0  0  0  0  0  0  0  0  0
    0.4941    1.1219    0.0000 C   0  0  0  0  0  0  0  0  0  0  0  0
   -0.9348    1.1219    0.0000 C   0  0  0  0  0  0  0  0  0  0  0  0
   -0.9348   -2.1781    0.0000 C   0  0  0  0  0  0  0  0  0  0  0  0
    1.2086    1.5344    0.0000 C   0  0  0  0  0  0  0  0  0  0  0  0
    1.2086    2.3594    0.0000 C   0  0  0  0  0  0  0  0  0  0  0  0
   -1.6493   -0.1156    0.0000 O   0  0  0  0  0  0  0  0  0  0  0  0
   -0.2204    1.5344    0.0000 C   0  0  0  0  0  0  0  0  0  0  0  0
    1.9231    2.7719    0.0000 N   0  0  0  0  0  0  0  0  0  0  0  0
    0.4941    0.2969    0.0000 C   0  0  0  0  0  0  0  0  0  0  0  0
   -0.2204   -0.1156    0.0000 C   0  0  0  0  0  0  0  0  0  0  0  0
   -0.2204   -0.9406    0.0000 C   0  0  0  0  0  0  0  0  0  0  0  0
   -0.2204   -2.5906    0.0000 C   0  0  0  0  0  0  0  0  0  0  0  0
    0.4941   -2.1781    0.0000 C   0  0  0  0  0  0  0  0  0  0  0  0
  1  5  2  0  0  0  0
  1  9  1  0  0  0  0
 13  1  1  0  0  0  0
  6  2  1  0  0  0  0
 14  2  1  0  0  0  0
 14  3  1  0  0  0  0
 16  3  1  0  0  0  0
  7  4  1  0  0  0  0
 10  4  2  0  0  0  0
 12  4  1  0  0  0  0
 10  5  1  0  0  0  0
  6 15  1  0  0  0  0
  7  8  1  0  0  0  0
  8 11  1  0  0  0  0
 13 12  2  0  0  0  0
 13 14  1  0  0  0  0
 16 15  1  0  0  0  0
M  END