
          11280714522D 1   1.00000     0.00000     0

 57 62  0     1  0            999 V2000
    5.9917   -2.9417    0.0000 N   0  0  0  0  0  0           0  0  0
    6.3500   -2.1917    0.0000 C   0  0  2  0  0  0           0  0  0
    5.1750   -1.2542    0.0000 N   0  0  3  0  0  0           0  0  0
    5.9875   -1.4375    0.0000 C   0  0  0  0  0  0           0  0  0
    5.1792   -3.1292    0.0000 C   0  0  0  0  0  0           0  0  0
    4.5250   -2.6125    0.0000 C   0  0  0  0  0  0           0  0  0
    7.1750   -2.1875    0.0000 N   0  0  0  0  0  0           0  0  0
    4.5250   -1.7792    0.0000 C   0  0  0  0  0  0           0  0  0
    7.5875   -2.9000    0.0000 C   0  0  0  0  0  0           0  0  0
    6.7667   -7.1875    0.0000 C   0  0  0  0  0  0           0  0  0
    8.4125   -2.9000    0.0000 N   0  0  0  0  0  0           0  0  0
   -1.4083  -11.0042    0.0000 N   0  0  3  0  0  0           0  0  0
    5.5292   -9.3292    0.0000 C   0  0  0  0  0  0           0  0  0
    6.5000   -0.7917    0.0000 O   0  0  0  0  0  0           0  0  0
    4.9917   -3.9375    0.0000 C   0  0  0  0  0  0           0  0  0
    7.1792   -3.6167    0.0000 O   0  0  0  0  0  0           0  0  0
    5.9417   -8.6167    0.0000 C   0  0  0  0  0  0           0  0  0
    5.9417   -7.1875    0.0000 O   0  0  0  0  0  0           0  0  0
    8.8292   -3.6125    0.0000 C   0  0  0  0  0  0           0  0  0
    5.7250  -10.1292    0.0000 O   0  0  0  0  0  0           0  0  0
    7.1792   -7.9000    0.0000 N   0  0  0  0  0  0           0  0  0
   -0.8083  -10.4417    0.0000 C   0  0  0  0  0  0           0  0  0
   -0.0208  -10.6792    0.0000 C   0  0  0  0  0  0           0  0  0
    4.7417   -9.1042    0.0000 N   0  0  0  0  0  0           0  0  0
    4.9875   -0.4542    0.0000 C   0  0  0  0  0  0           0  0  0
    7.1792   -6.4667    0.0000 O   0  0  0  0  0  0           0  0  0
    8.4167   -4.3167    0.0000 C   0  0  0  0  0  0           0  0  0
    0.5792  -10.1125    0.0000 C   0  0  0  0  0  0           0  0  0
    6.7667   -8.6167    0.0000 C   0  0  0  0  0  0           0  0  0
    3.8042   -3.0250    0.0000 C   0  0  0  0  0  0           0  0  0
    1.3667  -10.3417    0.0000 C   0  0  0  0  0  0           0  0  0
    3.8042   -1.3667    0.0000 C   0  0  0  0  0  0           0  0  0
    8.8292   -5.0375    0.0000 C   0  0  0  0  0  0           0  0  0
    3.3542   -9.4417    0.0000 C   0  0  0  0  0  0           0  0  0
    7.5917   -5.7542    0.0000 C   0  0  0  0  0  0           0  0  0
    1.9625   -9.7792    0.0000 O   0  0  0  0  0  0           0  0  0
   -1.2125  -11.8125    0.0000 C   0  0  0  0  0  0           0  0  0
   -2.1958  -10.7667    0.0000 C   0  0  0  0  0  0           0  0  0
   10.0667   -4.3167    0.0000 C   0  0  0  0  0  0           0  0  0
    0.9667  -11.7167    0.0000 C   0  0  0  0  0  0           0  0  0
    4.1417   -9.6750    0.0000 C   0  0  0  0  0  0           0  0  0
    9.6500   -3.6042    0.0000 C   0  0  0  0  0  0           0  0  0
    0.1750  -11.4792    0.0000 C   0  0  0  0  0  0           0  0  0
    5.6000   -4.4917    0.0000 C   0  0  0  0  0  0           0  0  0
    4.2042   -4.1792    0.0000 C   0  0  0  0  0  0           0  0  0
    2.7542  -10.0042    0.0000 C   0  0  0  0  0  0           0  0  0
    8.4167   -5.7542    0.0000 C   0  0  0  0  0  0           0  0  0
    1.5667  -11.1417    0.0000 C   0  0  0  0  0  0           0  0  0
    9.6542   -5.0375    0.0000 C   0  0  0  0  0  0           0  0  0
    3.0917   -2.6125    0.0000 C   0  0  0  0  0  0           0  0  0
    3.0917   -1.7875    0.0000 C   0  0  0  0  0  0           0  0  0
   -2.7958  -11.3417    0.0000 C   0  0  0  0  0  0           0  0  0
   -1.8083  -12.3792    0.0000 C   0  0  0  0  0  0           0  0  0
    4.0250   -4.9792    0.0000 C   0  0  0  0  0  0           0  0  0
    5.4167   -5.2917    0.0000 C   0  0  0  0  0  0           0  0  0
    4.6292   -5.5417    0.0000 C   0  0  0  0  0  0           0  0  0
   -2.6000  -12.1417    0.0000 C   0  0  0  0  0  0           0  0  0
  2  1  1  0     0  0
  3  4  1  0     0  0
  4  2  1  0     0  0
  5  1  2  0     0  0
  6  5  1  0     0  0
  2  7  1  6     0  0
  8  6  1  0     0  0
  9  7  1  0     0  0
 10 26  1  0     0  0
 11  9  1  0     0  0
 12 22  1  0     0  0
 13 17  1  0     0  0
 14  4  2  0     0  0
 15  5  1  0     0  0
 16  9  2  0     0  0
 17 29  1  0     0  0
 18 10  2  0     0  0
 19 11  1  0     0  0
 20 13  2  0     0  0
 21 10  1  0     0  0
 22 23  1  0     0  0
 23 28  2  0     0  0
 24 13  1  0     0  0
 25  3  1  0     0  0
 26 35  1  0     0  0
 27 19  2  0     0  0
 28 31  1  0     0  0
 29 21  1  0     0  0
 30  6  2  0     0  0
 31 36  1  0     0  0
 32  8  2  0     0  0
 33 27  1  0     0  0
 34 41  1  0     0  0
 35 47  1  0     0  0
 36 46  1  0     0  0
 37 12  1  0     0  0
 38 12  1  0     0  0
 39 42  2  0     0  0
 40 48  1  0     0  0
 41 24  1  0     0  0
 42 19  1  0     0  0
 43 40  2  0     0  0
 44 15  1  0     0  0
 45 15  2  0     0  0
 46 34  1  0     0  0
 47 33  1  0     0  0
 48 31  2  0     0  0
 49 39  1  0     0  0
 50 30  1  0     0  0
 51 50  2  0     0  0
 52 38  1  0     0  0
 53 37  1  0     0  0
 54 45  1  0     0  0
 55 44  2  0     0  0
 56 54  2  0     0  0
 57 52  1  0     0  0
  8  3  1  0     0  0
 55 56  1  0     0  0
 32 51  1  0     0  0
 33 49  2  0     0  0
 43 23  1  0     0  0
 53 57  1  0     0  0
M  END