
  Mrv0541 04051115152D          

 10 11  0  0  0  0            999 V2000
    1.2350   -0.2477    0.0000 N   0  0  0  0  0  0  0  0  0  0  0  0
    1.2350    0.5773    0.0000 C   0  0  0  0  0  0  0  0  0  0  0  0
    0.5205    0.9898    0.0000 N   0  0  0  0  0  0  0  0  0  0  0  0
   -0.1940    0.5773    0.0000 C   0  0  0  0  0  0  0  0  0  0  0  0
   -0.1940   -0.2477    0.0000 C   0  0  0  0  0  0  0  0  0  0  0  0
    0.5205   -0.6602    0.0000 C   0  0  0  0  0  0  0  0  0  0  0  0
    0.5205   -1.4852    0.0000 O   0  0  0  0  0  0  0  0  0  0  0  0
   -0.9786   -0.5027    0.0000 N   0  0  0  0  0  0  0  0  0  0  0  0
   -1.4635    0.1648    0.0000 C   0  0  0  0  0  0  0  0  0  0  0  0
   -0.9786    0.8322    0.0000 N   0  0  0  0  0  0  0  0  0  0  0  0
  2  1  1  0  0  0  0
  6  1  1  0  0  0  0
  2  3  2  0  0  0  0
  4  3  1  0  0  0  0
  4  5  2  0  0  0  0
  4 10  1  0  0  0  0
  5  6  1  0  0  0  0
  5  8  1  0  0  0  0
  6  7  2  0  0  0  0
  9  8  1  0  0  0  0
  9 10  2  0  0  0  0
M  END