
  SciTegic10311316212D

 26 29  0  0  0  0            999 V2000
    4.9306  -19.4433    0.0000 C   0  0
    4.9295  -20.2629    0.0000 C   0  0
    5.6375  -20.6718    0.0000 C   0  0
    5.6357  -19.0345    0.0000 C   0  0
    6.3444  -19.4397    0.0000 C   0  0
    6.3446  -20.2584    0.0000 C   0  0
    7.1233  -20.5111    0.0000 S   0  0
    7.6043  -19.8486    0.0000 C   0  0
    7.1228  -19.1866    0.0000 C   0  0
    4.2260  -20.6700    0.0000 N   0  0
    3.4797  -20.3371    0.0000 C   0  0
    2.9324  -20.9440    0.0000 N   0  0
    3.3405  -21.6520    0.0000 N   0  0
    4.1399  -21.4826    0.0000 C   0  0
    4.7455  -22.0267    0.0000 C   0  0
    4.5735  -22.8267    0.0000 C   0  0
    5.1796  -23.3737    0.0000 C   0  0
    5.9580  -23.1219    0.0000 C   0  0
    6.1268  -22.3180    0.0000 C   0  0
    5.5193  -21.7745    0.0000 C   0  0
    3.3104  -19.5376    0.0000 S   0  0
    8.4194  -19.8462    0.0000 C   0  0
    8.8283  -20.5538    0.0000 O   0  0
    8.8278  -19.1384    0.0000 O   0  0
    7.3751  -18.4093    0.0000 Cl  0  0
    5.6876  -20.9748    0.0000 C   0  0
  1  2  2  0
  2  3  1  0
  3  6  2  0
  5  4  2  0
  4  1  1  0
  5  6  1  0
  6  7  1  0
  7  8  1  0
  8  9  2  0
  9  5  1  0
 10 11  1  0
 11 12  2  0
 12 13  1  0
 13 14  2  0
 14 10  1  0
  2 10  1  0
 15 16  2  0
 16 17  1  0
 17 18  2  0
 18 19  1  0
 19 20  2  0
 20 15  1  0
 14 15  1  0
 11 21  1  0
 22 23  1  0
 22 24  2  0
  8 22  1  0
  9 25  1  0
 20 26  1  0
M  END