
  SciTegic04091416292D

 17 19  0  0  0  0            999 V2000
    2.1166   -2.5561    0.0000 C   0  0
    2.3478   -3.3424    0.0000 C   0  0
    3.1427   -3.5340    0.0000 C   0  0
    2.6770   -1.9642    0.0000 C   0  0
    3.4714   -2.1521    0.0000 C   0  0
    3.7093   -2.9401    0.0000 C   0  0
    4.1474   -1.6824    0.0000 N   0  0
    4.8031   -2.1800    0.0000 C   0  0
    4.5350   -2.9579    0.0000 C   0  0
    5.0716   -3.5756    0.0000 C   0  0
    5.8792   -3.4213    0.0000 N   0  0
    6.1473   -2.6434    0.0000 C   0  0
    5.6079   -2.0199    0.0000 C   0  0
    6.4142   -4.0389    0.0000 C   0  0
    6.1469   -4.8111    0.0000 C   0  0
    7.2167   -3.8844    0.0000 O   0  0
    1.7844   -3.9343    0.0000 Br  0  0
  1  2  2  0
  2  3  1  0
  3  6  2  0
  5  4  2  0
  4  1  1  0
  5  6  1  0
  6  9  1  0
  8  7  1  0
  7  5  1  0
  8  9  2  0
  8 13  1  0
  9 10  1  0
 10 11  1  0
 11 12  1  0
 12 13  1  0
 11 14  1  0
 14 15  1  0
 14 16  2  0
  2 17  1  0
M  END