
          11280715392D 1   1.00000     0.00000     0

 21 22  0     0  0            999 V2000
    2.7292   -0.8000    0.0000 C   0  0  0  0  0  0           0  0  0
    3.4500   -1.2167    0.0000 C   0  0  0  0  0  0           0  0  0
    2.7292   -2.4542    0.0000 C   0  0  0  0  0  0           0  0  0
    3.4500   -2.0417    0.0000 C   0  0  0  0  0  0           0  0  0
    2.0167   -2.0417    0.0000 C   0  0  0  0  0  0           0  0  0
    2.0167   -1.2167    0.0000 C   0  0  0  0  0  0           0  0  0
    2.7292    0.0208    0.0000 O   0  0  0  0  0  0           0  0  0
    2.7292   -3.2792    0.0000 O   0  0  0  0  0  0           0  0  0
    4.1625   -2.4542    0.0000 O   0  0  0  0  0  0           0  0  0
    5.5917    0.0208    0.0000 N   0  0  0  0  0  0           0  0  0
    4.1625    0.0208    0.0000 C   0  0  3  0  0  0           0  0  0
    3.4500    0.4333    0.0000 C   0  0  0  0  0  0           0  0  0
    4.8792    0.4250    0.0000 C   0  0  0  0  0  0           0  0  0
    1.3042   -2.4542    0.0000 C   0  0  0  0  0  0           0  0  0
    4.1542   -0.8042    0.0000 O   0  0  0  0  0  0           0  0  0
    1.3042   -0.8042    0.0000 C   0  0  0  0  0  0           0  0  0
    6.3042    0.4333    0.0000 C   0  0  3  0  0  0           0  0  0
    7.0167    0.0208    0.0000 C   0  0  0  0  0  0           0  0  0
    6.3042    1.2583    0.0000 C   0  0  0  0  0  0           0  0  0
    0.5917   -2.0417    0.0000 C   0  0  0  0  0  0           0  0  0
    0.5917   -1.2167    0.0000 C   0  0  0  0  0  0           0  0  0
  2  1  2  0     0  0
  3  5  1  0     0  0
  4  2  1  0     0  0
  5  6  1  0     0  0
  6  1  1  0     0  0
  7  1  1  0     0  0
  8  3  2  0     0  0
  9  4  2  0     0  0
 10 13  1  0     0  0
 11 12  1  0     0  0
 12  7  1  0     0  0
 13 11  1  0     0  0
 14  5  2  0     0  0
 15 11  1  0     0  0
 16  6  2  0     0  0
 17 10  1  0     0  0
 18 17  1  0     0  0
 19 17  1  0     0  0
 20 21  2  0     0  0
 21 16  1  0     0  0
  3  4  1  0     0  0
 20 14  1  0     0  0
M  END