
  SciTegic09291412002D

 72 74  0  0  0  0            999 V2000
    7.5975  -15.9142    0.0000 O   0  0
    9.8170  -16.9478    0.0000 O   0  0
    8.3085  -17.1531    0.0000 C   0  0
    9.0236  -16.7416    0.0000 C   0  0  2  0  0  0
   10.4451  -16.7416    0.0000 O   0  0
   10.2310  -17.3589    0.0000 C   0  0
   11.8753  -18.0577    0.0000 C   0  0
   11.8753  -17.2347    0.0000 C   0  0
   11.1645  -16.8187    0.0000 C   0  0  1  0  0  0
   13.2970  -15.9142    0.0000 O   0  0
   14.0122  -15.5027    0.0000 C   0  0
   14.7316  -15.9142    0.0000 C   0  0
   15.4381  -15.5027    0.0000 C   0  0
   15.4381  -14.6795    0.0000 C   0  0
   14.7316  -14.2680    0.0000 C   0  0
   14.0121  -14.6795    0.0000 C   0  0
   13.2970  -14.2680    0.0000 C   0  0
   12.4032  -11.4866    0.0000 C   0  0
   11.9905  -12.2064    0.0000 C   0  0
   11.1540  -10.7712    0.0000 C   0  0
   11.5747  -11.4906    0.0000 C   0  0
    6.8823  -12.2102    0.0000 O   0  0
    6.1298  -11.5659    0.0000 O   0  0
    4.7875   -8.2503    0.0000 O   0  0
    2.6205  -10.2219    0.0000 O   0  0
    2.6346   -9.4014    0.0000 C   0  0
    3.3540   -9.0019    0.0000 C   0  0
    4.7774   -9.0709    0.0000 C   0  0
    5.4805   -7.8635    0.0000 C   0  0
    6.9066   -7.8562    0.0000 C   0  0
    6.1967   -8.2729    0.0000 C   0  0
    6.2021   -9.0935    0.0000 C   0  0
    5.4796   -9.4973    0.0000 C   0  0  2  0  0  0
    6.1483  -10.7454    0.0000 C   0  0
    8.2649  -10.4938    0.0000 C   0  0
    8.0089   -9.7048    0.0000 C   0  0
    7.1858   -9.7048    0.0000 C   0  0
    6.9300  -10.4938    0.0000 C   0  0  2  0  0  0
    7.5975  -10.9755    0.0000 N   0  0
    7.5975  -11.7987    0.0000 C   0  0
    6.8823  -13.0333    0.0000 O   0  0
    7.5975  -13.4449    0.0000 C   0  0
    8.3083  -12.2102    0.0000 C   0  0  2  0  0  0
    9.0235  -11.7987    0.0000 C   0  0
    9.7386  -12.2102    0.0000 S   0  0
   10.4451  -11.7987    0.0000 S   0  0
   11.1645  -12.2102    0.0000 C   0  0
   11.1645  -13.0333    0.0000 C   0  0
   12.5904  -13.0333    0.0000 O   0  0
   11.8753  -13.4449    0.0000 C   0  0
   12.5904  -14.6795    0.0000 C   0  0  1  0  0  0
   12.5904  -15.5027    0.0000 C   0  0
   11.8753  -15.9142    0.0000 N   0  0
   11.1645  -15.5027    0.0000 C   0  0  2  0  0  0
   10.4451  -15.9142    0.0000 C   0  0
    9.0236  -15.9142    0.0000 C   0  0  1  0  0  0
    8.3083  -15.5027    0.0000 C   0  0
    7.5975  -14.2680    0.0000 C   0  0  2  0  0  0
    6.8823  -14.6795    0.0000 C   0  0
    6.1715  -13.4449    0.0000 O   0  0
    6.1715  -14.2680    0.0000 C   0  0
   16.1279  -15.9147    0.0000 O   0  0
    9.7132  -15.5032    0.0000 N   0  0
    8.3390  -13.0499    0.0000 N   0  0
   11.8488  -14.2847    0.0000 N   0  0
    4.0442   -9.4811    0.0000 N   0  0
    5.4197  -14.6860    0.0000 N   0  0
    5.4150  -10.3351    0.0000 N   0  0
    1.8792   -8.9794    0.0000 N   0  0
    8.3390  -14.6630    0.0000 N   0  0
    9.8931  -16.4082    0.0000 H   0  0
   11.6640  -16.3690    0.0000 H   0  0
 60 61  2  0
 61 67  1  0
 59 61  1  0
 58 59  1  1
 58 70  1  0
 42 58  1  0
 57 70  1  0
 56 57  1  0
  1 57  2  0
 56 63  1  0
 56  4  1  0
 55 63  1  0
 54 55  1  0
  5 55  2  0
 54 53  1  0
  9 54  1  0
 53 52  1  0
 51 52  1  0
 10 52  2  0
 51 65  1  0
 51 17  1  1
 49 50  2  0
 50 65  1  0
 48 50  1  0
 47 48  1  0
 46 47  1  0
 47 21  1  0
 47 19  1  0
 45 46  1  0
 45 44  1  0
 43 44  1  0
 43 64  1  0
 43 40  1  6
 42 64  1  0
 41 42  2  0
 39 40  1  0
 22 40  2  0
 39 38  1  0
 39 35  1  0
 38 37  1  0
 38 34  1  6
 37 36  1  0
 36 35  1  0
 34 68  1  0
 23 34  2  0
 33 68  1  6
 33 32  1  0
 33 28  1  0
 32 31  1  0
 31 30  1  0
 31 29  1  0
 28 66  1  0
 24 28  2  0
 27 66  1  0
 27 26  1  0
 25 26  2  0
 26 69  1  0
 21 20  1  0
 19 18  1  0
 17 16  1  0
 16 15  2  0
 16 11  1  0
 15 14  1  0
 14 13  2  0
 13 62  1  0
 12 13  1  0
 11 12  2  0
  9  8  1  0
  9  6  1  6
  8  7  1  0
  4  3  1  6
  4  2  1  0
 56 71  1  6
 54 72  1  6
M  END