
          05080814042D 1   1.00000     0.00000     0

 37 41  0     1  0            999 V2000
   -4.1940  -20.1072    0.0000 C   0  0  0  0  0  0           0  0  0
   -4.9048  -20.5220    0.0000 C   0  0  0  0  0  0           0  0  0
   -4.8978  -21.3484    0.0000 C   0  0  0  0  0  0           0  0  0
   -4.1839  -21.7518    0.0000 C   0  0  0  0  0  0           0  0  0
   -3.4808  -20.5144    0.0000 C   0  0  0  0  0  0           0  0  0
   -3.4747  -21.3420    0.0000 C   0  0  0  0  0  0           0  0  0
   -2.7589  -21.7484    0.0000 C   0  0  0  0  0  0           0  0  0
   -2.7710  -20.0930    0.0000 C   0  0  0  0  0  0           0  0  0
   -2.0505  -20.5039    0.0000 C   0  0  2  0  0  0           0  0  0
   -2.0460  -21.3335    0.0000 C   0  0  2  0  0  0           0  0  0
   -1.3292  -21.7421    0.0000 N   0  0  3  0  0  0           0  0  0
   -0.6124  -21.3257    0.0000 C   0  0  0  0  0  0           0  0  0
   -0.6169  -20.4961    0.0000 C   0  0  1  0  0  0           0  0  0
   -1.3383  -20.0829    0.0000 C   0  0  0  0  0  0           0  0  0
   -2.0583  -19.6750    0.0000 H   0  0  0  0  0  0           0  0  0
   -2.0542  -22.1583    0.0000 H   0  0  0  0  0  0           0  0  0
    0.0957  -20.0804    0.0000 C   0  0  0  0  0  0           0  0  0
    0.8120  -20.4897    0.0000 N   0  0  3  0  0  0           0  0  0
    0.0920  -19.2554    0.0000 O   0  0  0  0  0  0           0  0  0
    0.8097  -21.3178    0.0000 C   0  0  0  0  0  0           0  0  0
    1.5219  -21.7271    0.0000 C   0  0  0  0  0  0           0  0  0
    2.2370  -21.3149    0.0000 N   0  0  3  0  0  0           0  0  0
    2.2353  -20.4889    0.0000 C   0  0  0  0  0  0           0  0  0
    1.5185  -20.0751    0.0000 C   0  0  0  0  0  0           0  0  0
   -4.1980  -19.2822    0.0000 O   0  0  0  0  0  0           0  0  0
   -4.9145  -18.8731    0.0000 C   0  0  0  0  0  0           0  0  0
   -1.3258  -22.5671    0.0000 C   0  0  0  0  0  0           0  0  0
    2.9517  -21.7269    0.0000 C   0  0  0  0  0  0           0  0  0
    2.9478  -22.5511    0.0000 C   0  0  0  0  0  0           0  0  0
    3.6617  -22.9630    0.0000 C   0  0  0  0  0  0           0  0  0
    4.3769  -22.5500    0.0000 C   0  0  0  0  0  0           0  0  0
    4.3737  -21.7207    0.0000 C   0  0  0  0  0  0           0  0  0
    3.6592  -21.3125    0.0000 C   0  0  0  0  0  0           0  0  0
    5.0922  -22.9610    0.0000 C   0  0  0  0  0  0           0  0  0
    5.0938  -23.7860    0.0000 O   0  0  0  0  0  0           0  0  0
    5.8058  -22.5471    0.0000 O   0  0  0  0  0  0           0  0  0
    6.5211  -22.9581    0.0000 C   0  0  0  0  0  0           0  0  0
  7 10  1  0     0  0
 17 18  1  0     0  0
  9  8  1  0     0  0
 17 19  2  0     0  0
 18 20  1  0     0  0
  9 10  1  0     0  0
  3  4  2  0     0  0
  4  6  1  0     0  0
  5  6  2  0     0  0
  1  2  2  0     0  0
 18 24  1  0     0  0
 20 21  1  0     0  0
 21 22  1  0     0  0
 22 23  1  0     0  0
 23 24  1  0     0  0
  5  1  1  0     0  0
  1 25  1  0     0  0
  2  3  1  0     0  0
 25 26  1  0     0  0
  9 14  1  0     0  0
 11 27  1  0     0  0
 10 11  1  0     0  0
 22 28  1  0     0  0
 11 12  1  0     0  0
 28 29  2  0     0  0
 12 13  1  0     0  0
 29 30  1  0     0  0
 13 14  1  0     0  0
 30 31  2  0     0  0
 31 32  1  0     0  0
  9 15  1  6     0  0
 32 33  2  0     0  0
 33 28  1  0     0  0
  5  8  1  0     0  0
 31 34  1  0     0  0
 10 16  1  1     0  0
 34 35  2  0     0  0
  6  7  1  0     0  0
 34 36  1  0     0  0
 13 17  1  1     0  0
 36 37  1  0     0  0
M  END