
  SciTegic12231509382D

 26 28  0  0  1  0            999 V2000
    3.2679   -3.0277    0.0000 C   0  0
    2.4521   -3.1507    0.0000 O   0  0
    1.9378   -2.5057    0.0000 C   0  0
    1.1220   -2.6286    0.0000 C   0  0
    0.6076   -1.9836    0.0000 C   0  0
    0.9090   -1.2156    0.0000 C   0  0
    1.7248   -1.0927    0.0000 C   0  0
    2.2392   -1.7377    0.0000 C   0  0
    0.3946   -0.5706    0.0000 C   0  0  2  0  0  0
   -0.4097   -0.7542    0.0000 C   0  0
   -1.0547   -0.2398    0.0000 C   0  0
   -1.7692   -0.6523    0.0000 C   0  0
   -2.4837   -0.2398    0.0000 C   0  0
   -2.4837    0.5852    0.0000 C   0  0
   -1.7692    0.9977    0.0000 C   0  0
   -1.0547    0.5852    0.0000 C   0  0
   -0.4097    1.0995    0.0000 N   0  0
   -0.5933    1.9039    0.0000 C   0  0
   -1.3816    2.1470    0.0000 C   0  0
   -1.5652    2.9514    0.0000 N   0  0
   -2.3536    3.1945    0.0000 C   0  0
   -0.9604    3.5125    0.0000 C   0  0
    0.3946    0.9160    0.0000 C   0  0
    0.9090    1.5610    0.0000 O   0  0
    0.7526    0.1727    0.0000 C   0  0  2  0  0  0
    1.5776    0.1727    0.0000 C   0  0
  1  2  1  0
  2  3  1  0
  3  4  2  0
  4  5  1  0
  5  6  2  0
  6  7  1  0
  7  8  2  0
  3  8  1  0
  9  6  1  6
  9 10  1  0
 10 11  1  0
 11 12  2  0
 12 13  1  0
 13 14  2  0
 14 15  1  0
 15 16  2  0
 11 16  1  0
 16 17  1  0
 17 18  1  0
 18 19  1  0
 19 20  1  0
 20 21  1  0
 20 22  1  0
 17 23  1  0
 23 24  2  0
 23 25  1  0
  9 25  1  0
 25 26  1  6
M  END