
          11280715502D 1   1.00000     0.00000     0

 53 57  0     1  0            999 V2000
    2.7971   -1.2247    0.0000 C   0  0  0  0  0  0           0  0  0
    3.2040   -1.9438    0.0000 C   0  0  0  0  0  0           0  0  0
    4.0282   -1.9498    0.0000 C   0  0  0  0  0  0           0  0  0
    4.4466   -1.2377    0.0000 C   0  0  0  0  0  0           0  0  0
    4.0346   -0.5179    0.0000 C   0  0  0  0  0  0           0  0  0
    3.2118   -0.5154    0.0000 C   0  0  0  0  0  0           0  0  0
    5.2715   -1.2424    0.0000 C   0  0  0  0  0  0           0  0  0
    5.6800   -1.9592    0.0000 N   0  0  0  0  0  0           0  0  0
    5.6881   -0.5302    0.0000 O   0  0  0  0  0  0           0  0  0
    6.5049   -1.9638    0.0000 S   0  0  3  0  0  0           0  0  0
    6.4968   -2.7858    0.0000 O   0  0  0  0  0  0           0  0  0
    7.3301   -1.9649    0.0000 C   0  0  0  0  0  0           0  0  0
    6.5131   -1.1389    0.0000 O   0  0  0  0  0  0           0  0  0
    7.7398   -2.6822    0.0000 C   0  0  0  0  0  0           0  0  0
    8.9784   -1.9690    0.0000 C   0  0  0  0  0  0           0  0  0
    8.5624   -1.2516    0.0000 C   0  0  0  0  0  0           0  0  0
    7.7393   -1.2538    0.0000 C   0  0  0  0  0  0           0  0  0
    8.9730   -0.5352    0.0000 N   0  3  0  0  0  0           0  0  0
    8.5589    0.1784    0.0000 O   0  0  0  0  0  0           0  0  0
    9.7981   -0.5333    0.0000 O   0  5  0  0  0  0           0  0  0
    9.8034   -1.9690    0.0000 N   0  0  0  0  0  0           0  0  0
   10.2138   -2.6769    0.0000 C   0  0  2  0  0  0           0  0  0
   11.0375   -2.6289    0.0000 C   0  0  0  0  0  0           0  0  0
    1.9765   -1.2188    0.0000 C   0  0  0  0  0  0           0  0  0
    1.5696   -0.4998    0.0000 C   0  0  0  0  0  0           0  0  0
    0.7454   -0.4937    0.0000 C   0  0  0  0  0  0           0  0  0
    0.3271   -1.2058    0.0000 C   0  0  0  0  0  0           0  0  0
    0.7390   -1.9255    0.0000 C   0  0  0  0  0  0           0  0  0
    1.5619   -1.9281    0.0000 C   0  0  0  0  0  0           0  0  0
    1.9713   -2.6443    0.0000 O   0  0  0  0  0  0           0  0  0
    1.5558   -3.3571    0.0000 C   0  0  0  0  0  0           0  0  0
   -0.4979   -1.2011    0.0000 C   0  0  0  0  0  0           0  0  0
   -0.9063   -0.4843    0.0000 C   0  0  0  0  0  0           0  0  0
   -1.7313   -0.4797    0.0000 C   0  0  0  0  0  0           0  0  0
   -2.1398    0.2371    0.0000 N   0  0  3  0  0  0           0  0  0
   -1.7249    0.9470    0.0000 C   0  0  0  0  0  0           0  0  0
   -2.1299    1.6618    0.0000 C   0  0  0  0  0  0           0  0  0
   -2.9552    1.6706    0.0000 O   0  0  0  0  0  0           0  0  0
   -3.3739    0.9587    0.0000 C   0  0  0  0  0  0           0  0  0
   -2.9674    0.2378    0.0000 C   0  0  0  0  0  0           0  0  0
    8.5660   -2.6834    0.0000 C   0  0  0  0  0  0           0  0  0
   11.4077   -1.8916    0.0000 C   0  0  0  0  0  0           0  0  0
   12.2313   -1.8438    0.0000 N   0  0  3  0  0  0           0  0  0
   12.6016   -1.1065    0.0000 C   0  0  0  0  0  0           0  0  0
   12.6846   -2.5330    0.0000 C   0  0  0  0  0  0           0  0  0
    9.8230   -3.4035    0.0000 C   0  0  0  0  0  0           0  0  0
   10.2567   -4.1052    0.0000 S   0  0  0  0  0  0           0  0  0
    9.8659   -4.8317    0.0000 C   0  0  0  0  0  0           0  0  0
    9.0402   -4.8549    0.0000 C   0  0  0  0  0  0           0  0  0
    8.6495   -5.5806    0.0000 C   0  0  0  0  0  0           0  0  0
    9.0833   -6.2834    0.0000 C   0  0  0  0  0  0           0  0  0
    9.9122   -6.2558    0.0000 C   0  0  0  0  0  0           0  0  0
   10.2992   -5.5297    0.0000 C   0  0  0  0  0  0           0  0  0
 41 15  2  0     0  0
  3  4  1  0     0  0
 24 25  2  0     0  0
 15 16  1  0     0  0
 25 26  1  0     0  0
  7  8  1  0     0  0
 26 27  2  0     0  0
 16 17  2  0     0  0
 27 28  1  0     0  0
 17 12  1  0     0  0
 28 29  2  0     0  0
 29 24  1  0     0  0
  1 24  1  0     0  0
 29 30  1  0     0  0
  7  9  2  0     0  0
 30 31  1  0     0  0
  4  5  2  0     0  0
 27 32  1  0     0  0
 18 19  2  0     0  0
 32 33  1  0     0  0
 18 20  1  0     0  0
 33 34  1  0     0  0
 16 18  1  0     0  0
 34 35  1  0     0  0
 35 36  1  0     0  0
  8 10  1  0     0  0
 15 21  1  0     0  0
  2  3  2  0     0  0
 21 22  1  0     0  0
 10 11  2  0     0  0
 35 40  1  0     0  0
 36 37  1  0     0  0
 37 38  1  0     0  0
 38 39  1  0     0  0
 39 40  1  0     0  0
  5  6  1  0     0  0
 23 42  1  0     0  0
 42 43  1  0     0  0
 10 12  1  0     0  0
 43 44  1  0     0  0
 43 45  1  0     0  0
 22 46  1  0     0  0
  6  1  2  0     0  0
 46 47  1  0     0  0
 10 13  2  0     0  0
 47 48  1  0     0  0
  1  2  1  0     0  0
 48 49  2  0     0  0
 12 14  2  0     0  0
 49 50  1  0     0  0
 14 41  1  0     0  0
 50 51  2  0     0  0
  4  7  1  0     0  0
 51 52  1  0     0  0
 22 23  1  6     0  0
 52 53  2  0     0  0
 53 48  1  0     0  0
M  CHG  2  18   1  20  -1
M  END