
          08180812482D 1   1.00000     0.00000     0

 41 45  0     0  0            999 V2000
   -3.3671    2.4155    0.0000 N   0  0  3  0  0  0           0  0  0
   -3.3671    1.5902    0.0000 C   0  0  0  0  0  0           0  0  0
   -2.6527    1.1775    0.0000 N   0  0  3  0  0  0           0  0  0
   -2.6527    2.8282    0.0000 C   0  0  0  0  0  0           0  0  0
   -2.6527    3.6535    0.0000 O   0  0  0  0  0  0           0  0  0
   -4.0815    1.1775    0.0000 O   0  0  0  0  0  0           0  0  0
   -1.9384    2.4155    0.0000 C   0  0  0  0  0  0           0  0  0
   -1.9384    1.5902    0.0000 C   0  0  0  0  0  0           0  0  0
   -1.1529    1.3348    0.0000 C   0  0  0  0  0  0           0  0  0
   -0.6653    2.0028    0.0000 C   0  0  0  0  0  0           0  0  0
   -1.1529    2.6709    0.0000 N   0  0  0  0  0  0           0  0  0
   -4.0815    2.8282    0.0000 C   0  0  0  0  0  0           0  0  0
   -2.6527    0.3522    0.0000 C   0  0  0  0  0  0           0  0  0
    0.1600    2.0028    0.0000 C   0  0  0  0  0  0           0  0  0
    0.5727    1.2885    0.0000 C   0  0  0  0  0  0           0  0  0
    1.3980    1.2885    0.0000 C   0  0  0  0  0  0           0  0  0
    1.8106    2.0028    0.0000 C   0  0  0  0  0  0           0  0  0
    1.3980    2.7172    0.0000 C   0  0  0  0  0  0           0  0  0
    0.5727    2.7172    0.0000 C   0  0  0  0  0  0           0  0  0
    2.6359    2.0028    0.0000 O   0  0  0  0  0  0           0  0  0
    3.0486    2.7172    0.0000 C   0  0  3  0  0  0           0  0  0
    3.7629    2.3046    0.0000 C   0  0  0  0  0  0           0  0  0
    3.7629    1.4793    0.0000 N   0  0  3  0  0  0           0  0  0
    4.4772    2.7172    0.0000 O   0  0  0  0  0  0           0  0  0
    3.0486    1.0666    0.0000 C   0  0  0  0  0  0           0  0  0
    3.0486    0.2413    0.0000 C   0  0  0  0  0  0           0  0  0
    3.7629   -0.1713    0.0000 N   0  0  3  0  0  0           0  0  0
    4.4772    0.2413    0.0000 C   0  0  0  0  0  0           0  0  0
    4.4772    1.0666    0.0000 C   0  0  0  0  0  0           0  0  0
    3.7629   -0.9966    0.0000 C   0  0  0  0  0  0           0  0  0
    3.0486   -1.4093    0.0000 C   0  0  0  0  0  0           0  0  0
    3.0486   -2.2346    0.0000 C   0  0  0  0  0  0           0  0  0
    3.7629   -2.6472    0.0000 C   0  0  0  0  0  0           0  0  0
    4.4772   -2.2346    0.0000 C   0  0  0  0  0  0           0  0  0
    4.4772   -1.4093    0.0000 C   0  0  0  0  0  0           0  0  0
    3.4612    3.4316    0.0000 C   0  0  0  0  0  0           0  0  0
    2.3296    3.1299    0.0000 C   0  0  0  0  0  0           0  0  0
   -3.3671   -0.0604    0.0000 C   0  0  0  0  0  0           0  0  0
   -3.3671   -0.8857    0.0000 C   0  0  0  0  0  0           0  0  0
   -4.7959    2.4155    0.0000 C   0  0  0  0  0  0           0  0  0
   -5.5103    2.8282    0.0000 C   0  0  0  0  0  0           0  0  0
  1  2  1  0     0  0
  1  4  1  0     0  0
  2  3  1  0     0  0
  3  8  1  0     0  0
  7  4  1  0     0  0
  4  5  2  0     0  0
  2  6  2  0     0  0
  7  8  2  0     0  0
  8  9  1  0     0  0
  9 10  2  0     0  0
 10 11  1  0     0  0
 11  7  1  0     0  0
  1 12  1  0     0  0
  3 13  1  0     0  0
 10 14  1  0     0  0
 14 15  2  0     0  0
 14 19  1  0     0  0
 15 16  1  0     0  0
 16 17  2  0     0  0
 17 18  1  0     0  0
 18 19  2  0     0  0
 17 20  1  0     0  0
 20 21  1  0     0  0
 21 22  1  0     0  0
 22 23  1  0     0  0
 22 24  2  0     0  0
 23 25  1  0     0  0
 23 29  1  0     0  0
 25 26  1  0     0  0
 26 27  1  0     0  0
 27 28  1  0     0  0
 28 29  1  0     0  0
 27 30  1  0     0  0
 30 31  2  0     0  0
 31 32  1  0     0  0
 32 33  2  0     0  0
 33 34  1  0     0  0
 34 35  2  0     0  0
 35 30  1  0     0  0
 21 36  1  0     0  0
 21 37  1  0     0  0
 13 38  1  0     0  0
 38 39  1  0     0  0
 12 40  1  0     0  0
 40 41  1  0     0  0
M  END