
  SciTegic04201609482D

 36 38  0  0  0  0            999 V2000
    8.8218   -9.9205    0.0000 O   0  0
    7.7815  -10.5187    0.0000 S   0  0
    7.7838   -9.3187    0.0000 O   0  0
    3.8933   -3.7570    0.0000 C   0  0
    4.9336   -3.1588    0.0000 O   0  0
    2.5951   -3.0039    0.0000 N   0  0
    2.5973   -1.5031    0.0000 C   0  0
    1.2990   -0.7500    0.0000 C   0  0
    1.2990    0.7500    0.0000 C   0  0
    0.0000    1.5000    0.0000 C   0  0
   -1.2990    0.7500    0.0000 C   0  0
   -1.2990   -0.7500    0.0000 C   0  0
    0.0000   -1.5000    0.0000 C   0  0
   -2.6003    1.4977    0.0000 C   0  0
   -2.6024    2.6977    0.0000 N   0  0
   -3.6387    0.8962    0.0000 N   0  0
    3.8912   -5.2578    0.0000 C   0  0
    5.1894   -6.0109    0.0000 N   0  0
    5.1873   -7.5117    0.0000 C   0  0
    6.4855   -8.2648    0.0000 C   0  0  2  0  0  0
    4.1470   -8.1099    0.0000 O   0  0
    6.4833   -9.7656    0.0000 N   0  0
    7.7850   -7.5140    0.0000 C   0  0
    7.7855   -6.0132    0.0000 C   0  0
    7.7794  -12.0195    0.0000 C   0  0
    9.0776  -12.7726    0.0000 C   0  0
    9.0777  -14.2726    0.0000 C   0  0
   10.3767  -15.0227    0.0000 C   0  0
   11.6758  -14.2727    0.0000 C   0  0
   11.6758  -12.7727    0.0000 C   0  0
   10.3768  -12.0227    0.0000 C   0  0
    9.0832   -5.2608    0.0000 C   0  0
    9.0806   -3.7608    0.0000 C   0  0
    7.7803   -3.0131    0.0000 C   0  0
    6.4825   -3.7653    0.0000 C   0  0
    6.4851   -5.2653    0.0000 C   0  0
  2  1  2  0
  3  2  2  0
  4  5  2  0
  4  6  1  0
  6  7  1  0
  7  8  1  0
  8  9  2  0
  9 10  1  0
 10 11  2  0
 11 12  1  0
 12 13  2  0
 13  8  1  0
 14 15  1  0
 14 16  2  0
 11 14  1  0
  4 17  1  0
 17 18  1  0
 18 19  1  0
 19 20  1  0
 19 21  2  0
 20 22  1  0
 20 23  1  1
 23 24  1  0
 22  2  1  0
  2 25  1  0
 25 26  1  0
 26 27  2  0
 27 28  1  0
 28 29  2  0
 29 30  1  0
 30 31  2  0
 31 26  1  0
 24 32  2  0
 32 33  1  0
 33 34  2  0
 34 35  1  0
 35 36  2  0
 36 24  1  0
M  END