
  SciTegic11201309402D

 82 86  0  0  1  0            999 V2000
    1.5667   -2.7167    0.0000 N   0  0
    0.7542   -2.8792    0.0000 C   0  0
   -1.0208    2.2833    0.0000 N   0  0
    0.2042   -2.2667    0.0000 C   0  0  1  0  0  0
    0.4042    1.4583    0.0000 C   0  0
    0.7292   -1.6292    0.0000 N   0  0
    0.8542    0.7708    0.0000 N   0  0
   -3.3333    1.6583    0.0000 N   0  0
   -1.8458    2.3208    0.0000 C   0  0
    1.0167   -0.8542    0.0000 C   0  0
   -3.8583    1.0083    0.0000 C   0  0
    2.0917   -4.0792    0.0000 C   0  0
   -0.2458    1.9833    0.0000 C   0  0  2  0  0  0
    1.0667   -0.0292    0.0000 C   0  0  2  0  0  0
   -4.1958   -0.5792    0.0000 N   0  0
    2.1792   -3.2667    0.0000 C   0  0  2  0  0  0
   -2.6458    2.1083    0.0000 C   0  0  2  0  0  0
   -3.9833   -1.3792    0.0000 C   0  0
   -4.1458    0.2458    0.0000 C   0  0  2  0  0  0
    2.7542   -4.5667    0.0000 N   0  0
    1.8917    0.0583    0.0000 C   0  0
    4.1792   -4.7167    0.0000 C   0  0
    5.0542   -0.9417    0.0000 C   0  0
   -3.5333   -2.0667    0.0000 C   0  0
   -1.2833   -2.9292    0.0000 S   0  0
   -2.0833   -2.9417    0.0000 S   0  0
    2.4667    0.6458    0.0000 C   0  0
    4.9417   -4.3792    0.0000 N   0  0
   -2.8833   -2.5917    0.0000 C   0  0
    3.5167   -4.2292    0.0000 C   0  0  2  0  0  0
    6.3292   -4.4542    0.0000 C   0  0
    4.3417   -0.5292    0.0000 N   0  0
    0.5042   -3.6667    0.0000 O   0  0
    1.0167    2.0208    0.0000 O   0  0
   -0.4833   -2.7167    0.0000 C   0  0
    1.3417   -4.4167    0.0000 O   0  0
   -1.9958    2.9333    0.0000 O   0  0
    1.8292   -1.0292    0.0000 O   0  0
   -4.5708    1.4333    0.0000 O   0  0
   -4.9583    0.4208    0.0000 C   0  0
   -2.9833    2.8583    0.0000 C   0  0
   -4.7333   -1.7167    0.0000 O   0  0
    4.1042   -5.5417    0.0000 O   0  0
    2.2792    1.2708    0.0000 O   0  0
    6.3292   -3.6292    0.0000 O   0  0
    5.0417   -1.7667    0.0000 N   0  0
    5.6042   -4.8542    0.0000 C   0  0
    5.7667   -0.5417    0.0000 N   0  0
    0.1667    2.6958    0.0000 C   0  0
    1.9042   -1.9417    0.0000 C   0  0
    7.0292   -4.8667    0.0000 N   0  0
    3.2917    0.5583    0.0000 N   0  0
   -5.6708    0.0083    0.0000 C   0  0
   -7.1042   -0.8042    0.0000 C   0  0
   -2.4958    3.5333    0.0000 C   0  0
   -6.3792    0.4333    0.0000 C   0  0
   -5.6833   -0.8167    0.0000 C   0  0
    7.7417   -6.9292    0.0000 N   0  0
   -6.3917   -1.2167    0.0000 C   0  0
   -7.1042    0.0208    0.0000 C   0  0
    2.8917   -2.8542    0.0000 C   0  0
   -7.8292   -1.2167    0.0000 O   0  0
    2.7292   -2.0417    0.0000 C   0  0
   -2.4208   -3.2167    0.0000 C   0  0
   -3.6583   -2.4917    0.0000 C   0  0
    3.6042   -3.4167    0.0000 C   0  0
    7.0292   -5.6917    0.0000 C   0  0
    4.3292   -2.1792    0.0000 C   0  0
    7.7417   -6.1042    0.0000 C   0  0
   -0.2458    3.4208    0.0000 C   0  0
    1.0042    2.6958    0.0000 C   0  0
   -7.8292   -2.0417    0.0000 C   0  0
   -2.8333    4.2792    0.0000 C   0  0
   -1.6708    3.4458    0.0000 C   0  0
    4.3167   -3.0042    0.0000 C   0  0
   -7.1167   -2.4542    0.0000 C   0  0
   -4.0708   -3.2167    0.0000 C   0  0
   -2.8333   -3.9292    0.0000 C   0  0
   -2.3458    4.9542    0.0000 C   0  0
   -1.1833    4.1167    0.0000 C   0  0
   -1.5208    4.8667    0.0000 C   0  0
   -3.6583   -3.9292    0.0000 C   0  0
  2  1  1  0
  3 13  1  0
  4  2  1  6
  5  7  1  0
  6  4  1  0
  7 14  1  0
  8 11  1  0
  9  3  1  0
 10  6  1  0
 11 19  1  0
 16 12  1  1
 13  5  1  0
 14 10  1  0
 15 18  1  0
 16  1  1  0
 17  9  1  0
 18 24  1  0
 19 15  1  0
 20 12  1  0
 14 21  1  1
 22 30  1  0
 23 46  2  0
 24 29  1  0
 25 35  1  0
 26 25  1  0
 27 21  1  0
 28 22  1  0
 29 26  1  0
 30 20  1  1
 31 47  1  0
 32 23  1  0
 33  2  2  0
 34  5  2  0
  4 35  1  0
 36 12  2  0
 37  9  2  0
 38 10  2  0
 39 11  2  0
 19 40  1  6
 17 41  1  1
 42 18  2  0
 43 22  2  0
 44 27  2  0
 45 31  2  0
 46 68  1  0
 47 28  1  0
 48 23  1  0
 13 49  1  1
 50  1  1  0
 51 31  1  0
 52 27  1  0
 53 40  1  0
 54 59  1  0
 55 41  1  0
 56 53  2  0
 57 53  1  0
 58 69  1  0
 59 57  2  0
 60 56  1  0
 61 16  1  0
 62 54  1  0
 63 50  1  0
 64 29  1  0
 65 29  1  0
 30 66  1  0
 67 51  1  0
 68 75  1  0
 69 67  1  0
 70 49  1  0
 71 49  1  0
 72 62  1  0
 73 55  2  0
 74 55  1  0
 75 66  1  0
 76 72  1  0
 77 65  1  0
 78 64  1  0
 79 73  1  0
 80 74  2  0
 81 80  1  0
 82 77  1  0
 61 63  1  0
 78 82  1  0
 17  8  1  0
 60 54  2  0
 79 81  2  0
M  END