
  Mrv0541 09061316032D          

 36 40  0  0  0  0            999 V2000
    9.6694    0.2875    0.0000 C   0  0  0  0  0  0  0  0  0  0  0  0
    9.6682   -0.5398    0.0000 C   0  0  0  0  0  0  0  0  0  0  0  0
   10.3831   -0.9527    0.0000 C   0  0  0  0  0  0  0  0  0  0  0  0
   11.0995   -0.5394    0.0000 N   0  0  0  0  0  0  0  0  0  0  0  0
   10.3813    0.7003    0.0000 C   0  0  0  0  0  0  0  0  0  0  0  0
   11.0978    0.2858    0.0000 N   0  0  0  0  0  0  0  0  0  0  0  0
   11.7135    0.8391    0.0000 C   0  0  0  0  0  0  0  0  0  0  0  0
   11.3774    1.5957    0.0000 N   0  0  0  0  0  0  0  0  0  0  0  0
   10.5541    1.5098    0.0000 N   0  0  0  0  0  0  0  0  0  0  0  0
   12.5375    0.8417    0.0000 O   0  0  0  0  0  0  0  0  0  0  0  0
   11.7905    2.3099    0.0000 C   0  0  0  0  0  0  0  0  0  0  0  0
   12.6155    2.3092    0.0000 C   0  0  0  0  0  0  0  0  0  0  0  0
   13.0249    1.5955    0.0000 C   0  0  0  0  0  0  0  0  0  0  0  0
   13.8491    1.5945    0.0000 C   0  0  0  0  0  0  0  0  0  0  0  0
   14.2630    2.3091    0.0000 C   0  0  0  0  0  0  0  0  0  0  0  0
   13.8467    3.0263    0.0000 N   0  0  0  0  0  0  0  0  0  0  0  0
   13.0238    3.0238    0.0000 C   0  0  0  0  0  0  0  0  0  0  0  0
   15.0880    2.3095    0.0000 C   0  0  0  0  0  0  0  0  0  0  0  0
   15.5009    1.5953    0.0000 F   0  0  0  0  0  0  0  0  0  0  0  0
   15.5002    3.0242    0.0000 F   0  0  0  0  0  0  0  0  0  0  0  0
   15.9125    2.3125    0.0000 F   0  0  0  0  0  0  0  0  0  0  0  0
    8.9569    0.6997    0.0000 C   0  0  0  0  0  0  0  0  0  0  0  0
    8.9581    1.5258    0.0000 C   0  0  0  0  0  0  0  0  0  0  0  0
    8.2443    1.9381    0.0000 C   0  0  0  0  0  0  0  0  0  0  0  0
    7.5290    1.5253    0.0000 N   0  0  0  0  0  0  0  0  0  0  0  0
    7.5318    0.6961    0.0000 C   0  0  0  0  0  0  0  0  0  0  0  0
    8.2462    0.2876    0.0000 C   0  0  0  0  0  0  0  0  0  0  0  0
    8.9554   -0.9520    0.0000 C   0  0  0  0  0  0  0  0  0  0  0  0
    8.2409   -0.5373    0.0000 C   0  0  0  0  0  0  0  0  0  0  0  0
    7.5266   -0.9485    0.0000 C   0  0  0  0  0  0  0  0  0  0  0  0
    7.5255   -1.7744    0.0000 C   0  0  0  0  0  0  0  0  0  0  0  0
    8.2447   -2.1873    0.0000 C   0  0  0  0  0  0  0  0  0  0  0  0
    8.9561   -1.7737    0.0000 C   0  0  0  0  0  0  0  0  0  0  0  0
    6.8113   -2.1873    0.0000 Cl  0  0  0  0  0  0  0  0  0  0  0  0
    8.2469   -3.0123    0.0000 H   0  0  0  0  0  0  0  0  0  0  0  0
   12.6086    3.7367    0.0000 H   0  0  0  0  0  0  0  0  0  0  0  0
 17 12  1  0  0  0  0
  7  8  1  0  0  0  0
 15 18  1  0  0  0  0
  8  9  1  0  0  0  0
 18 19  1  0  0  0  0
  9  5  2  0  0  0  0
 18 20  1  0  0  0  0
  5  1  1  0  0  0  0
 18 21  1  0  0  0  0
  7 10  2  0  0  0  0
  5  6  1  0  0  0  0
 22 23  2  0  0  0  0
  8 11  1  0  0  0  0
 23 24  1  0  0  0  0
 24 25  2  0  0  0  0
 11 12  1  0  0  0  0
 25 26  1  0  0  0  0
  2  3  1  0  0  0  0
 26 27  2  0  0  0  0
 27 22  1  0  0  0  0
  1 22  1  0  0  0  0
 12 13  2  0  0  0  0
  1  2  2  0  0  0  0
 28 29  2  0  0  0  0
 13 14  1  0  0  0  0
 29 30  1  0  0  0  0
  3  4  2  0  0  0  0
 30 31  2  0  0  0  0
 14 15  2  0  0  0  0
 31 32  1  0  0  0  0
  4  6  1  0  0  0  0
 32 33  2  0  0  0  0
 33 28  1  0  0  0  0
  2 28  1  0  0  0  0
 15 16  1  0  0  0  0
 31 34  1  0  0  0  0
  6  7  1  0  0  0  0
 32 35  1  0  0  0  0
 16 17  2  0  0  0  0
 17 36  1  0  0  0  0
M  ISO  2  35   3  36   3
M  END