
  SciTegic01091216402D

 18 19  0  0  0  0            999 V2000
   12.5402   -3.6291    0.0000 C   0  0
   12.5391   -4.4565    0.0000 C   0  0
   13.2539   -4.8694    0.0000 C   0  0
   13.9703   -4.4560    0.0000 C   0  0
   13.9675   -3.6255    0.0000 C   0  0
   13.2521   -3.2164    0.0000 C   0  0
   11.8243   -4.8684    0.0000 Cl  0  0
   14.6804   -3.2103    0.0000 C   0  0
   15.3964   -3.6201    0.0000 S   0  0
   16.1093   -3.2049    0.0000 C   0  0
   16.8238   -3.6182    0.0000 N   0  0
   17.5362   -3.2037    0.0000 C   0  0
   17.5335   -2.3778    0.0000 N   0  0
   16.8125   -1.9682    0.0000 C   0  0
   16.1030   -2.3850    0.0000 N   0  0
   16.8064   -1.1432    0.0000 N   0  0
   18.2520   -3.6138    0.0000 S   0  0
   18.2547   -4.4388    0.0000 C   0  0
  8  9  1  0
  4  5  1  0
  9 10  1  0
  2  3  1  0
 10 11  2  0
  5  6  2  0
 11 12  1  0
  6  1  1  0
 12 13  2  0
  1  2  2  0
 13 14  1  0
  2  7  1  0
 14 15  2  0
 15 10  1  0
  3  4  2  0
 14 16  1  0
  5  8  1  0
 12 17  1  0
 17 18  1  0
M  END