
          11280715252D 1   1.00000     0.00000     0

 54 57  0     1  0            999 V2000
    2.9917   -3.8625    0.0000 C   0  0  1  0  0  0           0  0  0
    5.1417   -3.4500    0.0000 C   0  0  1  0  0  0           0  0  0
    2.2792   -3.4500    0.0000 C   0  0  0  0  0  0           0  0  0
    5.8542   -3.8625    0.0000 C   0  0  0  0  0  0           0  0  0
    3.7125   -3.4500    0.0000 C   0  0  1  0  0  0           0  0  0
    4.4250   -3.8625    0.0000 C   0  0  1  0  0  0           0  0  0
    1.5667   -3.8625    0.0000 N   0  0  0  0  0  0           0  0  0
    6.5667   -3.4500    0.0000 N   0  0  0  0  0  0           0  0  0
    5.8542    1.0875    0.0000 C   0  0  0  0  0  0           0  0  0
    2.2792   -8.3917    0.0000 C   0  0  0  0  0  0           0  0  0
    6.5167    1.5708    0.0000 N   0  0  0  0  0  0           0  0  0
    2.9542   -8.8792    0.0000 N   0  0  0  0  0  0           0  0  0
    0.8542   -3.4500    0.0000 C   0  0  2  0  0  0           0  0  0
    7.2792   -3.8625    0.0000 C   0  0  2  0  0  0           0  0  0
    0.1375   -3.8625    0.0000 C   0  0  0  0  0  0           0  0  0
    8.0000   -3.4500    0.0000 C   0  0  0  0  0  0           0  0  0
    5.1417   -2.6250    0.0000 O   0  0  0  0  0  0           0  0  0
    2.9917   -4.6875    0.0000 O   0  0  0  0  0  0           0  0  0
    1.6167   -8.8792    0.0000 S   0  0  0  0  0  0           0  0  0
    5.1875    1.5708    0.0000 S   0  0  0  0  0  0           0  0  0
    2.2792   -7.5667    0.0000 C   0  0  0  0  0  0           0  0  0
    5.8542    0.2625    0.0000 C   0  0  0  0  0  0           0  0  0
    5.8542   -4.6875    0.0000 O   0  0  0  0  0  0           0  0  0
    2.2792   -2.6250    0.0000 O   0  0  0  0  0  0           0  0  0
    2.7000   -9.6625    0.0000 C   0  0  0  0  0  0           0  0  0
    6.2667    2.3583    0.0000 C   0  0  0  0  0  0           0  0  0
    5.4417    2.3583    0.0000 C   0  0  0  0  0  0           0  0  0
    1.8750   -9.6625    0.0000 C   0  0  0  0  0  0           0  0  0
    0.1375   -4.6875    0.0000 O   0  0  0  0  0  0           0  0  0
    8.0000   -2.6250    0.0000 O   0  0  0  0  0  0           0  0  0
    8.7125   -3.8625    0.0000 N   0  0  0  0  0  0           0  0  0
   -0.5750   -3.4500    0.0000 N   0  0  0  0  0  0           0  0  0
    1.5667   -7.1542    0.0000 C   0  0  0  0  0  0           0  0  0
    2.9917   -7.1542    0.0000 C   0  0  0  0  0  0           0  0  0
    6.5667   -0.1500    0.0000 C   0  0  0  0  0  0           0  0  0
    5.1417   -0.1542    0.0000 C   0  0  0  0  0  0           0  0  0
    4.4250   -4.6875    0.0000 O   0  0  0  0  0  0           0  0  0
    3.7125   -2.6250    0.0000 O   0  0  0  0  0  0           0  0  0
    2.2792   -5.1000    0.0000 C   0  0  0  0  0  0           0  0  0
    5.8542   -2.2125    0.0000 C   0  0  0  0  0  0           0  0  0
    7.2792   -4.6875    0.0000 C   0  0  3  0  0  0           0  0  0
    0.8542   -2.6250    0.0000 C   0  0  3  0  0  0           0  0  0
    2.2792   -5.9250    0.0000 C   0  0  0  0  0  0           0  0  0
    5.8542   -1.3875    0.0000 C   0  0  0  0  0  0           0  0  0
    6.5667   -0.9750    0.0000 C   0  0  0  0  0  0           0  0  0
    1.5667   -6.3292    0.0000 C   0  0  0  0  0  0           0  0  0
    2.9917   -6.3292    0.0000 C   0  0  0  0  0  0           0  0  0
    5.1417   -0.9750    0.0000 C   0  0  0  0  0  0           0  0  0
   -1.2875   -3.8625    0.0000 C   0  0  0  0  0  0           0  0  0
    9.4292   -3.4500    0.0000 C   0  0  0  0  0  0           0  0  0
    0.1375   -2.2125    0.0000 C   0  0  0  0  0  0           0  0  0
    1.5667   -2.2125    0.0000 C   0  0  0  0  0  0           0  0  0
    6.5667   -5.1000    0.0000 C   0  0  0  0  0  0           0  0  0
    8.0000   -5.1000    0.0000 C   0  0  0  0  0  0           0  0  0
  2  6  1  0     0  0
  3  1  1  0     0  0
  4  2  1  0     0  0
  5  1  1  0     0  0
  6  5  1  0     0  0
  7  3  1  0     0  0
  8  4  1  0     0  0
  9 22  1  0     0  0
 10 21  1  0     0  0
 11  9  2  0     0  0
 12 10  2  0     0  0
 13  7  1  0     0  0
 14  8  1  0     0  0
 15 13  1  0     0  0
 16 14  1  0     0  0
  2 17  1  1     0  0
  1 18  1  1     0  0
 19 10  1  0     0  0
 20  9  1  0     0  0
 21 34  1  0     0  0
 22 36  1  0     0  0
 23  4  2  0     0  0
 24  3  2  0     0  0
 25 12  1  0     0  0
 26 11  1  0     0  0
 27 20  1  0     0  0
 28 19  1  0     0  0
 29 15  2  0     0  0
 30 16  2  0     0  0
 31 16  1  0     0  0
 32 15  1  0     0  0
 33 46  1  0     0  0
 34 47  2  0     0  0
 35 45  1  0     0  0
 36 48  2  0     0  0
  6 37  1  6     0  0
  5 38  1  6     0  0
 39 18  1  0     0  0
 40 17  1  0     0  0
 14 41  1  6     0  0
 13 42  1  6     0  0
 43 39  1  0     0  0
 44 40  1  0     0  0
 45 44  2  0     0  0
 46 43  2  0     0  0
 47 43  1  0     0  0
 48 44  1  0     0  0
 49 32  1  0     0  0
 50 31  1  0     0  0
 51 42  1  0     0  0
 52 42  1  0     0  0
 53 41  1  0     0  0
 54 41  1  0     0  0
 33 21  2  0     0  0
 35 22  2  0     0  0
 28 25  2  0     0  0
 26 27  2  0     0  0
M  END