
  SciTegic01161211252D

 30 33  0  0  0  0            999 V2000
   11.7791   -0.2959    0.0000 C   0  0
   12.6041   -0.2964    0.0000 C   0  0
   12.8609    0.4883    0.0000 C   0  0
   12.1916    0.9750    0.0000 N   0  0
   11.5266    0.4883    0.0000 C   0  0
   13.6459    0.7421    0.0000 O   0  0
   10.7419    0.7429    0.0000 O   0  0
   11.2933   -0.9627    0.0000 C   0  0
   10.8766   -2.2319    0.0000 N   0  0
   11.5445   -1.7478    0.0000 C   0  0
   10.2097   -1.7461    0.0000 C   0  0
   10.4668   -0.9634    0.0000 C   0  0
    9.9180   -0.3514    0.0000 C   0  0
    9.1120   -0.5209    0.0000 C   0  0
    8.8577   -1.3079    0.0000 C   0  0
    9.4082   -1.9165    0.0000 C   0  0
   10.8756   -3.0569    0.0000 C   0  0
   12.9984   -1.0181    0.0000 C   0  0
   12.5673   -1.7228    0.0000 C   0  0
   12.9620   -2.4464    0.0000 C   0  0
   13.7877   -2.4664    0.0000 C   0  0
   14.2170   -1.7569    0.0000 C   0  0
   13.8198   -1.0363    0.0000 C   0  0
   15.0418   -1.7736    0.0000 N   0  0
   15.4687   -1.0676    0.0000 C   0  0
   16.2935   -1.0843    0.0000 C   0  0
   16.7203   -0.3783    0.0000 O   0  0
   16.6915   -1.8070    0.0000 C   0  0
   17.5163   -1.8237    0.0000 O   0  0
    8.5601    0.0923    0.0000 F   0  0
  5  7  2  0
 14 15  1  0
  2  3  1  0
 15 16  2  0
 16 11  1  0
  1  8  1  0
  9 17  1  0
  8 12  1  0
  3  4  1  0
 18 19  2  0
  4  5  1  0
 19 20  1  0
 11  9  1  0
 20 21  2  0
  9 10  1  0
 21 22  1  0
 10  8  2  0
 22 23  2  0
 23 18  1  0
  2 18  1  0
  5  1  1  0
 22 24  1  0
  1  2  2  0
 24 25  1  0
 11 12  2  0
 25 26  1  0
  3  6  2  0
 26 27  1  0
 12 13  1  0
 26 28  1  0
 28 29  1  0
 13 14  2  0
 14 30  1  0
M  END