
  SciTegic04191616232D

105114  0  0  0  0            999 V2000
   11.9890  -32.1454    0.0000 C   0  0
   13.2814  -31.3840    0.0000 C   0  0
   13.2323  -29.9052    0.0000 C   0  0  2  0  0  0
   11.9626  -29.1455    0.0000 C   0  0
   10.6702  -29.9068    0.0000 C   0  0
   10.6834  -31.4068    0.0000 C   0  0  1  0  0  0
    9.3918  -32.1712    0.0000 O   0  0
    9.4071  -33.6720    0.0000 C   0  0
    8.1174  -34.4379    0.0000 C   0  0
    8.1357  -35.9378    0.0000 C   0  0
    9.4438  -36.6719    0.0000 C   0  0
   10.7336  -35.9060    0.0000 C   0  0
   10.7153  -34.4061    0.0000 C   0  0
    7.1039  -36.5505    0.0000 Cl  0  0
    7.0709  -33.8507    0.0000 F   0  0
   14.5388  -30.6446    0.0000 C   0  0
   15.8325  -29.8838    0.0000 C   0  0
   17.1391  -30.6207    0.0000 N   0  0
   18.4305  -29.8577    0.0000 C   0  0
   18.4155  -28.3578    0.0000 C   0  0
   17.1090  -27.6209    0.0000 C   0  0
   15.8176  -28.3838    0.0000 C   0  0
   19.7393  -30.5924    0.0000 N   0  0
   21.0303  -29.8272    0.0000 C   0  0
   22.3900  -30.4299    0.0000 S   0  0
   23.3786  -29.3017    0.0000 C   0  0
   22.6111  -28.0129    0.0000 C   0  0
   21.1482  -28.3446    0.0000 N   0  0
   13.2189  -28.4044    0.0000 C   0  0
   11.9129  -27.6648    0.0000 N   0  0
   14.2529  -27.7955    0.0000 O   0  0
   11.8995  -26.1641    0.0000 C   0  0
   10.5936  -25.4245    0.0000 C   0  0
   10.5802  -23.9237    0.0000 C   0  0
    9.2742  -23.1841    0.0000 C   0  0
    9.2608  -21.6834    0.0000 N   0  0
    8.2402  -23.7931    0.0000 O   0  0
    7.9549  -20.9438    0.0000 C   0  0  2  0  0  0
    7.9415  -19.4430    0.0000 C   0  0
    6.6355  -18.7034    0.0000 N   0  0
    8.9755  -18.8341    0.0000 O   0  0
    6.6601  -21.7027    0.0000 C   0  0
    5.3550  -20.9617    0.0000 C   0  0
    4.0597  -21.7183    0.0000 C   0  0
    2.7568  -20.9750    0.0000 C   0  0
    2.7491  -19.4750    0.0000 C   0  0
    4.0442  -18.7183    0.0000 C   0  0
    5.3471  -19.4616    0.0000 C   0  0
    6.6221  -17.2026    0.0000 C   0  0  2  0  0  0
    5.3162  -16.4630    0.0000 C   0  0
    5.3028  -14.9623    0.0000 N   0  0
    4.2822  -17.0720    0.0000 O   0  0
    7.9138  -16.4384    0.0000 C   0  0
    3.9968  -14.2227    0.0000 C   0  0  2  0  0  0
    2.7020  -14.9816    0.0000 C   0  0
    2.7103  -16.1816    0.0000 N   0  0
    1.6585  -14.3891    0.0000 O   0  0
    7.8987  -14.9376    0.0000 C   0  0
    9.1886  -14.1719    0.0000 C   0  0
    9.1705  -12.6720    0.0000 C   0  0
    7.8625  -11.9378    0.0000 C   0  0
    6.5726  -12.7034    0.0000 C   0  0
    6.5907  -14.2033    0.0000 C   0  0
    3.9834  -12.7219    0.0000 C   0  0
    2.6775  -11.9823    0.0000 C   0  0
    2.6641  -10.4816    0.0000 C   0  0
    1.3581   -9.7420    0.0000 C   0  0
    1.3447   -8.2412    0.0000 N   0  0
    0.0388   -7.5016    0.0000 C   0  0
    0.0254   -6.0008    0.0000 C   0  0
   -0.9952   -8.1105    0.0000 O   0  0
   -1.2788   -5.2598    0.0000 C   0  0
   -1.2891   -3.7598    0.0000 C   0  0
    0.0046   -3.0009    0.0000 C   0  0
    1.3089   -3.7420    0.0000 C   0  0
    1.3192   -5.2419    0.0000 C   0  0
   -2.5955   -3.0210    0.0000 C   0  0
   -2.6041   -2.0211    0.0000 O   0  0
   -3.6297   -3.6296    0.0000 O   0  0
    0.0000   -1.5002    0.0000 C   0  0
    0.0000    1.5002    0.0000 O   0  0
   -1.2989   -0.7501    0.0000 C   0  0
   -1.2989    0.7501    0.0000 C   0  0
   -2.5978    1.5002    0.0000 C   0  0
   -3.8968    0.7501    0.0000 C   0  0
   -3.8968   -0.7501    0.0000 C   0  0
   -2.5978   -1.5002    0.0000 C   0  0
    1.2806    0.7501    0.0000 C   0  0
    1.2806   -0.7501    0.0000 C   0  0
    2.5978   -1.5002    0.0000 C   0  0
    3.8968   -0.7501    0.0000 C   0  0
    3.8968    0.7501    0.0000 C   0  0
    2.5978    1.5002    0.0000 C   0  0
    5.1950    1.5032    0.0000 N   0  3
    6.2358    0.9060    0.0000 C   0  0
    5.1921    2.7032    0.0000 C   0  0
   -5.1981    1.4978    0.0000 N   0  0
   -6.2364    0.8963    0.0000 C   0  0
   -5.2002    2.6978    0.0000 C   0  0
    1.4470  -18.7286    0.0000 N   0  0
    1.4414  -17.2278    0.0000 N   0  3
    1.4369  -16.0278    0.0000 N   0  5
    7.8413  -10.4371    0.0000 N   0  0
    6.5315   -9.7043    0.0000 N   0  3
    5.4843   -9.1184    0.0000 N   0  5
  1  2  1  0
  1  6  1  0
  2  3  1  0
  3  4  1  0
  4  5  1  0
  5  6  1  0
  6  7  1  6
  7  8  1  0
  8  9  2  0
  9 10  1  0
 10 11  2  0
 11 12  1  0
 12 13  2  0
 13  8  1  0
 10 14  1  0
  9 15  1  0
  3 16  1  0
 16 17  1  0
 17 18  2  0
 18 19  1  0
 19 20  2  0
 20 21  1  0
 21 22  2  0
 22 17  1  0
 19 23  1  0
 23 24  1  0
 24 25  1  0
 25 26  1  0
 26 27  2  0
 27 28  1  0
 28 24  2  0
  3 29  1  1
 29 30  1  0
 29 31  2  0
 30 32  1  0
 32 33  1  0
 33 34  1  0
 34 35  1  0
 35 36  1  0
 35 37  2  0
 36 38  1  0
 38 39  1  0
 39 40  1  0
 39 41  2  0
 38 42  1  1
 42 43  1  0
 43 44  2  0
 44 45  1  0
 45 46  2  0
 46 47  1  0
 47 48  2  0
 48 43  1  0
 40 49  1  0
 49 50  1  0
 50 51  1  0
 50 52  2  0
 49 53  1  6
 51 54  1  0
 54 55  1  0
 55 56  1  0
 55 57  2  0
 53 58  1  0
 58 59  2  0
 59 60  1  0
 60 61  2  0
 61 62  1  0
 62 63  2  0
 63 58  1  0
 54 64  1  6
 64 65  1  0
 65 66  1  0
 66 67  1  0
 67 68  1  0
 68 69  1  0
 69 70  1  0
 69 71  2  0
 70 72  2  0
 72 73  1  0
 73 74  2  0
 74 75  1  0
 75 76  2  0
 76 70  1  0
 77 78  1  0
 77 79  2  0
 73 77  1  0
 74 80  1  0
 80 89  2  0
 80 82  1  0
 88 81  1  0
 81 83  1  0
 82 83  2  0
 83 84  1  0
 84 85  2  0
 85 86  1  0
 86 87  2  0
 87 82  1  0
 88 89  1  0
 88 93  2  0
 89 90  1  0
 90 91  2  0
 91 92  1  0
 92 93  1  0
 92 94  2  0
 94 95  1  0
 94 96  1  0
 85 97  1  0
 97 98  1  0
 97 99  1  0
 46100  1  0
100101  2  0
101102  2  0
 61103  1  0
103104  2  0
104105  2  0
M  CHG  5  94   1 101   1 102  -1 104   1 105  -1
M  END