
          11280714442D 1   1.00000     0.00000     0

 22 22  0     0  0            999 V2000
    3.1875   -5.3250    0.0000 N   0  3  0  0  0  0           0  0  0
    5.2667   -3.9917    0.0000 C   0  0  0  0  0  0           0  0  0
    4.5375   -3.6042    0.0000 C   0  0  0  0  0  0           0  0  0
    5.9667   -3.5417    0.0000 C   0  0  0  0  0  0           0  0  0
    3.8792   -4.8792    0.0000 C   0  0  0  0  0  0           0  0  0
    3.8417   -4.0542    0.0000 C   0  0  0  0  0  0           0  0  0
    5.3125   -4.8125    0.0000 C   0  0  0  0  0  0           0  0  0
    2.4542   -4.9417    0.0000 O   0  5  0  0  0  0           0  0  0
    3.2250   -6.1417    0.0000 O   0  0  0  0  0  0           0  0  0
    6.7000   -3.9250    0.0000 O   0  0  0  0  0  0           0  0  0
    4.6167   -5.2542    0.0000 C   0  0  0  0  0  0           0  0  0
    5.9292   -2.7250    0.0000 O   0  0  0  0  0  0           0  0  0
    9.5542   -3.7917    0.0000 N   0  0  0  0  0  0           0  0  0
   10.2500   -3.3542    0.0000 C   0  0  3  0  0  0           0  0  0
    4.5000   -2.7792    0.0000 Cl  0  0  0  0  0  0           0  0  0
    8.1250   -3.8625    0.0000 C   0  0  3  0  0  0           0  0  0
    7.3917   -3.4792    0.0000 C   0  0  0  0  0  0           0  0  0
    8.8167   -3.4167    0.0000 C   0  0  0  0  0  0           0  0  0
    8.1625   -4.6875    0.0000 O   0  0  0  0  0  0           0  0  0
   10.2042   -2.5292    0.0000 C   0  0  0  0  0  0           0  0  0
   10.8042   -2.7417    0.0000 C   0  0  0  0  0  0           0  0  0
   10.9792   -3.7292    0.0000 C   0  0  0  0  0  0           0  0  0
  2  7  1  0     0  0
  3  6  1  0     0  0
  4  2  1  0     0  0
  5  1  1  0     0  0
  6  5  2  0     0  0
  7 11  2  0     0  0
  8  1  1  0     0  0
  9  1  2  0     0  0
 10  4  1  0     0  0
 11  5  1  0     0  0
 12  4  2  0     0  0
 13 18  1  0     0  0
 14 13  1  0     0  0
 15  3  1  0     0  0
 16 17  1  0     0  0
 17 10  1  0     0  0
 18 16  1  0     0  0
 19 16  1  0     0  0
 20 14  1  0     0  0
 21 14  1  0     0  0
 22 14  1  0     0  0
  3  2  2  0     0  0
M  CHG  2   1   1   8  -1
M  END