
  SciTegic10191216022D

 29 32  0  0  0  0            999 V2000
   -2.9822   -0.1099    0.0000 C   0  0
   -2.9835   -0.9366    0.0000 C   0  0
   -2.2712   -1.3491    0.0000 C   0  0
   -2.2732    0.3025    0.0000 C   0  0
   -1.5559   -0.1058    0.0000 C   0  0
   -1.5521   -0.9386    0.0000 C   0  0
   -0.8330   -1.3495    0.0000 C   0  0
   -0.1131   -0.9323    0.0000 N   0  0
   -0.1168   -0.0994    0.0000 C   0  0
   -0.8405    0.3160    0.0000 C   0  0
   -0.8437    1.1375    0.0000 C   0  0
   -0.1308    1.5532    0.0000 C   0  0
   -0.1353    2.3766    0.0000 C   0  0
   -0.8519    2.7853    0.0000 C   0  0
   -1.5655    2.3646    0.0000 C   0  0
   -1.5576    1.5426    0.0000 C   0  0
   -0.8578    3.6094    0.0000 O   0  0
   -0.1470    4.0265    0.0000 C   0  0
    0.6018   -1.3421    0.0000 C   0  0
   -3.6978   -1.3476    0.0000 O   0  0
   -4.4109   -0.9346    0.0000 C   0  0
   -4.4097   -0.1104    0.0000 C   0  0
   -5.1229    0.3027    0.0000 C   0  0
   -5.1216    1.1269    0.0000 N   0  0
   -4.4065    1.5394    0.0000 C   0  0
   -4.4033    2.3599    0.0000 C   0  0
   -5.1146    2.7769    0.0000 C   0  0
   -5.8307    2.3670    0.0000 C   0  0
   -5.8357    1.5404    0.0000 C   0  0
  1  2  2  0
 14 15  1  0
  5  4  2  0
 15 16  2  0
 16 11  1  0
 10 11  1  0
  4  1  1  0
 14 17  1  0
  5 10  1  0
 17 18  1  0
  6  7  1  0
  8 19  1  0
  7  8  1  0
  2 20  1  0
  8  9  1  0
 20 21  1  0
  9 10  1  0
 21 22  1  0
  5  6  1  0
 22 23  1  0
 23 24  1  0
 24 25  1  0
 11 12  2  0
  2  3  1  0
 12 13  1  0
  3  6  2  0
 13 14  2  0
 24 29  1  0
 25 26  1  0
 26 27  1  0
 27 28  1  0
 28 29  1  0
M  END