
          05080814042D 1   1.00000     0.00000     0

 38 43  0     1  0            999 V2000
   -3.9781    2.9976    0.0000 C   0  0  0  0  0  0           0  0  0
   -4.6890    2.5826    0.0000 C   0  0  0  0  0  0           0  0  0
   -4.6820    1.7561    0.0000 C   0  0  0  0  0  0           0  0  0
   -3.9680    1.3526    0.0000 C   0  0  0  0  0  0           0  0  0
   -3.2647    2.5903    0.0000 C   0  0  0  0  0  0           0  0  0
   -3.2586    1.7624    0.0000 C   0  0  0  0  0  0           0  0  0
   -2.5427    1.3561    0.0000 C   0  0  0  0  0  0           0  0  0
   -2.5548    3.0117    0.0000 C   0  0  0  0  0  0           0  0  0
   -1.8341    2.6008    0.0000 C   0  0  2  0  0  0           0  0  0
   -1.8296    1.7710    0.0000 C   0  0  2  0  0  0           0  0  0
   -1.1127    1.3623    0.0000 N   0  0  3  0  0  0           0  0  0
   -0.3958    1.7788    0.0000 C   0  0  0  0  0  0           0  0  0
   -0.4004    2.6086    0.0000 C   0  0  1  0  0  0           0  0  0
   -1.1218    3.0219    0.0000 C   0  0  0  0  0  0           0  0  0
   -1.8420    3.4298    0.0000 H   0  0  0  0  0  0           0  0  0
   -1.8378    0.9460    0.0000 H   0  0  0  0  0  0           0  0  0
    0.3125    3.0244    0.0000 C   0  0  0  0  0  0           0  0  0
    1.0289    2.6150    0.0000 N   0  0  3  0  0  0           0  0  0
    0.3088    3.8495    0.0000 O   0  0  0  0  0  0           0  0  0
    1.0266    1.7866    0.0000 C   0  0  0  0  0  0           0  0  0
    1.7389    1.3774    0.0000 C   0  0  0  0  0  0           0  0  0
    2.4541    1.7896    0.0000 N   0  0  3  0  0  0           0  0  0
    2.4524    2.6158    0.0000 C   0  0  0  0  0  0           0  0  0
    1.7354    3.0296    0.0000 C   0  0  0  0  0  0           0  0  0
   -3.9821    3.8227    0.0000 O   0  0  0  0  0  0           0  0  0
   -4.6987    4.2364    0.0000 C   0  0  0  0  0  0           0  0  0
   -1.1094    0.5372    0.0000 C   0  0  0  0  0  0           0  0  0
    3.1690    1.3776    0.0000 C   0  0  0  0  0  0           0  0  0
    3.1651    0.5532    0.0000 C   0  0  0  0  0  0           0  0  0
    3.8791    0.1412    0.0000 C   0  0  0  0  0  0           0  0  0
    4.5944    0.5543    0.0000 N   0  0  0  0  0  0           0  0  0
    3.8765    1.7920    0.0000 C   0  0  0  0  0  0           0  0  0
    4.5891    1.3835    0.0000 C   0  0  0  0  0  0           0  0  0
    5.2970    1.7962    0.0000 C   0  0  0  0  0  0           0  0  0
    5.2936    2.6173    0.0000 C   0  0  0  0  0  0           0  0  0
    4.5764    3.0240    0.0000 C   0  0  0  0  0  0           0  0  0
    3.8714    2.6089    0.0000 C   0  0  0  0  0  0           0  0  0
    3.8792   -0.6839    0.0000 C   0  0  0  0  0  0           0  0  0
 17 18  1  0     0  0
  9  8  1  0     0  0
 17 19  2  0     0  0
 18 20  1  0     0  0
  9 10  1  0     0  0
  3  4  2  0     0  0
  4  6  1  0     0  0
  5  6  2  0     0  0
  1  2  2  0     0  0
 18 24  1  0     0  0
 20 21  1  0     0  0
 21 22  1  0     0  0
 22 23  1  0     0  0
 23 24  1  0     0  0
  5  1  1  0     0  0
  1 25  1  0     0  0
  2  3  1  0     0  0
 25 26  1  0     0  0
  9 14  1  0     0  0
 11 27  1  0     0  0
 10 11  1  0     0  0
 22 28  1  0     0  0
 11 12  1  0     0  0
 28 29  2  0     0  0
 12 13  1  0     0  0
 29 30  1  0     0  0
 13 14  1  0     0  0
 30 31  2  0     0  0
 31 33  1  0     0  0
 32 28  1  0     0  0
  9 15  1  6     0  0
 32 33  1  0     0  0
  5  8  1  0     0  0
 33 34  2  0     0  0
 10 16  1  1     0  0
 34 35  1  0     0  0
  6  7  1  0     0  0
 35 36  2  0     0  0
 13 17  1  1     0  0
 36 37  1  0     0  0
 37 32  2  0     0  0
  7 10  1  0     0  0
 30 38  1  0     0  0
M  END