
  SciTegic11201309402D

 80 84  0  0  1  0            999 V2000
    3.6172   -4.3221    0.0000 N   0  0
    4.3122   -4.7689    0.0000 C   0  0
    9.7529   -4.3982    0.0000 N   0  0
    5.0469   -4.3982    0.0000 C   0  0  1  0  0  0
    8.6012   -5.5532    0.0000 C   0  0
    5.5334   -5.0667    0.0000 N   0  0
    7.8135   -5.8080    0.0000 N   0  0
   12.2746    0.0662    0.0000 N   0  3
    9.7529   -1.9989    0.0000 N   0  0
   10.0110   -3.6139    0.0000 C   0  0
    6.1986   -5.5532    0.0000 C   0  0
    9.2664   -1.3337    0.0000 C   0  0
    2.6343   -5.4142    0.0000 C   0  0
    9.2664   -5.0667    0.0000 C   0  0  2  0  0  0
    6.9895   -5.8080    0.0000 C   0  0  2  0  0  0
    2.8494   -4.6200    0.0000 C   0  0  2  0  0  0
    7.8135   -0.5891    0.0000 N   0  0
   10.0110   -2.7832    0.0000 C   0  0  2  0  0  0
    2.2074   -7.0127    0.0000 C   0  0
    8.6012   -0.8472    0.0000 C   0  0  1  0  0  0
    3.2201   -6.0000    0.0000 N   0  0
    1.9890   -7.8069    0.0000 N   0  0
    6.8604   -6.6221    0.0000 C   0  0
    6.9895   -0.5891    0.0000 C   0  0
    1.1947   -8.0254    0.0000 C   0  0  1  0  0  0
    0.9829   -8.8196    0.0000 C   0  0
    6.0893   -6.9200    0.0000 C   0  0
   11.4506    0.0199    0.0000 C   0  0
    3.0017   -6.7942    0.0000 C   0  0  1  0  0  0
    4.7953   -2.7832    0.0000 S   0  0
   12.6618   -0.6685    0.0000 O   0  5
    5.0469   -1.9989    0.0000 S   0  0
   12.7181    0.7611    0.0000 O   0  0
    4.2691   -5.5929    0.0000 O   0  0
    8.9751   -6.2879    0.0000 O   0  0
    1.8367   -5.6293    0.0000 O   0  0
   10.8251   -3.7429    0.0000 O   0  0
    5.8279   -6.2879    0.0000 O   0  0
    9.8521   -0.7480    0.0000 O   0  0
    4.7953   -3.6139    0.0000 C   0  0
    8.9751   -0.1125    0.0000 C   0  0
   10.8251   -2.6542    0.0000 C   0  0
    1.6216   -6.4269    0.0000 O   0  0
    0.6090   -7.4396    0.0000 C   0  0
    6.1986   -0.8472    0.0000 C   0  0
    0.1820   -9.0347    0.0000 O   0  0
    6.8604    0.2250    0.0000 O   0  0
    5.9603   -7.7341    0.0000 O   0  0
   11.0005    0.7115    0.0000 C   0  0
   11.0733   -0.7182    0.0000 C   0  0
    1.5621   -9.4054    0.0000 N   0  0
    9.8521   -5.6492    0.0000 C   0  0
    3.5775   -3.4981    0.0000 C   0  0
    5.4440   -6.3971    0.0000 N   0  0
    9.7992   -0.0695    0.0000 C   0  0
   -0.1853   -7.6547    0.0000 C   0  0
   -1.7772   -8.0816    0.0000 C   0  0
   11.3414   -3.2995    0.0000 C   0  0
   10.2493   -0.7579    0.0000 C   0  0
   10.1764    0.6718    0.0000 C   0  0
    5.5334   -1.3337    0.0000 C   0  0
   -0.3938   -8.4523    0.0000 C   0  0
   -0.7711   -7.0722    0.0000 C   0  0
    4.3320  -10.1401    0.0000 N   0  0
   -1.5653   -7.2807    0.0000 C   0  0
   -1.1881   -8.6674    0.0000 C   0  0
    2.3265   -3.9746    0.0000 C   0  0
   -2.5780   -8.2934    0.0000 O   0  0
    2.7799   -3.2797    0.0000 C   0  0
    3.5874   -7.3800    0.0000 C   0  0
    3.7463   -9.5642    0.0000 C   0  0
   10.6464   -5.4341    0.0000 C   0  0
    9.6403   -6.4468    0.0000 C   0  0
   12.1621   -3.1704    0.0000 C   0  0
   11.0501   -4.0706    0.0000 C   0  0
    3.3756   -8.1809    0.0000 C   0  0
    3.9614   -8.7600    0.0000 C   0  0
   11.5697   -4.7093    0.0000 C   0  0
   12.6817   -3.8124    0.0000 C   0  0
   12.3838   -4.5803    0.0000 C   0  0
  2  1  1  0
  3 14  1  0
  4  2  1  6
  5  7  1  0
  4  6  1  0
  7 15  1  0
  8 28  1  0
  9 12  1  0
 10  3  1  0
 11  6  1  0
 12 20  1  0
 16 13  1  6
 14  5  1  0
 15 11  1  0
 16  1  1  0
 17 24  1  0
 18 10  1  0
 29 19  1  0
 20 17  1  0
 21 13  1  0
 22 19  1  0
 15 23  1  1
 24 45  1  0
 25 22  1  1
 26 25  1  0
 27 23  1  0
 28 49  1  0
 29 21  1  1
 30 40  1  0
 31  8  1  0
 32 30  1  0
 33  8  2  0
 34  2  2  0
 35  5  2  0
 36 13  2  0
 37 10  2  0
 38 11  2  0
 39 12  2  0
 40  4  1  0
 20 41  1  1
 18 42  1  1
 43 19  2  0
 25 44  1  0
 45 61  1  0
 46 26  2  0
 47 24  2  0
 48 27  2  0
 49 60  2  0
 50 59  1  0
 51 26  1  0
 14 52  1  1
 53  1  1  0
 54 27  1  0
 55 41  1  0
 56 44  1  0
 57 65  2  0
 58 42  1  0
 59 55  2  0
 60 55  1  0
 61 32  1  0
 62 56  1  0
 63 56  2  0
 64 71  1  0
 65 63  1  0
 66 62  2  0
 67 16  1  0
 68 57  1  0
 69 53  1  0
 70 29  1  0
 71 77  1  0
 72 52  1  0
 73 52  1  0
 74 58  1  0
 75 58  2  0
 76 70  1  0
 77 76  1  0
 78 75  1  0
 79 74  2  0
 80 78  2  0
 69 67  1  0
 66 57  1  0
  9 18  1  0
 28 50  2  0
 79 80  1  0
M  CHG  2   8   1  31  -1
M  END