
  SciTegic01161211252D

 26 29  0  0  0  0            999 V2000
   10.8423  -12.7498    0.0000 N   0  0
   11.6433  -12.5708    0.0000 C   0  0
   12.2892  -13.0871    0.0000 C   0  0
   10.4815  -13.4941    0.0000 C   0  0
   12.2909  -13.9107    0.0000 N   0  0
   10.8393  -14.2390    0.0000 C   0  0
   11.6449  -14.4215    0.0000 C   0  0
   13.0048  -14.3241    0.0000 C   0  0
   13.0028  -15.1491    0.0000 O   0  0
   13.7201  -13.9140    0.0000 C   0  0  2  0  0  0
   14.3905  -14.3891    0.0000 N   0  0
   15.0508  -13.8944    0.0000 C   0  0
   14.7843  -13.1136    0.0000 C   0  0  2  0  0  0
   13.9594  -13.1258    0.0000 C   0  0
   15.2595  -12.4390    0.0000 O   0  0
   14.8541  -11.7204    0.0000 C   0  0
   15.2754  -11.0132    0.0000 C   0  0
   14.8708  -10.2951    0.0000 C   0  0
   14.0450  -10.2864    0.0000 C   0  0
   13.6254  -11.0017    0.0000 C   0  0
   14.0325  -11.7169    0.0000 C   0  0
   10.2615  -12.1639    0.0000 C   0  0
   10.2657  -11.3378    0.0000 C   0  0
    9.4407  -11.3342    0.0000 C   0  0
    9.4371  -12.1592    0.0000 C   0  0
   13.6387   -9.5684    0.0000 F   0  0
 11 12  1  0
 12 13  1  0
 13 14  1  0
 14 10  1  0
  6  7  1  0
 13 15  1  6
  1  4  1  0
 15 16  1  0
  5  8  1  0
 16 17  2  0
 17 18  1  0
  8  9  2  0
 18 19  2  0
  3  5  1  0
 19 20  1  0
 10  8  1  1
 20 21  2  0
 21 16  1  0
 10 11  1  0
  1 22  1  0
 22 23  1  0
  2  3  1  0
  4  6  1  0
  1  2  1  0
 23 24  1  0
 24 25  1  0
 25 22  1  0
  5  7  1  0
 19 26  1  0
M  END