
  SciTegic09081514182D

 27 29  0  0  0  0            999 V2000
   -2.3155    0.7475    0.0000 C   0  0
   -1.0028    1.5132    0.0000 N   0  0
   -1.0028   -1.5132    0.0000 C   0  0
   -2.3155   -0.7475    0.0000 C   0  0
    0.2917   -0.7475    0.0000 C   0  0
    0.2917    0.7475    0.0000 C   0  0
    1.7138    1.2033    0.0000 N   0  0
    2.5889    0.0182    0.0000 C   0  0
    1.7138   -1.2033    0.0000 C   0  0
    2.1855   -2.6254    0.0000 C   0  0
    3.6552   -2.9294    0.0000 C   0  0
    1.3877   -3.5218    0.0000 O   0  0
    4.1295   -4.3524    0.0000 C   0  0
    5.5991   -4.6533    0.0000 C   0  0
    6.5944   -3.5310    0.0000 C   0  0
    6.1201   -2.1080    0.0000 C   0  0
    4.6506   -1.8071    0.0000 C   0  0
    4.2712   -0.6687    0.0000 F   0  0
    3.3333   -5.2502    0.0000 F   0  0
    8.0653   -3.8290    0.0000 N   0  0
    9.0596   -2.7047    0.0000 S   0  0
    8.6782   -1.5670    0.0000 O   0  0
    7.8836   -2.4659    0.0000 O   0  0
   10.5305   -3.0027    0.0000 C   0  0
   11.5247   -1.8785    0.0000 C   0  0
   12.7008   -2.1167    0.0000 C   0  0
   -3.3560   -1.3452    0.0000 Cl  0  0
  1  2  2  0
  2  6  1  0
  5  3  1  0
  3  4  2  0
  4  1  1  0
  5  6  2  0
  6  7  1  0
  7  8  1  0
  8  9  2  0
  9  5  1  0
  9 10  1  0
 10 11  1  0
 10 12  2  0
 11 13  2  0
 13 14  1  0
 14 15  2  0
 15 16  1  0
 16 17  2  0
 17 11  1  0
 17 18  1  0
 13 19  1  0
 15 20  1  0
 20 21  1  0
 21 22  2  0
 21 23  2  0
 21 24  1  0
 24 25  1  0
 25 26  1  0
  4 27  1  0
M  END