
          11280714442D 1   1.00000     0.00000     0

 19 19  0     0  0            999 V2000
    6.2917   -1.9792    0.0000 C   0  0  0  0  0  0           0  0  0
    2.7917   -4.1667    0.0000 N   0  0  0  0  0  0           0  0  0
    3.5125   -3.7625    0.0000 C   0  0  0  0  0  0           0  0  0
    5.5917   -2.4292    0.0000 C   0  0  0  0  0  0           0  0  0
    7.0167   -2.3625    0.0000 O   0  0  0  0  0  0           0  0  0
    6.2542   -1.1625    0.0000 O   0  0  0  0  0  0           0  0  0
    9.8792   -2.2292    0.0000 N   0  0  0  0  0  0           0  0  0
    5.6375   -3.2500    0.0000 C   0  0  0  0  0  0           0  0  0
    4.8625   -2.0417    0.0000 C   0  0  0  0  0  0           0  0  0
    4.2042   -3.3167    0.0000 C   0  0  0  0  0  0           0  0  0
    8.4500   -2.3000    0.0000 C   0  0  3  0  0  0           0  0  0
    7.7167   -1.9167    0.0000 C   0  0  0  0  0  0           0  0  0
    9.1417   -1.8542    0.0000 C   0  0  0  0  0  0           0  0  0
    4.9417   -3.6917    0.0000 C   0  0  0  0  0  0           0  0  0
    4.1667   -2.4917    0.0000 C   0  0  0  0  0  0           0  0  0
    8.4875   -3.1250    0.0000 O   0  0  0  0  0  0           0  0  0
   10.5750   -1.7917    0.0000 C   0  0  3  0  0  0           0  0  0
   11.3042   -2.1667    0.0000 C   0  0  0  0  0  0           0  0  0
   10.5375   -0.9667    0.0000 C   0  0  0  0  0  0           0  0  0
  2  3  3  0     0  0
  3 10  1  0     0  0
  4  1  1  0     0  0
  5  1  1  0     0  0
  6  1  2  0     0  0
  7 13  1  0     0  0
  8  4  1  0     0  0
  9  4  2  0     0  0
 10 15  2  0     0  0
 11 12  1  0     0  0
 12  5  1  0     0  0
 13 11  1  0     0  0
 14  8  2  0     0  0
 15  9  1  0     0  0
 16 11  1  0     0  0
 17  7  1  0     0  0
 18 17  1  0     0  0
 19 17  1  0     0  0
 14 10  1  0     0  0
M  END