
          02060813472D 1   1.00000     0.00000     0

 33 35  0     1  0            999 V2000
   -1.7375  -23.2042    0.0000 C   0  0  0  0  0  0           0  0  0
   -1.7375  -24.0292    0.0000 O   0  0  0  0  0  0           0  0  0
   -1.0255  -24.4375    0.0000 C   0  0  0  0  0  0           0  0  0
   -0.3135  -24.0292    0.0000 C   0  0  0  0  0  0           0  0  0
   -0.3135  -23.2042    0.0000 N   0  0  3  0  0  0           0  0  0
   -1.0255  -22.7875    0.0000 C   0  0  0  0  0  0           0  0  0
    0.4022  -22.7938    0.0000 C   0  0  0  0  0  0           0  0  0
    1.1155  -23.2084    0.0000 C   0  0  0  0  0  0           0  0  0
    0.4046  -21.9688    0.0000 O   0  0  0  0  0  0           0  0  0
    1.8311  -22.7979    0.0000 C   0  0  2  0  0  0           0  0  0
    2.5451  -23.2177    0.0000 C   0  0  0  0  0  0           0  0  0
    3.2586  -22.8108    0.0000 N   0  0  0  0  0  0           0  0  0
    1.8356  -21.9730    0.0000 C   0  0  0  0  0  0           0  0  0
    2.5522  -21.5687    0.0000 C   0  0  3  0  0  0           0  0  0
    3.2656  -21.9893    0.0000 C   0  0  0  0  0  0           0  0  0
    3.9825  -21.5840    0.0000 C   0  0  0  0  0  0           0  0  0
    3.9923  -20.7565    0.0000 C   0  0  0  0  0  0           0  0  0
    3.2789  -20.3359    0.0000 C   0  0  0  0  0  0           0  0  0
    2.5557  -20.7429    0.0000 C   0  0  0  0  0  0           0  0  0
    2.5396  -24.0427    0.0000 O   0  0  0  0  0  0           0  0  0
    3.9709  -23.2271    0.0000 C   0  0  2  0  0  0           0  0  0
    4.6875  -22.8185    0.0000 C   0  0  0  0  0  0           0  0  0
    3.9665  -24.0521    0.0000 C   0  0  0  0  0  0           0  0  0
    5.4032  -22.4081    0.0000 N   0  0  0  0  0  0           0  0  0
    4.6787  -24.4684    0.0000 O   0  0  0  0  0  0           0  0  0
    4.6744  -25.2934    0.0000 C   0  0  0  0  0  0           0  0  0
    5.3866  -25.7097    0.0000 C   0  0  0  0  0  0           0  0  0
    5.3803  -26.5344    0.0000 C   0  0  0  0  0  0           0  0  0
    6.0917  -26.9506    0.0000 C   0  0  0  0  0  0           0  0  0
    6.8094  -26.5419    0.0000 C   0  0  0  0  0  0           0  0  0
    6.8112  -25.7126    0.0000 C   0  0  0  0  0  0           0  0  0
    6.0991  -25.3001    0.0000 C   0  0  0  0  0  0           0  0  0
    7.5222  -26.9573    0.0000 Cl  0  0  0  0  0  0           0  0  0
  1  6  1  0     0  0
  7  9  2  0     0  0
 14 19  1  0     0  0
 15 16  1  0     0  0
 16 17  1  0     0  0
 17 18  1  0     0  0
 18 19  1  0     0  0
  2  3  1  0     0  0
 11 20  2  0     0  0
  8 10  1  0     0  0
 12 21  1  0     0  0
 10 11  1  0     0  0
 21 22  1  0     0  0
  3  4  1  0     0  0
 21 23  1  6     0  0
  4  5  1  0     0  0
 22 24  3  0     0  0
 11 12  1  0     0  0
 23 25  1  0     0  0
 14 13  1  0     0  0
 25 26  1  0     0  0
  5  6  1  0     0  0
 26 27  1  0     0  0
 10 13  1  1     0  0
 27 28  2  0     0  0
 14 15  1  0     0  0
 28 29  1  0     0  0
 29 30  2  0     0  0
  5  7  1  0     0  0
 30 31  1  0     0  0
  1  2  1  0     0  0
 31 32  2  0     0  0
 32 27  1  0     0  0
  7  8  1  0     0  0
 30 33  1  0     0  0
M  END