
  SciTegic01161211242D

 40 44  0  0  0  0            999 V2000
   10.6164  -17.6277    0.0000 C   0  0
   11.3328  -17.2144    0.0000 C   0  0
   11.3300  -16.3838    0.0000 C   0  0
   10.6146  -15.9747    0.0000 C   0  0
    9.9016  -17.2148    0.0000 C   0  0
    9.8982  -16.3859    0.0000 C   0  0
   12.0429  -15.9686    0.0000 C   0  0
   12.7589  -16.3784    0.0000 N   0  0
   12.0398  -15.1436    0.0000 O   0  0
   13.4718  -15.9633    0.0000 C   0  0
   14.1878  -16.3731    0.0000 C   0  0
   14.1878  -17.1969    0.0000 C   0  0
   14.9030  -17.6066    0.0000 C   0  0
   15.6169  -17.1914    0.0000 C   0  0
   15.6111  -16.3621    0.0000 C   0  0
   14.8954  -15.9562    0.0000 C   0  0
   16.3186  -15.9458    0.0000 C   0  0
   17.0363  -16.3548    0.0000 C   0  0
   17.7473  -15.9378    0.0000 C   0  0
   17.7417  -15.1119    0.0000 C   0  0
   17.0192  -14.7049    0.0000 C   0  0
   16.3112  -15.1242    0.0000 C   0  0
   18.4645  -16.3454    0.0000 C   0  0
   18.4752  -17.1664    0.0000 N   0  0
   17.7658  -17.5919    0.0000 C   0  0
   17.7808  -18.4131    0.0000 C   0  0  2  0  0  0
   18.5018  -18.8147    0.0000 N   0  0
   19.2095  -18.3888    0.0000 C   0  0
   19.1961  -17.5613    0.0000 C   0  0
    9.1834  -15.9740    0.0000 C   0  0
    9.1827  -15.1490    0.0000 N   0  0
   17.0733  -18.8376    0.0000 C   0  0
   16.3335  -17.6003    0.0000 F   0  0
    8.4433  -14.7936    0.0000 C   0  0
    8.2569  -13.9879    0.0000 C   0  0
    9.9273  -14.7899    0.0000 C   0  0
    8.7661  -13.3405    0.0000 N   0  0
   10.1087  -13.9837    0.0000 C   0  0
    9.5899  -13.3409    0.0000 C   0  0
    8.4058  -12.5983    0.0000 C   0  0
 19 20  2  0
  8 10  1  0
 20 21  1  0
  5  6  2  0
 21 22  2  0
 22 17  1  0
 15 17  1  0
 10 11  1  0
 19 23  1  0
  1  2  2  0
 23 24  1  0
 24 25  1  0
 11 12  2  0
  5  1  1  0
 12 13  1  0
  2  3  1  0
 13 14  2  0
 24 29  1  0
 25 26  1  0
 26 27  1  0
 27 28  1  0
 28 29  1  0
  3  7  1  0
  6 30  1  0
 14 15  1  0
 30 31  1  0
 26 32  1  1
 15 16  2  0
 14 33  1  0
 16 11  1  0
 31 34  1  0
  7  8  1  0
 34 35  1  0
  3  4  2  0
 31 36  1  0
 17 18  2  0
 35 37  1  0
  7  9  2  0
 36 38  1  0
 18 19  1  0
 37 39  1  0
 38 39  1  0
  4  6  1  0
 37 40  1  0
M  END