
          11280714572D 1   1.00000     0.00000     0

 40 45  0     1  0            999 V2000
   -0.8708   -2.9417    0.0000 C   0  0  0  0  0  0           0  0  0
   -1.3958   -2.0375    0.0000 C   0  0  0  0  0  0           0  0  0
   -1.3833   -2.6375    0.0000 C   0  0  0  0  0  0           0  0  0
   -1.3833   -3.8417    0.0000 N   0  0  0  0  0  0           0  0  0
   -0.8708   -3.5417    0.0000 C   0  0  0  0  0  0           0  0  0
   -0.8708   -1.7375    0.0000 N   0  0  0  0  0  0           0  0  0
   -1.9083   -3.5375    0.0000 C   0  0  0  0  0  0           0  0  0
   -1.9083   -2.9375    0.0000 C   0  0  0  0  0  0           0  0  0
    1.6417   -2.6375    0.0000 N   0  0  3  0  0  0           0  0  0
    0.1667   -2.6375    0.0000 N   0  0  3  0  0  0           0  0  0
   -0.3333   -2.6542    0.0000 C   0  0  0  0  0  0           0  0  0
    1.1542   -2.6375    0.0000 C   0  0  3  0  0  0           0  0  0
   -1.9083   -1.7375    0.0000 O   0  0  0  0  0  0           0  0  0
   -0.8833   -1.1375    0.0000 C   0  0  2  0  0  0           0  0  0
    0.9042   -2.2042    0.0000 C   0  0  0  0  0  0           0  0  0
    0.9042   -3.0625    0.0000 C   0  0  0  0  0  0           0  0  0
   -0.3583   -3.8417    0.0000 C   0  0  0  0  0  0           0  0  0
    0.4167   -3.0667    0.0000 C   0  0  0  0  0  0           0  0  0
    0.4042   -2.2042    0.0000 C   0  0  0  0  0  0           0  0  0
   -1.4083   -0.8250    0.0000 C   0  0  3  0  0  0           0  0  0
    1.8917   -2.2042    0.0000 C   0  0  0  0  0  0           0  0  0
    1.8917   -3.0625    0.0000 C   0  0  0  0  0  0           0  0  0
   -2.4208   -2.6375    0.0000 C   0  0  0  0  0  0           0  0  0
   -2.4333   -3.8375    0.0000 C   0  0  0  0  0  0           0  0  0
   -0.3583   -0.8292    0.0000 C   0  0  0  0  0  0           0  0  0
   -0.3583   -4.4417    0.0000 C   0  0  0  0  0  0           0  0  0
    0.1667   -3.5500    0.0000 C   0  0  0  0  0  0           0  0  0
   -1.9208   -1.1250    0.0000 C   0  0  0  0  0  0           0  0  0
   -1.4083   -0.2167    0.0000 C   0  0  0  0  0  0           0  0  0
    2.3792   -2.2125    0.0000 C   0  0  0  0  0  0           0  0  0
    2.3792   -3.0542    0.0000 C   0  0  0  0  0  0           0  0  0
   -2.9458   -2.9292    0.0000 C   0  0  0  0  0  0           0  0  0
   -2.9458   -3.5375    0.0000 C   0  0  0  0  0  0           0  0  0
    0.6792   -3.8500    0.0000 C   0  0  0  0  0  0           0  0  0
    0.1542   -4.7417    0.0000 C   0  0  0  0  0  0           0  0  0
   -1.9333    0.0708    0.0000 C   0  0  0  0  0  0           0  0  0
   -2.4458   -0.8375    0.0000 C   0  0  0  0  0  0           0  0  0
   -2.4458   -0.2375    0.0000 C   0  0  0  0  0  0           0  0  0
    2.6292   -2.6375    0.0000 C   0  0  0  0  0  0           0  0  0
    0.6792   -4.4417    0.0000 C   0  0  0  0  0  0           0  0  0
  2  3  1  0     0  0
  3  1  1  0     0  0
  4  5  1  0     0  0
  5  1  2  0     0  0
  6  2  1  0     0  0
  7  4  2  0     0  0
  8  3  2  0     0  0
  9 12  1  0     0  0
 10 11  1  0     0  0
 11  1  1  0     0  0
 12 15  1  0     0  0
 13  2  2  0     0  0
 14  6  1  0     0  0
 15 19  1  0     0  0
 16 18  1  0     0  0
 17  5  1  0     0  0
 18 10  1  0     0  0
 19 10  1  0     0  0
 20 14  1  0     0  0
 21  9  1  0     0  0
 22  9  1  0     0  0
 23  8  1  0     0  0
 24  7  1  0     0  0
 14 25  1  6     0  0
 26 17  2  0     0  0
 27 17  1  0     0  0
 28 20  1  0     0  0
 29 20  1  0     0  0
 30 21  1  0     0  0
 31 22  1  0     0  0
 32 23  2  0     0  0
 33 24  2  0     0  0
 34 27  2  0     0  0
 35 26  1  0     0  0
 36 29  1  0     0  0
 37 28  1  0     0  0
 38 36  1  0     0  0
 39 31  1  0     0  0
 40 34  1  0     0  0
  8  7  1  0     0  0
 16 12  1  0     0  0
 35 40  2  0     0  0
 32 33  1  0     0  0
 38 37  1  0     0  0
 30 39  1  0     0  0
M  END