
          08180812482D 1   1.00000     0.00000     0

 19 20  0     1  0            999 V2000
    9.9027  -15.6999    0.0000 N   0  0  0  0  0  0           0  0  0
    9.9015  -16.5273    0.0000 C   0  0  0  0  0  0           0  0  0
   10.6164  -16.9402    0.0000 C   0  0  0  0  0  0           0  0  0
   10.6146  -15.2872    0.0000 C   0  0  0  0  0  0           0  0  0
   11.3299  -15.6963    0.0000 C   0  0  0  0  0  0           0  0  0
   11.3302  -16.5273    0.0000 C   0  0  0  0  0  0           0  0  0
   12.0862  -15.3669    0.0000 C   0  0  0  0  0  0           0  0  0
   12.7497  -15.8572    0.0000 N   0  3  0  0  0  0           0  0  0
   12.7402  -16.6815    0.0000 C   0  0  0  0  0  0           0  0  0
   13.5227  -16.9428    0.0000 C   0  0  0  0  0  0           0  0  0
   14.0130  -16.2792    0.0000 S   0  0  0  0  0  0           0  0  0
   13.5334  -15.6080    0.0000 C   0  0  0  0  0  0           0  0  0
    9.1867  -16.9392    0.0000 C   0  0  0  0  0  0           0  0  0
   10.6121  -14.4622    0.0000 N   0  0  0  0  0  0           0  0  0
   12.0681  -17.1599    0.0000 C   0  0  0  0  0  0           0  0  0
   13.7713  -17.7295    0.0000 C   0  0  2  0  0  0           0  0  0
   14.5769  -17.9075    0.0000 C   0  0  0  0  0  0           0  0  0
   14.8255  -18.6942    0.0000 O   0  0  0  0  0  0           0  0  0
   13.2144  -18.3381    0.0000 O   0  0  0  0  0  0           0  0  0
 10 11  1  0     0  0
 11 12  1  0     0  0
 12  8  2  0     0  0
  2  3  1  0     0  0
  3  6  2  0     0  0
  5  7  1  0     0  0
  1  2  2  0     0  0
  7  8  1  0     0  0
  2 13  1  0     0  0
  8  9  1  0     0  0
  4 14  1  0     0  0
  9 15  1  0     0  0
  5  4  2  0     0  0
 10 16  1  0     0  0
  4  1  1  0     0  0
 16 17  1  0     0  0
  5  6  1  0     0  0
 17 18  1  0     0  0
  9 10  2  0     0  0
 16 19  1  6     0  0
M  CHG  1   8   1
M  END