
          11280715402D 1   1.00000     0.00000     0

 34 38  0     0  0            999 V2000
    4.2792   -5.0792    0.0000 N   0  0  3  0  0  0           0  0  0
    4.2000   -5.9000    0.0000 C   0  0  0  0  0  0           0  0  0
    3.5292   -4.7417    0.0000 C   0  0  0  0  0  0           0  0  0
    8.5542   -5.0750    0.0000 C   0  0  0  0  0  0           0  0  0
    4.8167   -6.4500    0.0000 C   0  0  0  0  0  0           0  0  0
    8.1417   -3.8042    0.0000 N   0  0  0  0  0  0           0  0  0
    7.8875   -4.5917    0.0000 N   0  0  0  0  0  0           0  0  0
    8.9667   -3.8042    0.0000 N   0  0  0  0  0  0           0  0  0
    2.9792   -5.3542    0.0000 C   0  0  3  0  0  0           0  0  0
    9.2250   -4.5875    0.0000 N   0  0  0  0  0  0           0  0  0
    8.5667   -5.9000    0.0000 C   0  0  0  0  0  0           0  0  0
    3.3917   -6.0667    0.0000 C   0  0  0  0  0  0           0  0  0
    7.8542   -6.3125    0.0000 C   0  0  0  0  0  0           0  0  0
    4.6417   -7.2542    0.0000 C   0  0  0  0  0  0           0  0  0
    5.0000   -4.6667    0.0000 C   0  0  0  0  0  0           0  0  0
    7.1417   -5.9042    0.0000 C   0  0  0  0  0  0           0  0  0
    3.3625   -3.9375    0.0000 O   0  0  0  0  0  0           0  0  0
    3.8625   -7.5125    0.0000 O   0  0  0  0  0  0           0  0  0
    7.1417   -5.0750    0.0000 C   0  0  0  0  0  0           0  0  0
    6.4250   -6.3167    0.0000 C   0  0  0  0  0  0           0  0  0
    5.7125   -5.0750    0.0000 C   0  0  0  0  0  0           0  0  0
    5.2542   -7.8042    0.0000 O   0  0  0  0  0  0           0  0  0
    5.7125   -5.9042    0.0000 C   0  0  0  0  0  0           0  0  0
    6.4250   -4.6625    0.0000 C   0  0  0  0  0  0           0  0  0
    2.7625   -4.5542    0.0000 C   0  0  0  0  0  0           0  0  0
    2.2875   -5.8042    0.0000 C   0  0  0  0  0  0           0  0  0
    9.2792   -6.3042    0.0000 C   0  0  0  0  0  0           0  0  0
    7.8542   -7.1417    0.0000 C   0  0  0  0  0  0           0  0  0
    5.0917   -8.6167    0.0000 C   0  0  0  0  0  0           0  0  0
    1.9375   -4.5167    0.0000 C   0  0  0  0  0  0           0  0  0
    1.6417   -5.2875    0.0000 C   0  0  0  0  0  0           0  0  0
    9.2792   -7.1375    0.0000 C   0  0  0  0  0  0           0  0  0
    8.5667   -7.5500    0.0000 C   0  0  0  0  0  0           0  0  0
    5.7042   -9.1667    0.0000 C   0  0  0  0  0  0           0  0  0
  2  1  1  0     0  0
  3  1  1  0     0  0
  4 11  1  0     0  0
  5  2  2  0     0  0
  6  7  2  0     0  0
  7  4  1  0     0  0
  8 10  1  0     0  0
  9  3  1  0     0  0
 10  4  2  0     0  0
 11 13  2  0     0  0
 12  2  1  0     0  0
 13 16  1  0     0  0
 14  5  1  0     0  0
 15  1  1  0     0  0
 16 19  2  0     0  0
 17  3  2  0     0  0
 18 14  2  0     0  0
 19 24  1  0     0  0
 20 23  2  0     0  0
 21 15  1  0     0  0
 22 14  1  0     0  0
 23 21  1  0     0  0
 24 21  2  0     0  0
 25  9  1  0     0  0
 26  9  1  0     0  0
 27 11  1  0     0  0
 28 13  1  0     0  0
 29 22  1  0     0  0
 30 25  1  0     0  0
 31 26  1  0     0  0
 32 33  1  0     0  0
 33 28  2  0     0  0
 34 29  1  0     0  0
 12  9  1  0     0  0
 16 20  1  0     0  0
 31 30  1  0     0  0
 32 27  2  0     0  0
  6  8  1  0     0  0
M  END