
          11280715522D 1   1.00000     0.00000     0

 49 52  0     1  0            999 V2000
    4.2027   -7.5083    0.0000 C   0  0  0  0  0  0           0  0  0
    4.2016   -8.3357    0.0000 C   0  0  0  0  0  0           0  0  0
    4.9164   -8.7485    0.0000 C   0  0  0  0  0  0           0  0  0
    4.9146   -7.0955    0.0000 C   0  0  0  0  0  0           0  0  0
    5.6300   -7.5047    0.0000 C   0  0  0  0  0  0           0  0  0
    5.6307   -8.3315    0.0000 C   0  0  0  0  0  0           0  0  0
    6.3460   -8.7425    0.0000 N   0  0  0  0  0  0           0  0  0
    7.0611   -8.3277    0.0000 C   0  0  0  0  0  0           0  0  0
    7.0563   -7.4977    0.0000 C   0  0  0  0  0  0           0  0  0
    6.3404   -7.0905    0.0000 C   0  0  0  0  0  0           0  0  0
    4.9183   -9.5735    0.0000 O   0  0  0  0  0  0           0  0  0
    5.6337   -9.9844    0.0000 C   0  0  0  0  0  0           0  0  0
    5.6356  -10.8094    0.0000 C   0  0  0  0  0  0           0  0  0
    4.9195  -11.2192    0.0000 C   0  0  0  0  0  0           0  0  0
    4.9211  -12.0434    0.0000 C   0  0  0  0  0  0           0  0  0
    5.6371  -12.4551    0.0000 C   0  0  0  0  0  0           0  0  0
    6.3529  -12.0365    0.0000 C   0  0  0  0  0  0           0  0  0
    6.3479  -11.2136    0.0000 C   0  0  0  0  0  0           0  0  0
    4.2055  -10.8060    0.0000 Cl  0  0  0  0  0  0           0  0  0
    7.0595  -10.7963    0.0000 Cl  0  0  0  0  0  0           0  0  0
    7.7771   -8.7374    0.0000 C   0  0  0  0  0  0           0  0  0
    7.0698  -12.4448    0.0000 S   0  0  3  0  0  0           0  0  0
    7.7792  -12.8542    0.0000 N   0  0  0  0  0  0           0  0  0
    7.5115  -11.8853    0.0000 O   0  0  0  0  0  0           0  0  0
    6.5710  -13.0697    0.0000 O   0  0  0  0  0  0           0  0  0
    8.5874  -12.3477    0.0000 C   0  0  3  0  0  0           0  0  0
    9.2042  -12.0208    0.0000 C   0  0  0  0  0  0           0  0  0
    8.8787  -13.0600    0.0000 C   0  0  0  0  0  0           0  0  0
    8.3576  -11.6673    0.0000 C   0  0  0  0  0  0           0  0  0
    9.1951  -11.1959    0.0000 O   0  0  0  0  0  0           0  0  0
    9.9231  -12.4255    0.0000 N   0  0  3  0  0  0           0  0  0
    9.9277  -13.2509    0.0000 C   0  0  0  0  0  0           0  0  0
   10.6425  -13.6555    0.0000 C   0  0  0  0  0  0           0  0  0
   11.3549  -13.2387    0.0000 N   0  0  3  0  0  0           0  0  0
   11.3478  -12.4128    0.0000 C   0  0  0  0  0  0           0  0  0
   10.6284  -12.0036    0.0000 C   0  0  0  0  0  0           0  0  0
   12.0723  -13.6461    0.0000 C   0  0  0  0  0  0           0  0  0
   12.7838  -13.2284    0.0000 O   0  0  0  0  0  0           0  0  0
   12.0782  -14.4710    0.0000 C   0  0  0  0  0  0           0  0  0
   12.7956  -14.8784    0.0000 C   0  0  2  0  0  0           0  0  0
   12.8016  -15.7034    0.0000 C   0  0  0  0  0  0           0  0  0
   13.5071  -14.4608    0.0000 N   0  0  0  0  0  0           0  0  0
   13.5190  -16.1107    0.0000 C   0  0  0  0  0  0           0  0  0
   14.2305  -15.6931    0.0000 C   0  0  0  0  0  0           0  0  0
   14.9479  -16.1005    0.0000 C   0  0  0  0  0  0           0  0  0
   15.6594  -15.6829    0.0000 N   0  0  3  0  0  0           0  0  0
   16.3768  -16.0902    0.0000 C   0  0  0  0  0  0           0  0  0
   15.6534  -14.8579    0.0000 C   0  0  0  0  0  0           0  0  0
    6.3360   -6.2655    0.0000 C   0  0  0  0  0  0           0  0  0
  3 11  1  0     0  0
 22 24  2  0     0  0
  2  3  1  0     0  0
 22 25  2  0     0  0
 11 12  1  0     0  0
 23 26  1  0     0  0
  5  6  1  0     0  0
 26 27  1  0     0  0
 12 13  1  0     0  0
 26 28  1  0     0  0
  3  6  2  0     0  0
 26 29  1  0     0  0
 13 14  2  0     0  0
 27 30  2  0     0  0
  6  7  1  0     0  0
 27 31  1  0     0  0
 31 32  1  0     0  0
 14 15  1  0     0  0
  1  2  2  0     0  0
 15 16  2  0     0  0
  7  8  2  0     0  0
 16 17  1  0     0  0
 31 36  1  0     0  0
 32 33  1  0     0  0
 33 34  1  0     0  0
 34 35  1  0     0  0
 35 36  1  0     0  0
  5  4  2  0     0  0
 34 37  1  0     0  0
 17 18  2  0     0  0
 37 38  2  0     0  0
 18 13  1  0     0  0
 37 39  1  0     0  0
  8  9  1  0     0  0
 39 40  1  0     0  0
 14 19  1  0     0  0
 40 41  1  0     0  0
  4  1  1  0     0  0
 40 42  1  1     0  0
 18 20  1  0     0  0
 41 43  1  0     0  0
  9 10  2  0     0  0
 43 44  1  0     0  0
  8 21  1  0     0  0
 44 45  1  0     0  0
 10  5  1  0     0  0
 45 46  1  0     0  0
 17 22  1  0     0  0
 46 47  1  0     0  0
 46 48  1  0     0  0
 22 23  1  0     0  0
 10 49  1  0     0  0
M  END