
          05080814042D 1   1.00000     0.00000     0

 39 44  0     1  0            999 V2000
    7.3532   -8.6068    0.0000 C   0  0  0  0  0  0           0  0  0
    7.3521   -9.4328    0.0000 C   0  0  0  0  0  0           0  0  0
    8.0658   -9.8450    0.0000 C   0  0  0  0  0  0           0  0  0
    8.0640   -8.1946    0.0000 C   0  0  0  0  0  0           0  0  0
    8.7782   -8.6032    0.0000 C   0  0  0  0  0  0           0  0  0
    8.7816   -9.4348    0.0000 C   0  0  0  0  0  0           0  0  0
    9.4996   -9.8455    0.0000 C   0  0  0  0  0  0           0  0  0
    9.4927   -8.1821    0.0000 C   0  0  0  0  0  0           0  0  0
   10.2153   -8.5973    0.0000 C   0  0  2  0  0  0           0  0  0
   10.2164   -9.4306    0.0000 C   0  0  2  0  0  0           0  0  0
   10.9348   -9.8441    0.0000 N   0  0  3  0  0  0           0  0  0
   11.6565   -9.4288    0.0000 C   0  0  0  0  0  0           0  0  0
   11.6555   -8.5954    0.0000 C   0  0  1  0  0  0           0  0  0
   10.9326   -8.1774    0.0000 C   0  0  0  0  0  0           0  0  0
   10.9347  -10.6677    0.0000 C   0  0  0  0  0  0           0  0  0
   12.3686   -8.1834    0.0000 C   0  0  0  0  0  0           0  0  0
   13.0821   -8.5950    0.0000 N   0  0  3  0  0  0           0  0  0
   12.3684   -7.3597    0.0000 O   0  0  0  0  0  0           0  0  0
   13.0766   -9.4234    0.0000 C   0  0  0  0  0  0           0  0  0
   13.7859   -9.8350    0.0000 C   0  0  0  0  0  0           0  0  0
   14.5016   -9.4264    0.0000 N   0  0  3  0  0  0           0  0  0
   14.5033   -8.6019    0.0000 C   0  0  0  0  0  0           0  0  0
   13.7894   -8.1858    0.0000 C   0  0  0  0  0  0           0  0  0
   10.2084  -10.2541    0.0000 H   0  0  0  0  0  0           0  0  0
   10.2084   -7.7706    0.0000 H   0  0  0  0  0  0           0  0  0
   15.2134   -9.8408    0.0000 C   0  0  0  0  0  0           0  0  0
   15.2070  -10.6628    0.0000 C   0  0  0  0  0  0           0  0  0
   15.9181  -11.0771    0.0000 C   0  0  0  0  0  0           0  0  0
   15.9224   -9.4293    0.0000 N   0  0  0  0  0  0           0  0  0
    8.0613   -7.3705    0.0000 O   0  0  0  0  0  0           0  0  0
    7.3467   -6.9609    0.0000 C   0  0  0  0  0  0           0  0  0
   17.4193   -9.5883    0.0000 N   0  0  0  0  0  0           0  0  0
   16.6341   -9.8398    0.0000 C   0  0  0  0  0  0           0  0  0
   16.6317  -10.6650    0.0000 C   0  0  0  0  0  0           0  0  0
   17.4164  -10.9210    0.0000 N   0  0  0  0  0  0           0  0  0
   17.9011  -10.2531    0.0000 S   0  0  0  0  0  0           0  0  0
    8.0643  -10.6686    0.0000 C   0  0  0  0  0  0           0  0  0
    8.7769  -11.0817    0.0000 O   0  0  0  0  0  0           0  0  0
    7.3503  -11.0792    0.0000 C   0  0  0  0  0  0           0  0  0
 17 19  1  0     0  0
  9  8  1  0     0  0
  9 10  1  0     0  0
  5  4  2  0     0  0
  4  1  1  0     0  0
  5  6  1  0     0  0
 17 23  1  0     0  0
 19 20  1  0     0  0
 20 21  1  0     0  0
 21 22  1  0     0  0
 22 23  1  0     0  0
 10 24  1  1     0  0
  2  3  1  0     0  0
  9 25  1  6     0  0
  3  6  2  0     0  0
 21 26  1  0     0  0
  9 14  1  0     0  0
 26 27  1  0     0  0
 10 11  1  0     0  0
 27 28  2  0     0  0
 28 34  1  0     0  0
 11 12  1  0     0  0
 33 29  1  0     0  0
 29 26  2  0     0  0
 12 13  1  0     0  0
 13 14  1  0     0  0
 30 31  1  0     0  0
  4 30  1  0     0  0
 33 34  1  0     0  0
  1  2  2  0     0  0
 11 15  1  0     0  0
  5  8  1  0     0  0
 13 16  1  1     0  0
  6  7  1  0     0  0
 32 33  2  0     0  0
 34 35  2  0     0  0
 35 36  1  0     0  0
 36 32  1  0     0  0
 16 17  1  0     0  0
  3 37  1  0     0  0
  7 10  1  0     0  0
 37 38  2  0     0  0
 16 18  2  0     0  0
 37 39  1  0     0  0
M  END