
          11280714582D 1   1.00000     0.00000     0

 36 40  0     0  0            999 V2000
    4.3875   -9.1750    0.0000 C   0  0  0  0  0  0           0  0  0
    5.1042   -4.6417    0.0000 C   0  0  0  0  0  0           0  0  0
    5.8167   -4.2250    0.0000 C   0  0  0  0  0  0           0  0  0
    3.6292   -9.5042    0.0000 N   0  0  0  0  0  0           0  0  0
    3.0792   -8.8917    0.0000 N   0  0  0  0  0  0           0  0  0
    4.3000   -8.3542    0.0000 N   0  0  0  0  0  0           0  0  0
    3.4917   -8.1792    0.0000 N   0  0  0  0  0  0           0  0  0
    5.1042   -9.5792    0.0000 C   0  0  0  0  0  0           0  0  0
    5.1042   -5.4667    0.0000 N   0  0  3  0  0  0           0  0  0
    5.8167   -3.4000    0.0000 C   0  0  0  0  0  0           0  0  0
    4.3917   -4.2292    0.0000 N   0  0  0  0  0  0           0  0  0
    5.8167   -9.1667    0.0000 C   0  0  0  0  0  0           0  0  0
    7.9542   -2.9750    0.0000 C   0  0  0  0  0  0           0  0  0
    7.2417   -3.3917    0.0000 C   0  0  0  0  0  0           0  0  0
    6.5375   -4.6375    0.0000 C   0  0  0  0  0  0           0  0  0
    6.5292   -2.9792    0.0000 C   0  0  0  0  0  0           0  0  0
    5.1042   -2.9875    0.0000 N   0  0  0  0  0  0           0  0  0
    4.3917   -3.4000    0.0000 C   0  0  0  0  0  0           0  0  0
    5.8167   -8.3500    0.0000 C   0  0  0  0  0  0           0  0  0
    5.8167   -5.8792    0.0000 C   0  0  0  0  0  0           0  0  0
    7.2500   -4.2167    0.0000 C   0  0  0  0  0  0           0  0  0
    7.9542   -2.1500    0.0000 O   0  0  0  0  0  0           0  0  0
    6.5375   -7.9292    0.0000 C   0  0  0  0  0  0           0  0  0
    5.1042   -7.9375    0.0000 C   0  0  0  0  0  0           0  0  0
    5.8167   -6.7042    0.0000 C   0  0  0  0  0  0           0  0  0
    8.6750   -3.3792    0.0000 O   0  0  0  0  0  0           0  0  0
    5.1042   -7.1125    0.0000 C   0  0  0  0  0  0           0  0  0
    6.5292   -7.1125    0.0000 C   0  0  0  0  0  0           0  0  0
    4.3917   -5.8792    0.0000 C   0  0  0  0  0  0           0  0  0
    5.1042  -10.4042    0.0000 C   0  0  0  0  0  0           0  0  0
    6.5292   -9.5792    0.0000 C   0  0  0  0  0  0           0  0  0
    3.6750   -5.4667    0.0000 C   0  0  0  0  0  0           0  0  0
    2.9625   -5.8792    0.0000 C   0  0  0  0  0  0           0  0  0
    6.5375  -10.4042    0.0000 C   0  0  0  0  0  0           0  0  0
    5.8167  -10.8167    0.0000 C   0  0  0  0  0  0           0  0  0
    2.2500   -5.4667    0.0000 C   0  0  0  0  0  0           0  0  0
  2  9  1  0     0  0
  3  2  2  0     0  0
  4  1  1  0     0  0
  5  4  2  0     0  0
  6  1  2  0     0  0
  7  6  1  0     0  0
  8  1  1  0     0  0
  9 20  1  0     0  0
 10  3  1  0     0  0
 11  2  1  0     0  0
 12  8  2  0     0  0
 13 14  1  0     0  0
 14 21  1  0     0  0
 15  3  1  0     0  0
 16 10  1  0     0  0
 17 18  1  0     0  0
 18 11  2  0     0  0
 19 12  1  0     0  0
 20 25  1  0     0  0
 21 15  2  0     0  0
 22 13  2  0     0  0
 23 19  1  0     0  0
 24 19  2  0     0  0
 25 27  2  0     0  0
 26 13  1  0     0  0
 27 24  1  0     0  0
 28 23  2  0     0  0
 29  9  1  0     0  0
 30  8  1  0     0  0
 31 12  1  0     0  0
 32 29  1  0     0  0
 33 32  1  0     0  0
 34 35  1  0     0  0
 35 30  2  0     0  0
 36 33  1  0     0  0
  5  7  1  0     0  0
 31 34  2  0     0  0
 25 28  1  0     0  0
 17 10  2  0     0  0
 16 14  2  0     0  0
M  END