
          11280714522D 1   1.00000     0.00000     0

 23 25  0     1  0            999 V2000
   12.6917   -5.0042    0.0000 S   0  0  3  0  0  0           0  0  0
   11.6167   -2.3792    0.0000 C   0  0  3  0  0  0           0  0  0
   11.6125   -3.2042    0.0000 C   0  0  0  0  0  0           0  0  0
   12.3417   -1.9667    0.0000 N   0  0  3  0  0  0           0  0  0
   12.9042   -4.2042    0.0000 N   0  0  3  0  0  0           0  0  0
   12.3250   -3.6250    0.0000 C   0  0  2  0  0  0           0  0  0
   10.8917   -1.9667    0.0000 C   0  0  0  0  0  0           0  0  0
   11.8917   -4.7875    0.0000 O   0  0  0  0  0  0           0  0  0
   13.4875   -5.2167    0.0000 O   0  0  0  0  0  0           0  0  0
   13.0417   -3.2167    0.0000 C   0  0  0  0  0  0           0  0  0
   13.0542   -2.3875    0.0000 C   0  0  0  0  0  0           0  0  0
   10.9042   -1.1375    0.0000 C   0  0  0  0  0  0           0  0  0
   12.3417   -1.1375    0.0000 C   0  0  0  0  0  0           0  0  0
   11.6167   -0.7167    0.0000 C   0  0  0  0  0  0           0  0  0
   12.4917   -5.8042    0.0000 C   0  0  0  0  0  0           0  0  0
   13.7042   -3.9917    0.0000 C   0  0  0  0  0  0           0  0  0
   10.1875   -2.3792    0.0000 C   0  0  0  0  0  0           0  0  0
   10.1875   -0.7250    0.0000 C   0  0  0  0  0  0           0  0  0
   11.6917   -6.0292    0.0000 C   0  0  0  0  0  0           0  0  0
    9.4750   -1.9667    0.0000 C   0  0  0  0  0  0           0  0  0
   11.4917   -6.8292    0.0000 C   0  0  0  0  0  0           0  0  0
    9.4750   -1.1375    0.0000 C   0  0  0  0  0  0           0  0  0
   11.6042   -4.0292    0.0000 H   0  0  0  0  0  0           0  0  0
  2  3  1  0     0  0
  3  6  1  0     0  0
  4 11  1  0     0  0
  5  1  1  0     0  0
  6  5  1  0     0  0
  7  2  1  0     0  0
  8  1  2  0     0  0
  9  1  2  0     0  0
 10  6  1  0     0  0
 11 10  1  0     0  0
 12  7  1  0     0  0
 13  4  1  0     0  0
 14 13  1  0     0  0
 15  1  1  0     0  0
 16  5  1  0     0  0
 17  7  2  0     0  0
 18 12  2  0     0  0
 19 15  1  0     0  0
 20 17  1  0     0  0
 21 19  1  0     0  0
 22 20  2  0     0  0
  6 23  1  6     0  0
  2  4  1  0     0  0
 14 12  1  0     0  0
 22 18  1  0     0  0
M  END