
  CDK    9/16/09,9:55

 24 26  0  0  0  0  0  0  0  0999 V2000
   13.7152  -21.7708    0.0000 C   0  0  0  0  0  0  0  0  0  0  0  0
   13.7141  -22.5982    0.0000 N   0  0  0  0  0  0  0  0  0  0  0  0
   14.4289  -23.0110    0.0000 C   0  0  0  0  0  0  0  0  0  0  0  0
   14.4271  -21.3580    0.0000 N   0  0  0  0  0  0  0  0  0  0  0  0
   15.1425  -21.7672    0.0000 C   0  0  0  0  0  0  0  0  0  0  0  0
   15.1473  -22.5936    0.0000 C   0  0  0  0  0  0  0  0  0  0  0  0
   15.9348  -22.8444    0.0000 N   0  0  0  0  0  0  0  0  0  0  0  0
   16.4167  -22.1729    0.0000 C   0  0  0  0  0  0  0  0  0  0  0  0
   15.9270  -21.5072    0.0000 N   0  0  0  0  0  0  0  0  0  0  0  0
   16.1773  -20.7211    0.0000 C   0  0  0  0  0  0  0  0  0  0  0  0
   16.9579  -20.4621    0.0000 O   0  0  0  0  0  0  0  0  0  0  0  0
   16.9530  -19.6371    0.0000 C   0  0  0  0  0  0  0  0  0  0  0  0
   16.1669  -19.3868    0.0000 C   0  0  0  0  0  0  0  0  0  0  0  0
   15.6860  -20.0571    0.0000 C   0  0  0  0  0  0  0  0  0  0  0  0
   17.6176  -19.1483    0.0000 C   0  0  0  0  0  0  0  0  0  0  0  0
   18.3732  -19.4794    0.0000 O   0  0  0  0  0  0  0  0  0  0  0  0
   15.9073  -18.6037    0.0000 O   0  0  0  0  0  0  0  0  0  0  0  0
   14.8610  -20.0631    0.0000 O   0  0  0  0  0  0  0  0  0  0  0  0
   14.4300  -23.8360    0.0000 N   0  0  0  0  0  0  0  0  0  0  0  0
   13.7160  -24.2495    0.0000 C   0  0  0  0  0  0  0  0  0  0  0  0
   13.7171  -25.0745    0.0000 C   0  0  0  0  0  0  0  0  0  0  0  0
   13.0031  -25.4879    0.0000 C   0  0  0  0  0  0  0  0  0  0  0  0
   13.0042  -26.3129    0.0000 C   0  0  0  0  0  0  0  0  0  0  0  0
   12.2881  -25.0763    0.0000 C   0  0  0  0  0  0  0  0  0  0  0  0
  2  3  1  0  0  0  0 
  3  6  2  0  0  0  0 
 11 12  1  0  0  0  0 
 12 13  1  0  0  0  0 
 13 14  1  0  0  0  0 
 14 10  1  0  0  0  0 
  1  2  2  0  0  0  0 
 12 15  1  1  0  0  0 
  5  4  2  0  0  0  0 
 15 16  1  0  0  0  0 
  6  7  1  0  0  0  0 
 13 17  1  6  0  0  0 
  7  8  2  0  0  0  0 
 14 18  1  6  0  0  0 
  8  9  1  0  0  0  0 
  3 19  1  0  0  0  0 
  9  5  1  0  0  0  0 
 19 20  1  0  0  0  0 
  4  1  1  0  0  0  0 
 20 21  1  0  0  0  0 
 10  9  1  1  0  0  0 
 21 22  2  0  0  0  0 
 10 11  1  0  0  0  0 
 22 23  1  0  0  0  0 
  5  6  1  0  0  0  0 
 22 24  1  0  0  0  0 
M  END