
          11280715342D 1   1.00000     0.00000     0

 30 33  0     0  0            999 V2000
    0.2167   -4.7875    0.0000 N   0  0  3  0  0  0           0  0  0
    0.0792   -4.0542    0.0000 C   0  0  0  0  0  0           0  0  0
   -1.3125   -3.7500    0.0000 O   0  0  0  0  0  0           0  0  0
   -0.3875   -5.3500    0.0000 C   0  0  0  0  0  0           0  0  0
   -0.5333   -3.5000    0.0000 C   0  0  0  0  0  0           0  0  0
    0.6292   -5.5042    0.0000 C   0  0  0  0  0  0           0  0  0
   -1.2000   -5.2292    0.0000 C   0  0  0  0  0  0           0  0  0
   -1.6125   -4.5167    0.0000 C   0  0  0  0  0  0           0  0  0
    0.8667   -3.8125    0.0000 C   0  0  0  0  0  0           0  0  0
    1.4542   -6.9292    0.0000 C   0  0  0  0  0  0           0  0  0
    1.8667   -6.2042    0.0000 N   0  0  0  0  0  0           0  0  0
    1.4542   -5.4917    0.0000 C   0  0  0  0  0  0           0  0  0
    0.2167   -6.2167    0.0000 O   0  0  0  0  0  0           0  0  0
   -0.3500   -2.6917    0.0000 C   0  0  0  0  0  0           0  0  0
   -2.2708   -7.6417    0.0000 N   0  0  0  0  0  0           0  0  0
    1.8667   -7.6417    0.0000 O   0  0  0  0  0  0           0  0  0
    1.0500   -3.0000    0.0000 C   0  0  0  0  0  0           0  0  0
    0.6250   -6.9292    0.0000 C   0  0  0  0  0  0           0  0  0
    0.4375   -2.4417    0.0000 C   0  0  0  0  0  0           0  0  0
    1.8500   -2.7417    0.0000 Cl  0  0  0  0  0  0           0  0  0
    0.2167   -7.6417    0.0000 C   0  0  0  0  0  0           0  0  0
   -0.6125   -7.6417    0.0000 C   0  0  0  0  0  0           0  0  0
   -1.6125   -5.9500    0.0000 C   0  0  0  0  0  0           0  0  0
   -2.4375   -4.5167    0.0000 C   0  0  0  0  0  0           0  0  0
   -1.8583   -6.9292    0.0000 C   0  0  0  0  0  0           0  0  0
   -1.8583   -8.3542    0.0000 C   0  0  0  0  0  0           0  0  0
   -1.0250   -8.3542    0.0000 C   0  0  0  0  0  0           0  0  0
   -1.0250   -6.9292    0.0000 C   0  0  0  0  0  0           0  0  0
   -2.4458   -5.9500    0.0000 C   0  0  0  0  0  0           0  0  0
   -2.8583   -5.2292    0.0000 C   0  0  0  0  0  0           0  0  0
  2  1  1  0     0  0
  3  5  1  0     0  0
  4  1  1  0     0  0
  5  2  1  0     0  0
  6  1  1  0     0  0
  7  4  1  0     0  0
  8  7  2  0     0  0
  9  2  2  0     0  0
 10 11  1  0     0  0
 11 12  1  0     0  0
 12  6  1  0     0  0
 13  6  2  0     0  0
 14  5  2  0     0  0
 15 25  2  0     0  0
 16 10  2  0     0  0
 17  9  1  0     0  0
 18 10  1  0     0  0
 19 17  2  0     0  0
 20 17  1  0     0  0
 21 18  1  0     0  0
 22 21  1  0     0  0
 23  7  1  0     0  0
 24  8  1  0     0  0
 25 28  1  0     0  0
 26 27  2  0     0  0
 27 22  1  0     0  0
 28 22  2  0     0  0
 29 23  2  0     0  0
 30 29  1  0     0  0
  8  3  1  0     0  0
 19 14  1  0     0  0
 24 30  2  0     0  0
 26 15  1  0     0  0
M  END