
  SciTegic05061116452D

 35 39  0  0  0  0            999 V2000
   -1.7750   -1.6384    0.0000 N   0  0
   -1.0633   -1.2298    0.0000 C   0  0
   -1.0633   -0.4047    0.0000 N   0  0
   -1.7750    0.0117    0.0000 C   0  0
   -2.4867   -1.2298    0.0000 C   0  0
   -2.4867   -0.4001    0.0000 C   0  0
   -3.2757   -0.1437    0.0000 N   0  0
   -3.7634   -0.8149    0.0000 C   0  0
   -3.2758   -1.4860    0.0000 N   0  0
   -3.5307   -2.2706    0.0000 C   0  0
   -4.3377   -2.4422    0.0000 C   0  0
   -4.5927   -3.2267    0.0000 O   0  0
   -4.8897   -1.8290    0.0000 O   0  0
   -1.7731    0.8367    0.0000 O   0  0
   -0.3493   -1.6432    0.0000 N   0  0
    0.3657   -1.2315    0.0000 C   0  0
    1.0797   -1.6448    0.0000 C   0  0
   -1.0575    1.2475    0.0000 C   0  0
    1.0741   -2.4681    0.0000 C   0  0
    1.7873   -2.8814    0.0000 C   0  0
    2.5032   -2.4697    0.0000 C   0  0
    2.5016   -1.6404    0.0000 C   0  0
    1.7878   -1.2309    0.0000 C   0  0
    3.2139   -2.8794    0.0000 C   0  0
    3.2121   -3.7053    0.0000 C   0  0
    3.9225   -4.1177    0.0000 C   0  0
    4.6393   -3.7086    0.0000 C   0  0
    4.6412   -2.8826    0.0000 C   0  0
    3.9262   -2.4657    0.0000 C   0  0
   -0.3466    0.8304    0.0000 C   0  0
    0.3684    1.2405    0.0000 C   0  0
    0.3708    2.0664    0.0000 C   0  0
   -0.3477    2.4805    0.0000 C   0  0
   -1.0598    2.0679    0.0000 C   0  0
    1.0816    0.8259    0.0000 Br  0  0
 16 17  1  0
  7  8  2  0
 14 18  1  0
  8  9  1  0
 17 19  2  0
  9  5  1  0
 19 20  1  0
  3  4  2  0
 20 21  2  0
  9 10  1  0
 21 22  1  0
  5  6  2  0
 22 23  2  0
 23 17  1  0
 24 25  1  0
 10 11  1  0
 11 12  1  0
  6  4  1  0
 11 13  2  0
  5  1  1  0
 24 29  1  0
 25 26  1  0
 26 27  1  0
 27 28  1  0
 28 29  1  0
 21 24  1  0
  4 14  1  0
 18 30  2  0
  1  2  2  0
 30 31  1  0
  2 15  1  0
 31 32  2  0
  2  3  1  0
 32 33  1  0
 15 16  1  0
 33 34  2  0
 34 18  1  0
  6  7  1  0
 31 35  1  0
M  END