
          11280714492D 1   1.00000     0.00000     0

 25 27  0     0  0            999 V2000
    1.2167   -1.7667    0.0000 N   0  0  3  0  0  0           0  0  0
    4.2125   -1.7625    0.0000 C   0  0  0  0  0  0           0  0  0
    4.8125   -1.7625    0.0000 C   0  0  0  0  0  0           0  0  0
    0.6167   -1.7667    0.0000 C   0  0  0  0  0  0           0  0  0
    2.4125   -1.7625    0.0000 N   0  0  3  0  0  0           0  0  0
    1.5167   -2.2875    0.0000 C   0  0  0  0  0  0           0  0  0
    1.5042   -1.2417    0.0000 C   0  0  0  0  0  0           0  0  0
    3.9125   -1.2417    0.0000 O   0  0  0  0  0  0           0  0  0
    5.7125   -1.2375    0.0000 N   0  0  0  0  0  0           0  0  0
    0.3167   -2.2917    0.0000 C   0  0  0  0  0  0           0  0  0
    3.9125   -2.2792    0.0000 N   0  0  0  0  0  0           0  0  0
    2.1125   -2.2792    0.0000 C   0  0  0  0  0  0           0  0  0
    2.1125   -1.2417    0.0000 C   0  0  0  0  0  0           0  0  0
    5.1042   -1.2375    0.0000 C   0  0  0  0  0  0           0  0  0
    3.3125   -2.2792    0.0000 C   0  0  0  0  0  0           0  0  0
    0.6250   -2.8042    0.0000 O   0  0  0  0  0  0           0  0  0
    3.0125   -1.7625    0.0000 C   0  0  0  0  0  0           0  0  0
    5.1125   -2.2750    0.0000 C   0  0  0  0  0  0           0  0  0
    0.3125   -1.2500    0.0000 C   0  0  0  0  0  0           0  0  0
    6.0125   -1.7542    0.0000 C   0  0  0  0  0  0           0  0  0
   -0.2833   -2.2917    0.0000 C   0  0  0  0  0  0           0  0  0
    1.2250   -2.8000    0.0000 C   0  0  0  0  0  0           0  0  0
    5.7125   -2.2750    0.0000 C   0  0  0  0  0  0           0  0  0
   -0.2875   -1.2542    0.0000 C   0  0  0  0  0  0           0  0  0
   -0.5875   -1.7750    0.0000 C   0  0  0  0  0  0           0  0  0
  2 11  1  0     0  0
  3  2  1  0     0  0
  4  1  1  0     0  0
  5 13  1  0     0  0
  6  1  1  0     0  0
  7  1  1  0     0  0
  8  2  2  0     0  0
  9 14  1  0     0  0
 10  4  1  0     0  0
 11 15  1  0     0  0
 12  6  1  0     0  0
 13  7  1  0     0  0
 14  3  2  0     0  0
 15 17  1  0     0  0
 16 10  1  0     0  0
 17  5  1  0     0  0
 18  3  1  0     0  0
 19  4  2  0     0  0
 20 23  1  0     0  0
 21 10  2  0     0  0
 22 16  1  0     0  0
 23 18  2  0     0  0
 24 19  1  0     0  0
 25 24  2  0     0  0
 12  5  1  0     0  0
 25 21  1  0     0  0
  9 20  2  0     0  0
M  END