
  SciTegic12231509382D

 16 18  0  0  0  0            999 V2000
    0.0000   -1.3190    0.0000 N   0  0
   -1.2274    0.8244    0.0000 C   0  0
   -1.2274   -0.6045    0.0000 C   0  0
    1.2274    0.8244    0.0000 C   0  0
    1.2274   -0.6045    0.0000 C   0  0
   -3.7006   -0.6045    0.0000 N   0  0
   -3.7006    0.8244    0.0000 C   0  0
   -2.4915    1.5389    0.0000 C   0  0
   -2.4915   -1.3190    0.0000 C   0  0
   -4.9998    1.5775    0.0000 O   0  0
    2.4732    1.5389    0.0000 C   0  0
    2.4732   -1.3190    0.0000 C   0  0
   -4.9980    3.0784    0.0000 C   0  0
    3.7372    0.8244    0.0000 C   0  0
    3.7372   -0.6045    0.0000 C   0  0
   -6.0362    3.6803    0.0000 C   0  0
  1  3  1  0
  2  3  1  0
  2  4  2  0
  1  5  2  0
  4  5  1  0
  6  7  1  0
  2  8  1  0
  7  8  2  0
  3  9  2  0
  6  9  1  0
  7 10  1  0
  4 11  1  0
  5 12  1  0
 10 13  1  0
 11 14  2  0
 12 15  2  0
 14 15  1  0
 13 16  1  0
M  END