
  SciTegic03291108482D

 16 17  0  0  0  0            999 V2000
    1.7779    2.3689    0.0000 Cl  0  0
   -1.0800   -0.1061    0.0000 S   0  0
    0.3489   -1.7561    0.0000 O   0  0
   -1.0800   -1.7561    0.0000 O   0  0
   -1.0800    2.3689    0.0000 N   0  0
   -0.3655    1.1314    0.0000 C   0  0
   -0.3655    1.9564    0.0000 C   0  0
   -1.0800    0.7189    0.0000 C   0  0
    0.3489    0.7189    0.0000 C   0  0
    0.3489    2.3689    0.0000 C   0  0
   -1.7945    1.1314    0.0000 C   0  0
    1.0634    1.9564    0.0000 C   0  0
    1.0634    1.1314    0.0000 C   0  0
   -1.7945    1.9564    0.0000 C   0  0
   -0.3655   -0.5186    0.0000 C   0  0
   -0.3655   -1.3436    0.0000 C   0  0
  1 12  1  0
  2  8  1  0
  2 15  1  0
  3 16  2  0
  4 16  1  0
  5  7  1  0
  5 14  2  0
  6  7  1  0
  6  8  1  0
  6  9  2  0
  7 10  2  0
  8 11  2  0
  9 13  1  0
 10 12  1  0
 11 14  1  0
 12 13  2  0
 15 16  1  0
M  END