
  SciTegic05071317032D

 38 37  0  0  0  0            999 V2000
   16.5610  -26.0874    0.0000 C   0  0
   16.5599  -26.9148    0.0000 C   0  0
   17.2747  -27.3276    0.0000 C   0  0
   17.9912  -26.9143    0.0000 C   0  0
   17.9882  -26.0837    0.0000 C   0  0
   17.2729  -25.6747    0.0000 C   0  0
   18.7012  -25.6686    0.0000 O   0  0
   19.4173  -26.0784    0.0000 C   0  0
   20.1301  -25.6632    0.0000 C   0  0
   20.8462  -26.0730    0.0000 C   0  0
   21.5590  -25.6578    0.0000 C   0  0
   22.2751  -26.0676    0.0000 C   0  0
   22.9879  -25.6525    0.0000 C   0  0
   23.7040  -26.0622    0.0000 C   0  0
   24.4169  -25.6470    0.0000 C   0  0
   25.1329  -26.0569    0.0000 C   0  0
   25.8458  -25.6417    0.0000 N   0  0
   26.5617  -26.0537    0.0000 C   0  0
   27.2724  -25.6421    0.0000 C   0  0
   27.2736  -24.8167    0.0000 N   0  0
   26.5577  -24.4047    0.0000 C   0  0
   25.8406  -24.8181    0.0000 C   0  0
   27.9881  -24.4041    0.0000 C   0  0
   28.7025  -24.8167    0.0000 C   0  0
   29.4170  -24.4041    0.0000 C   0  0
   30.1314  -24.8168    0.0000 C   0  0
   30.8459  -24.4042    0.0000 N   0  0
   31.5604  -24.8168    0.0000 C   0  0
   30.8459  -23.5792    0.0000 C   0  0
   31.5604  -23.1667    0.0000 C   0  0
   32.2733  -23.5840    0.0000 C   0  0
   32.9873  -23.1722    0.0000 C   0  0
   32.9877  -22.3463    0.0000 C   0  0
   32.2683  -21.9340    0.0000 C   0  0
   31.5571  -22.3481    0.0000 C   0  0
   27.1539  -27.1543    0.0000 Cl  0  0
   29.1402  -26.5179    0.0000 Cl  0  0
   28.8455  -27.9321    0.0000 Cl  0  0
  1  2  2  0
  2  3  1  0
  3  4  2  0
  4  5  1  0
  5  6  2  0
  6  1  1  0
  5  7  1  0
  7  8  1  0
  8  9  1  0
  9 10  1  0
 10 11  1  0
 11 12  1  0
 12 13  1  0
 13 14  1  0
 14 15  1  0
 15 16  1  0
 16 17  1  0
 17 18  1  0
 17 22  1  0
 18 19  1  0
 19 20  1  0
 20 21  1  0
 21 22  1  0
 20 23  1  0
 23 24  1  0
 24 25  1  0
 25 26  1  0
 26 27  1  0
 27 28  1  0
 27 29  1  0
 29 30  1  0
 30 31  2  0
 31 32  1  0
 32 33  2  0
 33 34  1  0
 34 35  2  0
 35 30  1  0
M  END