
  SciTegic11201309402D

 92 97  0  0  1  0            999 V2000
    2.9916   -2.6647    0.0000 N   0  0
    3.2077   -3.4609    0.0000 C   0  0
    1.5300   -2.8232    0.0000 C   0  0
    7.3448   -2.3378    0.0000 C   0  0
    8.7238   -1.9635    0.0000 N   0  0
    9.5214   -2.1744    0.0000 C   0  0
    2.2204   -2.3716    0.0000 C   0  0  1  0  0  0
    5.3843   -3.2975    0.0000 C   0  0
   11.4819   -1.2148    0.0000 C   0  0
   -0.6331   -2.5305    0.0000 C   0  0
    6.7634   -2.9231    0.0000 N   0  0
   15.0376   -0.6770    0.0000 C   0  0
   10.9005   -1.8000    0.0000 N   0  0
    8.1424   -2.5488    0.0000 C   0  0  1  0  0  0
    4.5867   -3.0866    0.0000 N   0  0
    0.7937   -2.4511    0.0000 N   0  0
    5.9658   -2.7122    0.0000 C   0  0  1  0  0  0
   -1.3235   -2.9821    0.0000 N   0  0
    5.7496   -1.9160    0.0000 C   0  0
   10.1029   -1.5891    0.0000 C   0  0  1  0  0  0
    4.0053   -3.6718    0.0000 C   0  0  1  0  0  0
   12.2795   -1.4257    0.0000 C   0  0  2  0  0  0
   -5.6037   -3.2205    0.0000 C   0  0
    1.7135   -6.1181    0.0000 C   0  0
    3.4908   -7.2309    0.0000 C   0  0
   13.6585   -1.0513    0.0000 C   0  0
   12.8609   -0.8404    0.0000 N   0  0
   -2.1057   -1.7863    0.0000 C   0  0
    4.9521   -1.7051    0.0000 C   0  0
    0.1033   -2.9027    0.0000 C   0  0  1  0  0  0
   -2.0598   -2.6100    0.0000 C   0  0  2  0  0  0
   -6.3400   -2.8484    0.0000 N   0  0
    2.4498   -6.4902    0.0000 N   0  0
    2.9094   -7.8162    0.0000 N   0  0
   16.5087   -0.6770    0.0000 C   0  0
   15.3236   -1.0936    0.0000 C   0  0
   15.7731    0.4441    0.0000 C   0  0
    2.6263   -4.0462    0.0000 O   0  0
    1.5759   -3.6469    0.0000 O   0  0
    7.1287   -1.5417    0.0000 O   0  0
   14.2400   -0.4661    0.0000 C   0  0
    9.7376   -2.9706    0.0000 O   0  0
    5.6005   -4.0937    0.0000 O   0  0
   11.2658   -0.4186    0.0000 O   0  0
   -0.6789   -1.7068    0.0000 O   0  0
   14.5882   -1.4673    0.0000 C   0  0
   15.7731   -1.0507    0.0000 C   0  0
   15.0376    0.0704    0.0000 C   0  0
   12.4956   -2.2219    0.0000 C   0  0
    9.8867   -0.7929    0.0000 C   0  0
   -2.8420   -1.4141    0.0000 O   0  0
   13.8747   -1.8475    0.0000 O   0  0
    4.3706   -2.2904    0.0000 O   0  0
   16.5087    0.0704    0.0000 C   0  0
   15.3236   -0.3462    0.0000 C   0  0
   16.0592   -1.4673    0.0000 C   0  0
    3.2747   -6.4347    0.0000 N   0  0
    1.6676   -5.2944    0.0000 N   0  0
   -4.9132   -2.7689    0.0000 N   0  0
   -5.5578   -4.0442    0.0000 N   0  0
    1.0231   -6.5697    0.0000 N   0  0
    4.2884   -7.4418    0.0000 N   0  0
   -1.4152   -1.3347    0.0000 N   0  0
    3.5087   -2.0219    0.0000 C   0  0
    8.3585   -3.3449    0.0000 C   0  0
    4.7359   -0.9089    0.0000 N   0  0
   11.9142   -2.8071    0.0000 C   0  0
   10.7513   -3.9777    0.0000 C   0  0
    9.0892   -0.5820    0.0000 C   0  0
   11.1166   -2.5962    0.0000 C   0  0
   12.1303   -3.6033    0.0000 C   0  0
   10.5351   -3.1815    0.0000 C   0  0
   11.5489   -4.1886    0.0000 C   0  0
    2.2609   -1.5476    0.0000 C   0  0
   10.1698   -4.5630    0.0000 O   0  0
    3.0571   -1.3315    0.0000 C   0  0
    4.2214   -4.4680    0.0000 C   0  0
    0.1491   -3.7264    0.0000 C   0  0
   -2.7502   -3.0616    0.0000 C   0  0
   -4.1769   -3.1410    0.0000 C   0  0
    3.8561   -5.8495    0.0000 C   0  0
    0.9313   -4.9222    0.0000 C   0  0
    7.7771   -3.9302    0.0000 C   0  0
    9.1561   -3.5559    0.0000 C   0  0
    8.8730    0.2142    0.0000 C   0  0
    8.5077   -1.1673    0.0000 C   0  0
    3.6400   -5.0533    0.0000 C   0  0
    0.8854   -4.0985    0.0000 C   0  0
   -3.4865   -2.6894    0.0000 C   0  0
    8.0754    0.4251    0.0000 C   0  0
    7.7101   -0.9564    0.0000 C   0  0
    7.4940   -0.1602    0.0000 C   0  0
  2  1  1  0
  7  3  1  1
  4 11  1  0
 14  5  1  1
  6  5  1  0
  7  1  1  0
  8 15  1  0
  9 13  1  0
 10 30  1  0
 17 11  1  6
 12 41  1  0
 20 13  1  6
 14  4  1  0
 21 15  1  1
 16  3  1  0
 17  8  1  0
 18 10  1  0
 17 19  1  0
 20  6  1  0
 21  2  1  0
 22  9  1  0
 23 59  2  0
 24 58  2  0
 25 57  2  0
 26 27  1  0
 22 27  1  6
 28 31  1  0
 29 19  1  0
 30 16  1  1
 31 18  1  1
 32 23  1  0
 33 24  1  0
 34 25  1  0
 35 47  1  0
 36 46  1  0
 37 48  1  0
 38  2  2  0
 39  3  2  0
 40  4  2  0
 41 26  1  0
 42  6  2  0
 43  8  2  0
 44  9  2  0
 45 10  2  0
 46 12  1  0
 47 12  1  0
 36 56  1  0
 22 49  1  0
 20 50  1  0
 51 28  2  0
 52 26  2  0
 53 29  2  0
 37 54  1  0
 37 55  1  0
 56 35  1  0
 57 81  1  0
 58 82  1  0
 59 80  1  0
 60 23  1  0
 61 24  1  0
 62 25  1  0
 63 28  1  0
 64  1  1  0
 14 65  1  0
 66 29  1  0
 67 49  1  0
 68 73  1  0
 69 50  1  0
 70 67  2  0
 71 67  1  0
 72 70  1  0
 73 71  2  0
  7 74  1  0
 75 68  1  0
 76 64  1  0
 21 77  1  0
 30 78  1  0
 31 79  1  0
 80 89  1  0
 81 87  1  0
 82 88  1  0
 83 65  1  0
 84 65  1  0
 85 69  1  0
 86 69  2  0
 87 77  1  0
 88 78  1  0
 89 79  1  0
 90 85  2  0
 91 86  1  0
 92 91  2  0
 76 74  1  0
 90 92  1  0
 68 72  2  0
 36 55  1  0
 54 35  1  0
 48 12  1  0
M  END