
          11280714592D 1   1.00000     0.00000     0

 17 17  0     0  0            999 V2000
    3.7000   -1.1042    0.0000 S   0  0  3  0  0  0           0  0  0
    3.7000   -4.4042    0.0000 C   0  0  0  0  0  0           0  0  0
    3.7000   -1.9292    0.0000 C   0  0  0  0  0  0           0  0  0
    4.4167   -4.8167    0.0000 N   0  0  0  0  0  0           0  0  0
    4.5250   -1.1042    0.0000 O   0  0  0  0  0  0           0  0  0
    2.8750   -1.1042    0.0000 O   0  0  0  0  0  0           0  0  0
    3.7000   -3.5792    0.0000 C   0  0  0  0  0  0           0  0  0
    5.1292   -6.0542    0.0000 C   0  0  0  0  0  0           0  0  0
    3.7000   -0.2792    0.0000 N   0  0  0  0  0  0           0  0  0
    2.9875   -4.8167    0.0000 O   0  0  0  0  0  0           0  0  0
    5.8417   -5.6417    0.0000 O   0  0  0  0  0  0           0  0  0
    2.9875   -2.3417    0.0000 C   0  0  0  0  0  0           0  0  0
    4.4167   -2.3417    0.0000 C   0  0  0  0  0  0           0  0  0
    4.4167   -3.1667    0.0000 C   0  0  0  0  0  0           0  0  0
    2.9875   -3.1667    0.0000 C   0  0  0  0  0  0           0  0  0
    4.4167   -5.6417    0.0000 C   0  0  0  0  0  0           0  0  0
    5.1292   -6.8875    0.0000 O   0  0  0  0  0  0           0  0  0
  2  7  1  0     0  0
  3  1  1  0     0  0
  4  2  1  0     0  0
  5  1  2  0     0  0
  6  1  2  0     0  0
  7 14  2  0     0  0
  8 16  1  0     0  0
  9  1  1  0     0  0
 10  2  2  0     0  0
 11  8  2  0     0  0
 12  3  1  0     0  0
 13  3  2  0     0  0
 14 13  1  0     0  0
 15 12  2  0     0  0
 16  4  1  0     0  0
 17  8  1  0     0  0
 15  7  1  0     0  0
M  END