
  SciTegic01161211242D

 22 23  0  0  0  0            999 V2000
    6.1159   -9.9171    0.0000 C   0  0
    6.1141  -10.7398    0.0000 C   0  0
    6.8246  -11.1510    0.0000 C   0  0
    7.5374  -10.7405    0.0000 C   0  0
    7.5352   -9.9146    0.0000 C   0  0
    6.8241   -9.5072    0.0000 C   0  0
    8.2484   -9.5000    0.0000 C   0  0
    8.9641   -9.9104    0.0000 C   0  0
    9.6774   -9.4958    0.0000 C   0  0
   10.3879   -9.9091    0.0000 C   0  0
   11.1006   -9.4952    0.0000 C   0  0
   11.0986   -8.6693    0.0000 C   0  0
   10.3779   -8.2591    0.0000 C   0  0
    9.6681   -8.6754    0.0000 C   0  0
   11.8110   -8.2521    0.0000 C   0  0
    8.2521  -11.1525    0.0000 C   0  0
    6.4042   -8.7875    0.0000 C   0  0
    7.2292   -8.7875    0.0000 C   0  0
   12.5280   -8.6602    0.0000 C   0  0
   13.2399   -8.2433    0.0000 C   0  0
   13.9582   -8.6502    0.0000 O   0  0
   13.2361   -7.4171    0.0000 O   0  0
 10 11  1  0
  5  6  1  0
 11 12  2  0
  6  1  1  0
 12 13  1  0
  1  2  1  0
 13 14  2  0
 14  9  1  0
  5  7  1  0
 12 15  1  0
  3  4  1  0
  4 16  1  0
  7  8  2  0
  6 17  1  0
  6 18  1  0
  8  9  1  0
 15 19  2  0
  4  5  2  0
 19 20  1  0
  9 10  2  0
  2  3  1  0
 20 21  1  0
 20 22  2  0
M  END