
  SciTegic05281317142D

 50 55  0  0  0  0            999 V2000
   -3.9208  -18.5747    0.0000 C   0  0
   -5.2175  -19.3233    0.0000 C   0  0
   -6.5232  -18.5590    0.0000 C   0  0
   -3.9297  -17.0618    0.0000 O   0  0
   -5.2263  -16.3133    0.0000 C   0  0
   -6.5230  -17.0619    0.0000 C   0  0
   -7.8195  -16.3134    0.0000 C   0  0
   -7.8193  -14.8164    0.0000 C   0  0
   -6.5226  -14.0674    0.0000 C   0  0
   -5.2261  -14.8163    0.0000 C   0  0
   -2.8798  -19.1716    0.0000 O   0  0
   -7.5642  -19.1558    0.0000 C   0  0
   -6.5195  -12.5666    0.0000 N   0  0
   -5.2187  -11.8181    0.0000 C   0  0
   -5.2156  -10.3172    0.0000 C   0  0  2  0  0  0
   -4.1805  -12.4199    0.0000 O   0  0
   -3.9148   -9.5687    0.0000 N   0  0
   -6.5156   -9.5672    0.0000 C   0  0
   -7.8156  -10.3172    0.0000 C   0  0
   -9.1156   -9.5672    0.0000 C   0  0
  -10.4156  -10.3172    0.0000 C   0  0
  -11.4550   -9.7176    0.0000 N   0  0
   -3.9117   -8.0679    0.0000 C   0  0
   -2.6109   -7.3193    0.0000 C   0  0  2  0  0  0
   -4.9499   -7.4661    0.0000 O   0  0
   -1.3109   -8.0693    0.0000 C   0  0
   -1.3095   -9.5701    0.0000 C   0  0
   -0.0113  -10.3216    0.0000 C   0  0
   -0.0129  -11.8216    0.0000 C   0  0
   -1.3128  -12.5702    0.0000 C   0  0
   -2.6110  -11.8188    0.0000 C   0  0
   -2.6094  -10.3188    0.0000 C   0  0
   -2.6078   -5.8185    0.0000 N   0  0
   -1.3070   -5.0699    0.0000 C   0  0
   -0.2688   -5.6717    0.0000 O   0  0
   -1.3039   -3.5691    0.0000 O   0  0
   -0.0031   -2.8205    0.0000 C   0  0
    0.0000   -1.3190    0.0000 C   0  0
   -1.2274   -0.6045    0.0000 C   0  0
   -1.2274    0.8244    0.0000 C   0  0
   -2.4915    1.5389    0.0000 C   0  0
   -3.7006    0.8244    0.0000 C   0  0
   -3.7006   -0.6045    0.0000 C   0  0
   -2.4915   -1.3190    0.0000 C   0  0
    1.2274    0.8244    0.0000 C   0  0
    1.2274   -0.6045    0.0000 C   0  0
    2.4732   -1.3190    0.0000 C   0  0
    3.7372   -0.6045    0.0000 C   0  0
    3.7372    0.8244    0.0000 C   0  0
    2.4732    1.5389    0.0000 C   0  0
 23 25  2  0
  3 12  1  0
 24 26  1  1
  1  2  1  0
 26 27  1  0
 27 28  1  0
  9 13  1  0
  1  4  1  0
 13 14  1  0
  2  3  2  0
 14 15  1  0
 27 32  1  0
 28 29  1  0
 29 30  1  0
 30 31  1  0
 31 32  1  0
  3  6  1  0
 24 33  1  0
 14 16  2  0
 33 34  1  0
  5  4  1  0
 34 35  2  0
 15 17  1  0
 34 36  1  0
  5 10  1  0
 36 37  1  0
 15 18  1  1
 37 38  1  0
 38 46  1  0
 45 40  1  0
 39 38  1  0
  6  7  1  0
 18 19  1  0
 39 40  2  0
  7  8  2  0
 40 41  1  0
 19 20  1  0
 41 42  2  0
  8  9  1  0
 42 43  1  0
 20 21  1  0
 43 44  2  0
 44 39  1  0
  9 10  2  0
 21 22  1  0
 45 46  2  0
  5  6  2  0
 46 47  1  0
 17 23  1  0
 47 48  2  0
  1 11  2  0
 48 49  1  0
 23 24  1  0
 49 50  2  0
 50 45  1  0
M  END