
  Mrv0541 05211314572D          

 18 20  0  0  0  0            999 V2000
    2.1871   -0.6661    0.0000 N   0  0  0  0  0  0  0  0  0  0  0  0
    2.1871   -1.4911    0.0000 C   0  0  0  0  0  0  0  0  0  0  0  0
    1.4727   -1.9036    0.0000 C   0  0  0  0  0  0  0  0  0  0  0  0
    1.4727   -0.2536    0.0000 C   0  0  0  0  0  0  0  0  0  0  0  0
    0.7582   -0.6661    0.0000 C   0  0  0  0  0  0  0  0  0  0  0  0
    0.7582   -1.4911    0.0000 C   0  0  0  0  0  0  0  0  0  0  0  0
   -0.0264   -1.7460    0.0000 N   0  0  0  0  0  0  0  0  0  0  0  0
   -0.5113   -1.0786    0.0000 C   0  0  0  0  0  0  0  0  0  0  0  0
   -0.0264   -0.4112    0.0000 N   0  0  0  0  0  0  0  0  0  0  0  0
   -1.3363   -1.0786    0.0000 N   0  0  0  0  0  0  0  0  0  0  0  0
   -1.7488   -1.7931    0.0000 C   0  0  0  0  0  0  0  0  0  0  0  0
   -2.5738   -1.7931    0.0000 C   0  0  0  0  0  0  0  0  0  0  0  0
   -2.9863   -1.0786    0.0000 N   0  0  0  0  0  0  0  0  0  0  0  0
   -2.5738   -0.3641    0.0000 C   0  0  0  0  0  0  0  0  0  0  0  0
   -1.7488   -0.3641    0.0000 C   0  0  0  0  0  0  0  0  0  0  0  0
   -3.8113   -1.0786    0.0000 C   0  0  0  0  0  0  0  0  0  0  0  0
   -4.2238   -0.3641    0.0000 C   0  0  0  0  0  0  0  0  0  0  0  0
   -5.0488   -0.3641    0.0000 C   0  0  0  0  0  0  0  0  0  0  0  0
  8  9  2  0  0  0  0
  9  5  1  0  0  0  0
  4  1  1  0  0  0  0
  8 10  1  0  0  0  0
 10 11  1  0  0  0  0
  5  6  1  0  0  0  0
  2  3  1  0  0  0  0
  3  6  2  0  0  0  0
  1  2  2  0  0  0  0
 10 15  1  0  0  0  0
 11 12  1  0  0  0  0
 12 13  1  0  0  0  0
 13 14  1  0  0  0  0
 14 15  1  0  0  0  0
  5  4  2  0  0  0  0
 13 16  1  0  0  0  0
  6  7  1  0  0  0  0
 16 17  1  0  0  0  0
  7  8  1  0  0  0  0
 17 18  1  0  0  0  0
M  END