
  CDK    9/16/09,10:8

 12 13  0  0  0  0  0  0  0  0999 V2000
    1.5937  -15.8688    0.0000 C   0  0  0  0  0  0  0  0  0  0  0  0
    1.5926  -16.6916    0.0000 C   0  0  0  0  0  0  0  0  0  0  0  0
    2.3034  -17.1021    0.0000 N   0  0  0  0  0  0  0  0  0  0  0  0
    2.3016  -15.4584    0.0000 C   0  0  0  0  0  0  0  0  0  0  0  0
    3.0130  -15.8653    0.0000 C   0  0  0  0  0  0  0  0  0  0  0  0
    3.0118  -16.6936    0.0000 C   0  0  0  0  0  0  0  0  0  0  0  0
    3.7247  -17.1066    0.0000 N   0  0  0  0  0  0  0  0  0  0  0  0
    4.4433  -16.6957    0.0000 C   0  0  0  0  0  0  0  0  0  0  0  0
    4.4444  -15.8672    0.0000 C   0  0  0  0  0  0  0  0  0  0  0  0
    3.7271  -15.4498    0.0000 C   0  0  0  0  0  0  0  0  0  0  0  0
    5.1559  -15.4588    0.0000 O   0  0  0  0  0  0  0  0  0  0  0  0
    5.1526  -17.1079    0.0000 O   0  0  0  0  0  0  0  0  0  0  0  0
  2  3  1  0  0  0  0 
  3  6  2  0  0  0  0 
  1  2  2  0  0  0  0 
  5  4  2  0  0  0  0 
  4  1  1  0  0  0  0 
  5 10  1  0  0  0  0 
  6  7  1  0  0  0  0 
  7  8  1  0  0  0  0 
  8  9  1  0  0  0  0 
  9 10  2  0  0  0  0 
  5  6  1  0  0  0  0 
  9 11  1  0  0  0  0 
  8 12  2  0  0  0  0 
M  END