
          11280715382D 1   1.00000     0.00000     0

 30 32  0     1  0            999 V2000
    4.0875   -7.3667    0.0000 N   0  0  3  0  0  0           0  0  0
    4.8875   -7.2375    0.0000 C   0  0  0  0  0  0           0  0  0
    3.5875   -6.0542    0.0000 C   0  0  0  0  0  0           0  0  0
    3.5917   -6.8792    0.0000 C   0  0  0  0  0  0           0  0  0
    2.8625   -4.8125    0.0000 C   0  0  3  0  0  0           0  0  0
    5.2667   -6.4792    0.0000 C   0  0  1  0  0  0           0  0  0
    4.9042   -5.7042    0.0000 C   0  0  1  0  0  0           0  0  0
    2.8667   -5.6417    0.0000 C   0  0  0  0  0  0           0  0  0
    4.1042   -5.5542    0.0000 C   0  0  0  0  0  0           0  0  0
    3.8375   -8.1542    0.0000 C   0  0  0  0  0  0           0  0  0
    5.4042   -5.0500    0.0000 C   0  0  0  0  0  0           0  0  0
    5.3750   -7.9000    0.0000 O   0  0  0  0  0  0           0  0  0
    2.8625   -4.0625    0.0000 F   0  0  0  0  0  0           0  0  0
    3.5292   -4.2667    0.0000 F   0  0  0  0  0  0           0  0  0
    2.1917   -4.2667    0.0000 F   0  0  0  0  0  0           0  0  0
    6.2250   -5.1667    0.0000 C   0  0  0  0  0  0           0  0  0
    5.0917   -4.2917    0.0000 C   0  0  0  0  0  0           0  0  0
    3.0292   -8.3375    0.0000 C   0  0  0  0  0  0           0  0  0
    2.7792   -9.1167    0.0000 N   0  0  3  0  0  0           0  0  0
    6.4167   -3.7500    0.0000 C   0  0  0  0  0  0           0  0  0
    6.9167   -3.0917    0.0000 S   0  0  0  0  0  0           0  0  0
    2.8667   -7.2917    0.0000 C   0  0  0  0  0  0           0  0  0
    6.7292   -4.5042    0.0000 C   0  0  0  0  0  0           0  0  0
    5.5917   -3.6417    0.0000 C   0  0  0  0  0  0           0  0  0
    2.1542   -6.0542    0.0000 C   0  0  0  0  0  0           0  0  0
    6.0917   -6.4917    0.0000 C   0  0  0  0  0  0           0  0  0
    2.1542   -6.8792    0.0000 C   0  0  0  0  0  0           0  0  0
    3.3417   -9.7292    0.0000 C   0  0  0  0  0  0           0  0  0
    1.9792   -9.3000    0.0000 C   0  0  0  0  0  0           0  0  0
    7.7375   -3.2042    0.0000 C   0  0  0  0  0  0           0  0  0
  2  1  1  0     0  0
  3  4  1  0     0  0
  4  1  1  0     0  0
  5  8  1  0     0  0
  6  2  1  0     0  0
  7  6  1  0     0  0
  8  3  2  0     0  0
  9  3  1  0     0  0
 10  1  1  0     0  0
  7 11  1  1     0  0
 12  2  2  0     0  0
 13  5  1  0     0  0
 14  5  1  0     0  0
 15  5  1  0     0  0
 16 11  2  0     0  0
 17 11  1  0     0  0
 18 10  1  0     0  0
 19 18  1  0     0  0
 20 24  1  0     0  0
 21 20  1  0     0  0
 22  4  2  0     0  0
 23 16  1  0     0  0
 24 17  2  0     0  0
 25 27  2  0     0  0
  6 26  1  1     0  0
 27 22  1  0     0  0
 28 19  1  0     0  0
 29 19  1  0     0  0
 30 21  1  0     0  0
  7  9  1  0     0  0
  8 25  1  0     0  0
 23 20  2  0     0  0
M  END