
          11280715502D 1   1.00000     0.00000     0

 40 43  0     1  0            999 V2000
   -3.7857   -9.6845    0.0000 C   0  0  0  0  0  0           0  0  0
   -3.3659  -10.3975    0.0000 C   0  0  0  0  0  0           0  0  0
   -2.5405  -10.3895    0.0000 C   0  0  0  0  0  0           0  0  0
   -2.1338   -9.6693    0.0000 C   0  0  0  0  0  0           0  0  0
   -2.5586   -8.9556    0.0000 C   0  0  0  0  0  0           0  0  0
   -3.3826   -8.9671    0.0000 C   0  0  0  0  0  0           0  0  0
   -2.1559   -8.2356    0.0000 C   0  0  0  0  0  0           0  0  0
   -1.3310   -8.2243    0.0000 N   0  0  3  0  0  0           0  0  0
   -2.5781   -7.5268    0.0000 O   0  0  0  0  0  0           0  0  0
   -0.9101   -8.9359    0.0000 C   0  0  1  0  0  0           0  0  0
   -0.0887   -8.9267    0.0000 C   0  0  0  0  0  0           0  0  0
    0.3178   -8.2084    0.0000 N   0  0  3  0  0  0           0  0  0
   -0.1032   -7.4978    0.0000 C   0  0  0  0  0  0           0  0  0
   -0.9308   -7.5054    0.0000 C   0  0  0  0  0  0           0  0  0
   -1.3148   -9.6548    0.0000 C   0  0  0  0  0  0           0  0  0
   -0.9029  -10.3677    0.0000 C   0  0  0  0  0  0           0  0  0
   -1.2333  -11.1217    0.0000 C   0  0  0  0  0  0           0  0  0
   -0.6213  -11.6724    0.0000 N   0  0  0  0  0  0           0  0  0
   -0.0799  -10.4553    0.0000 C   0  0  0  0  0  0           0  0  0
    0.0906  -11.2593    0.0000 C   0  0  0  0  0  0           0  0  0
    0.8708  -11.5121    0.0000 C   0  0  0  0  0  0           0  0  0
    1.4810  -10.9618    0.0000 C   0  0  0  0  0  0           0  0  0
    1.3059  -10.1555    0.0000 C   0  0  0  0  0  0           0  0  0
    0.5260   -9.9065    0.0000 C   0  0  0  0  0  0           0  0  0
   -2.1292  -11.1016    0.0000 C   0  0  3  0  0  0           0  0  0
   -1.4189  -10.6821    0.0000 F   0  0  0  0  0  0           0  0  0
   -1.7133  -11.8141    0.0000 F   0  0  0  0  0  0           0  0  0
   -2.8417  -11.5176    0.0000 F   0  0  0  0  0  0           0  0  0
   -4.6106   -9.6929    0.0000 C   0  0  3  0  0  0           0  0  0
   -4.6077  -10.5185    0.0000 F   0  0  0  0  0  0           0  0  0
   -4.6241   -8.8684    0.0000 F   0  0  0  0  0  0           0  0  0
   -5.4381   -9.7024    0.0000 F   0  0  0  0  0  0           0  0  0
    1.1428   -8.2003    0.0000 C   0  0  0  0  0  0           0  0  0
    1.5482   -7.4818    0.0000 C   0  0  0  0  0  0           0  0  0
    2.3732   -7.4736    0.0000 N   0  0  0  0  0  0           0  0  0
    1.1287   -6.7714    0.0000 C   0  0  0  0  0  0           0  0  0
    2.7927   -8.1840    0.0000 O   0  0  0  0  0  0           0  0  0
    3.6177   -8.1759    0.0000 C   0  0  0  0  0  0           0  0  0
    4.0372   -8.8862    0.0000 C   0  0  0  0  0  0           0  0  0
    4.8622   -8.8781    0.0000 N   0  0  0  0  0  0           0  0  0
  7  9  2  0     0  0
  8 10  1  0     0  0
 19 20  2  0     0  0
  4  5  1  0     0  0
 20 21  1  0     0  0
  2  3  1  0     0  0
 21 22  2  0     0  0
  5  6  2  0     0  0
 22 23  1  0     0  0
  6  1  1  0     0  0
 23 24  2  0     0  0
 24 19  1  0     0  0
  1  2  2  0     0  0
  3 25  1  0     0  0
  8 14  1  0     0  0
 25 26  1  0     0  0
 10 11  1  0     0  0
 25 27  1  0     0  0
 11 12  1  0     0  0
 25 28  1  0     0  0
 12 13  1  0     0  0
  1 29  1  0     0  0
 13 14  1  0     0  0
 29 30  1  0     0  0
  5  7  1  0     0  0
 29 31  1  0     0  0
 10 15  1  1     0  0
 29 32  1  0     0  0
  3  4  2  0     0  0
 12 33  1  0     0  0
 15 16  1  0     0  0
 33 34  1  0     0  0
 16 17  2  0     0  0
 34 35  2  0     0  0
  7  8  1  0     0  0
 34 36  1  0     0  0
 35 37  1  0     0  0
 17 18  1  0     0  0
 37 38  1  0     0  0
 18 20  1  0     0  0
 38 39  1  0     0  0
 19 16  1  0     0  0
 39 40  1  0     0  0
M  END