
  SciTegic12231509382D

 23 24  0  0  0  0            999 V2000
   18.7257    0.7196    0.0000 C   0  0
   19.4427    1.1382    0.0000 C   0  0
   18.0120    1.1388    0.0000 C   0  0
   17.2991    0.7203    0.0000 C   0  0
   22.3381    1.0750    0.0000 N   0  0
   20.1564    0.7273    0.0000 N   0  0
   18.7348   -0.0973    0.0000 C   0  0
   21.5830    0.7307    0.0000 C   0  0  2  0  0  0
   19.4376    1.9634    0.0000 O   0  0
   20.8733    1.1457    0.0000 C   0  0
   17.3042   -0.1049    0.0000 C   0  0
   18.0262   -0.5115    0.0000 C   0  0
   22.8923    0.4591    0.0000 C   0  0
   19.4526   -0.5040    0.0000 O   0  0
   22.5075    1.8815    0.0000 C   0  0
   22.4856   -0.2546    0.0000 C   0  0
   21.6792   -0.0894    0.0000 C   0  0
   19.4619   -1.3291    0.0000 C   0  0
   23.2926    2.1390    0.0000 C   0  0
   18.0120    1.9599    0.0000 O   0  0
   16.5853    1.1260    0.0000 C   0  0
   15.8770    0.7108    0.0000 C   0  0
   18.0328   -1.3326    0.0000 Cl  0  0
  8  5  1  0
  6  2  1  0
  7 12  2  0
  8 10  1  1
  9  2  2  0
 10  6  1  0
 11  4  2  0
 12 11  1  0
 13  5  1  0
 14  7  1  0
 15  5  1  0
 16 17  1  0
  8 17  1  0
 18 14  1  0
 19 15  1  0
  1  7  1  0
 13 16  1  0
  3 20  1  0
  1  3  2  0
  4 21  1  0
  2  1  1  0
 21 22  1  0
  3  4  1  0
 12 23  1  0
M  END