
          11280715262D 1   1.00000     0.00000     0

 14 15  0     0  0            999 V2000
    4.4125   -6.7167    0.0000 C   0  0  0  0  0  0           0  0  0
    4.5667   -6.1417    0.0000 C   0  0  0  0  0  0           0  0  0
    3.8292   -6.8750    0.0000 C   0  0  0  0  0  0           0  0  0
    4.8292   -7.1417    0.0000 C   0  0  0  0  0  0           0  0  0
    3.4125   -6.4500    0.0000 O   0  0  0  0  0  0           0  0  0
    4.1417   -5.7250    0.0000 C   0  0  0  0  0  0           0  0  0
    3.6792   -7.4500    0.0000 C   0  0  0  0  0  0           0  0  0
    4.6792   -7.7125    0.0000 C   0  0  0  0  0  0           0  0  0
    3.5667   -5.8792    0.0000 C   0  0  0  0  0  0           0  0  0
    4.1042   -7.8667    0.0000 C   0  0  0  0  0  0           0  0  0
    5.3042   -5.4042    0.0000 N   0  0  0  0  0  0           0  0  0
    5.1500   -5.9875    0.0000 C   0  0  0  0  0  0           0  0  0
    5.1917   -8.0125    0.0000 O   0  0  0  0  0  0           0  0  0
    5.1917   -8.6125    0.0000 C   0  0  0  0  0  0           0  0  0
  2  1  1  0     0  0
  3  1  2  0     0  0
  4  1  1  0     0  0
  5  3  1  0     0  0
  6  2  2  0     0  0
  7  3  1  0     0  0
  8  4  2  0     0  0
  9  5  1  0     0  0
 10  8  1  0     0  0
 11 12  1  0     0  0
 12  2  1  0     0  0
 13  8  1  0     0  0
 14 13  1  0     0  0
  7 10  2  0     0  0
  6  9  1  0     0  0
M  END