
          11280714572D 1   1.00000     0.00000     0

 31 34  0     0  0            999 V2000
    0.7542   -3.8917    0.0000 C   0  0  0  0  0  0           0  0  0
    1.4292   -4.3792    0.0000 C   0  0  0  0  0  0           0  0  0
    2.0917   -3.8792    0.0000 N   0  0  0  0  0  0           0  0  0
    5.3375   -7.2125    0.0000 C   0  0  0  0  0  0           0  0  0
    4.3500   -8.1125    0.0000 N   0  0  0  0  0  0           0  0  0
    4.5167   -7.3042    0.0000 N   0  0  0  0  0  0           0  0  0
    5.0667   -8.5167    0.0000 N   0  0  0  0  0  0           0  0  0
    1.8292   -3.1000    0.0000 N   0  0  3  0  0  0           0  0  0
    1.0042   -3.1042    0.0000 C   0  0  0  0  0  0           0  0  0
    5.6750   -7.9625    0.0000 N   0  0  0  0  0  0           0  0  0
    1.4375   -5.2042    0.0000 N   0  0  3  0  0  0           0  0  0
   -0.0250   -4.1500    0.0000 C   0  0  0  0  0  0           0  0  0
    5.7417   -6.4917    0.0000 C   0  0  0  0  0  0           0  0  0
    5.3167   -5.7792    0.0000 C   0  0  0  0  0  0           0  0  0
    4.5000   -5.7792    0.0000 C   0  0  0  0  0  0           0  0  0
    2.0250   -5.7917    0.0000 C   0  0  0  0  0  0           0  0  0
   -0.1958   -4.9542    0.0000 O   0  0  0  0  0  0           0  0  0
    4.0875   -5.0667    0.0000 C   0  0  0  0  0  0           0  0  0
    4.0917   -6.4917    0.0000 C   0  0  0  0  0  0           0  0  0
    2.8500   -5.7875    0.0000 C   0  0  0  0  0  0           0  0  0
   -0.6458   -3.6000    0.0000 O   0  0  0  0  0  0           0  0  0
    3.2625   -5.0667    0.0000 C   0  0  0  0  0  0           0  0  0
    3.2667   -6.5042    0.0000 C   0  0  0  0  0  0           0  0  0
    2.5417   -2.6792    0.0000 C   0  0  0  0  0  0           0  0  0
    0.6750   -5.5167    0.0000 C   0  0  0  0  0  0           0  0  0
    6.5667   -6.4875    0.0000 C   0  0  0  0  0  0           0  0  0
    5.7292   -5.0542    0.0000 C   0  0  0  0  0  0           0  0  0
    0.5667   -6.3375    0.0000 C   0  0  0  0  0  0           0  0  0
    6.9750   -5.7750    0.0000 C   0  0  0  0  0  0           0  0  0
    6.5542   -5.0542    0.0000 C   0  0  0  0  0  0           0  0  0
   -0.1958   -6.6542    0.0000 C   0  0  0  0  0  0           0  0  0
  2  1  1  0     0  0
  3  2  2  0     0  0
  4 13  1  0     0  0
  5  6  2  0     0  0
  6  4  1  0     0  0
  7 10  1  0     0  0
  8  9  1  0     0  0
  9  1  2  0     0  0
 10  4  2  0     0  0
 11  2  1  0     0  0
 12  1  1  0     0  0
 13 14  2  0     0  0
 14 15  1  0     0  0
 15 19  2  0     0  0
 16 11  1  0     0  0
 17 12  2  0     0  0
 18 22  2  0     0  0
 19 23  1  0     0  0
 20 16  1  0     0  0
 21 12  1  0     0  0
 22 20  1  0     0  0
 23 20  2  0     0  0
 24  8  1  0     0  0
 25 11  1  0     0  0
 26 13  1  0     0  0
 27 14  1  0     0  0
 28 25  1  0     0  0
 29 30  1  0     0  0
 30 27  2  0     0  0
 31 28  1  0     0  0
  8  3  1  0     0  0
 18 15  1  0     0  0
 29 26  2  0     0  0
  7  5  1  0     0  0
M  END