
          11280715182D 1   1.00000     0.00000     0

 15 16  0     0  0            999 V2000
    7.7542   -6.1667    0.0000 C   0  0  0  0  0  0           0  0  0
    7.1542   -6.1792    0.0000 C   0  0  0  0  0  0           0  0  0
    5.9542   -6.2042    0.0000 C   0  0  0  0  0  0           0  0  0
    8.0417   -5.6417    0.0000 O   0  0  0  0  0  0           0  0  0
    6.8625   -6.7042    0.0000 C   0  0  0  0  0  0           0  0  0
    6.8417   -5.6667    0.0000 C   0  0  0  0  0  0           0  0  0
    6.2667   -6.7167    0.0000 C   0  0  0  0  0  0           0  0  0
    6.2417   -5.6750    0.0000 C   0  0  0  0  0  0           0  0  0
    5.3542   -6.2167    0.0000 C   0  0  0  0  0  0           0  0  0
    8.0625   -6.6792    0.0000 O   0  0  0  0  0  0           0  0  0
    5.0500   -5.7042    0.0000 C   0  0  0  0  0  0           0  0  0
    5.0667   -6.7417    0.0000 C   0  0  0  0  0  0           0  0  0
    4.4667   -6.7542    0.0000 C   0  0  0  0  0  0           0  0  0
    4.4500   -5.7167    0.0000 C   0  0  0  0  0  0           0  0  0
    4.1542   -6.2375    0.0000 C   0  0  0  0  0  0           0  0  0
  2  1  1  0     0  0
  3  8  1  0     0  0
  4  1  2  0     0  0
  5  2  2  0     0  0
  6  2  1  0     0  0
  7  5  1  0     0  0
  8  6  2  0     0  0
  9  3  1  0     0  0
 10  1  1  0     0  0
 11  9  1  0     0  0
 12  9  2  0     0  0
 13 12  1  0     0  0
 14 11  2  0     0  0
 15 13  2  0     0  0
  3  7  2  0     0  0
 14 15  1  0     0  0
M  END