
  SciTegic01161211252D

 44 48  0  0  0  0            999 V2000
    4.9850   -7.5216    0.0000 C   0  0
    5.6421   -7.0192    0.0000 N   0  0
    5.5353   -6.2012    0.0000 C   0  0
    4.2245   -7.2080    0.0000 N   0  0
    4.1146   -6.3916    0.0000 C   0  0
    4.7710   -5.8825    0.0000 C   0  0
    4.4897   -5.1009    0.0000 N   0  0
    3.6594   -5.1270    0.0000 C   0  0
    3.4277   -5.9246    0.0000 N   0  0
    6.1905   -5.6999    0.0000 N   0  0
    2.6514   -6.2040    0.0000 C   0  0  2  0  0  0
    1.9725   -5.7371    0.0000 O   0  0
    1.3206   -6.2427    0.0000 C   0  0  1  0  0  0
    1.5999   -7.0190    0.0000 C   0  0  2  0  0  0
    2.4245   -6.9930    0.0000 C   0  0  1  0  0  0
    2.9310   -7.6442    0.0000 O   0  0
    1.1362   -7.7013    0.0000 O   0  0
    0.5283   -6.0124    0.0000 C   0  0
    0.3316   -5.2113    0.0000 O   0  0
   -0.4605   -4.9811    0.0000 P   0  0
   -0.1452   -4.2252    0.0000 O   0  0
   -0.7768   -5.7488    0.0000 O   0  0
   -1.2494   -4.7398    0.0000 O   0  0
   -0.6458   -3.5695    0.0000 P   0  0
    0.0123   -3.0748    0.0000 O   0  0
   -1.2971   -4.0786    0.0000 O   0  0
   -1.1466   -2.9188    0.0000 O   0  0
   -0.8321   -2.1562    0.0000 C   0  0
   -1.3353   -1.5024    0.0000 C   0  0
   -1.1025   -0.7129    0.0000 O   0  0
   -1.7831   -0.2466    0.0000 C   0  0
   -2.4368   -0.7498    0.0000 C   0  0  2  0  0  0
   -2.1602   -1.5270    0.0000 C   0  0  1  0  0  0
   -2.6256   -2.2081    0.0000 O   0  0
   -3.2282   -0.5168    0.0000 O   0  0
   -1.8059    0.5780    0.0000 N   0  0
   -1.0994    1.0106    0.0000 C   0  0
   -1.1202    1.8317    0.0000 C   0  0
   -1.8440    2.2282    0.0000 C   0  0
   -2.5487    1.7972    0.0000 C   0  0
   -2.5294    0.9699    0.0000 C   0  0
   -3.2729    2.1922    0.0000 C   0  0
   -3.2930    3.0170    0.0000 O   0  0
   -3.9771    1.7625    0.0000 N   0  0
 20 21  1  0
  3 10  1  0
 20 22  1  0
  5  6  2  0
 20 23  2  0
 11  9  1  1
 21 24  1  0
 11 12  1  0
 24 25  2  0
 24 26  1  0
  2  3  2  0
 24 27  1  0
  3  6  1  0
 27 28  1  0
  1  2  1  0
 28 29  1  0
 29 30  1  0
 12 13  1  0
 13 14  1  0
 14 15  1  0
 15 11  1  0
 30 31  1  0
 31 32  1  0
 32 33  1  0
 33 29  1  0
  5  4  1  0
 33 34  1  6
 15 16  1  6
 32 35  1  6
  6  7  1  0
 31 36  1  0
 36 37  1  0
 14 17  1  6
  7  8  2  0
 13 18  1  1
  8  9  1  0
 18 19  1  0
 36 41  1  0
 37 38  2  0
 38 39  1  0
 39 40  1  0
 40 41  2  0
  9  5  1  0
 40 42  1  0
 19 20  1  0
 42 43  2  0
  4  1  2  0
 42 44  1  0
M  END