
  CDK    9/16/09,10:0

 23 24  0  0  0  0  0  0  0  0999 V2000
    8.7386   -9.6614    0.0000 C   0  0  0  0  0  0  0  0  0  0  0  0
    8.7373  -10.4890    0.0000 C   0  0  0  0  0  0  0  0  0  0  0  0
    9.4503  -10.9019    0.0000 C   0  0  0  0  0  0  0  0  0  0  0  0
   10.1696  -10.4885    0.0000 C   0  0  0  0  0  0  0  0  0  0  0  0
   10.1665   -9.6575    0.0000 C   0  0  0  0  0  0  0  0  0  0  0  0
    9.4483   -9.2486    0.0000 C   0  0  0  0  0  0  0  0  0  0  0  0
   10.8789   -9.2413    0.0000 C   0  0  0  0  0  0  0  0  0  0  0  0
   11.5954   -9.6503    0.0000 C   0  0  0  0  0  0  0  0  0  0  0  0
   10.8748   -8.4165    0.0000 N   0  0  0  0  0  0  0  0  0  0  0  0
   11.6883  -10.4702    0.0000 C   0  0  0  0  0  0  0  0  0  0  0  0
   12.4962  -10.6378    0.0000 N   0  0  0  0  0  0  0  0  0  0  0  0
   12.9051   -9.9212    0.0000 C   0  0  0  0  0  0  0  0  0  0  0  0
   12.3500   -9.3110    0.0000 N   0  0  0  0  0  0  0  0  0  0  0  0
    8.0223  -10.9004    0.0000 Cl  0  0  0  0  0  0  0  0  0  0  0  0
   12.5179   -8.5033    0.0000 C   0  0  0  0  0  0  0  0  0  0  0  0
   13.7295   -9.9404    0.0000 S   0  0  0  0  0  0  0  0  0  0  0  0
   14.1256  -10.6640    0.0000 C   0  0  0  0  0  0  0  0  0  0  0  0
   14.9503  -10.6829    0.0000 C   0  0  0  0  0  0  0  0  0  0  0  0
   15.3464  -11.4065    0.0000 C   0  0  0  0  0  0  0  0  0  0  0  0
   16.1712  -11.4253    0.0000 N   0  0  0  0  0  0  0  0  0  0  0  0
   16.5673  -12.1490    0.0000 C   0  0  0  0  0  0  0  0  0  0  0  0
   16.5998  -10.7205    0.0000 C   0  0  0  0  0  0  0  0  0  0  0  0
   11.5873   -8.0003    0.0000 O   0  0  0  0  0  0  0  0  0  0  0  0
  6  1  1  0  0  0  0 
 10 11  1  0  0  0  0 
 11 12  2  0  0  0  0 
 12 13  1  0  0  0  0 
 13  8  1  0  0  0  0 
  1  2  2  0  0  0  0 
  2 14  1  0  0  0  0 
  5  7  1  0  0  0  0 
 13 15  1  0  0  0  0 
  3  4  2  0  0  0  0 
 12 16  1  0  0  0  0 
  7  8  1  0  0  0  0 
 16 17  1  0  0  0  0 
 17 18  1  0  0  0  0 
  7  9  2  0  0  0  0 
 18 19  1  0  0  0  0 
  8 10  2  0  0  0  0 
 19 20  1  0  0  0  0 
  4  5  1  0  0  0  0 
 20 21  1  0  0  0  0 
  2  3  1  0  0  0  0 
 20 22  1  0  0  0  0 
  5  6  2  0  0  0  0 
  9 23  1  0  0  0  0 
M  END