
  SciTegic09261414532D

 47 54  0  0  0  0            999 V2000
    8.0314  -26.7762    0.0000 N   0  0
    7.2457  -26.9836    0.0000 C   0  0
    7.2011  -27.7996    0.0000 N   0  0
    8.4786  -27.4589    0.0000 C   0  0
    7.9634  -28.0888    0.0000 C   0  0
    8.2516  -28.8478    0.0000 C   0  0
    9.0545  -28.9781    0.0000 C   0  0
    9.5686  -28.3434    0.0000 C   0  0
    9.2777  -27.5869    0.0000 C   0  0
    6.4856  -26.6886    0.0000 C   0  0
    6.3640  -25.8794    0.0000 C   0  0
    5.6037  -25.5818    0.0000 C   0  0
    4.9645  -26.0923    0.0000 C   0  0
    5.0905  -26.9040    0.0000 C   0  0
    5.8508  -27.1979    0.0000 C   0  0
    0.7662  -24.2020    0.0000 C   0  0
    0.7651  -25.0216    0.0000 C   0  0
    1.4731  -25.4305    0.0000 C   0  0
    1.4714  -23.7932    0.0000 C   0  0
    2.1800  -24.1984    0.0000 C   0  0
    2.1802  -25.0216    0.0000 C   0  0
    2.9632  -25.2758    0.0000 N   0  0
    3.4469  -24.6096    0.0000 C   0  0
    2.9628  -23.9439    0.0000 N   0  0
    3.2159  -26.0529    0.0000 C   0  0
    4.2609  -24.6079    0.0000 N   0  0
    4.6691  -25.3171    0.0000 C   0  0
    5.4855  -25.3172    0.0000 C   0  0
    5.8947  -24.6088    0.0000 C   0  0
    5.4815  -23.8989    0.0000 C   0  0
    4.6664  -23.9023    0.0000 C   0  0
    6.7119  -24.6074    0.0000 C   0  0
    7.1217  -25.3145    0.0000 N   0  0
    7.9389  -25.3131    0.0000 C   0  0
    2.6693  -26.6603    0.0000 C   0  0
    8.3486  -26.0201    0.0000 C   0  0
    7.1193  -23.8990    0.0000 O   0  0
    9.1630  -25.9695    0.0000 C   0  0
    9.6149  -26.6515    0.0000 C   0  0
   10.4270  -26.6014    0.0000 C   0  0
   10.7934  -25.8706    0.0000 N   0  0
   10.3415  -25.1886    0.0000 C   0  0
    9.5232  -25.2374    0.0000 C   0  0
    1.8597  -26.5783    0.0000 C   0  0
    1.5275  -27.3250    0.0000 S   0  0
    2.1350  -27.8716    0.0000 C   0  0
    2.8425  -27.4628    0.0000 C   0  0
  1  2  1  0
  2  3  2  0
  3  5  1  0
  4  1  1  0
  4  5  2  0
  5  6  1  0
  6  7  2  0
  7  8  1  0
  8  9  2  0
  9  4  1  0
 10 11  2  0
 11 12  1  0
 12 13  2  0
 13 14  1  0
 14 15  2  0
 15 10  1  0
  2 10  1  0
 16 17  2  0
 17 18  1  0
 18 21  2  0
 20 19  2  0
 19 16  1  0
 20 21  1  0
 21 22  1  0
 22 23  1  0
 23 24  2  0
 24 20  1  0
 22 25  1  0
 26 27  1  0
 27 28  1  0
 28 29  1  0
 29 30  1  0
 30 31  1  0
 31 26  1  0
 23 26  1  0
 29 32  1  0
 32 33  1  0
 33 34  1  0
 25 35  1  0
 34 36  1  0
 36  1  1  0
 32 37  2  0
 38 39  1  0
 38 43  1  0
 39 40  1  0
 40 41  1  0
 41 42  1  0
 42 43  1  0
 36 38  1  0
 35 44  2  0
 44 45  1  0
 45 46  1  0
 46 47  2  0
 47 35  1  0
M  END