
  SciTegic12231509382D

 43 47  0  0  0  0            999 V2000
    5.4982   -6.5457    0.0000 C   0  0
    5.2507   -7.3339    0.0000 C   0  0
    4.4266   -7.3401    0.0000 N   0  0
    4.1676   -6.5552    0.0000 C   0  0
    4.8287   -6.0727    0.0000 N   0  0
    3.3838   -6.3010    0.0000 O   0  0
    4.8287   -5.2496    0.0000 C   0  0
    4.1127   -4.8370    0.0000 C   0  0
    3.3997   -5.2520    0.0000 C   0  0
    2.6932   -4.8383    0.0000 N   0  0
    2.6844   -4.0143    0.0000 C   0  0
    1.9738   -3.6075    0.0000 C   0  0
    1.2624   -4.0184    0.0000 N   0  0
    1.2609   -4.8430    0.0000 C   0  0
    1.9785   -5.2567    0.0000 C   0  0
    0.5480   -3.6067    0.0000 C   0  0
    0.5511   -2.7856    0.0000 C   0  0
   -0.1590   -2.3736    0.0000 C   0  0
   -0.8740   -2.7861    0.0000 C   0  0
   -0.8692   -3.6114    0.0000 C   0  0
   -0.1589   -4.0206    0.0000 C   0  0
    4.1127   -4.0136    0.0000 O   0  0
    5.9099   -5.8354    0.0000 C   0  0
    6.7415   -5.8335    0.0000 C   0  0
    7.1531   -5.1080    0.0000 C   0  0
    6.7312   -4.3880    0.0000 C   0  0
    5.8953   -4.3962    0.0000 C   0  0
    5.4852   -5.1228    0.0000 C   0  0
    6.2533   -6.8780    0.0000 C   0  0
    6.3419   -7.7044    0.0000 C   0  0
    7.0963   -8.0360    0.0000 C   0  0
    7.7651   -7.5434    0.0000 C   0  0
    7.6718   -6.7175    0.0000 C   0  0
    6.9127   -6.3915    0.0000 C   0  0
    5.7353   -7.9985    0.0000 O   0  0
    3.9435   -8.0077    0.0000 C   0  0
    3.1263   -7.9248    0.0000 C   0  0
    4.2816   -8.7582    0.0000 C   0  0
    2.7882   -7.1741    0.0000 O   0  0
    2.6431   -8.5923    0.0000 O   0  0
    1.8260   -8.5093    0.0000 C   0  0
    1.2656   -2.3739    0.0000 O   0  0
    1.9812   -2.7863    0.0000 C   0  0
 20 21  2  0
 21 16  1  0
 10 11  1  0
  8 22  1  0
  5  1  1  0
  1 23  1  0
  1  2  1  0
 23 24  2  0
  4  6  2  0
 24 25  1  0
 25 26  2  0
  5  7  1  0
 26 27  1  0
 10 15  1  0
 27 28  2  0
 28 23  1  0
 11 12  1  0
  1 29  1  0
 12 13  1  0
 29 30  2  0
 13 14  1  0
 30 31  1  0
 14 15  1  0
 31 32  2  0
  2  3  1  0
 32 33  1  0
 13 16  1  0
 33 34  2  0
 34 29  1  0
  7  8  1  0
  2 35  2  0
 16 17  2  0
  3 36  1  0
  3  4  1  0
 36 37  1  0
 17 18  1  0
 36 38  1  0
  8  9  1  0
 37 39  2  0
 18 19  2  0
 37 40  1  0
  4  5  1  0
 40 41  1  0
 19 20  1  0
 17 42  1  0
  9 10  1  0
 42 43  1  0
M  END