
  CDK    7/15/10,13:22

673756  0  0  0  0  0  0  0  0999 V2000
    6.0786   -6.7760    0.0000 P   0  0  0  0  0  0  0  0  0  0  0  0
    6.7944   -6.3477    0.0000 O   0  0  0  0  0  0  0  0  0  0  0  0
    6.4471   -7.5258    0.0000 O   0  0  0  0  0  0  0  0  0  0  0  0
    5.7114   -6.0256    0.0000 O   0  0  0  0  0  0  0  0  0  0  0  0
    6.7813   -5.5123    0.0000 C   0  0  0  0  0  0  0  0  0  0  0  0
    7.4984   -5.0833    0.0000 C   0  0  0  0  0  0  0  0  0  0  0  0
    8.2634   -5.4095    0.0000 C   0  0  0  0  0  0  0  0  0  0  0  0
    8.8127   -4.7800    0.0000 C   0  0  0  0  0  0  0  0  0  0  0  0
    8.3837   -4.0631    0.0000 C   0  0  0  0  0  0  0  0  0  0  0  0
    7.5693   -4.2496    0.0000 O   0  0  0  0  0  0  0  0  0  0  0  0
    8.7115   -3.2945    0.0000 N   0  0  0  0  0  0  0  0  0  0  0  0
    8.7108   -5.5813    0.0000 O   0  0  0  0  0  0  0  0  0  0  0  0
    8.2508   -6.2405    0.0000 O   0  0  0  0  0  0  0  0  0  0  0  0
    9.5392   -3.1970    0.0000 C   0  0  0  0  0  0  0  0  0  0  0  0
    9.8674   -2.4326    0.0000 N   0  0  0  0  0  0  0  0  0  0  0  0
    9.3690   -1.7615    0.0000 C   0  0  0  0  0  0  0  0  0  0  0  0
    8.5384   -1.8599    0.0000 C   0  0  0  0  0  0  0  0  0  0  0  0
    8.2061   -2.6294    0.0000 C   0  0  0  0  0  0  0  0  0  0  0  0
    8.0391   -1.1901    0.0000 C   0  0  0  0  0  0  0  0  0  0  0  0
    9.6998   -0.9943    0.0000 O   0  0  0  0  0  0  0  0  0  0  0  0
   10.0390   -3.8664    0.0000 O   0  0  0  0  0  0  0  0  0  0  0  0
    7.7065   -5.8878    0.0000 C   0  0  0  0  0  0  0  0  0  0  0  0
    5.3668   -7.1956    0.0000 O   0  0  0  0  0  0  0  0  0  0  0  0
    4.7207   -6.6809    0.0000 C   0  0  0  0  0  0  0  0  0  0  0  0
    4.7531   -5.8630    0.0000 C   0  0  0  0  0  0  0  0  0  0  0  0
    3.9367   -6.8947    0.0000 C   0  0  0  0  0  0  0  0  0  0  0  0
    3.9692   -5.5734    0.0000 C   0  0  0  0  0  0  0  0  0  0  0  0
    3.4666   -6.2088    0.0000 O   0  0  0  0  0  0  0  0  0  0  0  0
    3.6398   -7.6658    0.0000 C   0  0  0  0  0  0  0  0  0  0  0  0
    4.2720   -8.1986    0.0000 O   0  0  0  0  0  0  0  0  0  0  0  0
    3.7439   -4.7792    0.0000 N   0  0  0  0  0  0  0  0  0  0  0  0
    4.3138   -4.1869    0.0000 C   0  0  0  0  0  0  0  0  0  0  0  0
    4.0886   -3.3925    0.0000 N   0  0  0  0  0  0  0  0  0  0  0  0
    3.2841   -3.2023    0.0000 C   0  0  0  0  0  0  0  0  0  0  0  0
    2.7109   -3.7880    0.0000 C   0  0  0  0  0  0  0  0  0  0  0  0
    2.9363   -4.5824    0.0000 C   0  0  0  0  0  0  0  0  0  0  0  0
    5.1139   -4.3947    0.0000 O   0  0  0  0  0  0  0  0  0  0  0  0
    3.0582   -2.3971    0.0000 O   0  0  0  0  0  0  0  0  0  0  0  0
    1.9070   -3.5903    0.0000 C   0  0  0  0  0  0  0  0  0  0  0  0
    4.5222   -9.8315    0.0000 O   0  0  0  0  0  0  0  0  0  0  0  0
    4.4341   -9.0053    0.0000 P   0  0  0  0  0  0  0  0  0  0  0  0
    5.2480   -8.8820    0.0000 O   0  0  0  0  0  0  0  0  0  0  0  0
    3.6111   -9.1295    0.0000 O   0  0  0  0  0  0  0  0  0  0  0  0
    1.5666   -8.9059    0.0000 C   0  0  0  0  0  0  0  0  0  0  0  0
    0.9318   -8.3842    0.0000 N   0  0  0  0  0  0  0  0  0  0  0  0
    1.5260   -9.7408    0.0000 O   0  0  0  0  0  0  0  0  0  0  0  0
    2.3367   -8.6793    0.0000 C   0  0  0  0  0  0  0  0  0  0  0  0
    1.0558   -7.5891    0.0000 C   0  0  0  0  0  0  0  0  0  0  0  0
    0.1731   -8.6811    0.0000 C   0  0  0  0  0  0  0  0  0  0  0  0
    2.3172  -10.0197    0.0000 C   0  0  0  0  0  0  0  0  0  0  0  0
    2.8145   -9.3701    0.0000 C   0  0  0  0  0  0  0  0  0  0  0  0
    2.8562   -8.0161    0.0000 O   0  0  0  0  0  0  0  0  0  0  0  0
    0.4209   -7.0670    0.0000 N   0  0  0  0  0  0  0  0  0  0  0  0
    1.8281   -7.2852    0.0000 O   0  0  0  0  0  0  0  0  0  0  0  0
   -0.4695   -8.1679    0.0000 C   0  0  0  0  0  0  0  0  0  0  0  0
    2.5477  -10.8126    0.0000 C   0  0  0  0  0  0  0  0  0  0  0  0
   -0.3302   -7.3599    0.0000 C   0  0  0  0  0  0  0  0  0  0  0  0
   -0.9770   -6.8350    0.0000 N   0  0  0  0  0  0  0  0  0  0  0  0
    1.9890  -11.4114    0.0000 O   0  0  0  0  0  0  0  0  0  0  0  0
    1.7561  -12.9087    0.0000 O   0  0  0  0  0  0  0  0  0  0  0  0
    2.1822  -12.1998    0.0000 P   0  0  0  0  0  0  0  0  0  0  0  0
    2.9024  -12.6081    0.0000 O   0  0  0  0  0  0  0  0  0  0  0  0
    1.4673  -11.7979    0.0000 O   0  0  0  0  0  0  0  0  0  0  0  0
    1.0961  -14.4183    0.0000 O   0  0  0  0  0  0  0  0  0  0  0  0
    0.3609  -14.0463    0.0000 C   0  0  0  0  0  0  0  0  0  0  0  0
    0.3116  -13.2106    0.0000 C   0  0  0  0  0  0  0  0  0  0  0  0
    0.9511  -12.6905    0.0000 C   0  0  0  0  0  0  0  0  0  0  0  0
    0.6511  -11.9219    0.0000 C   0  0  0  0  0  0  0  0  0  0  0  0
    1.1067  -11.2239    0.0000 O   0  0  0  0  0  0  0  0  0  0  0  0
   -0.1819  -11.9749    0.0000 C   0  0  0  0  0  0  0  0  0  0  0  0
   -0.3861  -12.7762    0.0000 O   0  0  0  0  0  0  0  0  0  0  0  0
   -0.7349  -11.3569    0.0000 N   0  0  0  0  0  0  0  0  0  0  0  0
   -0.5046  -10.5600    0.0000 C   0  0  0  0  0  0  0  0  0  0  0  0
   -1.2031  -10.1025    0.0000 N   0  0  0  0  0  0  0  0  0  0  0  0
   -1.8549  -10.6273    0.0000 C   0  0  0  0  0  0  0  0  0  0  0  0
   -2.6682  -10.4890    0.0000 C   0  0  0  0  0  0  0  0  0  0  0  0
   -2.9736   -9.7132    0.0000 N   0  0  0  0  0  0  0  0  0  0  0  0
   -3.1802  -11.1327    0.0000 N   0  0  0  0  0  0  0  0  0  0  0  0
   -2.8855  -11.9073    0.0000 C   0  0  0  0  0  0  0  0  0  0  0  0
   -2.0722  -12.0405    0.0000 N   0  0  0  0  0  0  0  0  0  0  0  0
   -1.5433  -11.3926    0.0000 C   0  0  0  0  0  0  0  0  0  0  0  0
   -2.1618  -15.3753    0.0000 C   0  0  0  0  0  0  0  0  0  0  0  0
   -1.8965  -16.0916    0.0000 N   0  0  0  0  0  0  0  0  0  0  0  0
   -3.0744  -15.3823    0.0000 C   0  0  0  0  0  0  0  0  0  0  0  0
   -1.7578  -14.6435    0.0000 N   0  0  0  0  0  0  0  0  0  0  0  0
   -1.1321  -16.3315    0.0000 C   0  0  0  0  0  0  0  0  0  0  0  0
   -2.6112  -16.6067    0.0000 C   0  0  0  0  0  0  0  0  0  0  0  0
   -3.3186  -16.1167    0.0000 N   0  0  0  0  0  0  0  0  0  0  0  0
   -3.4979  -14.6998    0.0000 C   0  0  0  0  0  0  0  0  0  0  0  0
   -2.1938  -13.9043    0.0000 C   0  0  0  0  0  0  0  0  0  0  0  0
   -0.8685  -17.1226    0.0000 O   0  0  0  0  0  0  0  0  0  0  0  0
   -0.5039  -15.8679    0.0000 C   0  0  0  0  0  0  0  0  0  0  0  0
   -3.0796  -13.9238    0.0000 N   0  0  0  0  0  0  0  0  0  0  0  0
   -4.3162  -14.7158    0.0000 O   0  0  0  0  0  0  0  0  0  0  0  0
   -1.7905  -13.2019    0.0000 N   0  0  0  0  0  0  0  0  0  0  0  0
   -0.0651  -17.1132    0.0000 C   0  0  0  0  0  0  0  0  0  0  0  0
    0.1691  -16.3439    0.0000 C   0  0  0  0  0  0  0  0  0  0  0  0
   -0.6080  -15.0519    0.0000 O   0  0  0  0  0  0  0  0  0  0  0  0
    0.4279  -17.7615    0.0000 C   0  0  0  0  0  0  0  0  0  0  0  0
   -0.0296  -18.4381    0.0000 O   0  0  0  0  0  0  0  0  0  0  0  0
    0.9489  -16.0742    0.0000 O   0  0  0  0  0  0  0  0  0  0  0  0
    0.5699  -19.9888    0.0000 O   0  0  0  0  0  0  0  0  0  0  0  0
    0.2638  -19.2089    0.0000 P   0  0  0  0  0  0  0  0  0  0  0  0
    1.0466  -18.9096    0.0000 O   0  0  0  0  0  0  0  0  0  0  0  0
   -0.5061  -19.5154    0.0000 O   0  0  0  0  0  0  0  0  0  0  0  0
   -0.2517  -20.0850    0.0000 C   0  0  0  0  0  0  0  0  0  0  0  0
   -0.8060  -19.4827    0.0000 C   0  0  0  0  0  0  0  0  0  0  0  0
   -0.6560  -20.7899    0.0000 C   0  0  0  0  0  0  0  0  0  0  0  0
   -1.5655  -19.8309    0.0000 C   0  0  0  0  0  0  0  0  0  0  0  0
   -1.4732  -20.6358    0.0000 O   0  0  0  0  0  0  0  0  0  0  0  0
   -0.3221  -21.5458    0.0000 C   0  0  0  0  0  0  0  0  0  0  0  0
    0.5019  -21.4767    0.0000 O   0  0  0  0  0  0  0  0  0  0  0  0
   -2.2858  -19.4275    0.0000 N   0  0  0  0  0  0  0  0  0  0  0  0
   -2.3003  -18.6055    0.0000 C   0  0  0  0  0  0  0  0  0  0  0  0
   -3.0205  -18.2017    0.0000 N   0  0  0  0  0  0  0  0  0  0  0  0
   -3.7246  -18.6350    0.0000 C   0  0  0  0  0  0  0  0  0  0  0  0
   -3.7172  -19.4543    0.0000 C   0  0  0  0  0  0  0  0  0  0  0  0
   -2.9968  -19.8580    0.0000 C   0  0  0  0  0  0  0  0  0  0  0  0
   -4.4531  -18.2240    0.0000 O   0  0  0  0  0  0  0  0  0  0  0  0
   -4.4262  -19.8819    0.0000 C   0  0  0  0  0  0  0  0  0  0  0  0
   -1.8133  -18.3274    0.0000 C   0  0  0  0  0  0  0  0  0  0  0  0
    1.5933  -29.7737    0.0000 O   0  0  0  0  0  0  0  0  0  0  0  0
   -1.2546  -31.9495    0.0000 C   0  0  0  0  0  0  0  0  0  0  0  0
   -0.7335  -32.5082    0.0000 N   0  0  0  0  0  0  0  0  0  0  0  0
   -2.0937  -32.3084    0.0000 C   0  0  0  0  0  0  0  0  0  0  0  0
   -1.1643  -31.1187    0.0000 N   0  0  0  0  0  0  0  0  0  0  0  0
    0.0644  -32.4344    0.0000 C   0  0  0  0  0  0  0  0  0  0  0  0
   -1.1938  -33.2591    0.0000 C   0  0  0  0  0  0  0  0  0  0  0  0
   -2.0356  -33.0799    0.0000 N   0  0  0  0  0  0  0  0  0  0  0  0
   -2.7479  -31.8420    0.0000 C   0  0  0  0  0  0  0  0  0  0  0  0
   -1.8518  -30.6048    0.0000 C   0  0  0  0  0  0  0  0  0  0  0  0
    0.6130  -33.0624    0.0000 O   0  0  0  0  0  0  0  0  0  0  0  0
    0.4651  -31.7642    0.0000 C   0  0  0  0  0  0  0  0  0  0  0  0
   -2.6616  -30.9647    0.0000 N   0  0  0  0  0  0  0  0  0  0  0  0
   -3.4964  -32.1726    0.0000 O   0  0  0  0  0  0  0  0  0  0  0  0
   -1.7510  -29.8013    0.0000 N   0  0  0  0  0  0  0  0  0  0  0  0
    1.3503  -32.7436    0.0000 C   0  0  0  0  0  0  0  0  0  0  0  0
    1.2695  -31.9436    0.0000 C   0  0  0  0  0  0  0  0  0  0  0  0
    0.0539  -31.0515    0.0000 O   0  0  0  0  0  0  0  0  0  0  0  0
    2.0556  -33.1513    0.0000 C   0  0  0  0  0  0  0  0  0  0  0  0
    1.8947  -33.9521    0.0000 O   0  0  0  0  0  0  0  0  0  0  0  0
    1.8849  -31.3937    0.0000 O   0  0  0  0  0  0  0  0  0  0  0  0
    1.7175  -30.5850    0.0000 P   0  0  0  0  0  0  0  0  0  0  0  0
    0.9005  -30.7314    0.0000 O   0  0  0  0  0  0  0  0  0  0  0  0
    2.5303  -30.4417    0.0000 O   0  0  0  0  0  0  0  0  0  0  0  0
   -0.7232  -36.5466    0.0000 C   0  0  0  0  0  0  0  0  0  0  0  0
   -0.1260  -37.0230    0.0000 N   0  0  0  0  0  0  0  0  0  0  0  0
   -1.5010  -37.0240    0.0000 C   0  0  0  0  0  0  0  0  0  0  0  0
   -0.7550  -35.7114    0.0000 N   0  0  0  0  0  0  0  0  0  0  0  0
    0.6525  -36.8337    0.0000 C   0  0  0  0  0  0  0  0  0  0  0  0
   -0.4719  -37.8332    0.0000 C   0  0  0  0  0  0  0  0  0  0  0  0
   -1.3308  -37.7788    0.0000 N   0  0  0  0  0  0  0  0  0  0  0  0
   -2.2160  -36.6580    0.0000 C   0  0  0  0  0  0  0  0  0  0  0  0
   -1.5100  -35.3033    0.0000 C   0  0  0  0  0  0  0  0  0  0  0  0
    1.2868  -37.3750    0.0000 O   0  0  0  0  0  0  0  0  0  0  0  0
    0.9511  -36.1122    0.0000 C   0  0  0  0  0  0  0  0  0  0  0  0
   -2.2587  -35.7776    0.0000 N   0  0  0  0  0  0  0  0  0  0  0  0
   -2.9085  -37.0944    0.0000 O   0  0  0  0  0  0  0  0  0  0  0  0
   -1.5275  -34.4937    0.0000 N   0  0  0  0  0  0  0  0  0  0  0  0
    1.9699  -36.9522    0.0000 C   0  0  0  0  0  0  0  0  0  0  0  0
    1.7732  -36.1724    0.0000 C   0  0  0  0  0  0  0  0  0  0  0  0
    0.4404  -35.4672    0.0000 O   0  0  0  0  0  0  0  0  0  0  0  0
    2.7269  -37.2526    0.0000 C   0  0  0  0  0  0  0  0  0  0  0  0
    2.6846  -38.0683    0.0000 O   0  0  0  0  0  0  0  0  0  0  0  0
    2.3018  -35.5386    0.0000 O   0  0  0  0  0  0  0  0  0  0  0  0
    3.7733  -39.3241    0.0000 O   0  0  0  0  0  0  0  0  0  0  0  0
    3.2210  -38.6942    0.0000 P   0  0  0  0  0  0  0  0  0  0  0  0
    3.8561  -38.1472    0.0000 O   0  0  0  0  0  0  0  0  0  0  0  0
    2.6005  -39.2433    0.0000 O   0  0  0  0  0  0  0  0  0  0  0  0
    2.0183  -34.7630    0.0000 P   0  0  0  0  0  0  0  0  0  0  0  0
    1.2313  -35.0272    0.0000 O   0  0  0  0  0  0  0  0  0  0  0  0
    2.8012  -34.5027    0.0000 O   0  0  0  0  0  0  0  0  0  0  0  0
   -2.3459  -23.6550    0.0000 C   0  0  0  0  0  0  0  0  0  0  0  0
   -1.8248  -24.2135    0.0000 N   0  0  0  0  0  0  0  0  0  0  0  0
   -3.1852  -24.0137    0.0000 C   0  0  0  0  0  0  0  0  0  0  0  0
   -2.2558  -22.8240    0.0000 N   0  0  0  0  0  0  0  0  0  0  0  0
   -1.0271  -24.1398    0.0000 C   0  0  0  0  0  0  0  0  0  0  0  0
   -2.2852  -24.9645    0.0000 C   0  0  0  0  0  0  0  0  0  0  0  0
   -3.1270  -24.7853    0.0000 N   0  0  0  0  0  0  0  0  0  0  0  0
   -3.8394  -23.5474    0.0000 C   0  0  0  0  0  0  0  0  0  0  0  0
   -2.9431  -22.3102    0.0000 C   0  0  0  0  0  0  0  0  0  0  0  0
   -0.4785  -24.7678    0.0000 O   0  0  0  0  0  0  0  0  0  0  0  0
   -0.6262  -23.4696    0.0000 C   0  0  0  0  0  0  0  0  0  0  0  0
   -3.7529  -22.6701    0.0000 N   0  0  0  0  0  0  0  0  0  0  0  0
   -4.5879  -23.8780    0.0000 O   0  0  0  0  0  0  0  0  0  0  0  0
   -2.8423  -21.5067    0.0000 N   0  0  0  0  0  0  0  0  0  0  0  0
    0.2590  -24.4492    0.0000 C   0  0  0  0  0  0  0  0  0  0  0  0
    0.1783  -23.6489    0.0000 C   0  0  0  0  0  0  0  0  0  0  0  0
   -1.0374  -22.7569    0.0000 O   0  0  0  0  0  0  0  0  0  0  0  0
    0.9642  -24.8568    0.0000 C   0  0  0  0  0  0  0  0  0  0  0  0
    0.8032  -25.6577    0.0000 O   0  0  0  0  0  0  0  0  0  0  0  0
    0.7934  -23.0991    0.0000 O   0  0  0  0  0  0  0  0  0  0  0  0
    0.6262  -22.2905    0.0000 P   0  0  0  0  0  0  0  0  0  0  0  0
   -0.1910  -22.4370    0.0000 O   0  0  0  0  0  0  0  0  0  0  0  0
    1.4388  -22.1472    0.0000 O   0  0  0  0  0  0  0  0  0  0  0  0
   -1.8145  -28.2519    0.0000 C   0  0  0  0  0  0  0  0  0  0  0  0
   -1.2173  -28.7284    0.0000 N   0  0  0  0  0  0  0  0  0  0  0  0
   -2.5923  -28.7293    0.0000 C   0  0  0  0  0  0  0  0  0  0  0  0
   -1.8465  -27.4167    0.0000 N   0  0  0  0  0  0  0  0  0  0  0  0
   -0.4389  -28.5391    0.0000 C   0  0  0  0  0  0  0  0  0  0  0  0
   -1.5633  -29.5386    0.0000 C   0  0  0  0  0  0  0  0  0  0  0  0
   -2.4223  -29.4841    0.0000 N   0  0  0  0  0  0  0  0  0  0  0  0
   -3.3075  -28.3634    0.0000 C   0  0  0  0  0  0  0  0  0  0  0  0
   -2.6015  -27.0089    0.0000 C   0  0  0  0  0  0  0  0  0  0  0  0
    0.1954  -29.0805    0.0000 O   0  0  0  0  0  0  0  0  0  0  0  0
   -0.1402  -27.8176    0.0000 C   0  0  0  0  0  0  0  0  0  0  0  0
   -3.3500  -27.4830    0.0000 N   0  0  0  0  0  0  0  0  0  0  0  0
   -4.0000  -28.7998    0.0000 O   0  0  0  0  0  0  0  0  0  0  0  0
   -2.6189  -26.1991    0.0000 N   0  0  0  0  0  0  0  0  0  0  0  0
    0.8784  -28.6576    0.0000 C   0  0  0  0  0  0  0  0  0  0  0  0
    0.6818  -27.8777    0.0000 C   0  0  0  0  0  0  0  0  0  0  0  0
   -0.6511  -27.1726    0.0000 O   0  0  0  0  0  0  0  0  0  0  0  0
    1.6356  -28.9580    0.0000 C   0  0  0  0  0  0  0  0  0  0  0  0
    1.2103  -27.2440    0.0000 O   0  0  0  0  0  0  0  0  0  0  0  0
    0.9268  -26.4684    0.0000 P   0  0  0  0  0  0  0  0  0  0  0  0
    0.1398  -26.7326    0.0000 O   0  0  0  0  0  0  0  0  0  0  0  0
    1.7098  -26.2081    0.0000 O   0  0  0  0  0  0  0  0  0  0  0  0
    3.0623  -39.7441    0.0000 C   0  0  0  0  0  0  0  0  0  0  0  0
    2.3128  -39.4149    0.0000 C   0  0  0  0  0  0  0  0  0  0  0  0
    2.9747  -40.5520    0.0000 C   0  0  0  0  0  0  0  0  0  0  0  0
    1.7569  -40.0388    0.0000 C   0  0  0  0  0  0  0  0  0  0  0  0
    2.1645  -40.7389    0.0000 O   0  0  0  0  0  0  0  0  0  0  0  0
    3.5840  -41.1104    0.0000 C   0  0  0  0  0  0  0  0  0  0  0  0
    4.3110  -40.7163    0.0000 O   0  0  0  0  0  0  0  0  0  0  0  0
    0.9353  -39.9584    0.0000 N   0  0  0  0  0  0  0  0  0  0  0  0
    0.5920  -39.2113    0.0000 C   0  0  0  0  0  0  0  0  0  0  0  0
   -0.2296  -39.1307    0.0000 N   0  0  0  0  0  0  0  0  0  0  0  0
   -0.7007  -39.8099    0.0000 C   0  0  0  0  0  0  0  0  0  0  0  0
   -0.3650  -40.5576    0.0000 C   0  0  0  0  0  0  0  0  0  0  0  0
    0.4568  -40.6381    0.0000 C   0  0  0  0  0  0  0  0  0  0  0  0
    1.0780  -38.5426    0.0000 O   0  0  0  0  0  0  0  0  0  0  0  0
   -1.5328  -39.7259    0.0000 O   0  0  0  0  0  0  0  0  0  0  0  0
   -0.8427  -41.2336    0.0000 C   0  0  0  0  0  0  0  0  0  0  0  0
    5.4334  -41.9206    0.0000 O   0  0  0  0  0  0  0  0  0  0  0  0
    4.8548  -41.3311    0.0000 P   0  0  0  0  0  0  0  0  0  0  0  0
    4.2472  -41.8966    0.0000 O   0  0  0  0  0  0  0  0  0  0  0  0
    5.4605  -40.7708    0.0000 O   0  0  0  0  0  0  0  0  0  0  0  0
    4.8709  -42.5256    0.0000 C   0  0  0  0  0  0  0  0  0  0  0  0
    4.0577  -42.4311    0.0000 C   0  0  0  0  0  0  0  0  0  0  0  0
    5.0245  -43.3237    0.0000 C   0  0  0  0  0  0  0  0  0  0  0  0
    3.7095  -43.1907    0.0000 C   0  0  0  0  0  0  0  0  0  0  0  0
    4.3048  -43.7402    0.0000 O   0  0  0  0  0  0  0  0  0  0  0  0
    5.7708  -43.6785    0.0000 C   0  0  0  0  0  0  0  0  0  0  0  0
    6.3501  -43.0884    0.0000 O   0  0  0  0  0  0  0  0  0  0  0  0
    2.9006  -43.3549    0.0000 N   0  0  0  0  0  0  0  0  0  0  0  0
    2.3531  -42.7418    0.0000 C   0  0  0  0  0  0  0  0  0  0  0  0
    1.5440  -42.9059    0.0000 N   0  0  0  0  0  0  0  0  0  0  0  0
    1.2933  -43.6936    0.0000 C   0  0  0  0  0  0  0  0  0  0  0  0
    1.8336  -44.3097    0.0000 C   0  0  0  0  0  0  0  0  0  0  0  0
    2.6427  -44.1453    0.0000 C   0  0  0  0  0  0  0  0  0  0  0  0
    2.6213  -41.9597    0.0000 O   0  0  0  0  0  0  0  0  0  0  0  0
    0.4730  -43.8575    0.0000 O   0  0  0  0  0  0  0  0  0  0  0  0
    1.5755  -45.0964    0.0000 C   0  0  0  0  0  0  0  0  0  0  0  0
    7.7766  -43.9098    0.0000 O   0  0  0  0  0  0  0  0  0  0  0  0
    7.0505  -43.5163    0.0000 P   0  0  0  0  0  0  0  0  0  0  0  0
    6.6356  -44.2354    0.0000 O   0  0  0  0  0  0  0  0  0  0  0  0
    7.4648  -42.8029    0.0000 O   0  0  0  0  0  0  0  0  0  0  0  0
    6.3628  -46.7675    0.0000 C   0  0  0  0  0  0  0  0  0  0  0  0
    7.1217  -46.6790    0.0000 N   0  0  0  0  0  0  0  0  0  0  0  0
    6.1544  -47.6560    0.0000 C   0  0  0  0  0  0  0  0  0  0  0  0
    5.7473  -46.2022    0.0000 N   0  0  0  0  0  0  0  0  0  0  0  0
    7.5352  -45.9928    0.0000 C   0  0  0  0  0  0  0  0  0  0  0  0
    7.4535  -47.4949    0.0000 C   0  0  0  0  0  0  0  0  0  0  0  0
    6.8102  -48.0667    0.0000 N   0  0  0  0  0  0  0  0  0  0  0  0
    5.3909  -47.9064    0.0000 C   0  0  0  0  0  0  0  0  0  0  0  0
    4.9260  -46.4513    0.0000 C   0  0  0  0  0  0  0  0  0  0  0  0
    8.3662  -45.9235    0.0000 O   0  0  0  0  0  0  0  0  0  0  0  0
    7.2332  -45.2728    0.0000 C   0  0  0  0  0  0  0  0  0  0  0  0
    4.7356  -47.3168    0.0000 N   0  0  0  0  0  0  0  0  0  0  0  0
    5.2134  -48.7052    0.0000 O   0  0  0  0  0  0  0  0  0  0  0  0
    4.3386  -45.8937    0.0000 N   0  0  0  0  0  0  0  0  0  0  0  0
    8.5468  -45.1405    0.0000 C   0  0  0  0  0  0  0  0  0  0  0  0
    7.8546  -44.7312    0.0000 C   0  0  0  0  0  0  0  0  0  0  0  0
    6.4154  -45.1813    0.0000 O   0  0  0  0  0  0  0  0  0  0  0  0
    9.2932  -44.8143    0.0000 C   0  0  0  0  0  0  0  0  0  0  0  0
    9.8427  -45.4187    0.0000 O   0  0  0  0  0  0  0  0  0  0  0  0
   10.3801  -49.0649    0.0000 C   0  0  0  0  0  0  0  0  0  0  0  0
   11.1178  -48.8665    0.0000 N   0  0  0  0  0  0  0  0  0  0  0  0
   10.3033  -49.9742    0.0000 C   0  0  0  0  0  0  0  0  0  0  0  0
    9.6885  -48.5954    0.0000 N   0  0  0  0  0  0  0  0  0  0  0  0
   11.4268  -48.1274    0.0000 C   0  0  0  0  0  0  0  0  0  0  0  0
   11.5652  -49.6254    0.0000 C   0  0  0  0  0  0  0  0  0  0  0  0
   11.0122  -50.2847    0.0000 N   0  0  0  0  0  0  0  0  0  0  0  0
    9.5848  -50.3333    0.0000 C   0  0  0  0  0  0  0  0  0  0  0  0
    8.9124  -48.9616    0.0000 C   0  0  0  0  0  0  0  0  0  0  0  0
   12.2388  -47.9373    0.0000 O   0  0  0  0  0  0  0  0  0  0  0  0
   11.0228  -47.4590    0.0000 C   0  0  0  0  0  0  0  0  0  0  0  0
    8.8504  -49.8456    0.0000 N   0  0  0  0  0  0  0  0  0  0  0  0
    9.5255  -51.1495    0.0000 O   0  0  0  0  0  0  0  0  0  0  0  0
    8.2499  -48.4957    0.0000 N   0  0  0  0  0  0  0  0  0  0  0  0
   12.3032  -47.1367    0.0000 C   0  0  0  0  0  0  0  0  0  0  0  0
   11.5585  -46.8326    0.0000 C   0  0  0  0  0  0  0  0  0  0  0  0
   10.2007  -47.4881    0.0000 O   0  0  0  0  0  0  0  0  0  0  0  0
   12.9940  -46.7049    0.0000 C   0  0  0  0  0  0  0  0  0  0  0  0
   13.6258  -47.2228    0.0000 O   0  0  0  0  0  0  0  0  0  0  0  0
   11.3615  -46.0314    0.0000 O   0  0  0  0  0  0  0  0  0  0  0  0
   15.0167  -46.3118    0.0000 O   0  0  0  0  0  0  0  0  0  0  0  0
   14.3180  -46.7741    0.0000 P   0  0  0  0  0  0  0  0  0  0  0  0
   13.8618  -46.0710    0.0000 O   0  0  0  0  0  0  0  0  0  0  0  0
   14.7785  -47.4631    0.0000 O   0  0  0  0  0  0  0  0  0  0  0  0
   10.5690  -45.7998    0.0000 P   0  0  0  0  0  0  0  0  0  0  0  0
   10.3151  -46.5902    0.0000 O   0  0  0  0  0  0  0  0  0  0  0  0
   10.8234  -45.0150    0.0000 O   0  0  0  0  0  0  0  0  0  0  0  0
   16.5878  -45.7980    0.0000 O   0  0  0  0  0  0  0  0  0  0  0  0
   16.7971  -46.5949    0.0000 C   0  0  0  0  0  0  0  0  0  0  0  0
   16.2044  -47.1864    0.0000 C   0  0  0  0  0  0  0  0  0  0  0  0
   15.3911  -47.0528    0.0000 C   0  0  0  0  0  0  0  0  0  0  0  0
   15.0151  -47.7872    0.0000 C   0  0  0  0  0  0  0  0  0  0  0  0
   14.1905  -47.9094    0.0000 O   0  0  0  0  0  0  0  0  0  0  0  0
   15.6073  -48.3754    0.0000 C   0  0  0  0  0  0  0  0  0  0  0  0
   16.3426  -47.9966    0.0000 O   0  0  0  0  0  0  0  0  0  0  0  0
   15.5118  -49.1991    0.0000 N   0  0  0  0  0  0  0  0  0  0  0  0
   14.7627  -49.5555    0.0000 C   0  0  0  0  0  0  0  0  0  0  0  0
   14.8837  -50.3817    0.0000 N   0  0  0  0  0  0  0  0  0  0  0  0
   15.7090  -50.5213    0.0000 C   0  0  0  0  0  0  0  0  0  0  0  0
   16.1450  -51.2215    0.0000 C   0  0  0  0  0  0  0  0  0  0  0  0
   15.7673  -51.9647    0.0000 N   0  0  0  0  0  0  0  0  0  0  0  0
   16.9662  -51.1775    0.0000 N   0  0  0  0  0  0  0  0  0  0  0  0
   17.3505  -50.4431    0.0000 C   0  0  0  0  0  0  0  0  0  0  0  0
   16.9106  -49.7463    0.0000 N   0  0  0  0  0  0  0  0  0  0  0  0
   16.0749  -49.7801    0.0000 C   0  0  0  0  0  0  0  0  0  0  0  0
   17.4563  -44.3964    0.0000 O   0  0  0  0  0  0  0  0  0  0  0  0
   16.9844  -45.0803    0.0000 P   0  0  0  0  0  0  0  0  0  0  0  0
   16.2870  -44.6432    0.0000 O   0  0  0  0  0  0  0  0  0  0  0  0
   17.6896  -45.5228    0.0000 O   0  0  0  0  0  0  0  0  0  0  0  0
   18.7299  -47.1634    0.0000 C   0  0  0  0  0  0  0  0  0  0  0  0
   18.6318  -47.9793    0.0000 N   0  0  0  0  0  0  0  0  0  0  0  0
   19.4554  -46.7484    0.0000 O   0  0  0  0  0  0  0  0  0  0  0  0
   18.1245  -46.6361    0.0000 C   0  0  0  0  0  0  0  0  0  0  0  0
   17.8949  -48.3025    0.0000 C   0  0  0  0  0  0  0  0  0  0  0  0
   19.2902  -48.4587    0.0000 C   0  0  0  0  0  0  0  0  0  0  0  0
   19.2649  -45.9312    0.0000 C   0  0  0  0  0  0  0  0  0  0  0  0
   18.4497  -45.8616    0.0000 C   0  0  0  0  0  0  0  0  0  0  0  0
   17.2858  -46.5552    0.0000 O   0  0  0  0  0  0  0  0  0  0  0  0
   17.7964  -49.1184    0.0000 N   0  0  0  0  0  0  0  0  0  0  0  0
   17.2232  -47.8152    0.0000 O   0  0  0  0  0  0  0  0  0  0  0  0
   19.2034  -49.2766    0.0000 C   0  0  0  0  0  0  0  0  0  0  0  0
   19.8092  -45.3105    0.0000 C   0  0  0  0  0  0  0  0  0  0  0  0
   18.4473  -49.5941    0.0000 C   0  0  0  0  0  0  0  0  0  0  0  0
   18.3531  -50.4216    0.0000 N   0  0  0  0  0  0  0  0  0  0  0  0
   20.6118  -45.4599    0.0000 O   0  0  0  0  0  0  0  0  0  0  0  0
   22.1115  -45.6768    0.0000 O   0  0  0  0  0  0  0  0  0  0  0  0
   21.3981  -45.2582    0.0000 P   0  0  0  0  0  0  0  0  0  0  0  0
   21.7986  -44.5336    0.0000 O   0  0  0  0  0  0  0  0  0  0  0  0
   21.0039  -45.9774    0.0000 O   0  0  0  0  0  0  0  0  0  0  0  0
   22.4868  -48.8423    0.0000 C   0  0  0  0  0  0  0  0  0  0  0  0
   23.0842  -48.3568    0.0000 N   0  0  0  0  0  0  0  0  0  0  0  0
   22.8007  -49.7010    0.0000 C   0  0  0  0  0  0  0  0  0  0  0  0
   21.6678  -48.7102    0.0000 N   0  0  0  0  0  0  0  0  0  0  0  0
   23.0547  -47.5606    0.0000 C   0  0  0  0  0  0  0  0  0  0  0  0
   23.8042  -48.8564    0.0000 C   0  0  0  0  0  0  0  0  0  0  0  0
   23.5744  -49.6839    0.0000 N   0  0  0  0  0  0  0  0  0  0  0  0
   22.2964  -50.3315    0.0000 C   0  0  0  0  0  0  0  0  0  0  0  0
   21.1189  -49.3691    0.0000 C   0  0  0  0  0  0  0  0  0  0  0  0
   23.7071  -47.0491    0.0000 O   0  0  0  0  0  0  0  0  0  0  0  0
   22.4072  -47.1179    0.0000 C   0  0  0  0  0  0  0  0  0  0  0  0
   21.4228  -50.1902    0.0000 N   0  0  0  0  0  0  0  0  0  0  0  0
   22.5876  -51.0958    0.0000 O   0  0  0  0  0  0  0  0  0  0  0  0
   20.3201  -49.2264    0.0000 N   0  0  0  0  0  0  0  0  0  0  0  0
   23.4394  -46.2864    0.0000 C   0  0  0  0  0  0  0  0  0  0  0  0
   22.6226  -46.3219    0.0000 C   0  0  0  0  0  0  0  0  0  0  0  0
   21.6656  -47.4868    0.0000 O   0  0  0  0  0  0  0  0  0  0  0  0
   23.8750  -45.6115    0.0000 C   0  0  0  0  0  0  0  0  0  0  0  0
   24.6716  -45.8085    0.0000 O   0  0  0  0  0  0  0  0  0  0  0  0
   25.9513  -44.7579    0.0000 O   0  0  0  0  0  0  0  0  0  0  0  0
   25.3063  -45.2862    0.0000 P   0  0  0  0  0  0  0  0  0  0  0  0
   24.7744  -44.6482    0.0000 O   0  0  0  0  0  0  0  0  0  0  0  0
   25.8425  -45.9229    0.0000 O   0  0  0  0  0  0  0  0  0  0  0  0
   26.6770  -47.8590    0.0000 C   0  0  0  0  0  0  0  0  0  0  0  0
   27.2120  -47.3078    0.0000 N   0  0  0  0  0  0  0  0  0  0  0  0
   27.0953  -48.6715    0.0000 C   0  0  0  0  0  0  0  0  0  0  0  0
   25.8528  -47.8104    0.0000 N   0  0  0  0  0  0  0  0  0  0  0  0
   27.0865  -46.5215    0.0000 C   0  0  0  0  0  0  0  0  0  0  0  0
   27.9861  -47.7228    0.0000 C   0  0  0  0  0  0  0  0  0  0  0  0
   27.8522  -48.5683    0.0000 N   0  0  0  0  0  0  0  0  0  0  0  0
   26.6595  -49.3588    0.0000 C   0  0  0  0  0  0  0  0  0  0  0  0
   25.3705  -48.5317    0.0000 C   0  0  0  0  0  0  0  0  0  0  0  0
   27.6873  -45.9316    0.0000 O   0  0  0  0  0  0  0  0  0  0  0  0
   26.4011  -46.1516    0.0000 C   0  0  0  0  0  0  0  0  0  0  0  0
   25.7758  -49.3250    0.0000 N   0  0  0  0  0  0  0  0  0  0  0  0
   27.0216  -50.0851    0.0000 O   0  0  0  0  0  0  0  0  0  0  0  0
   24.5597  -48.4828    0.0000 N   0  0  0  0  0  0  0  0  0  0  0  0
   27.3306  -45.2135    0.0000 C   0  0  0  0  0  0  0  0  0  0  0  0
   26.5278  -45.3396    0.0000 C   0  0  0  0  0  0  0  0  0  0  0  0
   25.7075  -46.6005    0.0000 O   0  0  0  0  0  0  0  0  0  0  0  0
   27.6929  -44.4863    0.0000 C   0  0  0  0  0  0  0  0  0  0  0  0
   28.5064  -44.5985    0.0000 O   0  0  0  0  0  0  0  0  0  0  0  0
   30.0526  -44.0290    0.0000 O   0  0  0  0  0  0  0  0  0  0  0  0
   29.2797  -44.3174    0.0000 P   0  0  0  0  0  0  0  0  0  0  0  0
   28.9937  -43.5372    0.0000 O   0  0  0  0  0  0  0  0  0  0  0  0
   29.5686  -45.0895    0.0000 O   0  0  0  0  0  0  0  0  0  0  0  0
   30.8298  -47.1242    0.0000 C   0  0  0  0  0  0  0  0  0  0  0  0
   31.3551  -46.5637    0.0000 N   0  0  0  0  0  0  0  0  0  0  0  0
   31.2450  -47.9307    0.0000 C   0  0  0  0  0  0  0  0  0  0  0  0
   29.9906  -47.0843    0.0000 N   0  0  0  0  0  0  0  0  0  0  0  0
   31.2186  -45.7724    0.0000 C   0  0  0  0  0  0  0  0  0  0  0  0
   32.1334  -46.9722    0.0000 C   0  0  0  0  0  0  0  0  0  0  0  0
   32.0002  -47.8141    0.0000 N   0  0  0  0  0  0  0  0  0  0  0  0
   30.8173  -48.6154    0.0000 C   0  0  0  0  0  0  0  0  0  0  0  0
   29.5309  -47.8097    0.0000 C   0  0  0  0  0  0  0  0  0  0  0  0
   31.8063  -45.1793    0.0000 O   0  0  0  0  0  0  0  0  0  0  0  0
   30.5239  -45.4218    0.0000 C   0  0  0  0  0  0  0  0  0  0  0  0
   29.9428  -48.5928    0.0000 N   0  0  0  0  0  0  0  0  0  0  0  0
   31.1961  -49.3452    0.0000 O   0  0  0  0  0  0  0  0  0  0  0  0
   28.7152  -47.7650    0.0000 N   0  0  0  0  0  0  0  0  0  0  0  0
   31.4441  -44.4705    0.0000 C   0  0  0  0  0  0  0  0  0  0  0  0
   30.6507  -44.6133    0.0000 C   0  0  0  0  0  0  0  0  0  0  0  0
   29.8412  -45.8756    0.0000 O   0  0  0  0  0  0  0  0  0  0  0  0
   31.8078  -43.7427    0.0000 C   0  0  0  0  0  0  0  0  0  0  0  0
   32.6084  -43.8412    0.0000 O   0  0  0  0  0  0  0  0  0  0  0  0
   33.3174  -42.3468    0.0000 O   0  0  0  0  0  0  0  0  0  0  0  0
   32.9681  -43.0908    0.0000 P   0  0  0  0  0  0  0  0  0  0  0  0
   32.2134  -42.7456    0.0000 O   0  0  0  0  0  0  0  0  0  0  0  0
   33.7199  -43.4394    0.0000 O   0  0  0  0  0  0  0  0  0  0  0  0
   34.7016  -41.1731    0.0000 C   0  0  0  0  0  0  0  0  0  0  0  0
   34.7597  -42.0013    0.0000 C   0  0  0  0  0  0  0  0  0  0  0  0
   34.1142  -42.5378    0.0000 C   0  0  0  0  0  0  0  0  0  0  0  0
   34.4350  -43.2992    0.0000 C   0  0  0  0  0  0  0  0  0  0  0  0
   33.9825  -44.0075    0.0000 O   0  0  0  0  0  0  0  0  0  0  0  0
   35.2645  -43.2418    0.0000 C   0  0  0  0  0  0  0  0  0  0  0  0
   35.4591  -42.4338    0.0000 O   0  0  0  0  0  0  0  0  0  0  0  0
   35.8326  -43.8439    0.0000 N   0  0  0  0  0  0  0  0  0  0  0  0
   35.6135  -44.6420    0.0000 C   0  0  0  0  0  0  0  0  0  0  0  0
   36.3223  -45.0906    0.0000 N   0  0  0  0  0  0  0  0  0  0  0  0
   36.9588  -44.5660    0.0000 C   0  0  0  0  0  0  0  0  0  0  0  0
   37.7720  -44.6889    0.0000 C   0  0  0  0  0  0  0  0  0  0  0  0
   38.0812  -45.4641    0.0000 N   0  0  0  0  0  0  0  0  0  0  0  0
   38.2773  -44.0369    0.0000 N   0  0  0  0  0  0  0  0  0  0  0  0
   37.9745  -43.2666    0.0000 C   0  0  0  0  0  0  0  0  0  0  0  0
   37.1612  -43.1577    0.0000 N   0  0  0  0  0  0  0  0  0  0  0  0
   36.6404  -43.8025    0.0000 C   0  0  0  0  0  0  0  0  0  0  0  0
   33.9569  -40.8146    0.0000 O   0  0  0  0  0  0  0  0  0  0  0  0
   34.7886  -39.3839    0.0000 O   0  0  0  0  0  0  0  0  0  0  0  0
   35.6067  -39.4486    0.0000 C   0  0  0  0  0  0  0  0  0  0  0  0
   36.0373  -40.1490    0.0000 C   0  0  0  0  0  0  0  0  0  0  0  0
   36.1367  -38.8290    0.0000 C   0  0  0  0  0  0  0  0  0  0  0  0
   36.8508  -39.9385    0.0000 C   0  0  0  0  0  0  0  0  0  0  0  0
   36.9086  -39.1361    0.0000 O   0  0  0  0  0  0  0  0  0  0  0  0
   35.9455  -38.0269    0.0000 C   0  0  0  0  0  0  0  0  0  0  0  0
   35.1275  -37.9464    0.0000 O   0  0  0  0  0  0  0  0  0  0  0  0
   37.4850  -40.4716    0.0000 N   0  0  0  0  0  0  0  0  0  0  0  0
   37.3389  -41.2816    0.0000 C   0  0  0  0  0  0  0  0  0  0  0  0
   37.9730  -41.8150    0.0000 N   0  0  0  0  0  0  0  0  0  0  0  0
   38.7486  -41.5210    0.0000 C   0  0  0  0  0  0  0  0  0  0  0  0
   38.8918  -40.7176    0.0000 C   0  0  0  0  0  0  0  0  0  0  0  0
   38.2574  -40.1845    0.0000 C   0  0  0  0  0  0  0  0  0  0  0  0
   36.5626  -41.5620    0.0000 O   0  0  0  0  0  0  0  0  0  0  0  0
   39.3864  -42.0536    0.0000 O   0  0  0  0  0  0  0  0  0  0  0  0
   39.6710  -40.4301    0.0000 C   0  0  0  0  0  0  0  0  0  0  0  0
   34.8877  -36.3190    0.0000 O   0  0  0  0  0  0  0  0  0  0  0  0
   35.0242  -37.1281    0.0000 P   0  0  0  0  0  0  0  0  0  0  0  0
   35.8412  -37.0056    0.0000 O   0  0  0  0  0  0  0  0  0  0  0  0
   34.2108  -37.2473    0.0000 O   0  0  0  0  0  0  0  0  0  0  0  0
   38.0393  -35.8585    0.0000 C   0  0  0  0  0  0  0  0  0  0  0  0
   37.5313  -35.2755    0.0000 N   0  0  0  0  0  0  0  0  0  0  0  0
   38.8881  -35.5180    0.0000 C   0  0  0  0  0  0  0  0  0  0  0  0
   37.9283  -36.6774    0.0000 N   0  0  0  0  0  0  0  0  0  0  0  0
   36.7355  -35.3223    0.0000 C   0  0  0  0  0  0  0  0  0  0  0  0
   38.0139  -34.5402    0.0000 C   0  0  0  0  0  0  0  0  0  0  0  0
   38.8450  -34.7483    0.0000 N   0  0  0  0  0  0  0  0  0  0  0  0
   39.5272  -36.0059    0.0000 C   0  0  0  0  0  0  0  0  0  0  0  0
   38.5880  -37.2129    0.0000 C   0  0  0  0  0  0  0  0  0  0  0  0
   36.1991  -34.6854    0.0000 O   0  0  0  0  0  0  0  0  0  0  0  0
   36.3067  -35.9827    0.0000 C   0  0  0  0  0  0  0  0  0  0  0  0
   39.4166  -36.8821    0.0000 N   0  0  0  0  0  0  0  0  0  0  0  0
   40.2801  -35.6992    0.0000 O   0  0  0  0  0  0  0  0  0  0  0  0
   38.4729  -38.0146    0.0000 N   0  0  0  0  0  0  0  0  0  0  0  0
   35.4514  -34.9784    0.0000 C   0  0  0  0  0  0  0  0  0  0  0  0
   35.5175  -35.7831    0.0000 C   0  0  0  0  0  0  0  0  0  0  0  0
   36.7044  -36.7151    0.0000 O   0  0  0  0  0  0  0  0  0  0  0  0
   34.7663  -34.5509    0.0000 C   0  0  0  0  0  0  0  0  0  0  0  0
   34.9462  -33.7582    0.0000 O   0  0  0  0  0  0  0  0  0  0  0  0
   34.8517  -32.1135    0.0000 O   0  0  0  0  0  0  0  0  0  0  0  0
   34.9047  -32.9384    0.0000 P   0  0  0  0  0  0  0  0  0  0  0  0
   34.0720  -32.9889    0.0000 O   0  0  0  0  0  0  0  0  0  0  0  0
   35.7320  -32.8842    0.0000 O   0  0  0  0  0  0  0  0  0  0  0  0
   37.9460  -31.3506    0.0000 C   0  0  0  0  0  0  0  0  0  0  0  0
   37.3904  -30.8162    0.0000 N   0  0  0  0  0  0  0  0  0  0  0  0
   38.7571  -30.9314    0.0000 C   0  0  0  0  0  0  0  0  0  0  0  0
   37.9088  -32.1755    0.0000 N   0  0  0  0  0  0  0  0  0  0  0  0
   36.6016  -30.9428    0.0000 C   0  0  0  0  0  0  0  0  0  0  0  0
   37.7990  -30.0465    0.0000 C   0  0  0  0  0  0  0  0  0  0  0  0
   38.6462  -30.1687    0.0000 N   0  0  0  0  0  0  0  0  0  0  0  0
   39.4431  -31.3547    0.0000 C   0  0  0  0  0  0  0  0  0  0  0  0
   38.6265  -32.6522    0.0000 C   0  0  0  0  0  0  0  0  0  0  0  0
   36.0077  -30.3598    0.0000 O   0  0  0  0  0  0  0  0  0  0  0  0
   36.2382  -31.6402    0.0000 C   0  0  0  0  0  0  0  0  0  0  0  0
   39.4113  -32.2432    0.0000 N   0  0  0  0  0  0  0  0  0  0  0  0
   40.1642  -30.9827    0.0000 O   0  0  0  0  0  0  0  0  0  0  0  0
   38.5888  -33.4635    0.0000 N   0  0  0  0  0  0  0  0  0  0  0  0
   35.2974  -30.7195    0.0000 C   0  0  0  0  0  0  0  0  0  0  0  0
   35.4273  -31.5175    0.0000 C   0  0  0  0  0  0  0  0  0  0  0  0
   36.6965  -32.3275    0.0000 O   0  0  0  0  0  0  0  0  0  0  0  0
   34.5680  -30.3600    0.0000 C   0  0  0  0  0  0  0  0  0  0  0  0
   34.6655  -29.5498    0.0000 O   0  0  0  0  0  0  0  0  0  0  0  0
   33.8469  -28.3713    0.0000 O   0  0  0  0  0  0  0  0  0  0  0  0
   33.9203  -29.2017    0.0000 P   0  0  0  0  0  0  0  0  0  0  0  0
   33.0963  -29.2783    0.0000 O   0  0  0  0  0  0  0  0  0  0  0  0
   34.7483  -29.1173    0.0000 O   0  0  0  0  0  0  0  0  0  0  0  0
   34.5093  -27.8849    0.0000 C   0  0  0  0  0  0  0  0  0  0  0  0
   35.2895  -28.1279    0.0000 C   0  0  0  0  0  0  0  0  0  0  0  0
   34.4990  -27.0661    0.0000 C   0  0  0  0  0  0  0  0  0  0  0  0
   35.7669  -27.4337    0.0000 C   0  0  0  0  0  0  0  0  0  0  0  0
   35.2908  -26.7966    0.0000 O   0  0  0  0  0  0  0  0  0  0  0  0
   33.8310  -26.5891    0.0000 C   0  0  0  0  0  0  0  0  0  0  0  0
   33.1574  -27.0643    0.0000 O   0  0  0  0  0  0  0  0  0  0  0  0
   36.5962  -27.4178    0.0000 N   0  0  0  0  0  0  0  0  0  0  0  0
   37.0177  -28.1257    0.0000 C   0  0  0  0  0  0  0  0  0  0  0  0
   37.8470  -28.1103    0.0000 N   0  0  0  0  0  0  0  0  0  0  0  0
   38.2462  -27.3842    0.0000 C   0  0  0  0  0  0  0  0  0  0  0  0
   37.8117  -26.6871    0.0000 C   0  0  0  0  0  0  0  0  0  0  0  0
   36.9951  -26.6915    0.0000 C   0  0  0  0  0  0  0  0  0  0  0  0
   36.6183  -28.8524    0.0000 O   0  0  0  0  0  0  0  0  0  0  0  0
   39.0752  -27.3672    0.0000 O   0  0  0  0  0  0  0  0  0  0  0  0
   38.2109  -25.9605    0.0000 C   0  0  0  0  0  0  0  0  0  0  0  0
   31.9038  -25.9998    0.0000 O   0  0  0  0  0  0  0  0  0  0  0  0
   32.5444  -26.5120    0.0000 P   0  0  0  0  0  0  0  0  0  0  0  0
   33.0819  -25.8860    0.0000 O   0  0  0  0  0  0  0  0  0  0  0  0
   32.0166  -27.1430    0.0000 O   0  0  0  0  0  0  0  0  0  0  0  0
   33.8152  -23.4475    0.0000 C   0  0  0  0  0  0  0  0  0  0  0  0
   33.0488  -23.3872    0.0000 N   0  0  0  0  0  0  0  0  0  0  0  0
   34.1738  -22.6016    0.0000 C   0  0  0  0  0  0  0  0  0  0  0  0
   34.3191  -24.1083    0.0000 N   0  0  0  0  0  0  0  0  0  0  0  0
   32.5229  -23.9858    0.0000 C   0  0  0  0  0  0  0  0  0  0  0  0
   32.8759  -22.5301    0.0000 C   0  0  0  0  0  0  0  0  0  0  0  0
   33.6092  -22.0852    0.0000 N   0  0  0  0  0  0  0  0  0  0  0  0
   34.9777  -22.4995    0.0000 C   0  0  0  0  0  0  0  0  0  0  0  0
   35.1701  -24.0132    0.0000 C   0  0  0  0  0  0  0  0  0  0  0  0
   31.6877  -23.9118    0.0000 O   0  0  0  0  0  0  0  0  0  0  0  0
   32.6868  -24.7597    0.0000 C   0  0  0  0  0  0  0  0  0  0  0  0
   35.5200  -23.1975    0.0000 N   0  0  0  0  0  0  0  0  0  0  0  0
   35.3061  -21.7515    0.0000 O   0  0  0  0  0  0  0  0  0  0  0  0
   35.6573  -24.6666    0.0000 N   0  0  0  0  0  0  0  0  0  0  0  0
   31.3716  -24.6418    0.0000 C   0  0  0  0  0  0  0  0  0  0  0  0
   31.9761  -25.1746    0.0000 C   0  0  0  0  0  0  0  0  0  0  0  0
   33.4736  -24.9959    0.0000 O   0  0  0  0  0  0  0  0  0  0  0  0
   30.5789  -24.8274    0.0000 C   0  0  0  0  0  0  0  0  0  0  0  0
   30.1398  -24.1432    0.0000 O   0  0  0  0  0  0  0  0  0  0  0  0
   29.1670  -22.8034    0.0000 O   0  0  0  0  0  0  0  0  0  0  0  0
   29.6543  -23.4747    0.0000 P   0  0  0  0  0  0  0  0  0  0  0  0
   28.9876  -23.9687    0.0000 O   0  0  0  0  0  0  0  0  0  0  0  0
   30.3228  -22.9848    0.0000 O   0  0  0  0  0  0  0  0  0  0  0  0
   30.2259  -21.0427    0.0000 C   0  0  0  0  0  0  0  0  0  0  0  0
   30.9573  -20.6674    0.0000 N   0  0  0  0  0  0  0  0  0  0  0  0
   29.4760  -20.6518    0.0000 O   0  0  0  0  0  0  0  0  0  0  0  0
   30.1109  -21.8367    0.0000 C   0  0  0  0  0  0  0  0  0  0  0  0
   31.6347  -21.1159    0.0000 C   0  0  0  0  0  0  0  0  0  0  0  0
   31.0087  -19.8589    0.0000 C   0  0  0  0  0  0  0  0  0  0  0  0
   28.9032  -21.2484    0.0000 C   0  0  0  0  0  0  0  0  0  0  0  0
   29.2945  -21.9794    0.0000 C   0  0  0  0  0  0  0  0  0  0  0  0
   30.4913  -22.5757    0.0000 O   0  0  0  0  0  0  0  0  0  0  0  0
   32.3801  -20.7592    0.0000 N   0  0  0  0  0  0  0  0  0  0  0  0
   31.5887  -21.9458    0.0000 O   0  0  0  0  0  0  0  0  0  0  0  0
   31.7390  -19.4900    0.0000 C   0  0  0  0  0  0  0  0  0  0  0  0
   28.0851  -21.1378    0.0000 C   0  0  0  0  0  0  0  0  0  0  0  0
   32.4228  -19.9468    0.0000 C   0  0  0  0  0  0  0  0  0  0  0  0
   33.1653  -19.5794    0.0000 N   0  0  0  0  0  0  0  0  0  0  0  0
   27.7773  -20.3751    0.0000 O   0  0  0  0  0  0  0  0  0  0  0  0
   26.3538  -19.5432    0.0000 O   0  0  0  0  0  0  0  0  0  0  0  0
   27.0495  -19.9972    0.0000 P   0  0  0  0  0  0  0  0  0  0  0  0
   26.6306  -20.7057    0.0000 O   0  0  0  0  0  0  0  0  0  0  0  0
   27.4736  -19.2809    0.0000 O   0  0  0  0  0  0  0  0  0  0  0  0
   28.9392  -17.8382    0.0000 C   0  0  0  0  0  0  0  0  0  0  0  0
   29.7448  -17.6759    0.0000 N   0  0  0  0  0  0  0  0  0  0  0  0
   28.3180  -17.2788    0.0000 O   0  0  0  0  0  0  0  0  0  0  0  0
   28.6280  -18.5781    0.0000 C   0  0  0  0  0  0  0  0  0  0  0  0
   30.2825  -18.2748    0.0000 C   0  0  0  0  0  0  0  0  0  0  0  0
   29.9943  -16.9005    0.0000 C   0  0  0  0  0  0  0  0  0  0  0  0
   27.6016  -17.7157    0.0000 C   0  0  0  0  0  0  0  0  0  0  0  0
   27.7907  -18.5115    0.0000 C   0  0  0  0  0  0  0  0  0  0  0  0
   28.8134  -19.3999    0.0000 O   0  0  0  0  0  0  0  0  0  0  0  0
   31.0883  -18.1129    0.0000 N   0  0  0  0  0  0  0  0  0  0  0  0
   30.0298  -19.0653    0.0000 O   0  0  0  0  0  0  0  0  0  0  0  0
   30.7980  -16.7271    0.0000 C   0  0  0  0  0  0  0  0  0  0  0  0
   26.8417  -17.3930    0.0000 C   0  0  0  0  0  0  0  0  0  0  0  0
   31.3363  -17.3457    0.0000 C   0  0  0  0  0  0  0  0  0  0  0  0
   32.1516  -17.1763    0.0000 N   0  0  0  0  0  0  0  0  0  0  0  0
   26.7309  -16.5815    0.0000 O   0  0  0  0  0  0  0  0  0  0  0  0
   25.7178  -15.4546    0.0000 O   0  0  0  0  0  0  0  0  0  0  0  0
   26.2590  -14.8304    0.0000 C   0  0  0  0  0  0  0  0  0  0  0  0
   27.0749  -14.8968    0.0000 C   0  0  0  0  0  0  0  0  0  0  0  0
   26.0780  -14.0380    0.0000 C   0  0  0  0  0  0  0  0  0  0  0  0
   27.3969  -14.1256    0.0000 C   0  0  0  0  0  0  0  0  0  0  0  0
   26.7830  -13.5969    0.0000 O   0  0  0  0  0  0  0  0  0  0  0  0
   25.3199  -13.7093    0.0000 C   0  0  0  0  0  0  0  0  0  0  0  0
   24.7614  -14.3189    0.0000 O   0  0  0  0  0  0  0  0  0  0  0  0
   28.1997  -13.9335    0.0000 N   0  0  0  0  0  0  0  0  0  0  0  0
   28.7680  -14.5274    0.0000 C   0  0  0  0  0  0  0  0  0  0  0  0
   29.5710  -14.3355    0.0000 N   0  0  0  0  0  0  0  0  0  0  0  0
   29.7943  -13.5395    0.0000 C   0  0  0  0  0  0  0  0  0  0  0  0
   29.2330  -12.9425    0.0000 C   0  0  0  0  0  0  0  0  0  0  0  0
   28.4300  -13.1348    0.0000 C   0  0  0  0  0  0  0  0  0  0  0  0
   28.5270  -15.3182    0.0000 O   0  0  0  0  0  0  0  0  0  0  0  0
   30.6083  -13.3474    0.0000 O   0  0  0  0  0  0  0  0  0  0  0  0
   29.4639  -12.1474    0.0000 C   0  0  0  0  0  0  0  0  0  0  0  0
   24.8103  -10.7355    0.0000 C   0  0  0  0  0  0  0  0  0  0  0  0
   24.0491  -10.8001    0.0000 N   0  0  0  0  0  0  0  0  0  0  0  0
   25.0469   -9.8539    0.0000 C   0  0  0  0  0  0  0  0  0  0  0  0
   25.4078  -11.3199    0.0000 N   0  0  0  0  0  0  0  0  0  0  0  0
   23.6142  -11.4730    0.0000 C   0  0  0  0  0  0  0  0  0  0  0  0
   23.7431   -9.9741    0.0000 C   0  0  0  0  0  0  0  0  0  0  0  0
   24.4043   -9.4229    0.0000 N   0  0  0  0  0  0  0  0  0  0  0  0
   25.8177   -9.6278    0.0000 C   0  0  0  0  0  0  0  0  0  0  0  0
   26.2366  -11.0968    0.0000 C   0  0  0  0  0  0  0  0  0  0  0  0
   22.7814  -11.5160    0.0000 O   0  0  0  0  0  0  0  0  0  0  0  0
   23.8934  -12.2021    0.0000 C   0  0  0  0  0  0  0  0  0  0  0  0
   26.4540  -10.2379    0.0000 N   0  0  0  0  0  0  0  0  0  0  0  0
   26.0202   -8.8349    0.0000 O   0  0  0  0  0  0  0  0  0  0  0  0
   26.8061  -11.6726    0.0000 N   0  0  0  0  0  0  0  0  0  0  0  0
   22.5762  -12.2929    0.0000 C   0  0  0  0  0  0  0  0  0  0  0  0
   23.2552  -12.7238    0.0000 C   0  0  0  0  0  0  0  0  0  0  0  0
   24.7078  -12.3192    0.0000 O   0  0  0  0  0  0  0  0  0  0  0  0
   21.8201  -12.5954    0.0000 C   0  0  0  0  0  0  0  0  0  0  0  0
   21.2898  -11.9741    0.0000 O   0  0  0  0  0  0  0  0  0  0  0  0
   23.3075  -13.5472    0.0000 O   0  0  0  0  0  0  0  0  0  0  0  0
   17.3748   -8.7413    0.0000 C   0  0  0  0  0  0  0  0  0  0  0  0
   16.7329   -9.2742    0.0000 O   0  0  0  0  0  0  0  0  0  0  0  0
   16.0313   -8.8187    0.0000 C   0  0  0  0  0  0  0  0  0  0  0  0
   15.2590   -9.1293    0.0000 O   0  0  0  0  0  0  0  0  0  0  0  0
   16.2307   -8.0218    0.0000 C   0  0  0  0  0  0  0  0  0  0  0  0
   15.7787   -7.3288    0.0000 C   0  0  0  0  0  0  0  0  0  0  0  0
   16.1500   -6.5889    0.0000 C   0  0  0  0  0  0  0  0  0  0  0  0
   16.9782   -6.5343    0.0000 C   0  0  0  0  0  0  0  0  0  0  0  0
   17.4399   -7.2194    0.0000 C   0  0  0  0  0  0  0  0  0  0  0  0
   17.0707   -7.9640    0.0000 C   0  0  0  0  0  0  0  0  0  0  0  0
   17.9519   -8.1532    0.0000 C   0  0  0  0  0  0  0  0  0  0  0  0
   17.7339   -7.3507    0.0000 C   0  0  0  0  0  0  0  0  0  0  0  0
   18.3110   -6.7624    0.0000 C   0  0  0  0  0  0  0  0  0  0  0  0
   19.1136   -6.9762    0.0000 C   0  0  0  0  0  0  0  0  0  0  0  0
   19.6977   -6.3805    0.0000 O   0  0  0  0  0  0  0  0  0  0  0  0
   19.3338   -7.7714    0.0000 C   0  0  0  0  0  0  0  0  0  0  0  0
   18.7589   -8.3570    0.0000 C   0  0  0  0  0  0  0  0  0  0  0  0
   18.9792   -9.1523    0.0000 O   0  0  0  0  0  0  0  0  0  0  0  0
   18.3951   -9.7480    0.0000 C   0  0  0  0  0  0  0  0  0  0  0  0
   18.6182  -10.5504    0.0000 C   0  0  0  0  0  0  0  0  0  0  0  0
   18.0413  -11.1433    0.0000 C   0  0  0  0  0  0  0  0  0  0  0  0
   18.2543  -11.9416    0.0000 O   0  0  0  0  0  0  0  0  0  0  0  0
   17.2344  -10.9397    0.0000 C   0  0  0  0  0  0  0  0  0  0  0  0
   17.0109  -10.1324    0.0000 C   0  0  0  0  0  0  0  0  0  0  0  0
   17.5954   -9.5414    0.0000 C   0  0  0  0  0  0  0  0  0  0  0  0
   17.9589  -12.7107    0.0000 C   0  0  0  0  0  0  0  0  0  0  0  0
   18.4834  -13.3634    0.0000 C   0  0  0  0  0  0  0  0  0  0  0  0
   19.3062  -13.3198    0.0000 C   0  0  0  0  0  0  0  0  0  0  0  0
   19.7595  -12.6243    0.0000 O   0  0  0  0  0  0  0  0  0  0  0  0
   19.5999  -14.0910    0.0000 C   0  0  0  0  0  0  0  0  0  0  0  0
   20.4060  -14.3028    0.0000 O   0  0  0  0  0  0  0  0  0  0  0  0
   18.9468  -14.6107    0.0000 C   0  0  0  0  0  0  0  0  0  0  0  0
   18.2575  -14.1537    0.0000 O   0  0  0  0  0  0  0  0  0  0  0  0
   18.9514  -15.4400    0.0000 N   0  0  0  0  0  0  0  0  0  0  0  0
   19.6571  -15.8762    0.0000 C   0  0  0  0  0  0  0  0  0  0  0  0
   19.4462  -16.6842    0.0000 N   0  0  0  0  0  0  0  0  0  0  0  0
   18.6107  -16.7326    0.0000 C   0  0  0  0  0  0  0  0  0  0  0  0
   18.1007  -17.3809    0.0000 C   0  0  0  0  0  0  0  0  0  0  0  0
   18.3947  -18.1609    0.0000 N   0  0  0  0  0  0  0  0  0  0  0  0
   17.2891  -17.2473    0.0000 N   0  0  0  0  0  0  0  0  0  0  0  0
   16.9875  -16.4752    0.0000 C   0  0  0  0  0  0  0  0  0  0  0  0
   17.5012  -15.8308    0.0000 N   0  0  0  0  0  0  0  0  0  0  0  0
   18.3281  -15.9559    0.0000 C   0  0  0  0  0  0  0  0  0  0  0  0
   20.5291  -12.2931    0.0000 P   0  0  0  0  0  0  0  0  0  0  0  0
   20.8536  -13.0658    0.0000 O   0  0  0  0  0  0  0  0  0  0  0  0
   20.1979  -11.5335    0.0000 O   0  0  0  0  0  0  0  0  0  0  0  0
   24.0467  -13.9155    0.0000 P   0  0  0  0  0  0  0  0  0  0  0  0
   24.4363  -13.1826    0.0000 O   0  0  0  0  0  0  0  0  0  0  0  0
   23.6572  -14.6429    0.0000 O   0  0  0  0  0  0  0  0  0  0  0  0
   25.9978  -16.2327    0.0000 P   0  0  0  0  0  0  0  0  0  0  0  0
   25.2261  -16.5328    0.0000 O   0  0  0  0  0  0  0  0  0  0  0  0
   26.7611  -15.9331    0.0000 O   0  0  0  0  0  0  0  0  0  0  0  0
   34.3197  -40.0708    0.0000 P   0  0  0  0  0  0  0  0  0  0  0  0
   33.6015  -39.6532    0.0000 O   0  0  0  0  0  0  0  0  0  0  0  0
   35.0375  -40.4718    0.0000 O   0  0  0  0  0  0  0  0  0  0  0  0
    1.1071  -15.2539    0.0000 P   0  0  0  0  0  0  0  0  0  0  0  0
    1.9394  -15.3278    0.0000 O   0  0  0  0  0  0  0  0  0  0  0  0
    0.2750  -15.1799    0.0000 O   0  0  0  0  0  0  0  0  0  0  0  0
316317  1  0  0  0  0 
316318  2  0  0  0  0 
318319  1  0  0  0  0 
319320  2  0  0  0  0 
320321  1  0  0  0  0 
315321  2  0  0  0  0 
312321  1  0  0  0  0 
 73 74  2  0  0  0  0 
 74 75  1  0  0  0  0 
322323  1  0  0  0  0 
323304  1  0  0  0  0 
 75 76  1  0  0  0  0 
323324  2  0  0  0  0 
146147  1  0  0  0  0 
323325  1  0  0  0  0 
146148  2  0  0  0  0 
146149  1  0  0  0  0 
150147  1  1  0  0  0 
147151  1  0  0  0  0 
148152  1  0  0  0  0 
148153  1  0  0  0  0 
149154  2  0  0  0  0 
150155  1  0  0  0  0 
156150  1  0  0  0  0 
153157  1  0  0  0  0 
153158  2  0  0  0  0 
154159  1  0  0  0  0 
155160  1  0  0  0  0 
156161  1  0  0  0  0 
156162  1  6  0  0  0 
326327  1  1  0  0  0 
326328  1  0  0  0  0 
329326  1  0  0  0  0 
327330  1  0  0  0  0 
327331  1  0  0  0  0 
328332  1  0  0  0  0 
329333  1  0  0  0  0 
329334  1  6  0  0  0 
330335  1  0  0  0  0 
330336  2  0  0  0  0 
331337  2  0  0  0  0 
332338  1  1  0  0  0 
333325  1  6  0  0  0 
335339  2  0  0  0  0 
339340  1  0  0  0  0 
333332  1  0  0  0  0 
337339  1  0  0  0  0 
160163  1  1  0  0  0 
338341  1  0  0  0  0 
163164  1  0  0  0  0 
151152  2  0  0  0  0 
342343  1  0  0  0  0 
343341  1  0  0  0  0 
154157  1  0  0  0  0 
343344  2  0  0  0  0 
161160  1  0  0  0  0 
343345  1  0  0  0  0 
 76 77  1  0  0  0  0 
161165  1  6  0  0  0 
 76 78  2  0  0  0  0 
 78 79  1  0  0  0  0 
 79 80  2  0  0  0  0 
 80 81  1  0  0  0  0 
166167  1  0  0  0  0 
167164  1  0  0  0  0 
167168  1  0  0  0  0 
167169  2  0  0  0  0 
 75 81  2  0  0  0  0 
165170  1  0  0  0  0 
170141  1  0  0  0  0 
 72 81  1  0  0  0  0 
170171  2  0  0  0  0 
 35 39  1  0  0  0  0 
170172  1  0  0  0  0 
 17 19  1  0  0  0  0 
  9 10  1  0  0  0  0 
346347  1  0  0  0  0 
346348  2  0  0  0  0 
346349  1  0  0  0  0 
350347  1  1  0  0  0 
347351  1  0  0  0  0 
348352  1  0  0  0  0 
348353  1  0  0  0  0 
349354  2  0  0  0  0 
350355  1  0  0  0  0 
356350  1  0  0  0  0 
353357  1  0  0  0  0 
353358  2  0  0  0  0 
354359  1  0  0  0  0 
355360  1  0  0  0  0 
356361  1  0  0  0  0 
356362  1  6  0  0  0 
360363  1  1  0  0  0 
363364  1  0  0  0  0 
351352  2  0  0  0  0 
354357  1  0  0  0  0 
361360  1  0  0  0  0 
361342  1  6  0  0  0 
 40 41  1  0  0  0  0 
 41 30  1  0  0  0  0 
 16 20  2  0  0  0  0 
 41 42  2  0  0  0  0 
365366  1  0  0  0  0 
366364  1  0  0  0  0 
366367  1  0  0  0  0 
366368  2  0  0  0  0 
 10  6  1  0  0  0  0 
 41 43  1  0  0  0  0 
 14 21  2  0  0  0  0 
  1  3  1  0  0  0  0 
  6 22  1  0  0  0  0 
 12 22  1  0  0  0  0 
  9 11  1  1  0  0  0 
  6  5  1  1  0  0  0 
  8 12  1  6  0  0  0 
  6  7  1  0  0  0  0 
  7 13  1  6  0  0  0 
 11 14  1  0  0  0  0 
 82 83  1  0  0  0  0 
173174  1  0  0  0  0 
173175  2  0  0  0  0 
173176  1  0  0  0  0 
177174  1  1  0  0  0 
174178  1  0  0  0  0 
175179  1  0  0  0  0 
369370  1  0  0  0  0 
369371  2  0  0  0  0 
369372  1  0  0  0  0 
373370  1  1  0  0  0 
370374  1  0  0  0  0 
371375  1  0  0  0  0 
371376  1  0  0  0  0 
372377  2  0  0  0  0 
373378  1  0  0  0  0 
379373  1  0  0  0  0 
376380  1  0  0  0  0 
376381  2  0  0  0  0 
377382  1  0  0  0  0 
378383  1  0  0  0  0 
379384  1  0  0  0  0 
379385  1  6  0  0  0 
383386  1  1  0  0  0 
386387  1  0  0  0  0 
374375  2  0  0  0  0 
377380  1  0  0  0  0 
384383  1  0  0  0  0 
384365  1  6  0  0  0 
175180  1  0  0  0  0 
176181  2  0  0  0  0 
177182  1  0  0  0  0 
183177  1  0  0  0  0 
388389  1  0  0  0  0 
389387  1  0  0  0  0 
389390  1  0  0  0  0 
389391  2  0  0  0  0 
180184  1  0  0  0  0 
180185  2  0  0  0  0 
181186  1  0  0  0  0 
182187  1  0  0  0  0 
183188  1  0  0  0  0 
183189  1  6  0  0  0 
187190  1  1  0  0  0 
190191  1  0  0  0  0 
178179  2  0  0  0  0 
181184  1  0  0  0  0 
188187  1  0  0  0  0 
 82 84  2  0  0  0  0 
188192  1  6  0  0  0 
 82 85  1  0  0  0  0 
192193  1  0  0  0  0 
193112  1  0  0  0  0 
 86 83  1  1  0  0  0 
193194  2  0  0  0  0 
 83 87  1  0  0  0  0 
392393  1  0  0  0  0 
392394  2  0  0  0  0 
392395  1  0  0  0  0 
396393  1  1  0  0  0 
393397  1  0  0  0  0 
394398  1  0  0  0  0 
394399  1  0  0  0  0 
395400  2  0  0  0  0 
396401  1  0  0  0  0 
402396  1  0  0  0  0 
399403  1  0  0  0  0 
399404  2  0  0  0  0 
400405  1  0  0  0  0 
401406  1  0  0  0  0 
402407  1  0  0  0  0 
402408  1  6  0  0  0 
406409  1  1  0  0  0 
409410  1  0  0  0  0 
397398  2  0  0  0  0 
400403  1  0  0  0  0 
407406  1  0  0  0  0 
407388  1  6  0  0  0 
193195  1  0  0  0  0 
 84 88  1  0  0  0  0 
 84 89  1  0  0  0  0 
 85 90  2  0  0  0  0 
411412  1  0  0  0  0 
412410  1  0  0  0  0 
412413  1  0  0  0  0 
412414  2  0  0  0  0 
 86 91  1  0  0  0  0 
 92 86  1  0  0  0  0 
 89 93  1  0  0  0  0 
 89 94  2  0  0  0  0 
 90 95  1  0  0  0  0 
 91 96  1  0  0  0  0 
 92 97  1  0  0  0  0 
 92 98  1  6  0  0  0 
 96 99  1  1  0  0  0 
 99100  1  0  0  0  0 
 87 88  2  0  0  0  0 
 90 93  1  0  0  0  0 
 97 96  1  0  0  0  0 
  1  2  1  0  0  0  0 
 97101  1  6  0  0  0 
196197  1  0  0  0  0 
196198  2  0  0  0  0 
416415  1  1  0  0  0 
416417  1  0  0  0  0 
417411  1  6  0  0  0 
417418  1  0  0  0  0 
418419  1  6  0  0  0 
418420  1  0  0  0  0 
420421  1  0  0  0  0 
416421  1  0  0  0  0 
420422  1  1  0  0  0 
422423  1  0  0  0  0 
423424  2  0  0  0  0 
424425  1  0  0  0  0 
425426  1  0  0  0  0 
426427  1  0  0  0  0 
426428  2  0  0  0  0 
428429  1  0  0  0  0 
429430  2  0  0  0  0 
430431  1  0  0  0  0 
425431  2  0  0  0  0 
422431  1  0  0  0  0 
196199  1  0  0  0  0 
415432  1  0  0  0  0 
200197  1  1  0  0  0 
197201  1  0  0  0  0 
198202  1  0  0  0  0 
198203  1  0  0  0  0 
199204  2  0  0  0  0 
200205  1  0  0  0  0 
206200  1  0  0  0  0 
203207  1  0  0  0  0 
203208  2  0  0  0  0 
204209  1  0  0  0  0 
205210  1  0  0  0  0 
206211  1  0  0  0  0 
206212  1  6  0  0  0 
210213  1  1  0  0  0 
213122  1  0  0  0  0 
201202  2  0  0  0  0 
204207  1  0  0  0  0 
434435  1  0  0  0  0 
434436  1  0  0  0  0 
435437  1  0  0  0  0 
436438  1  0  0  0  0 
437438  1  0  0  0  0 
434433  1  6  0  0  0 
439440  1  0  0  0  0 
436439  1  1  0  0  0 
441442  1  0  0  0  0 
442443  1  0  0  0  0 
443444  1  0  0  0  0 
444445  1  0  0  0  0 
445446  2  0  0  0  0 
446441  1  0  0  0  0 
437441  1  1  0  0  0 
442447  2  0  0  0  0 
444448  2  0  0  0  0 
445449  1  0  0  0  0 
211210  1  0  0  0  0 
  1  4  2  0  0  0  0 
450451  1  0  0  0  0 
451440  1  0  0  0  0 
211214  1  6  0  0  0 
451452  2  0  0  0  0 
451453  1  0  0  0  0 
214215  1  0  0  0  0 
215191  1  0  0  0  0 
  2  5  1  0  0  0  0 
215216  2  0  0  0  0 
  7  8  1  0  0  0  0 
215217  1  0  0  0  0 
102103  1  0  0  0  0 
103100  1  0  0  0  0 
103104  1  0  0  0  0 
103105  2  0  0  0  0 
 44 45  1  1  0  0  0 
 44 46  1  0  0  0  0 
 47 44  1  0  0  0  0 
 45 48  1  0  0  0  0 
 45 49  1  0  0  0  0 
 46 50  1  0  0  0  0 
 47 51  1  0  0  0  0 
 47 52  1  6  0  0  0 
 48 53  1  0  0  0  0 
454455  1  0  0  0  0 
454456  2  0  0  0  0 
454457  1  0  0  0  0 
458455  1  1  0  0  0 
455459  1  0  0  0  0 
456460  1  0  0  0  0 
456461  1  0  0  0  0 
457462  2  0  0  0  0 
458463  1  0  0  0  0 
464458  1  0  0  0  0 
461465  1  0  0  0  0 
461466  2  0  0  0  0 
462467  1  0  0  0  0 
463468  1  0  0  0  0 
464469  1  0  0  0  0 
464470  1  6  0  0  0 
468471  1  1  0  0  0 
471472  1  0  0  0  0 
459460  2  0  0  0  0 
462465  1  0  0  0  0 
469468  1  0  0  0  0 
469450  1  6  0  0  0 
 48 54  2  0  0  0  0 
 49 55  2  0  0  0  0 
 50 56  1  1  0  0  0 
218219  1  0  0  0  0 
473474  1  0  0  0  0 
474472  1  0  0  0  0 
474475  1  0  0  0  0 
474476  2  0  0  0  0 
218220  1  0  0  0  0 
219221  1  0  0  0  0 
220222  1  0  0  0  0 
221222  1  0  0  0  0 
218166  1  6  0  0  0 
223224  1  0  0  0  0 
220223  1  1  0  0  0 
225226  1  0  0  0  0 
226227  1  0  0  0  0 
227228  1  0  0  0  0 
228229  1  0  0  0  0 
229230  2  0  0  0  0 
230225  1  0  0  0  0 
221225  1  1  0  0  0 
226231  2  0  0  0  0 
228232  2  0  0  0  0 
229233  1  0  0  0  0 
 51 43  1  6  0  0  0 
 53 57  2  0  0  0  0 
477478  1  0  0  0  0 
477479  2  0  0  0  0 
477480  1  0  0  0  0 
481478  1  1  0  0  0 
478482  1  0  0  0  0 
479483  1  0  0  0  0 
479484  1  0  0  0  0 
480485  2  0  0  0  0 
481486  1  0  0  0  0 
487481  1  0  0  0  0 
484488  1  0  0  0  0 
484489  2  0  0  0  0 
485490  1  0  0  0  0 
486491  1  0  0  0  0 
487492  1  0  0  0  0 
487493  1  6  0  0  0 
491494  1  1  0  0  0 
494495  1  0  0  0  0 
482483  2  0  0  0  0 
485488  1  0  0  0  0 
492491  1  0  0  0  0 
492473  1  6  0  0  0 
234235  1  0  0  0  0 
235224  1  0  0  0  0 
 57 58  1  0  0  0  0 
235236  2  0  0  0  0 
496497  1  0  0  0  0 
497495  1  0  0  0  0 
497498  1  0  0  0  0 
497499  2  0  0  0  0 
106107  1  0  0  0  0 
235237  1  0  0  0  0 
106108  1  0  0  0  0 
107109  1  0  0  0  0 
108110  1  0  0  0  0 
109110  1  0  0  0  0 
106102  1  6  0  0  0 
111112  1  0  0  0  0 
108111  1  1  0  0  0 
113114  1  0  0  0  0 
114115  1  0  0  0  0 
115116  1  0  0  0  0 
116117  1  0  0  0  0 
117118  2  0  0  0  0 
118113  1  0  0  0  0 
109113  1  1  0  0  0 
500501  1  0  0  0  0 
500502  1  0  0  0  0 
501503  1  0  0  0  0 
502504  1  0  0  0  0 
503504  1  0  0  0  0 
500496  1  6  0  0  0 
505506  1  0  0  0  0 
502505  1  1  0  0  0 
507508  1  0  0  0  0 
508509  1  0  0  0  0 
509510  1  0  0  0  0 
510511  1  0  0  0  0 
511512  2  0  0  0  0 
512507  1  0  0  0  0 
503507  1  1  0  0  0 
508513  2  0  0  0  0 
510514  2  0  0  0  0 
511515  1  0  0  0  0 
114121  2  0  0  0  0 
116119  2  0  0  0  0 
516517  1  0  0  0  0 
517506  1  0  0  0  0 
238239  1  0  0  0  0 
517518  2  0  0  0  0 
238240  1  0  0  0  0 
517519  1  0  0  0  0 
239241  1  0  0  0  0 
240242  1  0  0  0  0 
241242  1  0  0  0  0 
238234  1  6  0  0  0 
243244  1  0  0  0  0 
240243  1  1  0  0  0 
245246  1  0  0  0  0 
246247  1  0  0  0  0 
247248  1  0  0  0  0 
248249  1  0  0  0  0 
249250  2  0  0  0  0 
250245  1  0  0  0  0 
241245  1  1  0  0  0 
246251  2  0  0  0  0 
248252  2  0  0  0  0 
249253  1  0  0  0  0 
117120  1  0  0  0  0 
 51 50  1  0  0  0  0 
254255  1  0  0  0  0 
520521  1  0  0  0  0 
520522  2  0  0  0  0 
520523  1  0  0  0  0 
524521  1  1  0  0  0 
521525  1  0  0  0  0 
522526  1  0  0  0  0 
522527  1  0  0  0  0 
523528  2  0  0  0  0 
524529  1  0  0  0  0 
530524  1  0  0  0  0 
527531  1  0  0  0  0 
527532  2  0  0  0  0 
528533  1  0  0  0  0 
529534  1  0  0  0  0 
530535  1  0  0  0  0 
530536  1  6  0  0  0 
534537  1  1  0  0  0 
537538  1  0  0  0  0 
525526  2  0  0  0  0 
528531  1  0  0  0  0 
535534  1  0  0  0  0 
535516  1  6  0  0  0 
255244  1  0  0  0  0 
 55 57  1  0  0  0  0 
255256  2  0  0  0  0 
 11 18  1  0  0  0  0 
539540  1  0  0  0  0 
540538  1  0  0  0  0 
540541  1  0  0  0  0 
540542  2  0  0  0  0 
255257  1  0  0  0  0 
 56 59  1  0  0  0  0 
 14 15  1  0  0  0  0 
 15 16  1  0  0  0  0 
 60 61  1  0  0  0  0 
 61 59  1  0  0  0  0 
 16 17  1  0  0  0  0 
 61 62  2  0  0  0  0 
 17 18  2  0  0  0  0 
 61 63  1  0  0  0  0 
  8  9  1  0  0  0  0 
 24 25  1  0  0  0  0 
 24 26  1  0  0  0  0 
 25 27  1  0  0  0  0 
 26 28  1  0  0  0  0 
543544  1  1  0  0  0 
543545  1  0  0  0  0 
546543  1  0  0  0  0 
544547  1  0  0  0  0 
544548  1  0  0  0  0 
545549  1  0  0  0  0 
546550  1  0  0  0  0 
546551  1  6  0  0  0 
547552  1  0  0  0  0 
547553  2  0  0  0  0 
548554  2  0  0  0  0 
549555  1  1  0  0  0 
550539  1  6  0  0  0 
552556  2  0  0  0  0 
556557  1  0  0  0  0 
550549  1  0  0  0  0 
554556  1  0  0  0  0 
 27 28  1  0  0  0  0 
555558  1  0  0  0  0 
 24 23  1  6  0  0  0 
 29 30  1  0  0  0  0 
559560  1  0  0  0  0 
560558  1  0  0  0  0 
 26 29  1  1  0  0  0 
560561  2  0  0  0  0 
123124  1  0  0  0  0 
560562  1  0  0  0  0 
258259  1  0  0  0  0 
258260  2  0  0  0  0 
258261  1  0  0  0  0 
262259  1  1  0  0  0 
259263  1  0  0  0  0 
260264  1  0  0  0  0 
260265  1  0  0  0  0 
261266  2  0  0  0  0 
262267  1  0  0  0  0 
268262  1  0  0  0  0 
265269  1  0  0  0  0 
265270  2  0  0  0  0 
266271  1  0  0  0  0 
267272  1  0  0  0  0 
268273  1  0  0  0  0 
563564  1  1  0  0  0 
563565  1  0  0  0  0 
566563  1  0  0  0  0 
564567  1  0  0  0  0 
564568  1  0  0  0  0 
565569  1  0  0  0  0 
566570  1  0  0  0  0 
566571  1  6  0  0  0 
567572  1  0  0  0  0 
567573  2  0  0  0  0 
568574  2  0  0  0  0 
569575  1  1  0  0  0 
570562  1  6  0  0  0 
572576  2  0  0  0  0 
576577  1  0  0  0  0 
570569  1  0  0  0  0 
574576  1  0  0  0  0 
268274  1  6  0  0  0 
575578  1  0  0  0  0 
272275  1  1  0  0  0 
275276  1  0  0  0  0 
263264  2  0  0  0  0 
266269  1  0  0  0  0 
273272  1  0  0  0  0 
273254  1  6  0  0  0 
123125  2  0  0  0  0 
123126  1  0  0  0  0 
127124  1  1  0  0  0 
124128  1  0  0  0  0 
125129  1  0  0  0  0 
125130  1  0  0  0  0 
126131  2  0  0  0  0 
127132  1  0  0  0  0 
133127  1  0  0  0  0 
130134  1  0  0  0  0 
130135  2  0  0  0  0 
580581  1  0  0  0  0 
580582  1  0  0  0  0 
581583  1  0  0  0  0 
582584  1  0  0  0  0 
583584  1  0  0  0  0 
580579  1  6  0  0  0 
585586  1  0  0  0  0 
582585  1  1  0  0  0 
587588  1  0  0  0  0 
588589  1  0  0  0  0 
589590  1  0  0  0  0 
590591  1  0  0  0  0 
591592  2  0  0  0  0 
592587  1  0  0  0  0 
583587  1  1  0  0  0 
588593  2  0  0  0  0 
590594  2  0  0  0  0 
591595  1  0  0  0  0 
131136  1  0  0  0  0 
132137  1  0  0  0  0 
133138  1  0  0  0  0 
133139  1  6  0  0  0 
137140  1  1  0  0  0 
140141  1  0  0  0  0 
128129  2  0  0  0  0 
131134  1  0  0  0  0 
277278  1  0  0  0  0 
277279  2  0  0  0  0 
277280  1  0  0  0  0 
281278  1  1  0  0  0 
278282  1  0  0  0  0 
279283  1  0  0  0  0 
279284  1  0  0  0  0 
280285  2  0  0  0  0 
281286  1  0  0  0  0 
287281  1  0  0  0  0 
284288  1  0  0  0  0 
596597  1  0  0  0  0 
596598  2  0  0  0  0 
596599  1  0  0  0  0 
600597  1  1  0  0  0 
597601  1  0  0  0  0 
598602  1  0  0  0  0 
598603  1  0  0  0  0 
599604  2  0  0  0  0 
600605  1  0  0  0  0 
606600  1  0  0  0  0 
603607  1  0  0  0  0 
603608  2  0  0  0  0 
604609  1  0  0  0  0 
605610  1  0  0  0  0 
606611  1  0  0  0  0 
606612  1  6  0  0  0 
610613  1  1  0  0  0 
613614  1  0  0  0  0 
601602  2  0  0  0  0 
604607  1  0  0  0  0 
611610  1  0  0  0  0 
284289  2  0  0  0  0 
611615  1  6  0  0  0 
285290  1  0  0  0  0 
286291  1  0  0  0  0 
287292  1  0  0  0  0 
287293  1  6  0  0  0 
291294  1  1  0  0  0 
294295  1  0  0  0  0 
282283  2  0  0  0  0 
285288  1  0  0  0  0 
292291  1  0  0  0  0 
138137  1  0  0  0  0 
292296  1  6  0  0  0 
 31 32  1  0  0  0  0 
138142  1  6  0  0  0 
 32 33  1  0  0  0  0 
142143  1  0  0  0  0 
297298  1  0  0  0  0 
298295  1  0  0  0  0 
298299  1  0  0  0  0 
298300  2  0  0  0  0 
143122  1  0  0  0  0 
296301  1  0  0  0  0 
301276  1  0  0  0  0 
 33 34  1  0  0  0  0 
301302  2  0  0  0  0 
143144  2  0  0  0  0 
616617  1  0  0  0  0 
617618  1  0  0  0  0 
618619  2  0  0  0  0 
618620  1  0  0  0  0 
620621  1  0  0  0  0 
621622  2  0  0  0  0 
622623  1  0  0  0  0 
623624  2  0  0  0  0 
624625  1  0  0  0  0 
620625  2  0  0  0  0 
616625  1  0  0  0  0 
616626  1  0  0  0  0 
626627  1  0  0  0  0 
627628  2  0  0  0  0 
628629  1  0  0  0  0 
629630  1  0  0  0  0 
629631  2  0  0  0  0 
631632  1  0  0  0  0 
626632  2  0  0  0  0 
632633  1  0  0  0  0 
633634  1  0  0  0  0 
634635  1  0  0  0  0 
635636  2  0  0  0  0 
636637  1  0  0  0  0 
636638  1  0  0  0  0 
638639  2  0  0  0  0 
639640  1  0  0  0  0 
616640  1  0  0  0  0 
634640  2  0  0  0  0 
301303  1  0  0  0  0 
 34 35  1  0  0  0  0 
143145  1  0  0  0  0 
 35 36  2  0  0  0  0 
 36 31  1  0  0  0  0 
 27 31  1  1  0  0  0 
 32 37  2  0  0  0  0 
 34 38  2  0  0  0  0 
 64 65  1  0  0  0  0 
 66 65  1  1  0  0  0 
 66 67  1  0  0  0  0 
 67 60  1  6  0  0  0 
 67 68  1  0  0  0  0 
 68 69  1  6  0  0  0 
 68 70  1  0  0  0  0 
 70 71  1  0  0  0  0 
 66 71  1  0  0  0  0 
 70 72  1  1  0  0  0 
 72 73  1  0  0  0  0 
304305  1  0  0  0  0 
306305  1  1  0  0  0 
637641  1  0  0  0  0 
642641  1  6  0  0  0 
642643  1  0  0  0  0 
643644  1  1  0  0  0 
643645  1  0  0  0  0 
645646  1  1  0  0  0 
645647  1  0  0  0  0 
647648  1  0  0  0  0 
642648  1  0  0  0  0 
647649  1  6  0  0  0 
649650  1  0  0  0  0 
650651  2  0  0  0  0 
651652  1  0  0  0  0 
652653  1  0  0  0  0 
653654  1  0  0  0  0 
653655  2  0  0  0  0 
655656  1  0  0  0  0 
656657  2  0  0  0  0 
657658  1  0  0  0  0 
652658  2  0  0  0  0 
649658  1  0  0  0  0 
644659  1  0  0  0  0 
659614  1  0  0  0  0 
659660  1  0  0  0  0 
659661  2  0  0  0  0 
306307  1  0  0  0  0 
615662  1  0  0  0  0 
662586  1  0  0  0  0 
307297  1  6  0  0  0 
662663  2  0  0  0  0 
307308  1  0  0  0  0 
662664  1  0  0  0  0 
308309  1  6  0  0  0 
579665  1  0  0  0  0 
665578  1  0  0  0  0 
308310  1  0  0  0  0 
665666  2  0  0  0  0 
310311  1  0  0  0  0 
665667  1  0  0  0  0 
306311  1  0  0  0  0 
433668  1  0  0  0  0 
668432  1  0  0  0  0 
310312  1  1  0  0  0 
668669  1  0  0  0  0 
312313  1  0  0  0  0 
668670  2  0  0  0  0 
313314  2  0  0  0  0 
101671  1  0  0  0  0 
671 64  1  0  0  0  0 
314315  1  0  0  0  0 
671672  1  0  0  0  0 
315316  1  0  0  0  0 
671673  2  0  0  0  0 
 23  1  1  0  0  0  0 
M  END