
  SciTegic09291412002D

 26 27  0  0  0  0            999 V2000
    4.9643   -7.9784    0.0000 P   0  0
    4.1471   -7.9733    0.0000 O   0  0
    4.5513   -8.6836    0.0000 O   0  0
    6.1347  -11.0518    0.0000 O   0  0
    6.6121  -10.3997    0.0000 C   0  0  1  0  0  0
    7.4287  -10.3997    0.0000 C   0  0
    6.3708   -9.6204    0.0000 C   0  0  2  0  0  0
    7.6737   -9.6013    0.0000 C   0  0  1  0  0  0
    7.0351   -9.1359    0.0000 O   0  0
    5.6643   -9.2086    0.0000 C   0  0
    8.4528   -9.3476    0.0000 N   0  0
    9.1543   -9.7632    0.0000 C   0  0
    9.8732   -9.3595    0.0000 C   0  0
    9.8791   -8.5424    0.0000 C   0  0
    9.1742   -8.1274    0.0000 N   0  0
    8.4634   -8.5295    0.0000 C   0  0
   10.5908   -8.1443    0.0000 O   0  0
    5.6694   -8.3914    0.0000 O   0  0
    4.9694   -7.1613    0.0000 O   0  0
    7.7600   -8.1136    0.0000 O   0  0
   10.5769   -9.7748    0.0000 C   0  0
   11.2885   -9.3731    0.0000 C   0  0
   11.9922   -9.7884    0.0000 C   0  0
   12.7039   -9.3867    0.0000 F   0  0
   11.9844  -10.6056    0.0000 F   0  0
   12.6662  -10.2427    0.0000 F   0  0
  2  1  1  0
  1  3  2  0
  5  6  1  0
  5  7  1  0
  6  8  1  0
  7  9  1  0
  8  9  1  0
  5  4  1  6
  7 10  1  1
 11 12  1  0
 12 13  2  0
 13 14  1  0
 14 15  1  0
 15 16  1  0
 16 11  1  0
  8 11  1  1
 14 17  2  0
 10 18  1  0
 18  1  1  0
  1 19  1  0
 16 20  2  0
 13 21  1  0
 21 22  2  0
 22 23  1  0
 23 24  1  0
 23 25  1  0
 23 26  1  0
M  END