
          11280714462D 1   1.00000     0.00000     0

 23 24  0     0  0            999 V2000
    3.1917   -2.4042    0.0000 C   0  0  0  0  0  0           0  0  0
    3.1917   -3.0042    0.0000 N   0  0  3  0  0  0           0  0  0
    2.6667   -2.1042    0.0000 C   0  0  0  0  0  0           0  0  0
    3.6667   -3.3625    0.0000 N   0  0  0  0  0  0           0  0  0
    2.7042   -3.3500    0.0000 C   0  0  0  0  0  0           0  0  0
    2.6667   -1.4917    0.0000 C   0  0  0  0  0  0           0  0  0
    2.8792   -3.9250    0.0000 C   0  0  0  0  0  0           0  0  0
    3.1917   -1.1875    0.0000 O   0  0  0  0  0  0           0  0  0
    3.7167   -2.1000    0.0000 C   0  0  0  0  0  0           0  0  0
    5.3292   -1.7417    0.0000 N   0  0  0  0  0  0           0  0  0
    3.4792   -3.9292    0.0000 C   0  0  0  0  0  0           0  0  0
    5.6875   -2.2292    0.0000 C   0  0  3  0  0  0           0  0  0
    4.3000   -1.3292    0.0000 C   0  0  3  0  0  0           0  0  0
    3.7167   -1.4875    0.0000 C   0  0  0  0  0  0           0  0  0
    4.7292   -1.7417    0.0000 C   0  0  0  0  0  0           0  0  0
    2.1417   -2.4042    0.0000 C   0  0  0  0  0  0           0  0  0
    4.4417   -0.7417    0.0000 O   0  0  0  0  0  0           0  0  0
    2.1417   -1.1917    0.0000 C   0  0  0  0  0  0           0  0  0
    6.2875   -2.1667    0.0000 C   0  0  0  0  0  0           0  0  0
    5.4417   -2.7792    0.0000 C   0  0  0  0  0  0           0  0  0
    6.1542   -2.6042    0.0000 C   0  0  0  0  0  0           0  0  0
    1.6250   -2.1042    0.0000 C   0  0  0  0  0  0           0  0  0
    1.6250   -1.5000    0.0000 C   0  0  0  0  0  0           0  0  0
  2  1  1  0     0  0
  3  1  1  0     0  0
  4  2  1  0     0  0
  5  2  1  0     0  0
  6  3  1  0     0  0
  7  5  2  0     0  0
  8  6  1  0     0  0
  9  1  2  0     0  0
 10 15  1  0     0  0
 11  4  2  0     0  0
 12 10  1  0     0  0
 13 14  1  0     0  0
 14  8  1  0     0  0
 15 13  1  0     0  0
 16  3  2  0     0  0
 17 13  1  0     0  0
 18  6  2  0     0  0
 19 12  1  0     0  0
 20 12  1  0     0  0
 21 12  1  0     0  0
 22 16  1  0     0  0
 23 22  2  0     0  0
 11  7  1  0     0  0
 23 18  1  0     0  0
M  END