
          11280715122D 1   1.00000     0.00000     0

 33 35  0     0  0            999 V2000
    8.5625   -7.4667    0.0000 C   0  0  0  0  0  0           0  0  0
    7.8500   -7.0542    0.0000 C   0  0  0  0  0  0           0  0  0
    3.8042   -7.5750    0.0000 N   0  0  3  0  0  0           0  0  0
    8.5625   -8.2917    0.0000 C   0  0  0  0  0  0           0  0  0
    4.5042   -4.6667    0.0000 C   0  0  3  0  0  0           0  0  0
    3.0875   -7.1625    0.0000 C   0  0  0  0  0  0           0  0  0
    5.1667   -8.5000    0.0000 N   0  0  3  0  0  0           0  0  0
    7.8500   -6.2292    0.0000 N   0  0  3  0  0  0           0  0  0
    9.2750   -8.7042    0.0000 N   0  0  0  0  0  0           0  0  0
    7.1292   -7.4667    0.0000 O   0  0  0  0  0  0           0  0  0
    3.0875   -6.3292    0.0000 C   0  0  0  0  0  0           0  0  0
    3.8000   -5.9167    0.0000 O   0  0  0  0  0  0           0  0  0
    4.5417   -7.2042    0.0000 C   0  0  0  0  0  0           0  0  0
    3.7417   -8.3917    0.0000 C   0  0  0  0  0  0           0  0  0
    3.7917   -5.0875    0.0000 C   0  0  0  0  0  0           0  0  0
    7.8500   -8.7125    0.0000 N   0  0  0  0  0  0           0  0  0
    5.1542   -4.2875    0.0000 F   0  0  0  0  0  0           0  0  0
    5.3167   -4.9667    0.0000 F   0  0  0  0  0  0           0  0  0
    4.6375   -3.8167    0.0000 F   0  0  0  0  0  0           0  0  0
    5.2250   -7.6750    0.0000 C   0  0  0  0  0  0           0  0  0
    4.4250   -8.8542    0.0000 C   0  0  0  0  0  0           0  0  0
    9.2750   -7.0542    0.0000 C   0  0  0  0  0  0           0  0  0
    5.8417   -8.9625    0.0000 C   0  0  0  0  0  0           0  0  0
    6.5542   -8.5417    0.0000 C   0  0  0  0  0  0           0  0  0
    2.3667   -7.5750    0.0000 C   0  0  0  0  0  0           0  0  0
    9.9917   -8.2917    0.0000 C   0  0  0  0  0  0           0  0  0
    7.1375   -9.1250    0.0000 C   0  0  0  0  0  0           0  0  0
    8.5625   -5.8167    0.0000 C   0  0  0  0  0  0           0  0  0
    7.1292   -5.8167    0.0000 C   0  0  0  0  0  0           0  0  0
    2.3667   -5.9167    0.0000 C   0  0  0  0  0  0           0  0  0
    9.9917   -7.4667    0.0000 C   0  0  0  0  0  0           0  0  0
    1.6542   -7.1625    0.0000 C   0  0  0  0  0  0           0  0  0
    1.6542   -6.3292    0.0000 C   0  0  0  0  0  0           0  0  0
  2  1  1  0     0  0
  3 14  1  0     0  0
  4  1  2  0     0  0
  5 15  1  0     0  0
  6  3  1  0     0  0
  7 23  1  0     0  0
  8  2  1  0     0  0
  9  4  1  0     0  0
 10  2  2  0     0  0
 11  6  1  0     0  0
 12 11  1  0     0  0
 13 20  1  0     0  0
 14 21  1  0     0  0
 15 12  1  0     0  0
 16  4  1  0     0  0
 17  5  1  0     0  0
 18  5  1  0     0  0
 19  5  1  0     0  0
 20  7  1  0     0  0
 21  7  1  0     0  0
 22  1  1  0     0  0
 23 24  1  0     0  0
 24 27  1  0     0  0
 25  6  2  0     0  0
 26 31  1  0     0  0
 27 16  1  0     0  0
 28  8  1  0     0  0
 29  8  1  0     0  0
 30 11  2  0     0  0
 31 22  2  0     0  0
 32 25  1  0     0  0
 33 32  2  0     0  0
 26  9  2  0     0  0
  3 13  1  0     0  0
 33 30  1  0     0  0
M  END