
  SciTegic08041117222D

 19 20  0  0  0  0            999 V2000
    6.5673  -10.0164    0.0000 N   0  0
    6.5662  -10.8435    0.0000 C   0  0
    7.2805  -11.2563    0.0000 C   0  0
    7.9965  -10.8427    0.0000 C   0  0
    7.9936  -10.0129    0.0000 C   0  0
    7.2788   -9.6036    0.0000 C   0  0
    7.2765   -8.7786    0.0000 N   0  0
    5.9018  -11.3320    0.0000 N   0  0
    8.7119  -11.2534    0.0000 N   0  0
    8.8038  -12.0697    0.0000 C   0  0
    9.6112  -12.2393    0.0000 C   0  0
   10.0221  -11.5238    0.0000 C   0  0  2  0  0  0
    9.4685  -10.9121    0.0000 C   0  0
   10.8423  -11.4355    0.0000 N   0  0
   11.1760  -10.6810    0.0000 C   0  0
    5.1462  -11.0007    0.0000 C   0  0
    4.4815  -11.4893    0.0000 C   0  0
    3.7261  -11.1581    0.0000 C   0  0
    4.5724  -12.3093    0.0000 C   0  0
  9 10  1  0
  4  5  1  0
  2  3  1  0
  5  6  2  0
  6  1  1  0
 10 11  1  0
 11 12  1  0
 12 13  1  0
 13  9  1  0
  1  2  2  0
 12 14  1  6
  6  7  1  0
 14 15  1  0
  3  4  2  0
  8 16  1  0
  2  8  1  0
 16 17  1  0
 17 18  1  0
  4  9  1  0
 17 19  1  0
M  END