
          11280714502D 1   1.00000     0.00000     0

 17 19  0     0  0            999 V2000
    7.1167   -2.7500    0.0000 C   0  0  0  0  0  0           0  0  0
    6.5042   -3.3000    0.0000 C   0  0  0  0  0  0           0  0  0
    6.7792   -1.9917    0.0000 C   0  0  0  0  0  0           0  0  0
    5.9542   -2.0875    0.0000 S   0  0  0  0  0  0           0  0  0
    5.7917   -2.8917    0.0000 C   0  0  0  0  0  0           0  0  0
    6.5042   -4.1292    0.0000 C   0  0  0  0  0  0           0  0  0
    8.0292   -2.9792    0.0000 C   0  0  0  0  0  0           0  0  0
    8.3625   -3.7625    0.0000 N   0  0  3  0  0  0           0  0  0
    7.1375   -4.6792    0.0000 C   0  0  0  0  0  0           0  0  0
    7.1875   -1.2792    0.0000 C   0  0  0  0  0  0           0  0  0
    5.7917   -4.5417    0.0000 C   0  0  0  0  0  0           0  0  0
    5.0792   -3.3042    0.0000 C   0  0  0  0  0  0           0  0  0
    5.0792   -4.1292    0.0000 C   0  0  0  0  0  0           0  0  0
    7.9417   -4.5417    0.0000 C   0  0  0  0  0  0           0  0  0
    6.6000   -0.6917    0.0000 C   0  0  0  0  0  0           0  0  0
    5.7917   -5.3667    0.0000 Cl  0  0  0  0  0  0           0  0  0
    9.2417   -3.7625    0.0000 C   0  0  0  0  0  0           0  0  0
  2  1  1  0     0  0
  3  1  2  0     0  0
  4  3  1  0     0  0
  5  2  2  0     0  0
  6  2  1  0     0  0
  7  1  1  0     0  0
  8  7  1  0     0  0
  9  6  1  0     0  0
 10  3  1  0     0  0
 11  6  2  0     0  0
 12  5  1  0     0  0
 13 11  1  0     0  0
 14  8  1  0     0  0
 15 10  2  0     0  0
 16 11  1  0     0  0
 17  8  1  0     0  0
  4  5  1  0     0  0
 14  9  1  0     0  0
 12 13  2  0     0  0
M  END