
          11280715342D 1   1.00000     0.00000     0

 33 36  0     0  0            999 V2000
    4.1542   -5.0917    0.0000 C   0  0  0  0  0  0           0  0  0
    4.8250   -5.5792    0.0000 C   0  0  0  0  0  0           0  0  0
    4.4042   -4.3042    0.0000 C   0  0  0  0  0  0           0  0  0
    5.2292   -4.3042    0.0000 N   0  0  0  0  0  0           0  0  0
    5.4917   -5.0917    0.0000 N   0  0  3  0  0  0           0  0  0
    8.3792   -6.8125    0.0000 C   0  0  0  0  0  0           0  0  0
    7.9542   -5.5417    0.0000 N   0  0  0  0  0  0           0  0  0
    7.7042   -6.3292    0.0000 N   0  0  0  0  0  0           0  0  0
    8.7792   -5.5417    0.0000 N   0  0  0  0  0  0           0  0  0
    9.0417   -6.3250    0.0000 N   0  0  0  0  0  0           0  0  0
    3.3667   -5.3500    0.0000 C   0  0  0  0  0  0           0  0  0
    8.3917   -7.6375    0.0000 C   0  0  0  0  0  0           0  0  0
    7.6792   -8.0542    0.0000 C   0  0  0  0  0  0           0  0  0
    3.9250   -3.6417    0.0000 C   0  0  3  0  0  0           0  0  0
    4.8250   -6.4042    0.0000 C   0  0  0  0  0  0           0  0  0
    6.9667   -7.6417    0.0000 C   0  0  0  0  0  0           0  0  0
    2.7542   -4.7917    0.0000 O   0  0  0  0  0  0           0  0  0
    6.2500   -8.0542    0.0000 C   0  0  0  0  0  0           0  0  0
    6.9667   -6.8125    0.0000 C   0  0  0  0  0  0           0  0  0
    5.5375   -6.8125    0.0000 C   0  0  0  0  0  0           0  0  0
    3.2000   -6.1542    0.0000 O   0  0  0  0  0  0           0  0  0
    6.3167   -5.0917    0.0000 C   0  0  0  0  0  0           0  0  0
    5.5375   -7.6417    0.0000 C   0  0  0  0  0  0           0  0  0
    6.2500   -6.4000    0.0000 C   0  0  0  0  0  0           0  0  0
    9.1042   -8.0417    0.0000 C   0  0  0  0  0  0           0  0  0
    7.6792   -8.8792    0.0000 C   0  0  0  0  0  0           0  0  0
    4.2542   -2.8875    0.0000 C   0  0  0  0  0  0           0  0  0
    3.1042   -3.7292    0.0000 C   0  0  0  0  0  0           0  0  0
    3.5042   -2.9250    0.0000 C   0  0  0  0  0  0           0  0  0
    6.7250   -4.3750    0.0000 C   0  0  0  0  0  0           0  0  0
    8.3917   -9.2875    0.0000 C   0  0  0  0  0  0           0  0  0
    9.1042   -8.8750    0.0000 C   0  0  0  0  0  0           0  0  0
    7.5500   -4.3667    0.0000 C   0  0  0  0  0  0           0  0  0
  2  1  2  0     0  0
  3  1  1  0     0  0
  4  3  2  0     0  0
  5  2  1  0     0  0
  6 12  1  0     0  0
  7  8  2  0     0  0
  8  6  1  0     0  0
  9 10  1  0     0  0
 10  6  2  0     0  0
 11  1  1  0     0  0
 12 13  2  0     0  0
 13 16  1  0     0  0
 14  3  1  0     0  0
 15  2  1  0     0  0
 16 19  2  0     0  0
 17 11  2  0     0  0
 18 23  2  0     0  0
 19 24  1  0     0  0
 20 15  1  0     0  0
 21 11  1  0     0  0
 22  5  1  0     0  0
 23 20  1  0     0  0
 24 20  2  0     0  0
 25 12  1  0     0  0
 26 13  1  0     0  0
 27 14  1  0     0  0
 28 14  1  0     0  0
 29 14  1  0     0  0
 30 22  1  0     0  0
 31 26  2  0     0  0
 32 31  1  0     0  0
 33 30  1  0     0  0
  4  5  1  0     0  0
 16 18  1  0     0  0
 25 32  2  0     0  0
  7  9  1  0     0  0
M  END