
  SciTegic06051313522D

 15 16  0  0  0  0            999 V2000
    3.4458   -3.0058    0.0000 C   0  0
    3.0306   -2.2992    0.0000 C   0  0
    2.2129   -2.3065    0.0000 C   0  0
    1.8095   -3.0195    0.0000 C   0  0
    2.2297   -3.7268    0.0000 C   0  0
    3.0460   -3.7161    0.0000 C   0  0
    4.2612   -2.9971    0.0000 C   0  0
    4.6758   -3.7026    0.0000 N   0  0
    5.4922   -3.6953    0.0000 C   0  0
    5.8950   -2.9833    0.0000 C   0  0
    5.4754   -2.2771    0.0000 C   0  0
    4.6604   -2.2878    0.0000 C   0  0
    6.7143   -2.9756    0.0000 C   0  0
    7.1304   -3.6789    0.0000 O   0  0
    7.1154   -2.2635    0.0000 O   0  0
  1  2  2  0
  2  3  1  0
  3  4  2  0
  4  5  1  0
  5  6  2  0
  6  1  1  0
  7  8  2  0
  8  9  1  0
  9 10  2  0
 10 11  1  0
 11 12  2  0
 12  7  1  0
  1  7  1  0
 13 14  1  0
 13 15  2  0
 10 13  1  0
M  END