
  SciTegic02271515072D

 28 31  0  0  0  0            999 V2000
   12.8136  -14.3338    0.0000 C   0  0
   12.8125  -15.1534    0.0000 C   0  0
   13.5205  -15.5623    0.0000 N   0  0
   13.5187  -13.9250    0.0000 C   0  0
   14.2274  -14.3302    0.0000 C   0  0
   14.2276  -15.1534    0.0000 C   0  0
   15.0106  -15.4076    0.0000 N   0  0
   15.4943  -14.7414    0.0000 C   0  0
   15.0102  -14.0757    0.0000 C   0  0
   14.7154  -12.6913    0.0000 C   0  0
   13.9162  -12.8615    0.0000 O   0  0
   12.1098  -13.9212    0.0000 C   0  0
   12.1186  -13.1043    0.0000 C   0  0
   11.4156  -12.6918    0.0000 C   0  0
   10.7054  -13.0950    0.0000 C   0  0
   10.7025  -13.9151    0.0000 C   0  0
   11.4061  -14.3239    0.0000 C   0  0
    9.9999  -12.6826    0.0000 O   0  0
    9.9935  -14.3214    0.0000 O   0  0
    9.2871  -13.9106    0.0000 C   0  0
    9.2900  -13.0874    0.0000 C   0  0
   15.3319  -13.2784    0.0000 N   0  0
   14.9406  -11.8451    0.0000 C   0  0
   15.7874  -11.6188    0.0000 C   0  0
   16.0136  -10.7769    0.0000 C   0  0
   15.3963  -10.1554    0.0000 C   0  0
   14.5494  -10.3817    0.0000 C   0  0
   14.3199  -11.2296    0.0000 C   0  0
  1  2  2  0
  2  3  1  0
  3  6  2  0
  5  4  2  0
  4  1  1  0
  5  6  1  0
  6  7  1  0
  7  8  1  0
  8  9  2  0
  9  5  1  0
  9 22  1  0
 22 10  1  0
 23 10  1  0
 10 11  2  0
  1 12  1  0
 12 13  2  0
 13 14  1  0
 14 15  2  0
 15 16  1  0
 16 17  2  0
 17 12  1  0
 15 18  1  0
 16 19  1  0
 19 20  1  0
 18 21  1  0
 23 24  1  0
 23 28  1  0
 24 25  1  0
 25 26  1  0
 26 27  1  0
 27 28  1  0
M  END