
  SciTegic12231509382D

 30 33  0  0  0  0            999 V2000
    4.9531   -1.9978    0.0000 N   0  0
    3.9511   -0.8815    0.0000 C   0  0
    2.5987   -1.5004    0.0000 C   0  0
    2.7343   -2.9815    0.0000 C   0  0
    4.2010   -3.2956    0.0000 C   0  0
    1.2990   -0.7500    0.0000 C   0  0
    1.2990    0.7500    0.0000 C   0  0
    0.0000    1.5000    0.0000 C   0  0
   -1.2990    0.7500    0.0000 C   0  0
   -1.2990   -0.7500    0.0000 C   0  0
    0.0000   -1.5000    0.0000 C   0  0
    1.6115   -3.9772    0.0000 C   0  0
    0.1606   -3.6178    0.0000 C   0  0
   -0.8791   -4.6991    0.0000 C   0  0
   -0.4625   -6.1401    0.0000 N   0  0
    0.9937   -6.4998    0.0000 C   0  0
    2.0333   -5.4186    0.0000 C   0  0
    6.1467   -1.8743    0.0000 C   0  0
   -2.3383    1.3500    0.0000 F   0  0
    4.8092   -4.6676    0.0000 N   0  0
    4.0212   -5.9381    0.0000 C   0  0
    4.7306   -7.2598    0.0000 C   0  0
    6.2299   -7.3062    0.0000 N   0  0
    7.0198   -6.0311    0.0000 C   0  0
    6.3104   -4.7094    0.0000 C   0  0
    6.9424   -8.6272    0.0000 C   0  0
    4.2537    0.5858    0.0000 C   0  0
    4.4960    1.7611    0.0000 N   0  0
    6.3122   -9.6484    0.0000 C   0  0
    8.1419   -8.6626    0.0000 O   0  0
  1  2  1  0
  2  3  2  0
  3  4  1  0
  1  5  1  0
  4  5  2  0
  3  6  1  0
  6  7  2  0
  7  8  1  0
  8  9  2  0
  9 10  1  0
  6 11  1  0
 10 11  2  0
  4 12  1  0
 12 13  2  0
 13 14  1  0
 14 15  2  0
 15 16  1  0
 12 17  1  0
 16 17  2  0
  1 18  1  0
  9 19  1  0
  5 20  1  0
 20 21  1  0
 21 22  1  0
 22 23  1  0
 23 24  1  0
 20 25  1  0
 24 25  1  0
 23 26  1  0
  2 27  1  0
 27 28  3  0
 26 29  1  0
 26 30  2  0
M  END