
  SciTegic09261414462D

 18 20  0  0  0  0            999 V2000
    1.7733   -7.8830    0.0000 C   0  0
    1.7721   -8.7025    0.0000 C   0  0
    2.4802   -9.1115    0.0000 C   0  0
    2.4784   -7.4741    0.0000 C   0  0
    3.1870   -7.8794    0.0000 C   0  0
    3.1858   -8.7046    0.0000 C   0  0
    3.8959   -9.1159    0.0000 C   0  0
    4.6118   -8.7066    0.0000 C   0  0
    4.6130   -7.8814    0.0000 N   0  0
    3.8983   -7.4655    0.0000 C   0  0
    5.3217   -7.4746    0.0000 C   0  0
    6.0284   -7.8849    0.0000 C   0  0
    6.1090   -8.6951    0.0000 N   0  0
    6.9080   -8.8670    0.0000 C   0  0
    7.3183   -8.1602    0.0000 N   0  0
    6.7729   -7.5517    0.0000 C   0  0
    6.9430   -6.7524    0.0000 C   0  0
    2.4760   -6.6569    0.0000 N   0  0
  1  2  2  0
  2  3  1  0
  3  6  2  0
  5  4  2  0
  4  1  1  0
  5  6  1  0
  5 10  1  0
  6  7  1  0
  7  8  1  0
  8  9  1  0
  9 10  1  0
  9 11  1  0
 11 12  1  0
 12 13  1  0
 13 14  1  0
 14 15  2  0
 15 16  1  0
 16 12  2  0
 16 17  1  0
  4 18  1  0
M  END