
  SciTegic10301317112D

 74 79  0  0  1  0            999 V2000
   12.5695   -5.3967    0.0000 N   0  0
   11.8649   -4.9843    0.0000 C   0  0
    7.5853   -6.6514    0.0000 C   0  0
    3.2713   -5.0358    0.0000 C   0  0
    7.5681   -5.0014    0.0000 C   0  0
    5.4311   -5.4311    0.0000 C   0  0
    9.7165   -5.3967    0.0000 C   0  0
   13.3429   -5.6947    0.0000 C   0  0  2  0  0  0
    8.8915   -6.9150    0.0000 N   0  0
    2.5666   -5.4541    0.0000 C   0  0  1  0  0  0
    3.9932   -5.4369    0.0000 N   0  0
    6.1416   -5.0072    0.0000 N   0  0
    8.2899   -5.4025    0.0000 N   0  0
   10.4326   -4.9728    0.0000 N   0  0
    8.3415   -6.3134    0.0000 C   0  0
    6.8634   -5.4197    0.0000 C   0  0  2  0  0  0
    4.6978   -5.0244    0.0000 C   0  0  1  0  0  0
    9.0060   -4.9900    0.0000 C   0  0  1  0  0  0
    1.8448   -5.0416    0.0000 N   0  0
   13.5606   -6.4967    0.0000 C   0  0
   11.1544   -5.3967    0.0000 C   0  0  1  0  0  0
   12.5352   -8.7138    0.0000 C   0  0
    1.1229   -5.4655    0.0000 C   0  0
    7.6712   -7.4650    0.0000 C   0  0
    6.8634   -6.2447    0.0000 C   0  0
    8.4904   -7.6368    0.0000 C   0  0
   11.8247   -9.1149    0.0000 N   0  0
   11.8763   -4.1593    0.0000 O   0  0
    3.2713   -4.2108    0.0000 O   0  0
    5.4369   -6.2561    0.0000 O   0  0
    7.5681   -4.1765    0.0000 O   0  0
    9.7337   -6.2217    0.0000 O   0  0
   -1.7301   -5.4713    0.0000 C   0  0
    4.6978   -4.1936    0.0000 C   0  0
   -1.0140   -5.0588    0.0000 C   0  0
   12.9648   -7.0697    0.0000 O   0  0
    1.1401   -6.2962    0.0000 O   0  0
    8.9946   -4.1650    0.0000 C   0  0
   -0.3036   -5.4713    0.0000 C   0  0
    0.4125   -5.0588    0.0000 C   0  0
   12.5523   -7.8889    0.0000 N   0  0
   -1.7301   -6.2962    0.0000 C   0  0
   14.3570   -6.7087    0.0000 N   0  0
   13.2512   -9.1321    0.0000 N   0  0
   -1.0083   -6.7087    0.0000 C   0  0
   12.6211   -4.5718    0.0000 C   0  0
    5.4139   -3.7697    0.0000 C   0  0
   -0.2922   -6.2962    0.0000 C   0  0
    6.8405   -2.9390    0.0000 C   0  0
    2.5666   -6.2791    0.0000 C   0  0
    6.1358   -4.1822    0.0000 C   0  0
    5.4025   -2.9448    0.0000 C   0  0
    6.8462   -3.7640    0.0000 C   0  0
    6.1244   -2.5323    0.0000 C   0  0
   13.8586   -5.0588    0.0000 C   0  0
    7.5509   -2.5151    0.0000 O   0  0
    3.2885   -6.6858    0.0000 O   0  0
   13.4231   -4.3655    0.0000 C   0  0
   11.1430   -6.2217    0.0000 C   0  0
    7.1326   -8.0951    0.0000 C   0  0
    9.6993   -3.7468    0.0000 C   0  0
    8.7540   -8.4274    0.0000 C   0  0
   -2.4348   -5.0702    0.0000 C   0  0
   14.5632   -7.5108    0.0000 C   0  0
   11.8419   -7.4650    0.0000 C   0  0
   -2.4348   -6.7087    0.0000 C   0  0
   11.8477   -6.6400    0.0000 C   0  0
   10.4211   -4.1479    0.0000 C   0  0
    9.6993   -2.9218    0.0000 C   0  0
   15.3538   -7.7228    0.0000 C   0  0
    7.3904   -8.8743    0.0000 C   0  0
   -3.1452   -5.4827    0.0000 C   0  0
    8.2040   -9.0404    0.0000 C   0  0
   -3.1395   -6.3077    0.0000 C   0  0
  2  1  1  0
  3 25  1  0
  4 11  1  0
  5 13  1  0
  6 12  1  0
  7 14  1  0
  8  1  1  0
  9 15  1  0
 10  4  1  0
 11 17  1  0
 12 16  1  0
 13 18  1  0
 14 21  1  0
 15  3  2  0
 16  5  1  0
 17  6  1  0
 18  7  1  0
 19 10  1  0
  8 20  1  1
 21  2  1  0
 22 41  2  0
 23 19  1  0
 24  3  1  0
 16 25  1  1
 26 24  2  0
 27 22  1  0
 28  2  2  0
 29  4  2  0
 30  6  2  0
 31  5  2  0
 32  7  2  0
 33 35  1  0
 17 34  1  1
 35 39  2  0
 36 20  2  0
 37 23  2  0
 18 38  1  1
 39 40  1  0
 40 23  1  0
 41 65  1  0
 42 45  1  0
 43 20  1  0
 44 22  1  0
 45 48  2  0
 46  1  1  0
 47 34  1  0
 48 39  1  0
 49 54  1  0
 10 50  1  6
 51 47  2  0
 52 47  1  0
 53 51  1  0
 54 52  2  0
 55  8  1  0
 56 49  1  0
 57 50  1  0
 58 46  1  0
 21 59  1  6
 60 24  1  0
 61 38  1  0
 62 26  1  0
 63 33  2  0
 64 43  1  0
 65 67  1  0
 66 42  2  0
 67 59  1  0
 68 61  1  0
 69 61  1  0
 70 64  1  0
 71 60  2  0
 72 63  1  0
 73 71  1  0
 74 66  1  0
 58 55  1  0
 26  9  1  0
 62 73  2  0
 49 53  2  0
 42 33  1  0
 72 74  2  0
M  END