
  SciTegic09291413392D

 32 31  0  0  0  0            999 V2000
   14.1714  -10.2555    0.0000 Br  0  5
   10.1595   -6.1105    0.0000 Br  0  5
   14.4412   -8.2577    0.0000 N   0  3
    9.4401   -7.0077    0.0000 C   0  0
   15.8522   -8.2577    0.0000 C   0  0
    9.4401   -7.8242    0.0000 N   0  3
   17.2673   -9.0741    0.0000 O   0  0
   17.2673   -8.2577    0.0000 C   0  0
   10.8795   -7.8374    0.0000 C   0  0
   16.5640   -7.8518    0.0000 N   0  0
   15.1488   -9.4846    0.0000 C   0  0
   18.6867   -8.2577    0.0000 N   0  0
    6.6141   -7.8242    0.0000 C   0  0
   12.2948   -7.8374    0.0000 C   0  0
    7.3174   -8.2302    0.0000 N   0  0
    6.6141   -7.0077    0.0000 O   0  0
    8.0292   -7.0077    0.0000 C   0  0
    8.7368   -6.5973    0.0000 C   0  0
    5.9065   -8.2302    0.0000 C   0  0
   17.9749   -7.8518    0.0000 C   0  0
   15.1488   -7.8518    0.0000 C   0  0
    8.0292   -7.8242    0.0000 C   0  0
   10.1721   -8.2477    0.0000 C   0  0
   13.7099   -7.8374    0.0000 C   0  0
    5.1988   -7.8242    0.0000 N   0  0
    8.7368   -8.2302    0.0000 C   0  0
   11.5871   -8.2477    0.0000 C   0  0
   14.4412   -9.0741    0.0000 C   0  0
   12.9981   -8.2477    0.0000 C   0  0
   15.8522   -9.0741    0.0000 C   0  0
    5.1970   -7.0070    0.0000 O   0  0
   18.6887   -9.0749    0.0000 O   0  0
  3 24  1  0
  8  7  2  0
  6 23  1  0
 26  6  2  0
 21  3  2  0
 11 28  2  0
 24 29  1  0
  4  6  1  0
  8 20  1  0
 28  3  1  0
 13 19  1  0
 30 11  1  0
 18  4  2  0
 13 15  1  0
 29 14  1  0
  5 10  1  0
 22 17  2  0
  8 10  1  0
 19 25  2  0
  9 23  1  0
 26 22  1  0
 22 15  1  0
 17 18  1  0
 27  9  1  0
 21  5  1  0
  5 30  2  0
 14 27  1  0
 20 12  2  0
 13 16  2  0
 25 31  1  0
 12 32  1  0
M  CHG  4   1  -1   2  -1   3   1   6   1
M  END