
  SciTegic01061414252D

 22 23  0  0  0  0            999 V2000
   22.6027   -9.3661    0.0000 O   0  0
   21.7778   -9.3661    0.0000 S   0  0
   22.1902  -10.0805    0.0000 O   0  0
   21.0681   -7.3037    0.0000 C   0  0
   21.0669   -8.1310    0.0000 C   0  0
   21.7817   -8.5438    0.0000 C   0  0
   22.4980   -8.1305    0.0000 C   0  0
   22.4952   -7.3000    0.0000 C   0  0
   21.7799   -6.8909    0.0000 C   0  0
   23.2081   -6.8848    0.0000 C   0  0
   23.9240   -7.2947    0.0000 C   0  0
   23.2050   -6.0599    0.0000 O   0  0
   24.6369   -6.8795    0.0000 S   0  0
   25.3529   -7.2892    0.0000 C   0  0
   25.3529   -8.1131    0.0000 N   0  0
   26.0680   -8.5227    0.0000 C   0  0
   26.7819   -8.1075    0.0000 C   0  0
   26.7761   -7.2783    0.0000 C   0  0
   26.0604   -6.8724    0.0000 N   0  0
   21.0670   -9.7811    0.0000 N   0  0
   27.4984   -8.5164    0.0000 C   0  0
   28.2107   -8.1003    0.0000 C   0  0
  2  1  2  0
  3  2  2  0
  4  5  2  0
  5  6  1  0
  6  7  2  0
  7  8  1  0
  8  9  2  0
  9  4  1  0
  8 10  1  0
 10 11  1  0
 10 12  2  0
 11 13  1  0
 13 14  1  0
 14 15  2  0
 15 16  1  0
 16 17  2  0
 17 18  1  0
 18 19  2  0
 19 14  1  0
  6  2  1  0
  2 20  1  0
 17 21  1  0
 21 22  1  0
M  END