
  SciTegic12011113442D

222228  0  0  0  0            999 V2000
   11.6198  -25.8933    0.0000 C   0  0
   12.4379  -25.8085    0.0000 O   0  0
   12.6103  -24.9983    0.0000 C   0  0
   13.3647  -24.6649    0.0000 O   0  0
   11.8944  -24.5858    0.0000 C   0  0
   11.7220  -23.7798    0.0000 C   0  0
   10.9374  -23.5269    0.0000 C   0  0
   10.3251  -24.0758    0.0000 C   0  0
   10.4975  -24.8860    0.0000 C   0  0
   11.2822  -25.1389    0.0000 C   0  0
   10.7948  -25.8933    0.0000 C   0  0
   10.3823  -25.1775    0.0000 C   0  0
    9.5573  -25.1775    0.0000 C   0  0
    9.1448  -25.8933    0.0000 C   0  0
    9.5573  -26.6092    0.0000 C   0  0
   10.3823  -26.6092    0.0000 C   0  0
   10.7948  -27.3251    0.0000 O   0  0
   11.6198  -27.3251    0.0000 C   0  0
   12.0323  -28.0367    0.0000 C   0  0
   12.8573  -28.0367    0.0000 C   0  0
   13.2698  -27.3251    0.0000 C   0  0
   12.8573  -26.6092    0.0000 C   0  0
   12.0323  -26.6092    0.0000 C   0  0
    9.5405  -23.8228    0.0000 C   0  0
    9.3681  -23.0168    0.0000 O   0  0
    8.1608  -24.1906    0.0000 C   0  0  2  0  0  0
    7.1507  -23.1805    0.0000 O   0  0
    7.9456  -23.3957    0.0000 C   0  0
    7.5769  -24.7745    0.0000 C   0  0
    6.7820  -24.5635    0.0000 C   0  0
    6.1981  -25.1432    0.0000 S   0  0
    5.3990  -24.9322    0.0000 C   0  0
    8.5295  -22.8118    0.0000 N   0  0
    8.3185  -22.0128    0.0000 C   0  0  2  0  0  0
    8.6871  -20.6340    0.0000 O   0  0
    8.9023  -21.4330    0.0000 C   0  0
    7.5194  -21.8017    0.0000 C   0  0
    7.3042  -21.0027    0.0000 C   0  0
    6.5093  -20.7916    0.0000 C   0  0
    5.9254  -21.3755    0.0000 O   0  0
    9.6972  -21.6441    0.0000 N   0  0
   10.2811  -21.0602    0.0000 C   0  0  2  0  0  0
    9.2710  -20.0501    0.0000 O   0  0
   10.0659  -20.2653    0.0000 C   0  0
   11.0760  -21.2754    0.0000 C   0  0
   10.6498  -19.6814    0.0000 N   0  0
   10.4346  -18.8865    0.0000 C   0  0  2  0  0  0
   10.8075  -17.5035    0.0000 O   0  0
   11.0185  -18.3026    0.0000 C   0  0
    9.6397  -18.6713    0.0000 C   0  0  2  0  0  0
    9.0558  -19.2552    0.0000 O   0  0
    9.4245  -17.8722    0.0000 C   0  0
   11.8176  -18.5136    0.0000 N   0  0
   12.4599  -17.9936    0.0000 C   0  0  2  0  0  0
   11.6994  -16.7579    0.0000 O   0  0
   12.4153  -17.1704    0.0000 C   0  0
   13.1499  -18.4453    0.0000 C   0  0
   12.1114  -19.2848    0.0000 C   0  0
   12.9347  -19.2402    0.0000 C   0  0
   13.1311  -16.7579    0.0000 N   0  0
   13.1311  -15.9329    0.0000 C   0  0  2  0  0  0
   11.6994  -15.9329    0.0000 O   0  0
   12.4153  -15.5204    0.0000 C   0  0
   13.8428  -15.5204    0.0000 C   0  0
   14.5587  -15.9329    0.0000 C   0  0
   15.2704  -15.5204    0.0000 C   0  0
   14.5587  -16.7579    0.0000 C   0  0
   13.1310  -14.2826    0.0000 C   0  0
   13.8427  -13.0451    0.0000 O   0  0
   13.1310  -13.4576    0.0000 C   0  0
   12.4152  -13.0451    0.0000 N   0  0
   12.4152  -12.2201    0.0000 C   0  0  2  0  0  0
   11.6993  -10.9826    0.0000 O   0  0
   11.6993  -11.8076    0.0000 C   0  0
   13.1310  -11.8076    0.0000 C   0  0
   13.1310  -10.9826    0.0000 C   0  0
   13.8427  -10.5701    0.0000 C   0  0
   12.4152  -10.5701    0.0000 C   0  0
   11.6974   -8.5091    0.0000 C   0  0
   10.9834  -12.2201    0.0000 N   0  0
   10.2717  -11.8076    0.0000 C   0  0  2  0  0  0
    8.8442  -11.8076    0.0000 O   0  0
    9.5559  -12.2201    0.0000 C   0  0
   10.2717  -10.9826    0.0000 C   0  0
   10.9834  -10.5701    0.0000 C   0  0
   10.9834   -9.7451    0.0000 C   0  0
    8.8430  -13.4579    0.0000 C   0  0  2  0  0  0
    8.1271  -12.2204    0.0000 O   0  0
    8.1271  -13.0454    0.0000 C   0  0
    8.8430  -14.2829    0.0000 C   0  0
    9.5547  -14.6954    0.0000 C   0  0
   10.2705  -14.2829    0.0000 C   0  0
   10.2705  -13.4579    0.0000 C   0  0
    8.1241   -9.7469    0.0000 C   0  0
    7.4112  -13.4579    0.0000 N   0  0
    6.6996  -13.0454    0.0000 C   0  0  2  0  0  0
    5.9837  -14.2829    0.0000 O   0  0
    5.9837  -13.4579    0.0000 C   0  0
    6.6996  -12.2204    0.0000 C   0  0
    7.4112  -11.8079    0.0000 C   0  0
    7.4112  -10.9829    0.0000 C   0  0
    5.2678  -13.0454    0.0000 N   0  0
    5.2678  -12.2204    0.0000 C   0  0  2  0  0  0
    4.5520  -10.9829    0.0000 O   0  0
    4.5520  -11.8079    0.0000 C   0  0
    5.9837  -11.8079    0.0000 C   0  0
    5.9837  -10.9829    0.0000 C   0  0
    6.6996  -10.5704    0.0000 C   0  0
    5.2678  -10.5704    0.0000 C   0  0
    4.5532   -8.5076    0.0000 C   0  0
    3.8403  -12.2204    0.0000 N   0  0
    3.1244  -11.8079    0.0000 C   0  0  2  0  0  0
    1.6968  -11.8079    0.0000 O   0  0
    2.4127  -12.2204    0.0000 C   0  0
    3.1244  -10.9829    0.0000 C   0  0
    3.8403  -10.5704    0.0000 C   0  0
    3.8403   -9.7454    0.0000 C   0  0
    3.1276  -13.4593    0.0000 C   0  0  2  0  0  0
    3.8435  -14.6968    0.0000 O   0  0
    3.1276  -14.2843    0.0000 C   0  0
    3.8435  -13.0468    0.0000 C   0  0
    4.5552  -13.4593    0.0000 C   0  0
    4.5552  -14.2843    0.0000 C   0  0
    5.2710  -14.6968    0.0000 C   0  0
    2.4159  -14.6968    0.0000 N   0  0
    2.4159  -15.5218    0.0000 C   0  0  2  0  0  0
    3.8435  -15.5218    0.0000 O   0  0
    3.1276  -15.9343    0.0000 C   0  0
    1.7000  -15.9343    0.0000 C   0  0
    0.2683  -15.9343    0.0000 C   0  0
    0.9842  -15.5218    0.0000 C   0  0
    0.9842  -14.6968    0.0000 C   0  0
    0.2683  -14.2843    0.0000 C   0  0
   -0.4434  -14.6968    0.0000 C   0  0
   -0.4434  -15.5218    0.0000 C   0  0
   -1.1609  -16.7641    0.0000 C   0  0
    3.1276  -16.7593    0.0000 N   0  0
    2.4159  -17.1718    0.0000 C   0  0  2  0  0  0
    1.7000  -18.4093    0.0000 O   0  0
    2.4159  -17.9968    0.0000 C   0  0
    1.7000  -16.7593    0.0000 C   0  0
    0.9842  -17.1718    0.0000 C   0  0
    0.2683  -16.7593    0.0000 C   0  0
    3.1276  -18.4093    0.0000 N   0  0
    3.1276  -19.2343    0.0000 C   0  0  2  0  0  0
    2.4159  -20.4718    0.0000 O   0  0
    2.4159  -19.6468    0.0000 C   0  0
    3.8435  -19.6468    0.0000 C   0  0
    4.5552  -19.2343    0.0000 C   0  0
    4.5552  -18.4093    0.0000 O   0  0
    1.7000  -19.2343    0.0000 N   0  0
    0.9842  -19.6468    0.0000 C   0  0  2  0  0  0
    1.7000  -20.8843    0.0000 O   0  0
    0.9842  -20.4718    0.0000 C   0  0
    0.2683  -19.2343    0.0000 C   0  0
    0.2683  -18.4093    0.0000 C   0  0
   -0.4434  -17.9968    0.0000 C   0  0
   -1.1593  -18.4093    0.0000 C   0  0
    0.2683  -20.8843    0.0000 N   0  0
    0.2683  -21.7093    0.0000 C   0  0  2  0  0  0
    1.7000  -21.7093    0.0000 O   0  0
    0.9842  -22.1218    0.0000 C   0  0
   -0.4434  -22.1218    0.0000 C   0  0  1  0  0  0
   -0.4434  -22.9468    0.0000 C   0  0
   -1.1593  -21.7093    0.0000 C   0  0
   -1.8710  -22.1218    0.0000 C   0  0
    1.7008  -23.3599    0.0000 C   0  0  2  0  0  0
    2.4167  -24.5974    0.0000 O   0  0
    1.7008  -24.1849    0.0000 C   0  0
    2.4167  -22.9474    0.0000 C   0  0
    3.1284  -23.3599    0.0000 C   0  0
    3.1284  -24.1849    0.0000 C   0  0
    3.8443  -24.5974    0.0000 C   0  0
    0.9850  -24.5974    0.0000 N   0  0
    0.9850  -25.4224    0.0000 C   0  0  2  0  0  0
    0.2691  -26.6599    0.0000 O   0  0
    0.2691  -25.8349    0.0000 C   0  0
    1.7008  -25.8349    0.0000 C   0  0
    1.7008  -26.6599    0.0000 C   0  0
    2.4167  -27.0724    0.0000 C   0  0
    2.4167  -27.8974    0.0000 O   0  0
   -0.4426  -25.4224    0.0000 N   0  0
   -1.1585  -25.8349    0.0000 C   0  0  2  0  0  0
   -0.4426  -27.0724    0.0000 O   0  0
   -1.1585  -26.6599    0.0000 C   0  0
   -1.8702  -25.4224    0.0000 C   0  0
   -2.5860  -25.8349    0.0000 C   0  0
   -3.3019  -25.4224    0.0000 C   0  0
   -4.0136  -25.8349    0.0000 C   0  0
    8.2609  -19.0400    0.0000 P   0  0
    8.0457  -19.8391    0.0000 O   0  0
    7.5405  -18.6249    0.0000 O   0  0
    8.2530  -18.2124    0.0000 O   0  0
   -1.8728  -27.0727    0.0000 N   0  0
    8.3192  -25.8934    0.0000 O   0  0
   13.2672  -28.7539    0.0000 O   0  0
    8.9571  -24.4062    0.0000 N   0  0
    6.2966  -19.9948    0.0000 N   0  0
   11.2915  -22.0754    0.0000 O   0  0
   12.4167  -14.6954    0.0000 N   0  0
   11.6987   -9.3341    0.0000 N   0  0
   10.9808   -8.0982    0.0000 N   0  0
   12.4126   -8.0982    0.0000 N   0  0
    9.5573  -13.0451    0.0000 N   0  0
   10.9835  -13.0458    0.0000 N   0  0
    8.1265  -10.5719    0.0000 N   0  0
    7.4096   -9.3348    0.0000 N   0  0
    8.8434   -9.3336    0.0000 N   0  0
    4.5546   -9.3326    0.0000 N   0  0
    3.8429   -8.0955    0.0000 N   0  0
    5.2704   -8.0955    0.0000 N   0  0
    2.4140  -13.0454    0.0000 N   0  0
    5.2724  -15.5223    0.0000 N   0  0
   -0.4449  -17.1739    0.0000 N   0  0
   -1.8713  -17.1771    0.0000 N   0  0
   -1.1596  -15.9396    0.0000 N   0  0
    5.2724  -19.6473    0.0000 N   0  0
   -1.8696  -17.9973    0.0000 N   0  0
    0.9867  -22.9468    0.0000 N   0  0
    3.8457  -25.4228    0.0000 N   0  0
    3.1298  -26.6603    0.0000 O   0  0
   -4.7295  -25.4224    0.0000 N   0  0
 24 25  2  0
 28 33  1  0
 36 41  1  0
 44 46  1  0
 49 53  1  0
 56 60  1  0
 70 71  1  0
 74 80  1  0
 89 95  1  0
 98102  1  0
105111  1  0
120125  1  0
128137  1  0
140144  1  0
147151  1  0
154159  1  0
169174  1  0
177182  1  0
 26 28  1  0
 28 27  2  0
 26 29  1  1
 29 30  1  0
 30 31  1  0
 31 32  1  0
 34 33  1  1
 34 36  1  0
 36 35  2  0
 34 37  1  0
 37 38  1  0
 38 39  1  0
 39 40  2  0
 42 41  1  6
 42 44  1  0
 44 43  2  0
 42 45  1  0
 47 46  1  1
 47 49  1  0
 49 48  2  0
 47 50  1  0
 50 51  1  0
 50 52  1  6
 53 54  1  0
 54 56  1  6
 56 55  2  0
 54 57  1  0
 58 59  1  0
 59 57  1  0
 58 53  1  0
 61 60  1  6
 61 63  1  0
 63 62  2  0
 61 64  1  0
 64 65  1  0
 65 66  1  0
 65 67  1  0
 68 70  1  0
 70 69  2  0
 72 71  1  6
 72 74  1  0
 74 73  2  0
 72 75  1  0
 75 76  1  0
 76 77  1  0
 76 78  1  0
 81 80  1  6
 81 83  1  0
 83 82  2  0
 81 84  1  0
 84 85  1  0
 85 86  1  0
 87 89  1  0
 89 88  2  0
 87 90  1  1
 90 91  1  0
 91 92  1  0
 92 93  1  0
 96 95  1  6
 96 98  1  0
 98 97  2  0
 96 99  1  0
 99100  1  0
100101  1  0
103102  1  6
103105  1  0
105104  2  0
103106  1  0
106107  1  0
107108  1  0
107109  1  0
112111  1  6
112114  1  0
114113  2  0
112115  1  0
115116  1  0
116117  1  0
118120  1  0
120119  2  0
118121  1  1
121122  1  0
122123  1  0
123124  1  0
126125  1  6
126128  1  0
128127  2  0
126129  1  0
129131  1  0
130131  2  0
131132  1  0
132133  2  0
133134  1  0
134135  2  0
135130  1  0
138137  1  6
138140  1  0
140139  2  0
138141  1  0
141142  1  0
142143  1  0
145144  1  1
145147  1  0
147146  2  0
145148  1  0
148149  1  0
149150  2  0
152151  1  6
152154  1  0
154153  2  0
152155  1  0
155156  1  0
156157  1  0
157158  1  0
160159  1  6
160162  1  0
162161  2  0
160163  1  0
163164  1  1
163165  1  0
165166  1  0
167169  1  0
169168  2  0
167170  1  1
170171  1  0
171172  1  0
172173  1  0
175174  1  1
175177  1  0
177176  2  0
175178  1  0
178179  1  0
179180  1  0
180181  2  0
183182  1  6
183185  1  0
185184  2  0
183186  1  0
186187  1  0
187188  1  0
188189  1  0
 51190  1  0
190191  2  0
190192  1  0
  1  2  1  0
190193  1  0
  2  3  1  0
185194  1  0
  3  4  2  0
  3  5  1  0
  5  6  1  0
  6  7  2  0
  7  8  1  0
  8  9  2  0
  9 10  1  0
  5 10  2  0
  1 10  1  0
  1 11  1  0
 11 12  1  0
 12 13  2  0
 13 14  1  0
 14 15  2  0
 15 16  1  0
 11 16  2  0
 16 17  1  0
 17 18  1  0
 18 19  1  0
 19 20  2  0
 20 21  1  0
 21 22  2  0
 22 23  1  0
  1 23  1  0
 18 23  2  0
  8 24  1  0
189222  1  0
180221  1  0
173220  1  0
162219  1  0
219167  1  0
 24197  1  0
197 26  1  0
 14195  1  0
 20196  1  0
 45199  1  0
 39198  1  0
149217  1  0
158218  1  0
136215  1  0
136216  2  0
214136  1  0
143214  1  0
124213  1  0
114212  1  0
212118  1  0
 83204  1  0
204 87  1  0
 93205  1  0
 63200  1  0
200 68  1  0
110210  1  0
110211  2  0
209110  1  0
117209  1  0
 94207  1  0
 94208  2  0
206 94  1  0
101206  1  0
 79202  1  0
 79203  2  0
201 79  1  0
 86201  1  0
M  END