
  SciTegic02271514512D

 33 37  0  0  0  0            999 V2000
    0.7051  -13.0806    0.0000 N   0  0
   -1.1209  -14.2474    0.0000 C   0  0
   -0.3226  -14.0560    0.0000 N   0  0
   -0.0919  -13.2720    0.0000 C   0  0
   -0.6597  -12.6795    0.0000 C   0  0
   -1.4498  -12.8709    0.0000 C   0  0
   -1.6804  -13.6549    0.0000 N   0  0
   -0.4290  -11.8955    0.0000 F   0  0
   -2.0972  -16.1220    0.0000 C   0  0
   -2.1248  -15.3048    0.0000 C   0  0
   -2.8423  -14.9153    0.0000 C   0  0
   -3.5406  -15.3429    0.0000 C   0  0
   -3.5131  -16.1601    0.0000 C   0  0
   -2.7955  -16.5496    0.0000 N   0  0
   -1.3128  -16.3536    0.0000 N   0  0
   -1.3516  -15.0314    0.0000 C   0  0
   -0.8509  -15.6796    0.0000 C   0  0
   -4.2582  -14.9534    0.0000 Cl  0  0
    1.2680  -13.6730    0.0000 C   0  0  1  0  0  0
    1.0332  -14.4573    0.0000 C   0  0
    1.5922  -15.0484    0.0000 C   0  0
    2.3880  -14.8611    0.0000 C   0  0
    2.6217  -14.0770    0.0000 C   0  0  2  0  0  0
    2.0596  -13.4803    0.0000 C   0  0
    3.4168  -13.8884    0.0000 N   0  0
    3.9778  -14.4827    0.0000 C   0  0
    3.7436  -15.2656    0.0000 O   0  0
    4.7729  -14.2941    0.0000 N   0  0
    5.3305  -14.8906    0.0000 C   0  0
    6.1226  -14.7047    0.0000 C   0  0
    6.3609  -13.9226    0.0000 O   0  0
    5.8008  -13.3263    0.0000 C   0  0
    5.0023  -13.5120    0.0000 C   0  0
  2  3  1  0
  3  4  2  0
  4  5  1  0
  5  6  2  0
  6  7  1  0
  2  7  2  0
  5  8  1  0
  9 10  1  0
 10 11  2  0
 11 12  1  0
 12 13  2  0
 13 14  1  0
  9 14  2  0
 16 17  2  0
 15 17  1  0
  9 15  1  0
 10 16  1  0
 12 18  1  0
  2 16  1  0
  1  4  1  0
 19  1  1  6
 19 20  1  0
 19 24  1  0
 20 21  1  0
 21 22  1  0
 22 23  1  0
 23 24  1  0
 23 25  1  6
 25 26  1  0
 26 27  2  0
 26 28  1  0
 28 29  1  0
 28 33  1  0
 29 30  1  0
 30 31  1  0
 31 32  1  0
 32 33  1  0
M  END