
          11280715152D 1   1.00000     0.00000     0

 12 13  0     0  0            999 V2000
    6.7625   -5.5042    0.0000 N   0  0  0  0  0  0           0  0  0
    7.4917   -5.0917    0.0000 C   0  0  0  0  0  0           0  0  0
    6.0542   -5.1042    0.0000 C   0  0  0  0  0  0           0  0  0
    6.0542   -4.2542    0.0000 C   0  0  0  0  0  0           0  0  0
    6.7625   -3.8417    0.0000 C   0  0  0  0  0  0           0  0  0
    8.2292   -5.4917    0.0000 N   0  0  0  0  0  0           0  0  0
    7.4917   -4.2750    0.0000 C   0  0  0  0  0  0           0  0  0
    5.3375   -5.5042    0.0000 C   0  0  0  0  0  0           0  0  0
    8.2417   -6.3167    0.0000 C   0  0  0  0  0  0           0  0  0
    5.3375   -3.8417    0.0000 C   0  0  0  0  0  0           0  0  0
    4.6125   -5.0917    0.0000 C   0  0  0  0  0  0           0  0  0
    4.6125   -4.2750    0.0000 C   0  0  0  0  0  0           0  0  0
  2  1  2  0     0  0
  3  1  1  0     0  0
  4  3  2  0     0  0
  5  4  1  0     0  0
  6  2  1  0     0  0
  7  2  1  0     0  0
  8  3  1  0     0  0
  9  6  1  0     0  0
 10  4  1  0     0  0
 11  8  2  0     0  0
 12 11  1  0     0  0
  5  7  2  0     0  0
 12 10  2  0     0  0
M  END