
  SciTegic01161211212D

 14 13  0  0  0  0            999 V2000
    3.0625   -2.6917    0.0000 P   0  0
    7.1042   -2.6792    0.0000 P   0  0
    3.7417   -3.0792    0.0000 C   0  0
    4.4167   -2.6792    0.0000 C   0  0
    6.4292   -3.0667    0.0000 C   0  0
    2.1042   -2.1792    0.0000 O   0  0
    2.1042   -3.1167    0.0000 O   0  0
    7.8417   -2.2542    0.0000 O   0  0
    7.7667   -3.0417    0.0000 O   0  0
    3.0542   -1.9000    0.0000 O   0  0
    7.1042   -1.8792    0.0000 O   0  0
    4.4125   -1.8917    0.0000 O   0  0
    5.0875   -3.0667    0.0000 N   0  0
    5.7625   -2.6792    0.0000 C   0  0
  2  5  1  0
  3  1  1  0
  4  3  1  0
  5 14  1  0
  6  1  1  0
  7  1  1  0
  8  2  1  0
  9  2  1  0
 10  1  2  0
 11  2  2  0
 12  4  2  0
 13  4  1  0
 14 13  1  0
M  END