
  SciTegic01111613442D

 20 21  0  0  0  0            999 V2000
   -8.8317    2.6421    0.0000 C   0  0
   -8.8215    1.4422    0.0000 C   0  0
   -9.8558    0.8337    0.0000 O   0  0
   -7.5151    0.7033    0.0000 C   0  0
   -6.2216    1.4644    0.0000 C   0  0
   -4.9153    0.7255    0.0000 C   0  0
   -3.6217    1.4865    0.0000 C   0  0
   -2.3155    0.7475    0.0000 N   0  0
   -1.0028    1.5132    0.0000 C   0  0
   -0.9991    2.7132    0.0000 O   0  0
    0.2917    0.7475    0.0000 C   0  0
    1.7138    1.2033    0.0000 N   0  0
    2.0825    2.3453    0.0000 C   0  0
    2.5889    0.0182    0.0000 C   0  0
    1.7138   -1.2033    0.0000 N   0  0
    0.2917   -0.7475    0.0000 C   0  0
   -1.0028   -1.5132    0.0000 N   0  0
   -0.9991   -2.7132    0.0000 C   0  0
   -2.3155   -0.7475    0.0000 C   0  0
   -3.3560   -1.3452    0.0000 O   0  0
  1  2  1  0
  2  3  2  0
  4  2  1  0
  5  4  1  0
  5  6  1  0
  6  7  1  0
  7  8  1  0
  9  8  1  0
 19  8  1  0
  9 10  2  0
 11  9  1  0
 11 12  1  0
 16 11  2  0
 13 12  1  0
 14 12  1  0
 14 15  2  0
 16 15  1  0
 16 17  1  0
 18 17  1  0
 19 17  1  0
 19 20  2  0
M  END