
  SciTegic02291217272D

 13 13  0  0  0  0            999 V2000
   -3.4958    1.4750    0.0000 C   0  0
   -2.7814    1.8875    0.0000 C   0  0
   -2.0669    1.4750    0.0000 C   0  0
   -1.3524    1.8875    0.0000 C   0  0
   -1.3524    2.7125    0.0000 O   0  0
   -0.6379    1.4750    0.0000 N   0  0
   -2.0669    0.6500    0.0000 C   0  0
   -2.0623   -0.1752    0.0000 N   0  0
   -4.2098    1.8904    0.0000 C   0  0
   -4.9238    1.4786    0.0000 C   0  0
   -4.9243    0.6528    0.0000 C   0  0
   -4.2048    0.2404    0.0000 C   0  0
   -3.4937    0.6546    0.0000 C   0  0
  3  7  1  0
  3  4  1  0
  7  8  3  0
  1  9  2  0
  4  5  2  0
  9 10  1  0
  2  3  2  0
 10 11  2  0
  4  6  1  0
 11 12  1  0
  1  2  1  0
 12 13  2  0
 13  1  1  0
M  END