
  SciTegic04021211102D

 21 23  0  0  0  0            999 V2000
   -4.9639  -13.8166    0.0000 N   0  0
   -4.9651  -14.6440    0.0000 C   0  0
   -4.2503  -15.0569    0.0000 N   0  0
   -4.2521  -13.4039    0.0000 C   0  0
   -3.5367  -13.8130    0.0000 C   0  0
   -3.5364  -14.6394    0.0000 C   0  0
   -2.7503  -14.8946    0.0000 N   0  0
   -2.2647  -14.2258    0.0000 C   0  0
   -2.7508  -13.5574    0.0000 N   0  0
   -4.2545  -12.5789    0.0000 N   0  0
   -3.5413  -12.1642    0.0000 C   0  0
   -2.8277  -12.5770    0.0000 C   0  0
   -2.1150  -12.1631    0.0000 C   0  0
   -2.1170  -11.3372    0.0000 C   0  0
   -2.8377  -10.9270    0.0000 C   0  0
   -3.5475  -11.3433    0.0000 C   0  0
   -5.6799  -15.0559    0.0000 N   0  0
   -2.8431  -10.1020    0.0000 C   0  0
   -3.5602   -9.6942    0.0000 F   0  0
   -2.1313   -9.6849    0.0000 F   0  0
   -2.8500   -9.2750    0.0000 F   0  0
  4 10  1  0
  5  6  1  0
 10 11  1  0
 11 12  2  0
  2  3  1  0
 12 13  1  0
  3  6  2  0
 13 14  2  0
  1  2  2  0
 14 15  1  0
  5  4  2  0
 15 16  2  0
 16 11  1  0
  6  7  1  0
  2 17  1  0
  7  8  1  0
 15 18  1  0
  8  9  2  0
 18 19  1  0
  9  5  1  0
 18 20  1  0
  4  1  1  0
 18 21  1  0
M  END