
          11280715482D 1   1.00000     0.00000     0

 32 36  0     0  0            999 V2000
    3.9750   -0.9667    0.0000 C   0  0  0  0  0  0           0  0  0
    3.2167   -0.6250    0.0000 N   0  0  0  0  0  0           0  0  0
    3.8792   -1.7875    0.0000 C   0  0  0  0  0  0           0  0  0
    4.6917   -0.5542    0.0000 C   0  0  0  0  0  0           0  0  0
    3.0667   -1.9542    0.0000 N   0  0  0  0  0  0           0  0  0
    2.6667   -1.2375    0.0000 C   0  0  0  0  0  0           0  0  0
    4.9167   -3.7042    0.0000 C   0  0  3  0  0  0           0  0  0
    5.4042   -0.9750    0.0000 N   0  0  0  0  0  0           0  0  0
    8.2542   -1.0000    0.0000 C   0  0  0  0  0  0           0  0  0
    7.5417   -0.5792    0.0000 C   0  0  0  0  0  0           0  0  0
    5.5250   -5.1917    0.0000 C   0  0  3  0  0  0           0  0  0
    6.2292   -4.0417    0.0000 C   0  0  3  0  0  0           0  0  0
    5.1000   -4.9625    0.0000 C   0  0  3  0  0  0           0  0  0
    4.6917    0.2708    0.0000 O   0  0  0  0  0  0           0  0  0
    4.4875   -2.3417    0.0000 C   0  0  0  0  0  0           0  0  0
    6.1167   -0.5667    0.0000 C   0  0  0  0  0  0           0  0  0
    6.8292   -0.9917    0.0000 C   0  0  0  0  0  0           0  0  0
    4.5542   -4.3792    0.0000 C   0  0  0  0  0  0           0  0  0
    5.6792   -3.4292    0.0000 C   0  0  0  0  0  0           0  0  0
    4.9500   -4.5667    0.0000 C   0  0  0  0  0  0           0  0  0
    8.2500   -1.8250    0.0000 O   0  0  0  0  0  0           0  0  0
    4.3125   -3.1500    0.0000 C   0  0  0  0  0  0           0  0  0
    6.2875   -4.9125    0.0000 C   0  0  0  0  0  0           0  0  0
    5.0792   -5.9000    0.0000 C   0  0  0  0  0  0           0  0  0
    5.8000   -4.6792    0.0000 C   0  0  0  0  0  0           0  0  0
    8.9750   -0.5917    0.0000 O   0  0  0  0  0  0           0  0  0
    1.8417   -1.1417    0.0000 C   0  0  0  0  0  0           0  0  0
    7.5500    0.2458    0.0000 C   0  0  0  0  0  0           0  0  0
    6.8292    0.6583    0.0000 C   0  0  0  0  0  0           0  0  0
    6.1167    0.2500    0.0000 C   0  0  0  0  0  0           0  0  0
    1.3542   -1.8042    0.0000 C   0  0  0  0  0  0           0  0  0
    0.5375   -1.7167    0.0000 C   0  0  0  0  0  0           0  0  0
  2  1  1  0     0  0
  3  1  2  0     0  0
  4  1  1  0     0  0
  5  3  1  0     0  0
  6  2  2  0     0  0
  7 22  1  0     0  0
  8  4  1  0     0  0
  9 10  1  0     0  0
 10 17  1  0     0  0
 11 20  1  0     0  0
 12 19  1  0     0  0
 13 18  1  0     0  0
 14  4  2  0     0  0
 15  3  1  0     0  0
 16  8  1  0     0  0
 17 16  2  0     0  0
 18  7  1  0     0  0
 19  7  1  0     0  0
 20  7  1  0     0  0
 21  9  2  0     0  0
 22 15  1  0     0  0
 23 11  1  0     0  0
 24 11  1  0     0  0
 25 12  1  0     0  0
 26  9  1  0     0  0
 27  6  1  0     0  0
 28 29  1  0     0  0
 29 30  2  0     0  0
 30 16  1  0     0  0
 31 27  1  0     0  0
 32 31  1  0     0  0
  6  5  1  0     0  0
 10 28  2  0     0  0
 13 24  1  0     0  0
 12 23  1  0     0  0
 13 25  1  0     0  0
M  END