
  SciTegic10191216002D

 34 36  0  0  0  0            999 V2000
    8.3042  -28.5083    0.0000 C   0  0
    8.2940  -29.3323    0.0000 C   0  0
    9.0036  -29.7516    0.0000 C   0  0
    9.7230  -29.3460    0.0000 C   0  0
    9.7284  -28.5167    0.0000 C   0  0
    9.0182  -28.1012    0.0000 C   0  0
   10.4340  -29.7645    0.0000 C   0  0
   10.4271  -30.5894    0.0000 C   0  0
   11.1519  -29.3580    0.0000 C   0  0
    4.7417  -25.6208    0.0000 O   0  0
    4.7417  -26.4458    0.0000 C   0  0
    5.4537  -26.8542    0.0000 C   0  0
    6.1657  -26.4458    0.0000 N   0  0
    6.1657  -25.6208    0.0000 C   0  0
    5.4537  -25.2042    0.0000 C   0  0
    6.8814  -25.2104    0.0000 C   0  0
    7.5946  -25.6250    0.0000 O   0  0
    8.3103  -25.2146    0.0000 C   0  0
    6.8838  -24.3854    0.0000 O   0  0
    6.8796  -26.8594    0.0000 C   0  0
    6.8784  -27.6844    0.0000 C   0  0
    7.5946  -26.4479    0.0000 O   0  0
    7.5923  -28.0979    0.0000 S   0  0
    9.0236  -25.6292    0.0000 C   0  0
    9.7393  -25.2188    0.0000 C   0  0
   10.4525  -25.6334    0.0000 C   0  0
   10.4448  -26.4594    0.0000 C   0  0
   11.1572  -26.8739    0.0000 N   0  3
   11.8739  -26.4634    0.0000 C   0  0
   11.8737  -25.6342    0.0000 C   0  0
   11.1607  -25.2234    0.0000 C   0  0
   11.1500  -27.6958    0.0000 O   0  5
    7.1811  -28.8094    0.0000 O   0  0
    8.0062  -27.3880    0.0000 O   0  0
 16 17  1  0
 17 18  1  0
  7  9  1  0
 16 19  2  0
 10 11  1  0
 13 20  1  0
  4  5  1  0
 20 21  1  0
  2  3  1  0
 20 22  2  0
  5  6  2  0
 21 23  1  0
  6  1  1  0
 18 24  1  0
  1  2  2  0
 24 25  1  0
  4  7  1  0
 25 26  1  0
 10 15  1  0
 26 27  2  0
 11 12  1  0
 27 28  1  0
 12 13  1  0
 28 29  2  0
 13 14  1  0
 29 30  1  0
 14 15  1  0
 30 31  2  0
 31 26  1  0
  3  4  2  0
 28 32  1  0
 23  1  1  0
 14 16  1  0
 23 33  2  0
  7  8  1  0
 23 34  2  0
M  CHG  2  28   1  32  -1
M  END