
  SciTegic12231509382D

 29 32  0  0  0  0            999 V2000
   -3.7083  -10.8573    0.0000 F   0  0
    4.1510   -9.6200    0.0000 O   0  0
    2.7220  -12.0950    0.0000 O   0  0
   -0.8503   -8.3824    0.0000 O   0  0
    3.4364  -10.8575    0.0000 N   0  0
    4.1509  -12.0950    0.0000 N   0  0
    1.2930  -10.4450    0.0000 N   0  0
    4.8655  -10.8575    0.0000 C   0  0
    4.1510  -10.4450    0.0000 C   0  0
    4.8654  -11.6826    0.0000 C   0  0
    3.4364  -11.6825    0.0000 C   0  0
    5.5800  -10.4451    0.0000 C   0  0
    2.7221  -10.4450    0.0000 C   0  0
    5.5799  -12.0951    0.0000 C   0  0
    2.0075  -10.8575    0.0000 C   0  0
    6.2944  -10.8576    0.0000 C   0  0
    6.2944  -11.6826    0.0000 C   0  0
   -0.1359   -9.6199    0.0000 C   0  0
   -0.8503   -9.2074    0.0000 C   0  0
   -1.5649   -9.6199    0.0000 C   0  0
    1.2931   -9.6199    0.0000 C   0  0
    0.5786  -10.8574    0.0000 C   0  0
    0.5787   -9.2074    0.0000 C   0  0
   -0.1359  -10.4449    0.0000 C   0  0
   -2.2793   -9.2073    0.0000 C   0  0
   -1.5649  -10.4449    0.0000 C   0  0
   -2.9938  -10.4448    0.0000 C   0  0
   -2.9938   -9.6198    0.0000 C   0  0
   -2.2793  -10.8574    0.0000 C   0  0
  1 27  1  0
  2  9  2  0
  3 11  2  0
  4 19  2  0
  5  9  1  0
  5 11  1  0
  5 13  1  0
  6 10  1  0
  6 11  1  0
  7 15  1  0
  7 21  1  0
  7 22  1  0
  8  9  1  0
  8 10  2  0
  8 12  1  0
 10 14  1  0
 12 16  2  0
 13 15  1  0
 14 17  2  0
 16 17  1  0
 18 19  1  0
 18 23  1  0
 18 24  1  0
 19 20  1  0
 20 25  2  0
 20 26  1  0
 21 23  1  0
 22 24  1  0
 25 28  1  0
 26 29  2  0
 27 28  2  0
 27 29  1  0
M  END