
  SciTegic11201309402D

 83 88  0  0  1  0            999 V2000
    9.4516   -0.5116    0.0000 N   0  0
    9.6678   -1.3077    0.0000 C   0  0
   10.7927    0.0908    0.0000 C   0  0
    5.5307   -2.4308    0.0000 C   0  0
    4.1516   -2.8052    0.0000 N   0  0
    3.5702   -3.3904    0.0000 C   0  0
    9.9687    0.1313    0.0000 C   0  0  1  0  0  0
    7.7073   -2.2674    0.0000 C   0  0
    1.3936   -3.5539    0.0000 C   0  0
    6.3283   -2.6417    0.0000 N   0  0
    2.8396   -6.1534    0.0000 C   0  0
    2.1912   -3.7648    0.0000 N   0  0
    4.9492   -3.0161    0.0000 C   0  0  1  0  0  0
    8.2887   -1.6821    0.0000 N   0  0
   11.2398    0.7842    0.0000 N   0  0
    6.9097   -2.0565    0.0000 C   0  0  1  0  0  0
    6.6936   -1.2603    0.0000 C   0  0
    2.7726   -3.1795    0.0000 C   0  0  1  0  0  0
    9.0863   -1.8930    0.0000 C   0  0  1  0  0  0
    0.8121   -4.1392    0.0000 C   0  0  2  0  0  0
   14.9829    1.3156    0.0000 C   0  0
    8.5718   -5.4521    0.0000 C   0  0
    1.8259   -5.1463    0.0000 C   0  0
    1.0283   -4.9353    0.0000 N   0  0
   12.4407    0.0099    0.0000 C   0  0
    7.2750   -0.6750    0.0000 C   0  0
   12.0638    0.7437    0.0000 C   0  0  2  0  0  0
   15.8069    1.2752    0.0000 N   0  0
    7.9904   -6.0374    0.0000 N   0  0
    3.1256   -6.5700    0.0000 C   0  0
    3.5751   -5.0323    0.0000 C   0  0
    4.3107   -6.1534    0.0000 C   0  0
   10.4654   -1.5187    0.0000 O   0  0
   11.1697   -0.6430    0.0000 O   0  0
    5.3145   -1.6346    0.0000 O   0  0
    2.0420   -5.9424    0.0000 C   0  0
    3.7863   -4.1866    0.0000 O   0  0
    1.1774   -2.7577    0.0000 O   0  0
    7.9234   -3.0636    0.0000 O   0  0
    2.3902   -6.9437    0.0000 C   0  0
    3.5751   -6.5271    0.0000 C   0  0
    2.8396   -5.4060    0.0000 C   0  0
    0.0145   -3.9282    0.0000 C   0  0
    2.5565   -2.3833    0.0000 C   0  0
   13.2648   -0.0306    0.0000 O   0  0
    2.4073   -4.5610    0.0000 O   0  0
    8.0726   -0.8859    0.0000 O   0  0
    4.3107   -5.4060    0.0000 C   0  0
    3.1256   -5.8226    0.0000 C   0  0
    3.8612   -6.9437    0.0000 C   0  0
   14.6059    2.0495    0.0000 N   0  0
    8.3557   -4.6559    0.0000 N   0  0
   14.5358    0.6223    0.0000 N   0  0
    9.3694   -5.6630    0.0000 N   0  0
   11.9937   -0.6835    0.0000 N   0  0
    8.6805   -0.2184    0.0000 C   0  0
    5.1654   -3.8123    0.0000 C   0  0
    7.0589    0.1212    0.0000 N   0  0
   -0.5669   -4.5135    0.0000 C   0  0
   -1.7298   -5.6841    0.0000 C   0  0
    3.1379   -1.7981    0.0000 C   0  0
   -1.3645   -4.3026    0.0000 C   0  0
   -0.3508   -5.3097    0.0000 C   0  0
   -1.9459   -4.8879    0.0000 C   0  0
   -0.9322   -5.8950    0.0000 C   0  0
    9.5171    0.8217    0.0000 C   0  0
   -2.3112   -6.2693    0.0000 O   0  0
    8.7209    0.6056    0.0000 C   0  0
    9.3025   -2.6892    0.0000 C   0  0
   12.5109    1.4371    0.0000 C   0  0
   13.7819    2.0900    0.0000 C   0  0
    8.9372   -4.0707    0.0000 C   0  0
    5.9629   -4.0232    0.0000 C   0  0
    4.5839   -4.3975    0.0000 C   0  0
   -3.1088   -6.0584    0.0000 C   0  0
    3.9355   -2.0090    0.0000 C   0  0
    2.9218   -1.0019    0.0000 C   0  0
    8.7210   -3.2745    0.0000 C   0  0
   13.3349    1.3966    0.0000 C   0  0
   -3.6903   -6.6437    0.0000 C   0  0
    4.5170   -1.4237    0.0000 C   0  0
    3.5032   -0.4166    0.0000 C   0  0
    4.3008   -0.6275    0.0000 C   0  0
  2  1  1  0
  7  3  1  6
  4 10  1  0
 13  5  1  6
  6  5  1  0
  7  1  1  0
  8 14  1  0
  9 12  1  0
 16 10  1  1
 11 36  1  0
 18 12  1  1
 13  4  1  0
 19 14  1  6
 15  3  1  0
 16  8  1  0
 16 17  1  0
 18  6  1  0
 19  2  1  0
 20  9  1  0
 21 51  2  0
 22 52  2  0
 23 24  1  0
 20 24  1  6
 27 25  1  0
 26 17  1  0
 27 15  1  1
 28 21  1  0
 29 22  1  0
 30 40  1  0
 31 42  1  0
 32 41  1  0
 33  2  2  0
 34  3  2  0
 35  4  2  0
 36 23  1  0
 37  6  2  0
 38  9  2  0
 39  8  2  0
 40 11  1  0
 41 11  1  0
 30 50  1  0
 20 43  1  0
 18 44  1  0
 45 25  2  0
 46 23  2  0
 47 26  2  0
 48 31  1  0
 49 31  1  0
 32 50  1  0
 51 71  1  0
 52 72  1  0
 53 21  1  0
 54 22  1  0
 55 25  1  0
 56  1  1  0
 13 57  1  0
 58 26  1  0
 59 43  1  0
 60 65  1  0
 61 44  1  0
 62 59  2  0
 63 59  1  0
 64 62  1  0
 65 63  2  0
  7 66  1  0
 67 60  1  0
 68 56  1  0
 19 69  1  0
 27 70  1  0
 71 79  1  0
 72 78  1  0
 73 57  1  0
 74 57  1  0
 75 67  1  0
 76 61  2  0
 77 61  1  0
 78 69  1  0
 79 70  1  0
 80 75  1  0
 81 76  1  0
 82 77  2  0
 83 82  1  0
 68 66  1  0
 83 81  2  0
 60 64  2  0
 30 49  1  0
 32 48  1  0
 42 11  1  0
M  END