
  SciTegic07101214422D

 74 76  0  0  0  0            999 V2000
    9.2784    1.4412    0.0000 N   0  0
    9.9919    1.0269    0.0000 C   0  0  1  0  0  0
   10.7073    1.4377    0.0000 C   0  0
   11.4208    1.0235    0.0000 N   0  0
   10.7093    2.2627    0.0000 O   0  0
    9.9899    0.2019    0.0000 C   0  0
    9.2744   -0.2088    0.0000 C   0  0
    9.2724   -1.0338    0.0000 C   0  0
    8.5570   -1.4446    0.0000 C   0  0
    8.5550   -2.2696    0.0000 N   0  0
   12.1363    1.4343    0.0000 C   0  0
   12.8497    1.0201    0.0000 C   0  0
   13.5652    1.4308    0.0000 C   0  0
   14.2787    1.0166    0.0000 C   0  0
   14.9941    1.4274    0.0000 C   0  0
   15.7076    1.0132    0.0000 C   0  0
   16.4231    1.4240    0.0000 N   0  0
   15.7056    0.1882    0.0000 O   0  0
   17.1365    1.0097    0.0000 C   0  0  1  0  0  0
   17.8520    1.4205    0.0000 C   0  0
   18.5655    1.0063    0.0000 N   0  0
   17.8540    2.2455    0.0000 O   0  0
   17.1346    0.1847    0.0000 C   0  0
   16.4191   -0.2260    0.0000 C   0  0
   16.4171   -1.0510    0.0000 C   0  0
   15.7016   -1.4618    0.0000 N   0  0
   15.6997   -2.2868    0.0000 C   0  0
   14.9842   -2.6976    0.0000 N   0  0
   16.4131   -2.7010    0.0000 N   0  0
   19.2809    1.4171    0.0000 C   0  0  1  0  0  0
   19.9944    1.0029    0.0000 C   0  0
   19.2829    2.2421    0.0000 C   0  0
   19.9984    2.6529    0.0000 C   0  0
   20.0004    3.4778    0.0000 C   0  0
   20.7158    3.8886    0.0000 N   0  0
   20.7178    4.7197    0.0000 C   0  0
   21.4333    5.1256    0.0000 N   0  0
   20.0043    5.1305    0.0000 C   0  0
   19.9924    0.1779    0.0000 O   0  0
   20.7099    1.4136    0.0000 N   0  0
   -2.7385    2.8777    0.0000 O   0  0
   -2.1510    2.2944    0.0000 S   0  0
   -2.9499    2.0773    0.0000 O   0  0
   -4.2941    0.2360    0.0000 N   0  0
   -4.2952    1.0634    0.0000 C   0  0
   -3.5804    1.4763    0.0000 C   0  0
   -3.5822   -0.1767    0.0000 C   0  0
   -2.8668    0.2324    0.0000 C   0  0
   -2.8661    1.0592    0.0000 C   0  0
   -2.1508    1.4702    0.0000 C   0  0
   -1.4357    1.0554    0.0000 C   0  0
   -1.4405    0.2255    0.0000 C   0  0
   -2.1564   -0.1818    0.0000 C   0  0
   -1.4337    2.7062    0.0000 N   0  0
   -0.7202    2.2920    0.0000 C   0  0
   -0.0048    2.7028    0.0000 C   0  0
    0.7087    2.2885    0.0000 N   0  0
    1.4242    2.6993    0.0000 C   0  0
    2.1376    2.2851    0.0000 C   0  0
    2.8531    2.6959    0.0000 N   0  0
    3.5666    2.2817    0.0000 C   0  0
    1.4261    3.5243    0.0000 O   0  0
    4.2820    2.6924    0.0000 C   0  0
    4.9955    2.2782    0.0000 N   0  0
    4.2840    3.5174    0.0000 O   0  0
    5.7110    2.6890    0.0000 C   0  0
    6.4244    2.2748    0.0000 C   0  0
    6.4202    1.4489    0.0000 C   0  0
    7.1329    1.0348    0.0000 C   0  0
    7.8493    1.4456    0.0000 C   0  0
    7.8487    2.2749    0.0000 C   0  0
    7.1354    2.6853    0.0000 C   0  0
    8.5633    1.0324    0.0000 C   0  0
    8.5625    0.2074    0.0000 O   0  0
 17 19  1  0
 36 38  2  0
  9 10  1  0
 31 39  2  0
 19 20  1  0
 31 40  1  0
 42 41  2  0
 43 42  2  0
  2  3  1  0
 20 21  1  0
  4 11  1  0
 20 22  2  0
  2  6  1  1
 44 45  2  0
 19 23  1  1
 45 46  1  0
 46 49  2  0
 11 12  1  0
 48 47  2  0
 47 44  1  0
 23 24  1  0
  1  2  1  0
 48 49  1  0
 24 25  1  0
 49 50  1  0
 12 13  1  0
 50 51  2  0
 25 26  1  0
 51 52  1  0
  6  7  1  0
 52 53  2  0
 53 48  1  0
 50 42  1  0
 26 27  1  0
 42 54  1  0
 13 14  1  0
 54 55  1  0
 27 28  1  0
 55 56  1  0
  3  4  1  0
 56 57  1  0
 27 29  2  0
 57 58  1  0
 14 15  1  0
 58 59  1  0
 21 30  1  0
 59 60  1  0
  7  8  1  0
 60 61  1  0
 30 31  1  0
 58 62  2  0
 15 16  1  0
 61 63  1  0
 30 32  1  6
 63 64  1  0
 63 65  2  0
 32 33  1  0
 64 66  1  0
 16 17  1  0
 66 67  1  0
 33 34  1  0
 67 68  2  0
  8  9  1  0
 68 69  1  0
 34 35  1  0
 69 70  2  0
 16 18  2  0
 70 71  1  0
 35 36  1  0
 71 72  2  0
 72 67  1  0
  3  5  2  0
 70 73  1  0
 36 37  1  0
 73 74  2  0
 73  1  1  0
M  END