
          11280715522D 1   1.00000     0.00000     0

 48 51  0     1  0            999 V2000
    4.5777    2.7209    0.0000 C   0  0  0  0  0  0           0  0  0
    4.5766    1.8935    0.0000 C   0  0  0  0  0  0           0  0  0
    5.2914    1.4806    0.0000 C   0  0  0  0  0  0           0  0  0
    5.2896    3.1336    0.0000 C   0  0  0  0  0  0           0  0  0
    6.0050    2.7245    0.0000 C   0  0  0  0  0  0           0  0  0
    6.0057    1.8977    0.0000 C   0  0  0  0  0  0           0  0  0
    6.7210    1.4867    0.0000 N   0  0  0  0  0  0           0  0  0
    7.4361    1.9015    0.0000 C   0  0  0  0  0  0           0  0  0
    7.4313    2.7314    0.0000 C   0  0  0  0  0  0           0  0  0
    6.7154    3.1387    0.0000 C   0  0  0  0  0  0           0  0  0
    5.2933    0.6556    0.0000 O   0  0  0  0  0  0           0  0  0
    6.0087    0.2448    0.0000 C   0  0  0  0  0  0           0  0  0
    6.0106   -0.5802    0.0000 C   0  0  0  0  0  0           0  0  0
    5.2945   -0.9900    0.0000 C   0  0  0  0  0  0           0  0  0
    5.2961   -1.8142    0.0000 C   0  0  0  0  0  0           0  0  0
    6.0121   -2.2259    0.0000 C   0  0  0  0  0  0           0  0  0
    6.7279   -1.8073    0.0000 C   0  0  0  0  0  0           0  0  0
    6.7229   -0.9844    0.0000 C   0  0  0  0  0  0           0  0  0
    4.5805   -0.5768    0.0000 Cl  0  0  0  0  0  0           0  0  0
    7.4345   -0.5671    0.0000 Cl  0  0  0  0  0  0           0  0  0
    8.1521    1.4917    0.0000 C   0  0  0  0  0  0           0  0  0
    7.4448   -2.2156    0.0000 S   0  0  3  0  0  0           0  0  0
    8.1542   -2.6250    0.0000 N   0  0  0  0  0  0           0  0  0
    7.8239   -1.6562    0.0000 O   0  0  0  0  0  0           0  0  0
    7.0397   -2.9343    0.0000 O   0  0  0  0  0  0           0  0  0
    8.9311   -2.1811    0.0000 C   0  0  3  0  0  0           0  0  0
    9.5792   -1.7917    0.0000 C   0  0  0  0  0  0           0  0  0
    9.1913   -2.8620    0.0000 C   0  0  0  0  0  0           0  0  0
    8.6389   -1.4693    0.0000 C   0  0  0  0  0  0           0  0  0
    9.5701   -0.9667    0.0000 O   0  0  0  0  0  0           0  0  0
   10.2981   -2.1963    0.0000 N   0  0  3  0  0  0           0  0  0
   10.3027   -3.0217    0.0000 C   0  0  0  0  0  0           0  0  0
   11.0175   -3.4263    0.0000 C   0  0  0  0  0  0           0  0  0
   11.7299   -3.0095    0.0000 N   0  0  3  0  0  0           0  0  0
   11.7228   -2.1836    0.0000 C   0  0  0  0  0  0           0  0  0
   11.0034   -1.7745    0.0000 C   0  0  0  0  0  0           0  0  0
   12.4473   -3.4169    0.0000 C   0  0  0  0  0  0           0  0  0
   13.1588   -2.9993    0.0000 O   0  0  0  0  0  0           0  0  0
   12.4532   -4.2419    0.0000 C   0  0  0  0  0  0           0  0  0
   13.1706   -4.6492    0.0000 C   0  0  2  0  0  0           0  0  0
   13.1766   -5.4742    0.0000 C   0  0  0  0  0  0           0  0  0
   13.8821   -4.2316    0.0000 N   0  0  0  0  0  0           0  0  0
   13.8940   -5.8816    0.0000 C   0  0  0  0  0  0           0  0  0
   14.6055   -5.4640    0.0000 C   0  0  0  0  0  0           0  0  0
   15.3229   -5.8713    0.0000 N   0  0  3  0  0  0           0  0  0
   16.0344   -5.4537    0.0000 C   0  0  0  0  0  0           0  0  0
   15.3288   -6.6963    0.0000 C   0  0  0  0  0  0           0  0  0
    6.7110    3.9636    0.0000 C   0  0  0  0  0  0           0  0  0
 22 23  1  0     0  0
  3 11  1  0     0  0
 22 24  2  0     0  0
  2  3  1  0     0  0
 22 25  2  0     0  0
 11 12  1  0     0  0
 23 26  1  0     0  0
  5  6  1  0     0  0
 26 27  1  0     0  0
 12 13  1  0     0  0
 26 28  1  0     0  0
  3  6  2  0     0  0
 26 29  1  0     0  0
 13 14  2  0     0  0
 27 30  2  0     0  0
  6  7  1  0     0  0
 27 31  1  0     0  0
 31 32  1  0     0  0
 14 15  1  0     0  0
  1  2  2  0     0  0
 15 16  2  0     0  0
  7  8  2  0     0  0
 16 17  1  0     0  0
 31 36  1  0     0  0
 32 33  1  0     0  0
 33 34  1  0     0  0
 34 35  1  0     0  0
 35 36  1  0     0  0
  5  4  2  0     0  0
 34 37  1  0     0  0
 17 18  2  0     0  0
 37 38  2  0     0  0
 18 13  1  0     0  0
 37 39  1  0     0  0
  8  9  1  0     0  0
 39 40  1  0     0  0
 14 19  1  0     0  0
 40 41  1  0     0  0
  4  1  1  0     0  0
 40 42  1  1     0  0
 18 20  1  0     0  0
 41 43  1  0     0  0
  9 10  2  0     0  0
 43 44  1  0     0  0
  8 21  1  0     0  0
 44 45  1  0     0  0
 10  5  1  0     0  0
 45 46  1  0     0  0
 17 22  1  0     0  0
 45 47  1  0     0  0
 10 48  1  0     0  0
M  END