
  Mrv0541 04051115152D          

 22 21  0  0  0  0            999 V2000
   -1.7719   -1.7472    0.0000 C   0  0  0  0  0  0  0  0  0  0  0  0
   -2.4864   -1.3347    0.0000 O   0  0  0  0  0  0  0  0  0  0  0  0
   -1.7719   -2.5722    0.0000 O   0  0  0  0  0  0  0  0  0  0  0  0
   -1.0574   -1.3347    0.0000 C   0  0  0  0  0  0  0  0  0  0  0  0
   -0.3430   -1.7472    0.0000 C   0  0  0  0  0  0  0  0  0  0  0  0
    0.3715   -1.3347    0.0000 C   0  0  0  0  0  0  0  0  0  0  0  0
    1.0860   -1.7472    0.0000 C   0  0  0  0  0  0  0  0  0  0  0  0
    1.8004   -1.3347    0.0000 C   0  0  0  0  0  0  0  0  0  0  0  0
    1.8004   -0.5097    0.0000 C   0  0  0  0  0  0  0  0  0  0  0  0
    2.5149   -0.0972    0.0000 C   0  0  0  0  0  0  0  0  0  0  0  0
    2.5149    0.7278    0.0000 C   0  0  0  0  0  0  0  0  0  0  0  0
    1.8004    1.1403    0.0000 C   0  0  0  0  0  0  0  0  0  0  0  0
    1.8004    1.9653    0.0000 C   0  0  0  0  0  0  0  0  0  0  0  0
    1.0860    2.3778    0.0000 C   0  0  0  0  0  0  0  0  0  0  0  0
    0.3715    1.9653    0.0000 C   0  0  0  0  0  0  0  0  0  0  0  0
   -0.3430    2.3778    0.0000 C   0  0  0  0  0  0  0  0  0  0  0  0
   -1.0574    1.9653    0.0000 C   0  0  0  0  0  0  0  0  0  0  0  0
   -1.0574    1.1403    0.0000 C   0  0  0  0  0  0  0  0  0  0  0  0
   -1.7719    0.7278    0.0000 C   0  0  0  0  0  0  0  0  0  0  0  0
   -1.7719   -0.0972    0.0000 C   0  0  0  0  0  0  0  0  0  0  0  0
   -1.0574   -0.5097    0.0000 C   0  0  0  0  0  0  0  0  0  0  0  0
   -0.3430   -0.0972    0.0000 C   0  0  0  0  0  0  0  0  0  0  0  0
  1  2  1  0  0  0  0
  1  3  2  0  0  0  0
  1  4  1  0  0  0  0
  4  5  1  0  0  0  0
  5  6  1  0  0  0  0
  6  7  1  0  0  0  0
  7  8  2  0  0  0  0
  8  9  1  0  0  0  0
  9 10  1  0  0  0  0
 10 11  2  0  0  0  0
 12 11  1  0  0  0  0
 12 13  1  0  0  0  0
 13 14  2  0  0  0  0
 14 15  1  0  0  0  0
 15 16  1  0  0  0  0
 16 17  2  0  0  0  0
 17 18  1  0  0  0  0
 18 19  1  0  0  0  0
 19 20  2  0  0  0  0
 20 21  1  0  0  0  0
 21 22  1  0  0  0  0
M  END