
  SciTegic05171617272D

 27 30  0  0  0  0            999 V2000
    2.0825    2.3453    0.0000 C   0  0
    1.7138    1.2033    0.0000 C   0  0
    2.5889    0.0182    0.0000 N   0  0
    4.0896    0.0290    0.0000 C   0  0
    4.9397   -1.2009    0.0000 C   0  0
    6.4347   -1.0783    0.0000 C   0  0
    7.0761    0.2776    0.0000 N   0  0
    8.5716    0.4033    0.0000 C   0  0
    9.2114    1.7609    0.0000 C   0  0
   10.7060    1.8887    0.0000 C   0  0
   11.3427    3.2468    0.0000 C   0  0
   10.4848    4.4773    0.0000 C   0  0
    8.9903    4.3496    0.0000 C   0  0
    8.3536    2.9915    0.0000 C   0  0
    6.2225    1.5110    0.0000 C   0  0
    4.7275    1.3885    0.0000 C   0  0
    1.7138   -1.2033    0.0000 C   0  0
    2.0907   -2.3426    0.0000 O   0  0
    0.2917   -0.7475    0.0000 C   0  0
    0.2917    0.7475    0.0000 C   0  0
   -1.0028    1.5132    0.0000 C   0  0
   -2.3155    0.7475    0.0000 C   0  0
   -2.3155   -0.7475    0.0000 C   0  0
   -1.0028   -1.5132    0.0000 C   0  0
   -0.9971   -3.0138    0.0000 C   0  0
    0.0446   -3.6095    0.0000 N   0  0
   -2.0337   -3.6184    0.0000 O   0  0
  1  2  1  0
  2  3  1  0
  3  4  1  0
  4  5  1  0
  5  6  1  0
  6  7  1  0
  7  8  1  0
  8  9  1  0
  9 10  1  0
 10 11  1  0
 11 12  1  0
 12 13  1  0
 13 14  1  0
  9 14  1  0
  7 15  1  0
 15 16  1  0
  4 16  1  0
  3 17  1  0
 17 18  2  0
 17 19  1  0
 19 20  2  0
  2 20  1  0
 20 21  1  0
 21 22  2  0
 22 23  1  0
 23 24  2  0
 19 24  1  0
 24 25  1  0
 25 26  1  0
 25 27  2  0
M  END