
  CDK    9/16/09,10:6

 43 44  0  0  0  0  0  0  0  0999 V2000
   13.0772  -15.3576    0.0000 C   0  0  0  0  0  0  0  0  0  0  0  0
   13.0772  -16.1860    0.0000 C   0  0  0  0  0  0  0  0  0  0  0  0
   13.7934  -16.6002    0.0000 C   0  0  0  0  0  0  0  0  0  0  0  0
   14.5095  -16.1860    0.0000 C   0  0  0  0  0  0  0  0  0  0  0  0
   14.5095  -15.3576    0.0000 C   0  0  0  0  0  0  0  0  0  0  0  0
   13.7934  -14.9434    0.0000 C   0  0  0  0  0  0  0  0  0  0  0  0
   13.7922  -14.1197    0.0000 O   0  0  0  0  0  0  0  0  0  0  0  0
   13.7922  -17.4239    0.0000 O   0  0  0  0  0  0  0  0  0  0  0  0
   12.3647  -14.9498    0.0000 C   0  0  0  0  0  0  0  0  0  0  0  0
   12.3627  -14.1261    0.0000 C   0  0  0  0  0  0  0  0  0  0  0  0
   11.6455  -13.7136    0.0000 C   0  0  0  0  0  0  0  0  0  0  0  0
   13.0732  -13.7101    0.0000 C   0  0  0  0  0  0  0  0  0  0  0  0
   13.0712  -12.8864    0.0000 C   0  0  0  0  0  0  0  0  0  0  0  0
   13.7863  -12.4752    0.0000 C   0  0  0  0  0  0  0  0  0  0  0  0
   12.3587  -12.4786    0.0000 O   0  0  0  0  0  0  0  0  0  0  0  0
   12.3567  -11.6549    0.0000 C   0  0  0  0  0  0  0  0  0  0  0  0
   13.7843  -11.6514    0.0000 C   0  0  0  0  0  0  0  0  0  0  0  0
   14.4988  -12.8830    0.0000 O   0  0  0  0  0  0  0  0  0  0  0  0
   14.4948  -11.2355    0.0000 C   0  0  0  0  0  0  0  0  0  0  0  0
   13.0671  -11.2390    0.0000 C   0  0  0  0  0  0  0  0  0  0  0  0
   15.2120  -11.6480    0.0000 C   0  0  0  0  0  0  0  0  0  0  0  0
   15.9224  -11.2320    0.0000 C   0  0  0  0  0  0  0  0  0  0  0  0
   15.2140  -12.4717    0.0000 C   0  0  0  0  0  0  0  0  0  0  0  0
   16.7445  -11.2297    0.0000 C   0  0  0  0  0  0  0  0  0  0  0  0
   17.4565  -11.6439    0.0000 C   0  0  0  0  0  0  0  0  0  0  0  0
   16.9565  -10.4345    0.0000 O   0  0  0  0  0  0  0  0  0  0  0  0
   15.7082  -10.4374    0.0000 O   0  0  0  0  0  0  0  0  0  0  0  0
   14.9125  -10.2274    0.0000 C   0  0  0  0  0  0  0  0  0  0  0  0
   14.6935   -9.4281    0.0000 O   0  0  0  0  0  0  0  0  0  0  0  0
   14.3309  -10.8120    0.0000 N   0  0  0  0  0  0  0  0  0  0  0  0
   17.7563  -10.2221    0.0000 C   0  0  0  0  0  0  0  0  0  0  0  0
   17.4544  -12.4676    0.0000 C   0  0  0  0  0  0  0  0  0  0  0  0
   16.7372  -12.8754    0.0000 C   0  0  0  0  0  0  0  0  0  0  0  0
   16.7352  -13.6991    0.0000 C   0  0  0  0  0  0  0  0  0  0  0  0
   17.4503  -14.1150    0.0000 C   0  0  0  0  0  0  0  0  0  0  0  0
   15.2261  -14.9488    0.0000 N   0  0  0  0  0  0  0  0  0  0  0  0
   15.2269  -14.1251    0.0000 C   0  0  0  0  0  0  0  0  0  0  0  0
   14.5112  -13.7101    0.0000 O   0  0  0  0  0  0  0  0  0  0  0  0
   12.3516  -16.6045    0.0000 N   0  0  0  0  0  0  0  0  0  0  0  0
   11.6263  -16.1855    0.0000 C   0  0  0  0  0  0  0  0  0  0  0  0
   10.9007  -16.6040    0.0000 C   0  0  0  0  0  0  0  0  0  0  0  0
   10.1754  -16.1849    0.0000 C   0  0  0  0  0  0  0  0  0  0  0  0
   15.3344  -12.8817    0.0000 C   0  0  0  0  0  0  0  0  0  0  0  0
  3  4  1  0  0  0  0 
 21 22  1  0  0  0  0 
 10 11  1  1  0  0  0 
 21 23  1  0  0  0  0 
  4  5  2  0  0  0  0 
 22 24  1  0  0  0  0 
 10 12  1  0  0  0  0 
 24 25  1  0  0  0  0 
  5  6  1  0  0  0  0 
 24 26  1  1  0  0  0 
 12 13  1  0  0  0  0 
 22 27  1  6  0  0  0 
 27 28  1  0  0  0  0 
 13 14  1  0  0  0  0 
 28 29  2  0  0  0  0 
  6  7  2  0  0  0  0 
 28 30  1  0  0  0  0 
 13 15  1  6  0  0  0 
 26 31  1  0  0  0  0 
  1  2  2  0  0  0  0 
 25 32  2  0  0  0  0 
 15 16  1  0  0  0  0 
 32 33  1  0  0  0  0 
  3  8  2  0  0  0  0 
 33 34  2  0  0  0  0 
 14 17  1  0  0  0  0 
 34 35  1  0  0  0  0 
  1  6  1  0  0  0  0 
  5 36  1  0  0  0  0 
 14 18  1  1  0  0  0 
 36 37  1  0  0  0  0 
  1  9  1  0  0  0  0 
 37 38  2  0  0  0  0 
 37 34  1  0  0  0  0 
 17 19  1  0  0  0  0 
  2 39  1  0  0  0  0 
  2  3  1  0  0  0  0 
 39 40  1  0  0  0  0 
 17 20  1  1  0  0  0 
 40 41  1  0  0  0  0 
  9 10  1  0  0  0  0 
 41 42  2  0  0  0  0 
 19 21  2  0  0  0  0 
 18 43  1  0  0  0  0 
M  END