
  SciTegic10041313232D

 66 66  0  0  1  0            999 V2000
    5.9738  -17.6681    0.0000 N   0  0
    6.6897  -18.9074    0.0000 C   0  0
    6.6886  -18.0801    0.0000 C   0  0
    7.4034  -17.6672    0.0000 C   0  0
    8.1198  -18.0805    0.0000 C   0  0
    8.1170  -18.9111    0.0000 C   0  0
    7.4016  -19.3202    0.0000 C   0  0
   -2.5875  -16.7958    0.0000 C   0  0  2  0  0  0
   -2.5875  -17.6208    0.0000 C   0  0  2  0  0  0
   -1.8755  -18.0292    0.0000 C   0  0  1  0  0  0
   -1.1635  -17.6208    0.0000 C   0  0  2  0  0  0
   -1.1635  -16.7958    0.0000 C   0  0  2  0  0  0
   -1.8755  -16.3792    0.0000 O   0  0
   -0.4478  -16.3854    0.0000 O   0  0
    0.2655  -16.8000    0.0000 C   0  0  1  0  0  0
    0.2578  -17.6259    0.0000 C   0  0  1  0  0  0
    0.9670  -18.0404    0.0000 C   0  0  2  0  0  0
    1.6851  -17.6335    0.0000 C   0  0  1  0  0  0
    1.6895  -16.8076    0.0000 O   0  0
    0.9758  -16.3885    0.0000 C   0  0  2  0  0  0
    2.3967  -18.0508    0.0000 O   0  0
    3.1140  -17.6431    0.0000 C   0  0
    3.8257  -18.0604    0.0000 C   0  0  2  0  0  0
    3.8174  -18.8841    0.0000 C   0  0  2  0  0  0
    4.5250  -19.3012    0.0000 C   0  0  1  0  0  0
    5.2446  -18.8971    0.0000 C   0  0  1  0  0  0
    4.5401  -17.6494    0.0000 O   0  0
    3.0991  -19.2897    0.0000 O   0  0
    5.9542  -19.3180    0.0000 O   0  0
    5.2544  -18.0721    0.0000 C   0  0
    4.5164  -20.1262    0.0000 O   0  0
   -3.3032  -16.3854    0.0000 C   0  0
   -3.3074  -15.5550    0.0000 O   0  0
    0.2583  -15.9750    0.0000 H   0  0
   -3.3014  -18.0344    0.0000 O   0  0
   -4.0164  -17.6229    0.0000 C   0  0
   -1.8755  -18.8542    0.0000 O   0  0
   -0.4496  -18.0344    0.0000 N   0  0
    0.2500  -18.4500    0.0000 O   0  0
    0.9614  -18.8654    0.0000 O   0  0
    7.3991  -20.1452    0.0000 N   0  0
    8.1123  -20.5598    0.0000 C   0  0
    8.1099  -21.3848    0.0000 C   0  0
    8.8280  -20.1495    0.0000 O   0  0
    8.8231  -21.7995    0.0000 C   0  0
    9.5388  -21.3891    0.0000 C   0  0
   10.2520  -21.8037    0.0000 C   0  0
   10.9677  -21.3934    0.0000 C   0  0
   11.7200  -21.7290    0.0000 S   0  0
   12.2739  -21.1175    0.0000 S   0  0
   11.8635  -20.4018    0.0000 C   0  0
   11.0561  -20.5710    0.0000 C   0  0
   -0.4508  -18.8594    0.0000 S   0  0
   -0.4583  -19.6833    0.0000 O   0  5
    0.3742  -18.8637    0.0000 O   0  0
   -1.2758  -18.8560    0.0000 O   0  0
   -3.9578  -15.0475    0.0000 S   0  0
   -4.6086  -14.5447    0.0000 O   0  5
   -3.4519  -14.3959    0.0000 O   0  0
   -4.4659  -15.6975    0.0000 O   0  0
    0.9782  -15.5635    0.0000 C   0  0
    0.2649  -15.1489    0.0000 O   0  0
    1.6939  -15.1531    0.0000 O   0  5
   -1.7542  -20.2667    0.0000 Na  0  3
   -2.1583  -14.4250    0.0000 Na  0  3
    2.4583  -14.8333    0.0000 Na  0  3
  5  6  1  0
 25 31  1  1
 12 14  1  6
  8 32  1  1
 32 33  1  0
 14 15  1  0
 15 34  1  1
 15 16  1  0
  9 35  1  6
  6  7  2  0
 35 36  1  0
  7  2  1  0
 10 37  1  1
  3  1  1  0
 11 38  1  6
  8  9  1  0
 16 39  1  1
  2  3  2  0
 17 40  1  6
 15 20  1  0
  7 41  1  0
 16 17  1  0
 41 42  1  0
 17 18  1  0
 42 43  1  0
 18 19  1  0
 42 44  2  0
 19 20  1  0
 43 45  1  0
 45 46  1  0
 18 21  1  1
 46 47  1  0
  3  4  1  0
 48 47  1  0
 48 49  1  0
 21 22  1  0
 23 22  1  1
 23 24  1  0
 49 50  1  0
 50 51  1  0
 51 52  1  0
 52 48  1  0
  4  5  2  0
 38 53  1  0
 53 54  1  0
  8 13  1  0
 53 55  2  0
  9 10  1  0
 53 56  2  0
 23 27  1  0
 33 57  1  0
 24 25  1  0
 57 58  1  0
 25 26  1  0
 57 59  2  0
 10 11  1  0
 57 60  2  0
 24 28  1  6
 20 61  1  1
 11 12  1  0
 61 62  2  0
 26 29  1  6
 61 63  1  0
 12 13  1  0
 26 30  1  0
 30  1  1  0
M  CHG  6  54  -1  58  -1  63  -1  64   1  65   1  66   1
M  END