
  SciTegic05171617272D

 31 35  0  0  1  0            999 V2000
   -4.6688    3.5878    0.0000 C   0  0
   -3.6267    2.9927    0.0000 C   0  0
   -3.6187    1.4919    0.0000 O   0  0
   -2.3155    0.7475    0.0000 C   0  0
   -2.3155   -0.7475    0.0000 C   0  0
   -1.0028   -1.5132    0.0000 C   0  0
    0.2917   -0.7475    0.0000 C   0  0
    1.7138   -1.2033    0.0000 C   0  0  2  0  0  0
    2.5889    0.0182    0.0000 C   0  0
    1.7138    1.2033    0.0000 C   0  0
    0.2917    0.7475    0.0000 C   0  0
   -1.0028    1.5132    0.0000 C   0  0
    2.1796   -2.6273    0.0000 N   0  0
    1.1782   -3.7452    0.0000 C   0  0
    0.0039   -3.4984    0.0000 O   0  0
    1.6448   -5.1717    0.0000 C   0  0
    0.6434   -6.2896    0.0000 O   0  0
    1.1099   -7.7161    0.0000 C   0  0
    0.1068   -8.8262    0.0000 C   0  0
    0.5681  -10.2742    0.0000 C   0  0
   -0.2333  -11.1674    0.0000 C   0  0
    2.0421  -10.5732    0.0000 C   0  0
    2.7922  -11.8645    0.0000 C   0  0
    4.2603  -11.5442    0.0000 N   0  0
    4.4049  -10.0781    0.0000 N   0  0
    5.4437   -9.4775    0.0000 C   0  0
    3.0439   -9.4635    0.0000 C   0  0
    2.5961   -8.0277    0.0000 N   0  0
    2.1873  -13.2379    0.0000 C   0  0
    2.2591  -14.6537    0.0000 C   0  0
    0.9464  -13.9279    0.0000 C   0  0
  1  2  1  0
  2  3  1  0
  3  4  1  0
  4  5  2  0
  5  6  1  0
  6  7  2  0
  7  8  1  0
  8  9  1  0
  9 10  1  0
 10 11  1  0
  7 11  1  0
 11 12  2  0
  4 12  1  0
  8 13  1  6
 13 14  1  0
 14 15  2  0
 14 16  1  0
 16 17  1  0
 17 18  1  0
 18 19  2  0
 19 20  1  0
 20 21  1  0
 20 22  2  0
 22 23  1  0
 23 24  2  0
 24 25  1  0
 25 26  1  0
 25 27  1  0
 22 27  1  0
 27 28  2  0
 18 28  1  0
 23 29  1  0
 29 30  1  0
 30 31  1  0
 29 31  1  0
M  END