
          11280715042D 1   1.00000     0.00000     0

 19 20  0     0  0            999 V2000
    6.8042   -3.6417    0.0000 S   0  0  3  0  0  0           0  0  0
    2.5042   -6.3917    0.0000 N   0  0  0  0  0  0           0  0  0
    1.8417   -5.2417    0.0000 N   0  0  0  0  0  0           0  0  0
    1.7667   -6.0625    0.0000 C   0  0  0  0  0  0           0  0  0
    3.0667   -5.7792    0.0000 C   0  0  0  0  0  0           0  0  0
    7.2292   -2.9167    0.0000 O   0  0  0  0  0  0           0  0  0
    6.0875   -3.2167    0.0000 O   0  0  0  0  0  0           0  0  0
    7.5292   -4.0667    0.0000 C   0  0  0  0  0  0           0  0  0
    6.3792   -4.3625    0.0000 N   0  0  0  0  0  0           0  0  0
    2.6542   -5.0667    0.0000 C   0  0  0  0  0  0           0  0  0
    3.8917   -5.7792    0.0000 C   0  0  0  0  0  0           0  0  0
    7.5292   -4.8917    0.0000 C   0  0  0  0  0  0           0  0  0
    8.2417   -3.6542    0.0000 C   0  0  0  0  0  0           0  0  0
    5.5500   -4.3542    0.0000 C   0  0  0  0  0  0           0  0  0
    4.3042   -5.0667    0.0000 C   0  0  0  0  0  0           0  0  0
    5.1375   -5.0667    0.0000 C   0  0  0  0  0  0           0  0  0
    8.2417   -5.3042    0.0000 C   0  0  0  0  0  0           0  0  0
    8.9542   -4.0667    0.0000 C   0  0  0  0  0  0           0  0  0
    8.9542   -4.8917    0.0000 C   0  0  0  0  0  0           0  0  0
  2  5  1  0     0  0
  3 10  1  0     0  0
  4  2  2  0     0  0
  5 11  1  0     0  0
  6  1  2  0     0  0
  7  1  2  0     0  0
  8  1  1  0     0  0
  9  1  1  0     0  0
 10  5  2  0     0  0
 11 15  1  0     0  0
 12  8  1  0     0  0
 13  8  2  0     0  0
 14  9  1  0     0  0
 15 16  1  0     0  0
 16 14  1  0     0  0
 17 12  2  0     0  0
 18 13  1  0     0  0
 19 18  2  0     0  0
 19 17  1  0     0  0
  3  4  1  0     0  0
M  END