
  SciTegic12231509382D

 36 38  0  0  0  0            999 V2000
   23.2469   -5.8529    0.0000 C   0  0
   23.2459   -6.6801    0.0000 C   0  0
   23.9602   -7.0930    0.0000 C   0  0
   24.6760   -6.6797    0.0000 C   0  0
   24.6734   -5.8495    0.0000 C   0  0
   23.9585   -5.4401    0.0000 C   0  0
   25.3864   -5.4345    0.0000 C   0  0
   26.1022   -5.8446    0.0000 N   0  0
   26.8153   -5.4298    0.0000 C   0  0
   27.4825   -5.9153    0.0000 C   0  0
   26.8126   -4.6048    0.0000 O   0  0
   27.4803   -6.7376    0.0000 N   0  0
   28.2649   -6.9930    0.0000 C   0  0
   28.7507   -6.3240    0.0000 N   0  0
   28.2655   -5.6581    0.0000 C   0  0
   28.5185   -7.7735    0.0000 C   0  0
   27.9644   -8.3862    0.0000 C   0  0
   28.2184   -9.1704    0.0000 C   0  0
   29.0261   -9.3430    0.0000 C   0  0
   29.5793   -8.7252    0.0000 C   0  0
   29.3224   -7.9434    0.0000 C   0  0
   29.4710   -5.9217    0.0000 C   0  0
   30.1795   -6.3443    0.0000 C   0  0
   30.8998   -5.9421    0.0000 C   0  0  2  0  0  0
   31.6083   -6.3648    0.0000 C   0  0
   30.9116   -5.1172    0.0000 O   0  0
   32.3287   -5.9625    0.0000 C   0  0  2  0  0  0
   33.0372   -6.3851    0.0000 C   0  0
   32.3405   -5.1375    0.0000 O   0  0
   33.7575   -5.9829    0.0000 C   0  0
   34.4660   -6.4056    0.0000 O   0  0
   33.7693   -5.1580    0.0000 O   0  0
   29.2816  -10.1274    0.0000 F   0  0
   28.5186   -4.8729    0.0000 C   0  0
   29.3252   -4.6995    0.0000 C   0  0
   27.9653   -4.2611    0.0000 C   0  0
 17 18  1  0
  8  9  1  0
 18 19  2  0
  4  5  1  0
 19 20  1  0
  9 10  1  0
 20 21  2  0
 21 16  1  0
 13 16  1  0
  2  3  1  0
 14 22  1  0
  9 11  2  0
 22 23  1  0
 10 12  1  0
 23 24  1  0
  5  6  2  0
 24 25  1  0
  6  1  1  0
 24 26  1  1
  1  2  2  0
 25 27  1  0
  5  7  1  0
 27 28  1  0
 12 13  2  0
 27 29  1  1
 13 14  1  0
 28 30  1  0
 14 15  1  0
 30 31  1  0
 15 10  2  0
 30 32  2  0
  3  4  2  0
 19 33  1  0
  7  8  1  0
 15 34  1  0
 16 17  2  0
 34 35  1  0
 34 36  1  0
M  END