
  CDK    9/16/09,10:4

 26 28  0  0  0  0  0  0  0  0999 V2000
    9.0750  -11.6958    0.0000 C   0  0  0  0  0  0  0  0  0  0  0  0
    9.7895  -11.2833    0.0000 N   0  0  0  0  0  0  0  0  0  0  0  0
    8.3605  -11.2833    0.0000 N   0  0  0  0  0  0  0  0  0  0  0  0
    9.0750  -12.5208    0.0000 S   0  0  0  0  0  0  0  0  0  0  0  0
    7.6461  -11.6958    0.0000 C   0  0  0  0  0  0  0  0  0  0  0  0
    6.9322  -11.2802    0.0000 C   0  0  0  0  0  0  0  0  0  0  0  0
    6.2182  -11.6920    0.0000 C   0  0  0  0  0  0  0  0  0  0  0  0
    6.2177  -12.5179    0.0000 C   0  0  0  0  0  0  0  0  0  0  0  0
    6.9372  -12.9302    0.0000 C   0  0  0  0  0  0  0  0  0  0  0  0
    7.6483  -12.5160    0.0000 C   0  0  0  0  0  0  0  0  0  0  0  0
   10.5039  -11.6958    0.0000 C   0  0  0  0  0  0  0  0  0  0  0  0
   10.5014  -12.5219    0.0000 C   0  0  0  0  0  0  0  0  0  0  0  0
   11.2150  -12.9343    0.0000 C   0  0  0  0  0  0  0  0  0  0  0  0
   11.2136  -11.2838    0.0000 C   0  0  0  0  0  0  0  0  0  0  0  0
   11.9278  -11.6925    0.0000 C   0  0  0  0  0  0  0  0  0  0  0  0
   11.9315  -12.5203    0.0000 C   0  0  0  0  0  0  0  0  0  0  0  0
   12.6469  -12.9311    0.0000 S   0  0  0  0  0  0  0  0  0  0  0  0
   13.3583  -13.3417    0.0000 N   0  0  0  0  0  0  0  0  0  0  0  0
   13.0585  -12.2161    0.0000 O   0  0  0  0  0  0  0  0  0  0  0  0
   12.2385  -13.6479    0.0000 O   0  0  0  0  0  0  0  0  0  0  0  0
   13.3584  -14.1667    0.0000 C   0  0  0  0  0  0  0  0  0  0  0  0
   12.6939  -14.6553    0.0000 N   0  0  0  0  0  0  0  0  0  0  0  0
   12.9489  -15.4399    0.0000 O   0  0  0  0  0  0  0  0  0  0  0  0
   13.7740  -15.4398    0.0000 C   0  0  0  0  0  0  0  0  0  0  0  0
   14.0287  -14.6551    0.0000 C   0  0  0  0  0  0  0  0  0  0  0  0
   14.2591  -16.1071    0.0000 C   0  0  0  0  0  0  0  0  0  0  0  0
 12 13  1  0  0  0  0 
 13 16  2  0  0  0  0 
  6  7  1  0  0  0  0 
 15 14  2  0  0  0  0 
 14 11  1  0  0  0  0 
 15 16  1  0  0  0  0 
  1  4  2  0  0  0  0 
  7  8  2  0  0  0  0 
 16 17  1  0  0  0  0 
  8  9  1  0  0  0  0 
 17 18  1  0  0  0  0 
  3  5  1  0  0  0  0 
 17 19  2  0  0  0  0 
  9 10  2  0  0  0  0 
 17 20  2  0  0  0  0 
 10  5  1  0  0  0  0 
 18 21  1  0  0  0  0 
 21 22  2  0  0  0  0 
  1  3  1  0  0  0  0 
  2 11  1  0  0  0  0 
  5  6  2  0  0  0  0 
 11 12  2  0  0  0  0 
 22 23  1  0  0  0  0 
 23 24  1  0  0  0  0 
 24 25  2  0  0  0  0 
 25 21  1  0  0  0  0 
  1  2  1  0  0  0  0 
 24 26  1  0  0  0  0 
M  END