
  SciTegic04091414352D

 51 55  0  0  0  0            999 V2000
    0.8488  -16.6863    0.0000 C   0  0
    0.8476  -17.5059    0.0000 C   0  0
    1.5557  -17.9148    0.0000 C   0  0
    1.5539  -16.2775    0.0000 C   0  0
    2.2625  -16.6827    0.0000 C   0  0
    2.2628  -17.5059    0.0000 C   0  0
    3.0457  -17.7601    0.0000 S   0  0
    3.5295  -17.0939    0.0000 C   0  0
    3.0453  -16.4282    0.0000 N   0  0
    4.3450  -17.0939    0.0000 C   0  0
    4.8256  -17.7548    0.0000 C   0  0
    5.6027  -17.5020    0.0000 N   0  0
    5.6024  -16.6848    0.0000 C   0  0
    4.8251  -16.4327    0.0000 S   0  0
    6.2633  -16.2042    0.0000 C   0  0
    6.1775  -15.3915    0.0000 C   0  0
    4.5733  -18.5321    0.0000 O   0  0
    3.2976  -15.6509    0.0000 C   0  0
    6.2640  -17.9821    0.0000 C   0  0
    6.1788  -18.7949    0.0000 C   0  0
    6.8396  -14.9124    0.0000 N   0  3
    6.7542  -14.1004    0.0000 C   0  0
    6.0069  -13.7676    0.0000 C   0  0
    5.3441  -14.2528    0.0000 C   0  0
    5.4328  -15.0631    0.0000 C   0  0
    7.5858  -15.2454    0.0000 C   0  0
    8.2474  -14.7657    0.0000 C   0  0
    8.9936  -15.0988    0.0000 C   0  0
    9.6552  -14.6190    0.0000 C   0  0
   10.4014  -14.9521    0.0000 C   0  0
   11.0630  -14.4724    0.0000 C   0  0
   11.8092  -14.8054    0.0000 N   0  0
   12.4708  -14.3257    0.0000 C   0  0
   13.2170  -14.6588    0.0000 C   0  0
   12.3861  -13.5129    0.0000 O   0  0
   13.8785  -14.1790    0.0000 C   0  0
   14.6248  -14.5121    0.0000 C   0  0
   15.2863  -14.0324    0.0000 C   0  0
   16.0326  -14.3654    0.0000 C   0  0  2  0  0  0
   16.1996  -15.1626    0.0000 S   0  0
   17.0123  -15.2487    0.0000 C   0  0
   16.7385  -13.9552    0.0000 C   0  0  2  0  0  0
   17.3426  -14.5010    0.0000 C   0  0  1  0  0  0
   18.0484  -14.0951    0.0000 N   0  0
   17.8804  -13.2984    0.0000 C   0  0
   17.0709  -13.2120    0.0000 N   0  0
   18.4282  -12.6920    0.0000 O   0  0
   16.1540  -13.3722    0.0000 H   0  0
   17.9163  -15.0768    0.0000 H   0  0
    1.5559  -18.7320    0.0000 F   0  0
    9.6247  -16.7731    0.0000 Cl  0  5
  1  2  2  0
  2  3  1  0
  3  6  2  0
  5  4  2  0
  4  1  1  0
  5  6  1  0
  6  7  1  0
  7  8  1  0
  8  9  1  0
  9  5  1  0
 10 11  1  0
 11 12  1  0
 12 13  1  0
 13 14  1  0
 14 10  1  0
  8 10  2  0
 13 15  2  0
 15 16  1  0
 11 17  2  0
  9 18  1  0
 12 19  1  0
 19 20  1  0
 16 21  2  0
 21 22  1  0
 22 23  2  0
 23 24  1  0
 24 25  2  0
 25 16  1  0
 21 26  1  0
 26 27  1  0
 27 28  1  0
 28 29  1  0
 29 30  1  0
 30 31  1  0
 31 32  1  0
 32 33  1  0
 33 34  1  0
 33 35  2  0
 34 36  1  0
 36 37  1  0
 37 38  1  0
 39 38  1  1
 39 40  1  0
 40 41  1  0
 41 43  1  0
 42 39  1  0
 42 43  1  0
 43 44  1  0
 44 45  1  0
 45 46  1  0
 46 42  1  0
 45 47  2  0
 42 48  1  6
 43 49  1  6
  3 50  1  0
M  CHG  2  21   1  51  -1
M  END