
  Mrv0541 09091310052D          

 31 33  0  0  0  0            999 V2000
    8.7184    0.8080    0.0000 C   0  0  0  0  0  0  0  0  0  0  0  0
    7.8913    0.7871    0.0000 C   0  0  0  0  0  0  0  0  0  0  0  0
    7.4976    0.0616    0.0000 C   0  0  0  0  0  0  0  0  0  0  0  0
    7.9299   -0.6436    0.0000 C   0  0  0  0  0  0  0  0  0  0  0  0
    8.7600   -0.6187    0.0000 C   0  0  0  0  0  0  0  0  0  0  0  0
    9.1500    0.1074    0.0000 C   0  0  0  0  0  0  0  0  0  0  0  0
    7.5376   -1.3694    0.0000 O   0  0  0  0  0  0  0  0  0  0  0  0
    7.9701   -2.0720    0.0000 C   0  0  0  0  0  0  0  0  0  0  0  0
    7.5779   -2.7978    0.0000 C   0  0  0  0  0  0  0  0  0  0  0  0
    6.7541   -2.8195    0.0000 C   0  0  0  0  0  0  0  0  0  0  0  0
    6.3619   -3.5445    0.0000 C   0  0  0  0  0  0  0  0  0  0  0  0
    6.7945   -4.2480    0.0000 C   0  0  0  0  0  0  0  0  0  0  0  0
    7.6233   -4.2220    0.0000 C   0  0  0  0  0  0  0  0  0  0  0  0
    8.0117   -3.4965    0.0000 C   0  0  0  0  0  0  0  0  0  0  0  0
    9.1940   -1.3203    0.0000 O   0  0  0  0  0  0  0  0  0  0  0  0
    8.8034   -2.0469    0.0000 C   0  0  0  0  0  0  0  0  0  0  0  0
    9.2374   -2.7485    0.0000 C   0  0  0  0  0  0  0  0  0  0  0  0
    8.8452   -3.4725    0.0000 C   0  0  0  0  0  0  0  0  0  0  0  0
    9.2785   -4.1736    0.0000 C   0  0  0  0  0  0  0  0  0  0  0  0
   10.1040   -4.1490    0.0000 C   0  0  0  0  0  0  0  0  0  0  0  0
   10.4943   -3.4173    0.0000 C   0  0  0  0  0  0  0  0  0  0  0  0
   10.0587   -2.7192    0.0000 C   0  0  0  0  0  0  0  0  0  0  0  0
    9.9767    0.1332    0.0000 C   0  0  0  0  0  0  0  0  0  0  0  0
   10.4102   -0.5688    0.0000 O   0  0  0  0  0  0  0  0  0  0  0  0
   10.3679    0.8596    0.0000 O   0  0  0  0  0  0  0  0  0  0  0  0
   10.4460   -1.9907    0.0000 Cl  0  0  0  0  0  0  0  0  0  0  0  0
   11.3188   -3.3893    0.0000 H   0  0  0  0  0  0  0  0  0  0  0  0
    5.5372   -3.5673    0.0000 H   0  0  0  0  0  0  0  0  0  0  0  0
   10.5390   -4.8500    0.0000 Cl  0  0  0  0  0  0  0  0  0  0  0  0
    6.4032   -4.9743    0.0000 Cl  0  0  0  0  0  0  0  0  0  0  0  0
    6.3224   -2.1164    0.0000 Cl  0  0  0  0  0  0  0  0  0  0  0  0
  5 15  1  0  0  0  0
  3  4  2  0  0  0  0
 15 16  1  0  0  0  0
  7  8  1  0  0  0  0
 16 17  1  0  0  0  0
 17 18  2  0  0  0  0
  8  9  1  0  0  0  0
 18 19  1  0  0  0  0
  4  5  1  0  0  0  0
 19 20  2  0  0  0  0
  9 10  2  0  0  0  0
 20 21  1  0  0  0  0
  2  3  1  0  0  0  0
 21 22  2  0  0  0  0
 22 17  1  0  0  0  0
 10 11  1  0  0  0  0
  5  6  2  0  0  0  0
 11 12  2  0  0  0  0
 23 24  1  0  0  0  0
 23 25  2  0  0  0  0
  6 23  1  0  0  0  0
  6  1  1  0  0  0  0
 22 26  1  0  0  0  0
 12 13  1  0  0  0  0
 21 27  1  0  0  0  0
  1  2  2  0  0  0  0
 11 28  1  0  0  0  0
 13 14  2  0  0  0  0
 20 29  1  0  0  0  0
 14  9  1  0  0  0  0
 12 30  1  0  0  0  0
  4  7  1  0  0  0  0
 10 31  1  0  0  0  0
M  ISO  2  27   3  28   3
M  END