
          11280715132D 1   1.00000     0.00000     0

 33 36  0     1  0            999 V2000
    5.1750   -2.8542    0.0000 N   0  0  3  0  0  0           0  0  0
    4.5042   -3.3542    0.0000 C   0  0  0  0  0  0           0  0  0
    3.0917   -1.5917    0.0000 C   0  0  0  0  0  0           0  0  0
    5.0875   -2.0417    0.0000 C   0  0  0  0  0  0           0  0  0
    5.9250   -3.1917    0.0000 C   0  0  3  0  0  0           0  0  0
    3.6500   -2.1917    0.0000 C   0  0  0  0  0  0           0  0  0
    3.7417   -3.0167    0.0000 C   0  0  2  0  0  0           0  0  0
    2.2792   -1.7667    0.0000 C   0  0  0  0  0  0           0  0  0
    3.3417   -0.8042    0.0000 C   0  0  0  0  0  0           0  0  0
    5.7542   -1.5542    0.0000 C   0  0  0  0  0  0           0  0  0
    6.5917   -2.7042    0.0000 C   0  0  0  0  0  0           0  0  0
    6.5042   -1.8792    0.0000 C   0  0  0  0  0  0           0  0  0
    4.5917   -4.1792    0.0000 O   0  0  0  0  0  0           0  0  0
    1.7167   -1.1542    0.0000 C   0  0  0  0  0  0           0  0  0
    2.7875   -0.1917    0.0000 C   0  0  0  0  0  0           0  0  0
    1.9792   -0.3667    0.0000 C   0  0  0  0  0  0           0  0  0
    3.0750   -3.5042    0.0000 N   0  0  0  0  0  0           0  0  0
    6.7167   -4.4292    0.0000 O   0  0  0  0  0  0           0  0  0
    1.4042    0.2458    0.0000 O   0  0  0  0  0  0           0  0  0
    6.0042   -4.0167    0.0000 C   0  0  0  0  0  0           0  0  0
    7.4292   -5.6542    0.0000 C   0  0  0  0  0  0           0  0  0
    4.1542   -0.6167    0.0000 C   0  0  0  0  0  0           0  0  0
    2.0292   -2.5542    0.0000 C   0  0  0  0  0  0           0  0  0
    5.6667   -0.7292    0.0000 C   0  0  0  0  0  0           0  0  0
    7.1792   -1.3917    0.0000 C   0  0  0  0  0  0           0  0  0
    6.7167   -5.2542    0.0000 C   0  0  0  0  0  0           0  0  0
    7.4292   -6.4792    0.0000 C   0  0  0  0  0  0           0  0  0
    8.1417   -5.2417    0.0000 C   0  0  0  0  0  0           0  0  0
    7.0917   -0.5792    0.0000 C   0  0  0  0  0  0           0  0  0
    6.3417   -0.2417    0.0000 C   0  0  0  0  0  0           0  0  0
    8.8542   -5.6417    0.0000 C   0  0  0  0  0  0           0  0  0
    8.1500   -6.8917    0.0000 C   0  0  0  0  0  0           0  0  0
    8.8625   -6.4792    0.0000 C   0  0  0  0  0  0           0  0  0
  2  1  1  0     0  0
  3  6  1  0     0  0
  4  1  1  0     0  0
  5  1  1  0     0  0
  7  6  1  1     0  0
  7  2  1  0     0  0
  8  3  1  0     0  0
  9  3  2  0     0  0
 10  4  1  0     0  0
 11  5  1  0     0  0
 12 11  1  0     0  0
 13  2  2  0     0  0
 14  8  2  0     0  0
 15  9  1  0     0  0
 16 15  2  0     0  0
 17  7  1  0     0  0
 18 20  1  0     0  0
 19 16  1  0     0  0
 20  5  1  0     0  0
 21 26  1  0     0  0
 22  9  1  0     0  0
 23  8  1  0     0  0
 24 10  1  0     0  0
 25 12  1  0     0  0
 26 18  1  0     0  0
 27 21  2  0     0  0
 28 21  1  0     0  0
 29 25  2  0     0  0
 30 24  2  0     0  0
 31 28  2  0     0  0
 32 27  1  0     0  0
 33 31  1  0     0  0
 12 10  2  0     0  0
 29 30  1  0     0  0
 14 16  1  0     0  0
 33 32  2  0     0  0
M  END