
  SciTegic01161211242D

 24 24  0  0  0  0            999 V2000
    5.1894   -6.0109    0.0000 N   0  0
    2.5973   -1.5031    0.0000 O   0  0
    3.8933   -3.7570    0.0000 C   0  0
    1.2990   -0.7500    0.0000 C   0  0
    3.8912   -5.2578    0.0000 C   0  0
    2.5951   -3.0039    0.0000 C   0  0
   -1.2990    0.7500    0.0000 C   0  0
    8.9855   -2.6765    0.0000 Cl  0  0
    1.2990    0.7500    0.0000 C   0  0
    0.0000   -1.5000    0.0000 C   0  0
    0.0000    1.5000    0.0000 C   0  0
   -1.2990   -0.7500    0.0000 C   0  0
    4.9336   -3.1588    0.0000 O   0  0
    5.1873   -7.5117    0.0000 C   0  0
   -5.2003    1.4932    0.0000 O   0  0
   -9.5926    2.5235    0.0000 C   0  0
   -7.8003    1.4887    0.0000 C   0  0
   -6.4990    0.7409    0.0000 C   0  0
   -2.6003    1.4977    0.0000 C   0  0
   -9.2044    1.0746    0.0000 C   0  0
   -8.1437    2.9117    0.0000 C   0  0
   -3.8990    0.7455    0.0000 C   0  0
    6.2253   -8.1139    0.0000 C   0  0
    4.1470   -8.1099    0.0000 C   0  0
  2  4  1  0
  1  5  1  0
  3  5  1  0
  2  6  1  0
  3  6  1  0
  4  9  1  0
  4 10  2  0
  7 11  1  0
  9 11  2  0
  7 12  2  0
 10 12  1  0
  3 13  1  0
  1 14  1  0
 15 18  1  0
 17 18  1  0
  7 19  1  0
 16 20  1  0
 17 20  1  0
 16 21  1  0
 17 21  1  0
 15 22  1  0
 19 22  1  0
 14 23  1  0
 14 24  1  0
M  END