
  SciTegic10301317112D

 71 75  0  0  1  0            999 V2000
   12.1218   -2.9388    0.0000 N   0  0
   11.4172   -2.5263    0.0000 C   0  0
    2.8243   -2.5779    0.0000 C   0  0
    4.9839   -2.9732    0.0000 C   0  0
    7.1207   -2.5435    0.0000 C   0  0
    9.2690   -2.9388    0.0000 C   0  0
   12.8952   -3.2367    0.0000 C   0  0  2  0  0  0
   -2.0737   -1.0999    0.0000 N   0  0
    3.5461   -2.9789    0.0000 N   0  0
    2.1196   -2.9961    0.0000 C   0  0  1  0  0  0
    7.8425   -2.9446    0.0000 N   0  0
    5.6943   -2.5493    0.0000 N   0  0
    9.9850   -2.5149    0.0000 N   0  0
   -0.7562   -1.3635    0.0000 C   0  0
   -1.5238   -1.7072    0.0000 C   0  0
    4.2507   -2.5665    0.0000 C   0  0  1  0  0  0
    6.4161   -2.9617    0.0000 C   0  0  2  0  0  0
    8.5586   -2.5321    0.0000 C   0  0  1  0  0  0
   13.1128   -4.0387    0.0000 C   0  0
   10.7068   -2.9388    0.0000 C   0  0  1  0  0  0
   12.0874   -6.2557    0.0000 C   0  0
    1.3978   -2.5837    0.0000 N   0  0
   -0.8535   -0.5499    0.0000 C   0  0
    0.6760   -3.0075    0.0000 C   0  0
   -1.6613   -0.3781    0.0000 C   0  0
   11.3770   -6.6567    0.0000 N   0  0
   11.4286   -1.7014    0.0000 O   0  0
    2.8243   -1.7530    0.0000 O   0  0
    4.9897   -3.7981    0.0000 O   0  0
    7.1207   -1.7186    0.0000 O   0  0
    9.2861   -3.7637    0.0000 O   0  0
    4.2507   -1.7358    0.0000 C   0  0
    6.4161   -3.7867    0.0000 C   0  0
   12.5171   -4.6116    0.0000 O   0  0
    8.5471   -1.7072    0.0000 C   0  0
   -0.0458   -1.7759    0.0000 C   0  0
    0.6932   -3.8382    0.0000 O   0  0
   12.1046   -5.4307    0.0000 N   0  0
   13.9091   -4.2507    0.0000 N   0  0
   12.8035   -6.6739    0.0000 N   0  0
   12.1734   -2.1139    0.0000 C   0  0
   -0.0344   -2.6008    0.0000 C   0  0
    4.9667   -1.3119    0.0000 C   0  0
    6.3931   -0.4812    0.0000 C   0  0
    7.1379   -4.1933    0.0000 C   0  0
    2.1196   -3.8210    0.0000 C   0  0
    4.9553   -0.4870    0.0000 C   0  0
    5.6885   -1.7244    0.0000 C   0  0
    5.6771   -0.0745    0.0000 C   0  0
    6.3989   -1.3061    0.0000 C   0  0
   13.4222   -2.6008    0.0000 C   0  0
    7.1035   -0.0573    0.0000 O   0  0
    2.8414   -4.2277    0.0000 O   0  0
   12.9753   -1.9076    0.0000 C   0  0
   10.6954   -3.7637    0.0000 C   0  0
   -0.3036    0.0802    0.0000 C   0  0
    9.2518   -1.2889    0.0000 C   0  0
   -1.9248    0.4067    0.0000 C   0  0
   14.1154   -5.0526    0.0000 C   0  0
   11.3942   -5.0069    0.0000 C   0  0
    7.1379   -5.0069    0.0000 C   0  0
    7.8368   -3.7695    0.0000 C   0  0
   11.4000   -4.1819    0.0000 C   0  0
    9.2518   -0.4640    0.0000 C   0  0
    9.9736   -1.6900    0.0000 C   0  0
   14.9059   -5.2646    0.0000 C   0  0
   -0.5671    0.8593    0.0000 C   0  0
   -1.3749    1.0254    0.0000 C   0  0
    8.5471   -4.1762    0.0000 C   0  0
    7.8539   -5.4193    0.0000 C   0  0
    8.5643   -5.0011    0.0000 C   0  0
  2  1  1  0
  3  9  1  0
  4 12  1  0
  5 11  1  0
  6 13  1  0
  7  1  1  0
  8 15  1  0
  9 16  1  0
 10  3  1  0
 11 18  1  0
 12 17  1  0
 13 20  1  0
 14 36  1  0
 15 14  2  0
 16  4  1  0
 17  5  1  0
 18  6  1  0
  7 19  1  1
 20  2  1  0
 21 38  2  0
 22 10  1  0
 23 14  1  0
 24 22  1  0
 25 23  2  0
 26 21  1  0
 27  2  2  0
 28  3  2  0
 29  4  2  0
 30  5  2  0
 31  6  2  0
 16 32  1  1
 17 33  1  1
 34 19  2  0
 18 35  1  1
 36 42  1  0
 37 24  2  0
 38 60  1  0
 39 19  1  0
 40 21  1  0
 41  1  1  0
 42 24  1  0
 43 32  1  0
 44 50  2  0
 45 33  1  0
 10 46  1  6
 47 43  1  0
 48 43  2  0
 49 47  2  0
 50 48  1  0
 51  7  1  0
 52 44  1  0
 53 46  1  0
 54 41  1  0
 20 55  1  6
 56 23  1  0
 57 35  1  0
 58 25  1  0
 59 39  1  0
 60 63  1  0
 61 45  2  0
 62 45  1  0
 63 55  1  0
 64 57  1  0
 65 57  1  0
 66 59  1  0
 67 56  2  0
 68 67  1  0
 69 62  2  0
 70 61  1  0
 71 69  1  0
 54 51  1  0
 70 71  2  0
 49 44  1  0
 25  8  1  0
 58 68  2  0
M  END