
          11280714452D 1   1.00000     0.00000     0

 30 32  0     0  0            999 V2000
    1.8750   -3.8667    0.0000 N   0  0  0  0  0  0           0  0  0
    1.9625   -3.0500    0.0000 C   0  0  0  0  0  0           0  0  0
    1.2042   -2.7167    0.0000 N   0  0  0  0  0  0           0  0  0
    1.0667   -4.0417    0.0000 C   0  0  0  0  0  0           0  0  0
    0.6542   -3.3292    0.0000 C   0  0  0  0  0  0           0  0  0
    2.6792   -2.6375    0.0000 C   0  0  0  0  0  0           0  0  0
   10.5375   -3.0167    0.0000 C   0  0  0  0  0  0           0  0  0
   11.2542   -2.6000    0.0000 C   0  0  0  0  0  0           0  0  0
    9.8250   -2.6042    0.0000 C   0  0  0  0  0  0           0  0  0
    2.6792   -1.8125    0.0000 C   0  0  0  0  0  0           0  0  0
    3.3917   -3.0500    0.0000 C   0  0  0  0  0  0           0  0  0
   11.2417   -1.7667    0.0000 C   0  0  0  0  0  0           0  0  0
    0.7292   -4.7917    0.0000 Cl  0  0  0  0  0  0           0  0  0
    4.8167   -1.3917    0.0000 O   0  0  0  0  0  0           0  0  0
    4.1042   -1.8042    0.0000 C   0  0  0  0  0  0           0  0  0
    9.8167   -1.7792    0.0000 C   0  0  0  0  0  0           0  0  0
    6.2500   -1.3875    0.0000 C   0  0  3  0  0  0           0  0  0
    5.5375   -1.8000    0.0000 C   0  0  0  0  0  0           0  0  0
    4.1042   -2.6375    0.0000 C   0  0  0  0  0  0           0  0  0
    3.3917   -1.3917    0.0000 C   0  0  0  0  0  0           0  0  0
   10.5292   -1.3667    0.0000 C   0  0  0  0  0  0           0  0  0
   10.5417   -3.8417    0.0000 O   0  0  0  0  0  0           0  0  0
    7.6792   -1.3792    0.0000 N   0  0  0  0  0  0           0  0  0
   11.9667   -3.0125    0.0000 O   0  0  0  0  0  0           0  0  0
    6.2417   -0.5625    0.0000 O   0  0  0  0  0  0           0  0  0
    6.9667   -1.7917    0.0000 C   0  0  0  0  0  0           0  0  0
    8.3917   -1.7917    0.0000 C   0  0  0  0  0  0           0  0  0
    9.1042   -1.3750    0.0000 C   0  0  0  0  0  0           0  0  0
    9.8292   -4.2542    0.0000 C   0  0  0  0  0  0           0  0  0
   11.9750   -3.8375    0.0000 C   0  0  0  0  0  0           0  0  0
  2  1  2  0     0  0
  3  2  1  0     0  0
  4  1  1  0     0  0
  5  4  2  0     0  0
  6  2  1  0     0  0
  7  9  1  0     0  0
  8 12  1  0     0  0
  9 16  2  0     0  0
 10  6  2  0     0  0
 11  6  1  0     0  0
 12 21  2  0     0  0
 13  4  1  0     0  0
 14 15  1  0     0  0
 15 19  1  0     0  0
 16 28  1  0     0  0
 17 18  1  0     0  0
 18 14  1  0     0  0
 19 11  2  0     0  0
 20 10  1  0     0  0
 21 16  1  0     0  0
 22  7  1  0     0  0
 23 26  1  0     0  0
 24  8  1  0     0  0
 25 17  1  0     0  0
 26 17  1  0     0  0
 27 23  1  0     0  0
 28 27  1  0     0  0
 29 22  1  0     0  0
 30 24  1  0     0  0
  3  5  1  0     0  0
 20 15  2  0     0  0
  7  8  2  0     0  0
M  END