
          11280715502D 1   1.00000     0.00000     0

 41 44  0     1  0            999 V2000
    7.1477   -9.6554    0.0000 C   0  0  0  0  0  0           0  0  0
    7.5674  -10.3683    0.0000 C   0  0  0  0  0  0           0  0  0
    8.3929  -10.3603    0.0000 C   0  0  0  0  0  0           0  0  0
    8.7996   -9.6401    0.0000 C   0  0  0  0  0  0           0  0  0
    8.3747   -8.9264    0.0000 C   0  0  0  0  0  0           0  0  0
    7.5507   -8.9379    0.0000 C   0  0  0  0  0  0           0  0  0
    8.7775   -8.2064    0.0000 C   0  0  0  0  0  0           0  0  0
    9.6024   -8.1951    0.0000 N   0  0  3  0  0  0           0  0  0
    8.3552   -7.4976    0.0000 O   0  0  0  0  0  0           0  0  0
   10.0232   -8.9067    0.0000 C   0  0  1  0  0  0           0  0  0
   10.8446   -8.8975    0.0000 C   0  0  0  0  0  0           0  0  0
   11.2512   -8.1793    0.0000 N   0  0  3  0  0  0           0  0  0
   10.8302   -7.4686    0.0000 C   0  0  0  0  0  0           0  0  0
   10.0026   -7.4763    0.0000 C   0  0  0  0  0  0           0  0  0
    9.6185   -9.6257    0.0000 C   0  0  0  0  0  0           0  0  0
   10.0304  -10.3385    0.0000 C   0  0  0  0  0  0           0  0  0
    9.7000  -11.0926    0.0000 C   0  0  0  0  0  0           0  0  0
   10.3121  -11.6433    0.0000 N   0  0  0  0  0  0           0  0  0
   10.8534  -10.4261    0.0000 C   0  0  0  0  0  0           0  0  0
   11.0240  -11.2302    0.0000 C   0  0  0  0  0  0           0  0  0
   11.8041  -11.4829    0.0000 C   0  0  0  0  0  0           0  0  0
   12.4144  -10.9327    0.0000 C   0  0  0  0  0  0           0  0  0
   12.2392  -10.1264    0.0000 C   0  0  0  0  0  0           0  0  0
   11.4593   -9.8774    0.0000 C   0  0  0  0  0  0           0  0  0
    8.8041  -11.0725    0.0000 C   0  0  3  0  0  0           0  0  0
    9.5145  -10.6529    0.0000 F   0  0  0  0  0  0           0  0  0
    9.2201  -11.7849    0.0000 F   0  0  0  0  0  0           0  0  0
    8.0916  -11.4884    0.0000 F   0  0  0  0  0  0           0  0  0
    6.3227   -9.6637    0.0000 C   0  0  3  0  0  0           0  0  0
    6.3256  -10.4893    0.0000 F   0  0  0  0  0  0           0  0  0
    6.3092   -8.8392    0.0000 F   0  0  0  0  0  0           0  0  0
    5.4952   -9.6732    0.0000 F   0  0  0  0  0  0           0  0  0
   12.0761   -8.1711    0.0000 C   0  0  0  0  0  0           0  0  0
   12.4816   -7.4526    0.0000 C   0  0  0  0  0  0           0  0  0
   13.3065   -7.4445    0.0000 N   0  0  0  0  0  0           0  0  0
   12.0620   -6.7422    0.0000 C   0  0  0  0  0  0           0  0  0
   13.7261   -8.1548    0.0000 O   0  0  0  0  0  0           0  0  0
   14.5510   -8.1467    0.0000 C   0  0  0  0  0  0           0  0  0
   14.9706   -8.8570    0.0000 C   0  0  0  0  0  0           0  0  0
   15.7955   -8.8489    0.0000 N   0  0  0  0  0  0           0  0  0
   16.2150   -9.5593    0.0000 C   0  0  0  0  0  0           0  0  0
  8 10  1  0     0  0
 19 20  2  0     0  0
  4  5  1  0     0  0
 20 21  1  0     0  0
  2  3  1  0     0  0
 21 22  2  0     0  0
  5  6  2  0     0  0
 22 23  1  0     0  0
  6  1  1  0     0  0
 23 24  2  0     0  0
 24 19  1  0     0  0
  1  2  2  0     0  0
  3 25  1  0     0  0
  8 14  1  0     0  0
 25 26  1  0     0  0
 10 11  1  0     0  0
 25 27  1  0     0  0
 11 12  1  0     0  0
 25 28  1  0     0  0
 12 13  1  0     0  0
  1 29  1  0     0  0
 13 14  1  0     0  0
 29 30  1  0     0  0
  5  7  1  0     0  0
 29 31  1  0     0  0
 10 15  1  1     0  0
 29 32  1  0     0  0
  3  4  2  0     0  0
 12 33  1  0     0  0
 15 16  1  0     0  0
 33 34  1  0     0  0
 16 17  2  0     0  0
 34 35  2  0     0  0
  7  8  1  0     0  0
 34 36  1  0     0  0
 35 37  1  0     0  0
 17 18  1  0     0  0
 37 38  1  0     0  0
 18 20  1  0     0  0
 38 39  1  0     0  0
 19 16  1  0     0  0
 39 40  1  0     0  0
  7  9  2  0     0  0
 40 41  1  0     0  0
M  END