
          11280715462D 1   1.00000     0.00000     0

 39 40  0     1  0            999 V2000
   -1.1500    0.7458    0.0000 C   0  0  1  0  0  0           0  0  0
   -1.8708    1.1583    0.0000 C   0  0  0  0  0  0           0  0  0
    1.0000    1.1583    0.0000 C   0  0  1  0  0  0           0  0  0
    1.7167    0.7458    0.0000 C   0  0  0  0  0  0           0  0  0
   -0.4333    1.1583    0.0000 C   0  0  1  0  0  0           0  0  0
   -2.5875    0.7458    0.0000 N   0  0  0  0  0  0           0  0  0
    2.4375    1.1583    0.0000 N   0  0  0  0  0  0           0  0  0
    0.2792    0.7458    0.0000 C   0  0  1  0  0  0           0  0  0
   -3.3083    1.1583    0.0000 C   0  0  0  0  0  0           0  0  0
    3.1542    0.7458    0.0000 C   0  0  0  0  0  0           0  0  0
    1.4542   -3.8125    0.0000 S   0  3  0  0  0  0           0  0  0
   -1.1500   -0.0792    0.0000 O   0  0  0  0  0  0           0  0  0
    0.4667   -2.9167    0.0000 C   0  0  0  0  0  0           0  0  0
   -4.0333    0.7458    0.0000 C   0  0  2  0  0  0           0  0  0
    3.8750    1.1583    0.0000 C   0  0  2  0  0  0           0  0  0
    1.0000    1.9875    0.0000 O   0  5  0  0  0  0           0  0  0
    0.0542   -2.2042    0.0000 C   0  0  0  0  0  0           0  0  0
   -1.8708    1.9875    0.0000 O   0  0  0  0  0  0           0  0  0
    1.7167   -0.0792    0.0000 O   0  0  0  0  0  0           0  0  0
   -3.3083    1.9875    0.0000 O   0  0  0  0  0  0           0  0  0
    3.1542   -0.0792    0.0000 O   0  0  0  0  0  0           0  0  0
    0.1292   -3.6667    0.0000 C   0  0  0  0  0  0           0  0  0
    0.7417   -4.2250    0.0000 C   0  0  0  0  0  0           0  0  0
    0.4750   -1.4917    0.0000 C   0  0  0  0  0  0           0  0  0
   -0.7583   -2.2000    0.0000 C   0  0  0  0  0  0           0  0  0
   -0.4333    1.9875    0.0000 O   0  0  0  0  0  0           0  0  0
    0.2792   -0.0792    0.0000 O   0  0  0  0  0  0           0  0  0
   -0.7458   -0.7917    0.0000 C   0  0  0  0  0  0           0  0  0
    1.2875   -3.0042    0.0000 C   0  0  0  0  0  0           0  0  0
   -4.0333   -0.0792    0.0000 C   0  0  3  0  0  0           0  0  0
    3.8750    1.9875    0.0000 C   0  0  3  0  0  0           0  0  0
    0.0542   -0.7917    0.0000 C   0  0  0  0  0  0           0  0  0
   -1.1625   -1.4917    0.0000 C   0  0  0  0  0  0           0  0  0
   -4.7458    1.1583    0.0000 C   0  0  0  0  0  0           0  0  0
    4.5917    0.7458    0.0000 C   0  0  0  0  0  0           0  0  0
   -4.7458   -0.5000    0.0000 C   0  0  0  0  0  0           0  0  0
   -3.3083   -0.5000    0.0000 C   0  0  0  0  0  0           0  0  0
    3.1542    2.4083    0.0000 C   0  0  0  0  0  0           0  0  0
    4.5917    2.4083    0.0000 C   0  0  0  0  0  0           0  0  0
  2  1  1  0     0  0
  3  8  1  0     0  0
  4  3  1  0     0  0
  5  1  1  0     0  0
  6  2  1  0     0  0
  7  4  1  0     0  0
  8  5  1  0     0  0
  9  6  1  0     0  0
 10  7  1  0     0  0
 11 29  1  0     0  0
  1 12  1  1     0  0
 13 17  1  0     0  0
 14  9  1  0     0  0
 15 10  1  0     0  0
  3 16  1  1     0  0
 17 25  2  0     0  0
 18  2  2  0     0  0
 19  4  2  0     0  0
 20  9  2  0     0  0
 21 10  2  0     0  0
 22 13  2  0     0  0
 23 22  1  0     0  0
 24 32  2  0     0  0
 25 33  1  0     0  0
  5 26  1  6     0  0
  8 27  1  6     0  0
 28 12  1  0     0  0
 29 13  1  0     0  0
 14 30  1  6     0  0
 15 31  1  6     0  0
 32 28  1  0     0  0
 33 28  2  0     0  0
 34 14  1  0     0  0
 35 15  1  0     0  0
 36 30  1  0     0  0
 37 30  1  0     0  0
 38 31  1  0     0  0
 39 31  1  0     0  0
 24 17  1  0     0  0
 23 11  2  0     0  0
M  CHG  2  11   1  16  -1
M  END