
  SciTegic04091414352D

 21 21  0  0  0  0            999 V2000
    7.8464  -13.7691    0.0000 C   0  0
    8.5623  -14.1790    0.0000 C   0  0
    7.1334  -14.1843    0.0000 C   0  0
    6.4174  -13.7746    0.0000 N   0  0
    5.7045  -14.1897    0.0000 C   0  0
    6.4143  -12.9495    0.0000 C   0  0
    7.1272  -12.5343    0.0000 C   0  0
    4.9885  -13.7799    0.0000 C   0  0
    4.2756  -14.1950    0.0000 C   0  0
    3.5596  -13.7853    0.0000 C   0  0
    2.8466  -14.2005    0.0000 C   0  0
    2.1319  -13.7873    0.0000 C   0  0
    1.4194  -14.2017    0.0000 C   0  0
    1.4222  -15.0276    0.0000 C   0  0
    2.1432  -15.4373    0.0000 C   0  0
    2.8526  -15.0203    0.0000 C   0  0
    9.2753  -13.7638    0.0000 C   0  0
    9.9913  -14.1735    0.0000 C   0  0
   10.7042  -13.7584    0.0000 C   0  0
   11.4202  -14.1682    0.0000 C   0  0
    0.7098  -15.4438    0.0000 Cl  0  0
  1  2  1  0
  1  3  1  0
  3  4  1  0
  4  5  1  0
  4  6  1  0
  6  7  1  0
  5  8  1  0
  8  9  1  0
  9 10  1  0
 10 11  1  0
 11 12  2  0
 12 13  1  0
 13 14  2  0
 14 15  1  0
 15 16  2  0
 16 11  1  0
  2 17  1  0
 17 18  1  0
 18 19  1  0
 19 20  1  0
 14 21  1  0
M  END