
  SciTegic04091416292D

 31 34  0  0  0  0            999 V2000
    5.1874   -2.7167    0.0000 N   0  0
    6.0124   -2.7167    0.0000 C   0  0  1  0  0  0
    6.2691   -1.9326    0.0000 C   0  0
    5.5999   -1.4458    0.0000 C   0  0  2  0  0  0
    4.9348   -1.9326    0.0000 C   0  0
    4.7576   -3.4205    0.0000 C   0  0
    3.9328   -3.4003    0.0000 C   0  0
    5.1524   -4.1448    0.0000 O   0  0
    3.5029   -4.1048    0.0000 C   0  0
    2.6786   -4.0633    0.0000 C   0  0
    2.3883   -4.8355    0.0000 C   0  0
    3.0330   -5.3503    0.0000 N   0  0
    3.7217   -4.8962    0.0000 O   0  0
    5.5986   -0.6209    0.0000 O   0  0
    6.4213   -3.4335    0.0000 C   0  0
    6.0052   -4.1460    0.0000 O   0  0
    7.2463   -3.4377    0.0000 N   0  0
    7.6623   -2.7252    0.0000 C   0  0
    8.4873   -2.7293    0.0000 C   0  0
    8.8937   -3.4456    0.0000 C   0  0
    9.7180   -3.4500    0.0000 C   0  0
   10.1349   -2.7371    0.0000 C   0  0
    9.7215   -2.0182    0.0000 C   0  0
    8.8986   -2.0173    0.0000 C   0  0
   10.9599   -2.7400    0.0000 C   0  0
   11.4398   -3.4087    0.0000 S   0  0
   12.2253   -3.1566    0.0000 C   0  0
   12.2282   -2.3315    0.0000 N   0  0
   11.4445   -2.0739    0.0000 C   0  0
   11.1913   -1.2888    0.0000 C   0  0
    1.5928   -5.0545    0.0000 C   0  0
  1  2  1  0
  2  3  1  0
  3  4  1  0
  4  5  1  0
  5  1  1  0
  1  6  1  0
  6  7  1  0
  6  8  2  0
  7  9  1  0
  9 10  2  0
 10 11  1  0
 11 12  2  0
 12 13  1  0
 13  9  1  0
  4 14  1  6
  2 15  1  1
 15 16  2  0
 15 17  1  0
 17 18  1  0
 18 19  1  0
 19 20  2  0
 20 21  1  0
 21 22  2  0
 22 23  1  0
 23 24  2  0
 24 19  1  0
 22 25  1  0
 25 26  1  0
 26 27  1  0
 27 28  2  0
 28 29  1  0
 29 25  2  0
 29 30  1  0
 11 31  1  0
M  END