
          11280715402D 1   1.00000     0.00000     0

 33 35  0     0  0            999 V2000
    1.7750   -4.0417    0.0000 C   0  0  0  0  0  0           0  0  0
    2.5542   -4.3125    0.0000 N   0  0  0  0  0  0           0  0  0
    3.0500   -3.6500    0.0000 C   0  0  0  0  0  0           0  0  0
    2.5750   -2.9750    0.0000 N   0  0  0  0  0  0           0  0  0
    1.1000   -4.5167    0.0000 C   0  0  3  0  0  0           0  0  0
    1.7875   -3.2167    0.0000 C   0  0  0  0  0  0           0  0  0
    3.8750   -3.6667    0.0000 C   0  0  0  0  0  0           0  0  0
   11.7417   -1.6417    0.0000 C   0  0  0  0  0  0           0  0  0
   11.3417   -0.9250    0.0000 C   0  0  0  0  0  0           0  0  0
   11.3167   -2.3542    0.0000 C   0  0  0  0  0  0           0  0  0
    0.4792   -4.9500    0.0000 F   0  0  0  0  0  0           0  0  0
    0.2667   -4.2792    0.0000 F   0  0  0  0  0  0           0  0  0
    1.0375   -5.3750    0.0000 F   0  0  0  0  0  0           0  0  0
    4.2917   -2.9542    0.0000 C   0  0  0  0  0  0           0  0  0
    4.2750   -4.3792    0.0000 C   0  0  0  0  0  0           0  0  0
   10.5125   -0.9125    0.0000 C   0  0  0  0  0  0           0  0  0
    6.3500   -3.7042    0.0000 O   0  0  0  0  0  0           0  0  0
    5.5250   -3.6917    0.0000 C   0  0  0  0  0  0           0  0  0
   10.4917   -2.3375    0.0000 C   0  0  0  0  0  0           0  0  0
    7.5750   -4.4375    0.0000 C   0  0  3  0  0  0           0  0  0
    6.7500   -4.4250    0.0000 C   0  0  0  0  0  0           0  0  0
    5.1167   -2.9667    0.0000 C   0  0  0  0  0  0           0  0  0
    5.1000   -4.4000    0.0000 C   0  0  0  0  0  0           0  0  0
   10.0917   -1.6167    0.0000 C   0  0  0  0  0  0           0  0  0
   12.5667   -1.6542    0.0000 O   0  0  0  0  0  0           0  0  0
    8.8250   -3.7417    0.0000 N   0  0  0  0  0  0           0  0  0
   11.7625   -0.2125    0.0000 O   0  0  0  0  0  0           0  0  0
    7.9792   -5.1542    0.0000 O   0  0  0  0  0  0           0  0  0
    8.0000   -3.7292    0.0000 C   0  0  0  0  0  0           0  0  0
    9.2417   -3.0292    0.0000 C   0  0  0  0  0  0           0  0  0
   10.0667   -3.0417    0.0000 C   0  0  0  0  0  0           0  0  0
   12.9667   -2.3792    0.0000 C   0  0  0  0  0  0           0  0  0
   12.5875   -0.2167    0.0000 C   0  0  0  0  0  0           0  0  0
  2  1  1  0     0  0
  3  2  2  0     0  0
  4  6  1  0     0  0
  5  1  1  0     0  0
  6  1  2  0     0  0
  7  3  1  0     0  0
  8 10  1  0     0  0
  9 16  1  0     0  0
 10 19  2  0     0  0
 11  5  1  0     0  0
 12  5  1  0     0  0
 13  5  1  0     0  0
 14  7  2  0     0  0
 15  7  1  0     0  0
 16 24  2  0     0  0
 17 18  1  0     0  0
 18 23  1  0     0  0
 19 31  1  0     0  0
 20 21  1  0     0  0
 21 17  1  0     0  0
 22 14  1  0     0  0
 23 15  2  0     0  0
 24 19  1  0     0  0
 25  8  1  0     0  0
 26 29  1  0     0  0
 27  9  1  0     0  0
 28 20  1  0     0  0
 29 20  1  0     0  0
 30 26  1  0     0  0
 31 30  1  0     0  0
 32 25  1  0     0  0
 33 27  1  0     0  0
  4  3  1  0     0  0
 22 18  2  0     0  0
  9  8  2  0     0  0
M  END