
          11280715512D 1   1.00000     0.00000     0

 30 33  0     0  0            999 V2000
    7.8736  -14.1958    0.0000 C   0  0  0  0  0  0           0  0  0
    7.8724  -15.0232    0.0000 C   0  0  0  0  0  0           0  0  0
    8.5872  -15.4360    0.0000 C   0  0  0  0  0  0           0  0  0
    8.5854  -13.7830    0.0000 C   0  0  0  0  0  0           0  0  0
    9.3008  -14.1922    0.0000 C   0  0  0  0  0  0           0  0  0
    9.3016  -15.0190    0.0000 C   0  0  0  0  0  0           0  0  0
   10.0169  -15.4300    0.0000 N   0  0  0  0  0  0           0  0  0
   10.7319  -15.0152    0.0000 C   0  0  0  0  0  0           0  0  0
   10.7271  -14.1852    0.0000 C   0  0  0  0  0  0           0  0  0
   10.0112  -13.7780    0.0000 N   0  0  0  0  0  0           0  0  0
   11.4480  -15.4249    0.0000 O   0  0  0  0  0  0           0  0  0
   11.4391  -13.7684    0.0000 C   0  0  0  0  0  0           0  0  0
   12.1560  -14.1765    0.0000 N   0  0  0  0  0  0           0  0  0
   11.4341  -12.9434    0.0000 O   0  0  0  0  0  0           0  0  0
   12.8680  -13.7597    0.0000 C   0  0  0  0  0  0           0  0  0
   13.5827  -14.1713    0.0000 C   0  0  0  0  0  0           0  0  0
   14.2942  -13.7551    0.0000 C   0  0  0  0  0  0           0  0  0
   14.2896  -12.9292    0.0000 C   0  0  0  0  0  0           0  0  0
   13.5676  -12.5213    0.0000 C   0  0  0  0  0  0           0  0  0
   12.8591  -12.9398    0.0000 C   0  0  0  0  0  0           0  0  0
   15.0010  -12.5115    0.0000 O   0  0  0  0  0  0           0  0  0
   11.4512  -16.2499    0.0000 C   0  0  0  0  0  0           0  0  0
   13.5597  -11.6963    0.0000 C   0  0  0  0  0  0           0  0  0
   14.2701  -11.2770    0.0000 N   0  0  3  0  0  0           0  0  0
   14.9886  -11.6893    0.0000 C   0  0  0  0  0  0           0  0  0
   15.6970  -11.2734    0.0000 C   0  0  0  0  0  0           0  0  0
   15.6933  -10.4481    0.0000 N   0  0  0  0  0  0           0  0  0
   14.9750  -10.0403    0.0000 C   0  0  0  0  0  0           0  0  0
   14.2604  -10.4578    0.0000 C   0  0  0  0  0  0           0  0  0
   10.7383  -16.6652    0.0000 C   0  0  0  0  0  0           0  0  0
  6  7  2  0     0  0
 13 15  1  0     0  0
  1  2  1  0     0  0
 15 16  2  0     0  0
  7  8  1  0     0  0
 16 17  1  0     0  0
  5  4  1  0     0  0
 17 18  2  0     0  0
  8  9  2  0     0  0
 18 19  1  0     0  0
  4  1  2  0     0  0
 19 20  2  0     0  0
 20 15  1  0     0  0
  9 10  1  0     0  0
 18 21  1  0     0  0
 10  5  2  0     0  0
 11 22  1  0     0  0
 19 23  1  0     0  0
  8 11  1  0     0  0
 23 24  1  0     0  0
 24 25  1  0     0  0
  2  3  2  0     0  0
  9 12  1  0     0  0
  5  6  1  0     0  0
 12 13  1  0     0  0
  3  6  1  0     0  0
 24 29  1  0     0  0
 25 26  1  0     0  0
 26 27  1  0     0  0
 27 28  1  0     0  0
 28 29  1  0     0  0
 12 14  2  0     0  0
 22 30  1  0     0  0
M  END