
          11280715502D 1   1.00000     0.00000     0

 19 21  0     0  0            999 V2000
    8.3236    1.7834    0.0000 C   0  0  0  0  0  0           0  0  0
    8.3224    0.9560    0.0000 C   0  0  0  0  0  0           0  0  0
    9.0372    0.5431    0.0000 C   0  0  0  0  0  0           0  0  0
    9.0354    2.1961    0.0000 C   0  0  0  0  0  0           0  0  0
    9.7508    1.7870    0.0000 C   0  0  0  0  0  0           0  0  0
    9.7516    0.9602    0.0000 C   0  0  0  0  0  0           0  0  0
   10.4669    0.5492    0.0000 N   0  0  0  0  0  0           0  0  0
   11.1819    0.9640    0.0000 C   0  0  0  0  0  0           0  0  0
   11.1771    1.7939    0.0000 C   0  0  0  0  0  0           0  0  0
   10.4612    2.2012    0.0000 C   0  0  0  0  0  0           0  0  0
   11.8980    0.5542    0.0000 N   0  0  0  0  0  0           0  0  0
   12.6108    0.9695    0.0000 C   0  0  0  0  0  0           0  0  0
   12.6076    1.7945    0.0000 C   0  0  0  0  0  0           0  0  0
   13.3213    2.2079    0.0000 C   0  0  0  0  0  0           0  0  0
   13.3185    3.0321    0.0000 C   0  0  0  0  0  0           0  0  0
   12.6019    3.4426    0.0000 C   0  0  0  0  0  0           0  0  0
   11.8866    3.0229    0.0000 C   0  0  0  0  0  0           0  0  0
   11.8930    2.2001    0.0000 C   0  0  0  0  0  0           0  0  0
   14.0368    1.7971    0.0000 F   0  0  0  0  0  0           0  0  0
  4  1  2  0     0  0
  9 10  1  0     0  0
 10  5  2  0     0  0
  8 11  1  0     0  0
  2  3  2  0     0  0
 11 12  1  0     0  0
  5  6  1  0     0  0
 12 13  1  0     0  0
  3  6  1  0     0  0
 13 14  2  0     0  0
  6  7  2  0     0  0
 14 15  1  0     0  0
  1  2  1  0     0  0
 15 16  2  0     0  0
  7  8  1  0     0  0
 16 17  1  0     0  0
  5  4  1  0     0  0
 17 18  2  0     0  0
 18 13  1  0     0  0
  8  9  2  0     0  0
 14 19  1  0     0  0
M  END