
  SciTegic09081514182D

 31 33  0  0  0  0            999 V2000
    1.2990   -0.7500    0.0000 N   0  0
    0.0000   -1.5000    0.0000 C   0  0
   -1.2990   -0.7500    0.0000 N   0  0
   -1.2990    0.7500    0.0000 C   0  0
    1.2990    0.7500    0.0000 C   0  0
    0.0000    1.5000    0.0000 C   0  0
   -2.5973    1.5031    0.0000 N   0  0
   -2.5951    3.0039    0.0000 C   0  0  1  0  0  0
   -3.8933    3.7570    0.0000 C   0  0
   -3.8916    4.9570    0.0000 O   0  0
   -0.0031   -3.0008    0.0000 S   0  0
   -1.3039   -3.7494    0.0000 C   0  0
   -1.3070   -5.2502    0.0000 C   0  0
    2.5972    1.5031    0.0000 N   0  0
    2.5951    3.0039    0.0000 S   0  0
    3.8933    3.7570    0.0000 C   0  0
    1.5548    3.6021    0.0000 O   0  0
    1.5568    2.4023    0.0000 O   0  0
   -1.5549    3.6021    0.0000 C   0  0
   -0.0079   -6.0003    0.0000 C   0  0
   -0.0080   -7.5003    0.0000 C   0  0
   -1.3070   -8.2503    0.0000 C   0  0
   -2.6060   -7.5003    0.0000 C   0  0
   -2.6060   -6.0003    0.0000 C   0  0
   -3.6452   -5.4003    0.0000 F   0  0
   -3.6453   -8.1003    0.0000 Cl  0  0
    5.2459    3.1387    0.0000 N   0  0
    6.2473    4.2555    0.0000 C   0  0
    5.4946    5.5530    0.0000 N   0  0
    4.0280    5.2381    0.0000 C   0  0
    5.9804    6.6503    0.0000 C   0  0
  5  1  1  0
  1  2  2  0
  2  3  1  0
  3  4  2  0
  4  6  1  0
  5  6  2  0
  4  7  1  0
  7  8  1  0
  8  9  1  0
  9 10  1  0
  2 11  1  0
 11 12  1  0
 12 13  1  0
  5 14  1  0
 14 15  1  0
 15 16  1  0
 15 17  2  0
 15 18  2  0
  8 19  1  1
 13 20  2  0
 20 21  1  0
 21 22  2  0
 22 23  1  0
 23 24  2  0
 24 13  1  0
 24 25  1  0
 23 26  1  0
 16 27  1  0
 27 28  2  0
 28 29  1  0
 29 30  1  0
 30 16  2  0
 29 31  1  0
M  END