
          08180812472D 1   1.00000     0.00000     0

 28 31  0     1  0            999 V2000
    0.2980   -6.1960    0.0000 C   0  0  0  0  0  0           0  0  0
   -0.4348   -5.8564    0.0000 N   0  0  3  0  0  0           0  0  0
    0.1485   -5.4490    0.0000 C   0  0  0  0  0  0           0  0  0
   -1.2564   -6.2077    0.0000 C   0  0  0  0  0  0           0  0  0
   -0.2980   -4.8397    0.0000 C   0  0  0  0  0  0           0  0  0
   -0.5745   -5.1237    0.0000 C   0  0  3  0  0  0           0  0  0
   -1.3613   -5.4682    0.0000 C   0  0  2  0  0  0           0  0  0
   -0.5375   -4.2468    0.0000 C   0  0  0  0  0  0           0  0  0
   -1.7828   -4.7526    0.0000 O   0  0  0  0  0  0           0  0  0
   -1.9524   -6.0497    0.0000 C   0  0  0  0  0  0           0  0  0
   -2.6077   -4.7599    0.0000 C   0  0  0  0  0  0           0  0  0
   -2.5390   -6.6318    0.0000 C   0  0  0  0  0  0           0  0  0
   -3.1246   -7.2127    0.0000 C   0  0  2  0  0  0           0  0  0
   -3.7123   -7.7912    0.0000 O   0  0  0  0  0  0           0  0  0
   -2.5447   -7.7996    0.0000 C   0  0  0  0  0  0           0  0  0
   -3.7048   -6.6263    0.0000 C   0  0  3  0  0  0           0  0  0
   -1.1641   -4.5326    0.0000 H   0  0  0  0  0  0           0  0  0
   -2.7640   -8.5924    0.0000 C   0  0  0  0  0  0           0  0  0
   -2.1849   -9.1789    0.0000 C   0  0  0  0  0  0           0  0  0
   -1.3859   -8.9703    0.0000 C   0  0  0  0  0  0           0  0  0
   -1.1691   -8.1699    0.0000 C   0  0  0  0  0  0           0  0  0
   -1.7498   -7.5868    0.0000 C   0  0  0  0  0  0           0  0  0
   -4.4857   -6.8925    0.0000 C   0  0  0  0  0  0           0  0  0
   -5.1843   -6.4504    0.0000 C   0  0  0  0  0  0           0  0  0
   -3.4324   -5.8473    0.0000 C   0  0  0  0  0  0           0  0  0
   -5.2770   -5.6319    0.0000 C   0  0  0  0  0  0           0  0  0
   -3.8698   -5.1462    0.0000 C   0  0  0  0  0  0           0  0  0
   -4.6906   -5.0533    0.0000 C   0  0  0  0  0  0           0  0  0
  3  6  1  0     0  0
 13 14  1  1     0  0
  4  7  1  0     0  0
 13 15  1  0     0  0
  5  8  1  0     0  0
 13 16  1  0     0  0
  6  7  1  0     0  0
  6 17  1  0     0  0
  6  8  1  0     0  0
 15 18  2  0     0  0
 18 19  1  0     0  0
  7  9  1  1     0  0
 19 20  2  0     0  0
  1  2  1  0     0  0
 20 21  1  0     0  0
  7 10  1  0     0  0
 21 22  2  0     0  0
 22 15  1  0     0  0
  1  3  1  0     0  0
 16 23  1  0     0  0
  9 11  1  0     0  0
 23 24  1  0     0  0
  2  4  1  0     0  0
 16 25  1  0     0  0
 10 12  3  0     0  0
 24 26  1  0     0  0
  2  5  1  0     0  0
 25 27  1  0     0  0
 12 13  1  0     0  0
 26 28  1  0     0  0
 27 28  1  0     0  0
M  END