
  SciTegic12171312552D

 35 40  0  0  0  0            999 V2000
   22.7782   -1.2836    0.0000 C   0  0
   22.0683   -0.8750    0.0000 C   0  0
   21.3634   -1.2832    0.0000 C   0  0
   21.3622   -2.1017    0.0000 N   0  0
   22.0721   -2.5103    0.0000 C   0  0
   22.7832   -2.1004    0.0000 C   0  0
   22.7782   -0.4664    0.0000 C   0  0
   23.4835   -1.6880    0.0000 C   0  0
   24.1887   -1.2836    0.0000 N   0  0
   24.1887   -0.4664    0.0000 C   0  0
   23.4835   -0.0537    0.0000 C   0  0
   24.8958   -1.6932    0.0000 C   0  0
   25.6041   -1.2856    0.0000 C   0  0
   26.3096   -1.6961    0.0000 C   0  0
   27.0174   -1.2892    0.0000 C   0  0
   27.0191   -0.4712    0.0000 C   0  0
   26.3070   -0.0617    0.0000 C   0  0
   25.6021   -0.4709    0.0000 C   0  0
   26.3105   -2.5164    0.0000 C   0  0
   25.6481   -2.9951    0.0000 O   0  0
   25.8986   -3.7729    0.0000 N   0  0
   26.7159   -3.7751    0.0000 C   0  0
   26.9703   -2.9985    0.0000 N   0  0
   27.1945   -4.4374    0.0000 C   0  0
   23.4835   -2.5052    0.0000 O   0  0
   20.6569   -2.5078    0.0000 C   0  0
   19.9489   -2.0975    0.0000 N   0  0
   19.9539   -3.7319    0.0000 N   0  0
   20.6582   -3.3217    0.0000 C   0  0
   19.2412   -3.3234    0.0000 C   0  0
   19.2407   -2.5073    0.0000 C   0  0
   18.5348   -2.1015    0.0000 C   0  0
   17.8289   -2.5106    0.0000 C   0  0
   17.8334   -3.3299    0.0000 C   0  0
   18.5399   -3.7320    0.0000 C   0  0
  1  2  1  0
  1  6  1  0
  2  3  1  0
  3  4  1  0
  4  5  1  0
  5  6  1  0
  7  1  1  0
  7 11  1  0
  1  8  1  0
  8  9  1  0
  9 10  1  0
 10 11  1  0
  9 12  1  0
 12 13  1  0
 13 14  2  0
 14 15  1  0
 15 16  2  0
 16 17  1  0
 17 18  2  0
 18 13  1  0
 19 20  1  0
 20 21  1  0
 21 22  2  0
 22 23  1  0
 23 19  2  0
 14 19  1  0
 22 24  1  0
  8 25  2  0
 26 27  2  0
 27 31  1  0
 30 28  1  0
 28 29  2  0
 29 26  1  0
  4 26  1  0
 30 31  1  0
 31 32  2  0
 32 33  1  0
 33 34  2  0
 34 35  1  0
 35 30  2  0
M  END