
          11280715502D 1   1.00000     0.00000     0

 32 35  0     0  0            999 V2000
   -0.3923  -17.0836    0.0000 N   0  0  0  0  0  0           0  0  0
    0.0912  -17.7432    0.0000 C   0  0  0  0  0  0           0  0  0
   -0.3932  -18.4146    0.0000 C   0  0  0  0  0  0           0  0  0
   -1.1766  -18.1595    0.0000 C   0  0  0  0  0  0           0  0  0
   -1.8876  -18.5717    0.0000 N   0  0  3  0  0  0           0  0  0
   -2.6055  -18.1615    0.0000 C   0  0  0  0  0  0           0  0  0
   -2.6042  -17.3350    0.0000 N   0  0  3  0  0  0           0  0  0
   -1.8891  -16.9228    0.0000 C   0  0  0  0  0  0           0  0  0
   -1.1754  -17.3372    0.0000 C   0  0  0  0  0  0           0  0  0
   -1.8869  -16.0984    0.0000 O   0  0  0  0  0  0           0  0  0
   -3.3249  -18.5714    0.0000 O   0  0  0  0  0  0           0  0  0
   -3.3260  -16.9136    0.0000 C   0  0  0  0  0  0           0  0  0
   -1.8875  -19.3961    0.0000 C   0  0  0  0  0  0           0  0  0
    0.9185  -17.7004    0.0000 C   0  0  0  0  0  0           0  0  0
    1.3648  -18.4009    0.0000 C   0  0  0  0  0  0           0  0  0
    2.1884  -18.3671    0.0000 C   0  0  0  0  0  0           0  0  0
    2.5668  -17.6375    0.0000 C   0  0  0  0  0  0           0  0  0
    2.1279  -16.9404    0.0000 C   0  0  0  0  0  0           0  0  0
    1.3015  -16.9737    0.0000 C   0  0  0  0  0  0           0  0  0
    3.3912  -17.6062    0.0000 O   0  0  0  0  0  0           0  0  0
    3.7802  -16.8766    0.0000 C   0  0  0  0  0  0           0  0  0
    4.6046  -16.8455    0.0000 C   0  0  0  0  0  0           0  0  0
    4.9894  -16.1159    0.0000 N   0  0  0  0  0  0           0  0  0
    5.0400  -17.5397    0.0000 O   0  0  0  0  0  0           0  0  0
    5.8130  -16.0841    0.0000 C   0  0  0  0  0  0           0  0  0
    6.2556  -16.7805    0.0000 C   0  0  0  0  0  0           0  0  0
    7.0834  -16.7496    0.0000 C   0  0  0  0  0  0           0  0  0
    7.4648  -16.0156    0.0000 C   0  0  0  0  0  0           0  0  0
    7.0251  -15.3187    0.0000 C   0  0  0  0  0  0           0  0  0
    6.2029  -15.3531    0.0000 C   0  0  0  0  0  0           0  0  0
    8.2860  -16.0298    0.0000 C   0  0  0  0  0  0           0  0  0
    9.1102  -16.0446    0.0000 N   0  0  0  0  0  0           0  0  0
 15 16  2  0     0  0
  5  6  1  0     0  0
 16 17  1  0     0  0
  6  7  1  0     0  0
 17 18  2  0     0  0
  7  8  1  0     0  0
 18 19  1  0     0  0
 19 14  2  0     0  0
  2 14  1  0     0  0
  8  9  1  0     0  0
 17 20  1  0     0  0
  1  2  1  0     0  0
 20 21  1  0     0  0
  8 10  2  0     0  0
 21 22  1  0     0  0
  2  3  2  0     0  0
 22 23  1  0     0  0
  6 11  2  0     0  0
 22 24  2  0     0  0
  3  4  1  0     0  0
 23 25  1  0     0  0
  7 12  1  0     0  0
 25 26  2  0     0  0
  9  1  1  0     0  0
 26 27  1  0     0  0
  5 13  1  0     0  0
 27 28  2  0     0  0
 28 29  1  0     0  0
  4  9  2  0     0  0
 29 30  2  0     0  0
 30 25  1  0     0  0
 14 15  1  0     0  0
  4  5  1  0     0  0
 31 32  3  0     0  0
 28 31  1  0     0  0
M  END