
          11280715412D 1   1.00000     0.00000     0

 36 40  0     0  0            999 V2000
   -1.3333    0.8708    0.0000 N   0  0  3  0  0  0           0  0  0
   -0.9750    1.3583    0.0000 C   0  0  0  0  0  0           0  0  0
   -1.3333    1.8500    0.0000 C   0  0  0  0  0  0           0  0  0
   -1.9083    1.6583    0.0000 C   0  0  0  0  0  0           0  0  0
   -1.9083    1.0583    0.0000 C   0  0  0  0  0  0           0  0  0
   -0.3750    1.4208    0.0000 C   0  0  3  0  0  0           0  0  0
   -1.1833    0.2875    0.0000 C   0  0  0  0  0  0           0  0  0
   -2.4333    0.7583    0.0000 C   0  0  0  0  0  0           0  0  0
    0.5167    0.9083    0.0000 C   0  0  0  0  0  0           0  0  0
   -2.4333    1.9583    0.0000 C   0  0  0  0  0  0           0  0  0
   -0.0833    0.9083    0.0000 C   0  0  0  0  0  0           0  0  0
    0.4792   -3.7125    0.0000 N   0  0  0  0  0  0           0  0  0
   -1.6083   -0.1292    0.0000 C   0  0  0  0  0  0           0  0  0
    0.8250    1.4208    0.0000 O   0  0  0  0  0  0           0  0  0
   -1.0958    2.4083    0.0000 C   0  0  0  0  0  0           0  0  0
   -2.9458    1.6583    0.0000 C   0  0  0  0  0  0           0  0  0
   -2.9458    1.0583    0.0000 C   0  0  0  0  0  0           0  0  0
   -1.6083   -0.7292    0.0000 C   0  0  0  0  0  0           0  0  0
    0.8167    0.3833    0.0000 O   0  0  0  0  0  0           0  0  0
   -3.4708    1.9583    0.0000 F   0  0  0  0  0  0           0  0  0
   -0.1250    1.9750    0.0000 C   0  0  0  0  0  0           0  0  0
   -2.1250   -1.0292    0.0000 C   0  0  0  0  0  0           0  0  0
   -0.5583   -3.7167    0.0000 C   0  0  0  0  0  0           0  0  0
   -0.4833    2.4708    0.0000 C   0  0  0  0  0  0           0  0  0
   -0.0375   -3.4167    0.0000 C   0  0  0  0  0  0           0  0  0
   -2.6458   -0.1292    0.0000 C   0  0  0  0  0  0           0  0  0
    0.4875   -4.3167    0.0000 C   0  0  0  0  0  0           0  0  0
   -2.1333    0.1708    0.0000 C   0  0  0  0  0  0           0  0  0
   -2.6458   -0.7292    0.0000 C   0  0  0  0  0  0           0  0  0
   -2.1208   -1.6292    0.0000 C   0  0  0  0  0  0           0  0  0
   -1.0750   -3.4250    0.0000 C   0  0  0  0  0  0           0  0  0
   -0.5500   -4.3167    0.0000 C   0  0  0  0  0  0           0  0  0
   -1.6000   -1.9250    0.0000 C   0  0  0  0  0  0           0  0  0
   -1.0750   -2.8250    0.0000 C   0  0  0  0  0  0           0  0  0
   -1.5958   -2.5250    0.0000 C   0  0  0  0  0  0           0  0  0
   -0.0333   -4.6167    0.0000 C   0  0  0  0  0  0           0  0  0
  2  1  1  0     0  0
  3  2  2  0     0  0
  4  5  1  0     0  0
  5  1  1  0     0  0
  6  2  1  0     0  0
  7  1  1  0     0  0
  8  5  2  0     0  0
  9 11  1  0     0  0
 10  4  2  0     0  0
 11  6  1  0     0  0
 12 25  2  0     0  0
 13  7  1  0     0  0
 14  9  2  0     0  0
 15  3  1  0     0  0
 16 17  2  0     0  0
 17  8  1  0     0  0
 18 13  1  0     0  0
 19  9  1  0     0  0
 20 16  1  0     0  0
 21  6  1  0     0  0
 22 18  2  0     0  0
 23 31  1  0     0  0
 24 21  1  0     0  0
 25 23  1  0     0  0
 26 28  1  0     0  0
 27 36  2  0     0  0
 28 13  2  0     0  0
 29 26  2  0     0  0
 30 22  1  0     0  0
 31 34  1  0     0  0
 32 23  2  0     0  0
 33 30  1  0     0  0
 34 35  1  0     0  0
 35 33  1  0     0  0
 36 32  1  0     0  0
  4  3  1  0     0  0
 16 10  1  0     0  0
 24 15  1  0     0  0
 22 29  1  0     0  0
 27 12  1  0     0  0
M  END