
  SciTegic12201110432D

  7  7  0  0  0  0            999 V2000
   -0.7517    0.1892    0.0000 N   0  0
   -0.0373    0.6017    0.0000 C   0  0
    0.6772    0.1892    0.0000 C   0  0
    0.6772   -0.6358    0.0000 C   0  0
   -0.0373   -1.0483    0.0000 C   0  0
   -0.7517   -0.6358    0.0000 C   0  0
   -0.0373    1.4267    0.0000 N   0  0
  2  1  1  0
  6  1  2  0
  2  3  2  0
  2  7  1  0
  3  4  1  0
  4  5  2  0
  5  6  1  0
M  END