
          01230816042D 1   1.00000     0.00000     0

 41 45  0     0  0            999 V2000
   13.6611   -0.8750    0.0000 C   0  0  0  0  0  0           0  0  0
   13.6599   -1.7023    0.0000 C   0  0  0  0  0  0           0  0  0
   14.3747   -2.1152    0.0000 C   0  0  0  0  0  0           0  0  0
   14.3729   -0.4622    0.0000 C   0  0  0  0  0  0           0  0  0
   15.7541   -2.2183    0.0000 C   0  0  0  0  0  0           0  0  0
   16.5871   -1.9992    0.0000 N   0  0  0  0  0  0           0  0  0
   16.9059   -1.2480    0.0000 N   0  0  3  0  0  0           0  0  0
   15.0886   -1.7040    0.0000 C   0  0  0  0  0  0           0  0  0
   15.0883   -0.8713    0.0000 C   0  0  0  0  0  0           0  0  0
   15.7675   -0.3297    0.0000 N   0  0  3  0  0  0           0  0  0
   16.5471   -0.5094    0.0000 C   0  0  0  0  0  0           0  0  0
   17.0612    0.1359    0.0000 O   0  0  0  0  0  0           0  0  0
   17.7306   -1.2270    0.0000 C   0  0  0  0  0  0           0  0  0
   18.1611   -1.9307    0.0000 C   0  0  0  0  0  0           0  0  0
   18.9859   -1.9097    0.0000 N   0  0  0  0  0  0           0  0  0
   17.7670   -2.6555    0.0000 O   0  0  0  0  0  0           0  0  0
   19.4164   -2.6135    0.0000 C   0  0  0  0  0  0           0  0  0
   19.0200   -3.3371    0.0000 C   0  0  0  0  0  0           0  0  0
   19.4498   -4.0404    0.0000 C   0  0  0  0  0  0           0  0  0
   20.2754   -4.0198    0.0000 C   0  0  0  0  0  0           0  0  0
   20.6693   -3.2900    0.0000 C   0  0  0  0  0  0           0  0  0
   20.2372   -2.5898    0.0000 C   0  0  0  0  0  0           0  0  0
   15.7324    0.4946    0.0000 C   0  0  0  0  0  0           0  0  0
   21.4940   -3.2661    0.0000 C   0  0  0  0  0  0           0  0  0
   21.9270   -3.9684    0.0000 O   0  0  0  0  0  0           0  0  0
   21.8856   -2.5400    0.0000 O   0  0  0  0  0  0           0  0  0
   15.5899   -3.0268    0.0000 C   0  0  3  0  0  0           0  0  0
   14.8071   -3.2841    0.0000 C   0  0  0  0  0  0           0  0  0
   14.6417   -4.0887    0.0000 C   0  0  0  0  0  0           0  0  0
   15.2572   -4.6386    0.0000 C   0  0  0  0  0  0           0  0  0
   16.0410   -4.3781    0.0000 C   0  0  0  0  0  0           0  0  0
   16.2093   -3.5677    0.0000 C   0  0  0  0  0  0           0  0  0
   15.0010    0.8763    0.0000 C   0  0  0  0  0  0           0  0  0
   14.3047    0.4338    0.0000 O   0  0  0  0  0  0           0  0  0
   14.9659    1.7006    0.0000 C   0  0  0  0  0  0           0  0  0
   15.6612    2.1401    0.0000 C   0  0  0  0  0  0           0  0  0
   15.6264    2.9636    0.0000 C   0  0  0  0  0  0           0  0  0
   14.8945    3.3461    0.0000 C   0  0  0  0  0  0           0  0  0
   14.1960    2.8990    0.0000 C   0  0  0  0  0  0           0  0  0
   14.2342    2.0770    0.0000 C   0  0  0  0  0  0           0  0  0
   13.5401    1.6312    0.0000 C   0  0  0  0  0  0           0  0  0
 19 20  2  0     0  0
  9 10  1  0     0  0
 20 21  1  0     0  0
 10 11  1  0     0  0
 21 22  2  0     0  0
 22 17  1  0     0  0
 11  7  1  0     0  0
 10 23  1  0     0  0
  8  9  1  0     0  0
 21 24  1  0     0  0
  2  3  1  0     0  0
 24 25  2  0     0  0
 11 12  2  0     0  0
 24 26  1  0     0  0
  3  8  2  0     0  0
  5 27  1  0     0  0
 27 28  1  0     0  0
  7 13  1  0     0  0
  1  2  2  0     0  0
 13 14  1  0     0  0
  9  4  2  0     0  0
 14 15  1  0     0  0
 27 32  1  0     0  0
 28 29  1  0     0  0
 29 30  1  0     0  0
 30 31  1  0     0  0
 31 32  1  0     0  0
  4  1  1  0     0  0
 23 33  1  0     0  0
 14 16  2  0     0  0
 33 34  2  0     0  0
 33 35  1  0     0  0
 15 17  1  0     0  0
 35 36  2  0     0  0
  5  6  2  0     0  0
 36 37  1  0     0  0
 17 18  2  0     0  0
 37 38  2  0     0  0
  6  7  1  0     0  0
 38 39  1  0     0  0
 18 19  1  0     0  0
 39 40  2  0     0  0
 40 35  1  0     0  0
  5  8  1  0     0  0
 40 41  1  0     0  0
M  END