
          11280714462D 1   1.00000     0.00000     0

 28 31  0     0  0            999 V2000
    9.9542   -0.6792    0.0000 C   0  0  0  0  0  0           0  0  0
    9.2500   -1.1000    0.0000 C   0  0  0  0  0  0           0  0  0
   10.6750   -1.0917    0.0000 C   0  0  0  0  0  0           0  0  0
    8.5375   -0.6875    0.0000 N   0  0  0  0  0  0           0  0  0
   11.3792   -0.6750    0.0000 C   0  0  0  0  0  0           0  0  0
    9.9542    0.1333    0.0000 C   0  0  0  0  0  0           0  0  0
   10.6792   -1.9167    0.0000 N   0  0  0  0  0  0           0  0  0
    2.8250   -2.3500    0.0000 N   0  0  3  0  0  0           0  0  0
   11.3750    0.1458    0.0000 C   0  0  0  0  0  0           0  0  0
    7.8250   -1.1042    0.0000 C   0  0  0  0  0  0           0  0  0
    9.2500   -1.9250    0.0000 C   0  0  0  0  0  0           0  0  0
   10.6542    0.5500    0.0000 C   0  0  0  0  0  0           0  0  0
    9.9667   -2.3292    0.0000 C   0  0  0  0  0  0           0  0  0
    6.3917   -1.9292    0.0000 C   0  0  0  0  0  0           0  0  0
   12.0875    0.5625    0.0000 Cl  0  0  0  0  0  0           0  0  0
    7.8250   -1.9292    0.0000 C   0  0  0  0  0  0           0  0  0
    7.1042   -0.6917    0.0000 C   0  0  0  0  0  0           0  0  0
    7.1125   -2.3417    0.0000 C   0  0  0  0  0  0           0  0  0
    6.3917   -1.1042    0.0000 C   0  0  0  0  0  0           0  0  0
    3.5417   -1.9292    0.0000 C   0  0  0  0  0  0           0  0  0
    4.2542   -2.3417    0.0000 C   0  0  0  0  0  0           0  0  0
    5.6792   -2.3417    0.0000 O   0  0  0  0  0  0           0  0  0
    2.1042   -1.9375    0.0000 C   0  0  0  0  0  0           0  0  0
    2.8250   -3.1792    0.0000 C   0  0  0  0  0  0           0  0  0
    4.9667   -1.9292    0.0000 C   0  0  0  0  0  0           0  0  0
    2.1042   -3.5917    0.0000 C   0  0  0  0  0  0           0  0  0
    1.3917   -2.3500    0.0000 C   0  0  0  0  0  0           0  0  0
    1.3917   -3.1792    0.0000 C   0  0  0  0  0  0           0  0  0
  2  1  1  0     0  0
  3  1  2  0     0  0
  4  2  1  0     0  0
  5  3  1  0     0  0
  6  1  1  0     0  0
  7  3  1  0     0  0
  8 20  1  0     0  0
  9 12  1  0     0  0
 10  4  1  0     0  0
 11  2  2  0     0  0
 12  6  2  0     0  0
 13  7  2  0     0  0
 14 19  1  0     0  0
 15  9  1  0     0  0
 16 10  2  0     0  0
 17 10  1  0     0  0
 18 16  1  0     0  0
 19 17  2  0     0  0
 20 21  1  0     0  0
 21 25  1  0     0  0
 22 14  1  0     0  0
 23  8  1  0     0  0
 24  8  1  0     0  0
 25 22  1  0     0  0
 26 24  1  0     0  0
 27 23  1  0     0  0
 28 26  1  0     0  0
  9  5  2  0     0  0
 13 11  1  0     0  0
 14 18  2  0     0  0
 28 27  1  0     0  0
M  END