
          11280715082D 1   1.00000     0.00000     0

 26 28  0     0  0            999 V2000
   -3.5458   -2.2917    0.0000 N   0  0  3  0  0  0           0  0  0
   -2.8333   -2.7042    0.0000 C   0  0  0  0  0  0           0  0  0
   -2.8333   -3.5292    0.0000 C   0  0  0  0  0  0           0  0  0
   -0.6875   -2.2917    0.0000 C   0  0  0  0  0  0           0  0  0
    0.0000   -1.8250    0.0000 C   0  0  0  0  0  0           0  0  0
   -3.5458   -3.9417    0.0000 C   0  0  3  0  0  0           0  0  0
   -4.2583   -2.7042    0.0000 C   0  0  0  0  0  0           0  0  0
    2.7500    0.0375    0.0000 C   0  0  0  0  0  0           0  0  0
   -2.1208   -3.9417    0.0000 C   0  0  0  0  0  0           0  0  0
   -2.1208   -2.2917    0.0000 C   0  0  0  0  0  0           0  0  0
    2.0667   -0.4292    0.0000 C   0  0  0  0  0  0           0  0  0
   -4.2583   -3.5292    0.0000 C   0  0  0  0  0  0           0  0  0
   -1.4000   -2.7042    0.0000 C   0  0  0  0  0  0           0  0  0
   -3.5375   -1.4667    0.0000 C   0  0  3  0  0  0           0  0  0
    2.6875    0.8583    0.0000 O   0  0  0  0  0  0           0  0  0
    0.6917   -1.3542    0.0000 C   0  0  0  0  0  0           0  0  0
    2.1250   -1.2542    0.0000 C   0  0  0  0  0  0           0  0  0
    1.3125   -0.0667    0.0000 C   0  0  0  0  0  0           0  0  0
   -1.4000   -3.5292    0.0000 C   0  0  0  0  0  0           0  0  0
    3.4917   -0.3250    0.0000 O   0  0  0  0  0  0           0  0  0
    1.4375   -1.7250    0.0000 C   0  0  0  0  0  0           0  0  0
    0.6292   -0.5292    0.0000 C   0  0  0  0  0  0           0  0  0
   -2.9583   -4.5292    0.0000 C   0  0  0  0  0  0           0  0  0
   -4.3458   -4.1625    0.0000 C   0  0  0  0  0  0           0  0  0
   -2.8208   -1.0542    0.0000 C   0  0  0  0  0  0           0  0  0
   -4.2500   -1.0542    0.0000 C   0  0  0  0  0  0           0  0  0
  2  1  1  0     0  0
  3  2  2  0     0  0
  4 13  1  0     0  0
  5  4  3  0     0  0
  6 12  1  0     0  0
  7  1  1  0     0  0
  8 11  1  0     0  0
  9  3  1  0     0  0
 10  2  1  0     0  0
 11 18  1  0     0  0
 12  7  1  0     0  0
 13 10  2  0     0  0
 14  1  1  0     0  0
 15  8  2  0     0  0
 16  5  1  0     0  0
 17 21  1  0     0  0
 18 22  2  0     0  0
 19 13  1  0     0  0
 20  8  1  0     0  0
 21 16  2  0     0  0
 22 16  1  0     0  0
 23  6  1  0     0  0
 24  6  1  0     0  0
 25 14  1  0     0  0
 26 14  1  0     0  0
  3  6  1  0     0  0
  9 19  2  0     0  0
 17 11  2  0     0  0
M  END