
  SciTegic10311217562D

 42 38  0  0  0  0            999 V2000
   -0.1625    0.8792    0.0000 Na  0  3
    0.9500   -1.7625    0.0000 C   0  0  2  0  0  0
    0.9500   -2.5875    0.0000 C   0  0  1  0  0  0
    1.6620   -2.9958    0.0000 C   0  0  2  0  0  0
    2.3740   -2.5875    0.0000 O   0  0
    2.3740   -1.7625    0.0000 C   0  0  1  0  0  0
    1.6620   -1.3458    0.0000 C   0  0  1  0  0  0
    3.0897   -1.3521    0.0000 C   0  0
    0.2343   -1.3521    0.0000 O   0  0
    0.2361   -3.0010    0.0000 O   0  0
    1.6620   -0.5208    0.0000 O   0  0
    1.6620   -3.8208    0.0000 O   0  0
    3.8029   -1.7667    0.0000 N   0  0
    2.3765   -4.2333    0.0000 C   0  0
    4.5186   -1.3563    0.0000 C   0  0
    5.2319   -1.7709    0.0000 C   0  0
    4.5210   -0.5313    0.0000 O   0  0
    5.9476   -1.3605    0.0000 N   0  0
    6.6608   -1.7751    0.0000 C   0  0
    7.3765   -1.3647    0.0000 O   0  0
    0.9475   -0.1083    0.0000 S   0  0
    0.2330   -0.5208    0.0000 O   0  5
    0.5291    0.6083    0.0000 O   0  0
    1.3541    0.6083    0.0000 O   0  0
   -0.4790   -1.7667    0.0000 S   0  0
   -1.1946   -1.3563    0.0000 O   0  5
   -0.8959   -2.4792    0.0000 O   0  0
   -0.0709   -2.4792    0.0000 O   0  0
    0.2373   -3.8260    0.0000 S   0  0
   -0.4766   -4.2396    0.0000 O   0  5
    1.0583   -3.8250    0.0000 O   0  0
    0.6416   -4.5375    0.0000 O   0  0
    5.9488   -0.5378    0.0000 C   0  0
    6.6584   -2.6001    0.0000 C   0  0
    6.6639   -0.1264    0.0000 C   0  0
    7.3717   -3.0146    0.0000 C   0  0
    7.3692   -3.8396    0.0000 C   0  0
    8.0825   -4.2542    0.0000 O   0  5
    6.6536   -4.2500    0.0000 O   0  0
   -1.9417   -0.9000    0.0000 Na  0  3
   -1.5667   -5.4917    0.0000 Na  0  3
    9.3958   -4.3958    0.0000 Na  0  3
 21 22  1  0
  4  5  1  0
  4 12  1  6
 21 23  2  0
  5  6  1  0
 21 24  2  0
  8 13  1  0
  9 25  1  0
  6  7  1  0
 25 26  1  0
 12 14  1  0
 25 27  2  0
 25 28  2  0
 13 15  1  0
  6  8  1  1
 10 29  1  0
 15 16  1  0
 29 30  1  0
  2  3  1  0
 29 31  2  0
 15 17  2  0
 29 32  2  0
  2  9  1  1
 16 18  1  0
 18 33  1  0
  2  7  1  0
 19 34  1  0
 18 19  1  0
 33 35  1  0
  3 10  1  1
 34 36  1  0
 19 20  2  0
 36 37  1  0
  3  4  1  0
 37 38  1  0
 11 21  1  0
 37 39  2  0
  7 11  1  6
M  CHG  8   1   1  22  -1  26  -1  30  -1  38  -1  40   1  41   1  42   1
M  END