
  Mrv0541 04051115152D          

 31 32  0  0  0  0            999 V2000
   -1.5208    0.0496    0.0000 O   0  0  0  0  0  0  0  0  0  0  0  0
   -1.5208   -0.7754    0.0000 S   0  0  0  0  0  0  0  0  0  0  0  0
   -2.3458   -0.7754    0.0000 O   0  0  0  0  0  0  0  0  0  0  0  0
   -1.5208   -1.6004    0.0000 C   0  0  0  0  0  0  0  0  0  0  0  0
   -0.8063   -2.0129    0.0000 C   0  0  0  0  0  0  0  0  0  0  0  0
   -0.8063   -2.8379    0.0000 C   0  0  0  0  0  0  0  0  0  0  0  0
   -1.5208   -3.2504    0.0000 C   0  0  0  0  0  0  0  0  0  0  0  0
   -2.2353   -2.8379    0.0000 C   0  0  0  0  0  0  0  0  0  0  0  0
   -2.2353   -2.0129    0.0000 C   0  0  0  0  0  0  0  0  0  0  0  0
   -0.6958   -0.7754    0.0000 N   0  0  0  0  0  0  0  0  0  0  0  0
   -0.2833   -1.4899    0.0000 C   0  0  0  0  0  0  0  0  0  0  0  0
    0.5417   -1.4899    0.0000 C   0  0  0  0  0  0  0  0  0  0  0  0
    0.5417   -2.3149    0.0000 F   0  0  0  0  0  0  0  0  0  0  0  0
    0.5417   -0.6649    0.0000 F   0  0  0  0  0  0  0  0  0  0  0  0
    1.3667   -1.4899    0.0000 F   0  0  0  0  0  0  0  0  0  0  0  0
   -0.2833   -0.0609    0.0000 C   0  0  0  0  0  0  0  0  0  0  0  0
   -0.6958    0.6535    0.0000 C   0  0  0  0  0  0  0  0  0  0  0  0
   -0.2833    1.3680    0.0000 C   0  0  0  0  0  0  0  0  0  0  0  0
    0.5417   -0.0609    0.0000 C   0  0  0  0  0  0  0  0  0  0  0  0
    0.9542    0.6535    0.0000 C   0  0  0  0  0  0  0  0  0  0  0  0
    0.5417    1.3680    0.0000 C   0  0  0  0  0  0  0  0  0  0  0  0
    0.9542    2.0825    0.0000 C   0  0  0  0  0  0  0  0  0  0  0  0
    0.2397    2.4950    0.0000 C   0  0  0  0  0  0  0  0  0  0  0  0
   -0.4747    2.9075    0.0000 F   0  0  0  0  0  0  0  0  0  0  0  0
    0.6522    3.2095    0.0000 F   0  0  0  0  0  0  0  0  0  0  0  0
   -0.1728    1.7805    0.0000 F   0  0  0  0  0  0  0  0  0  0  0  0
    1.3667    2.7970    0.0000 O   0  0  0  0  0  0  0  0  0  0  0  0
    1.6687    1.6700    0.0000 C   0  0  0  0  0  0  0  0  0  0  0  0
    2.3832    1.2575    0.0000 F   0  0  0  0  0  0  0  0  0  0  0  0
    1.2562    0.9555    0.0000 F   0  0  0  0  0  0  0  0  0  0  0  0
    2.0812    2.3845    0.0000 F   0  0  0  0  0  0  0  0  0  0  0  0
  1  2  2  0  0  0  0
  3  2  2  0  0  0  0
  4  2  1  0  0  0  0
 10  2  1  0  0  0  0
  4  5  2  0  0  0  0
  4  9  1  0  0  0  0
  5  6  1  0  0  0  0
  6  7  2  0  0  0  0
  7  8  1  0  0  0  0
  8  9  2  0  0  0  0
 11 10  1  0  0  0  0
 16 10  1  0  0  0  0
 11 12  1  0  0  0  0
 12 13  1  0  0  0  0
 12 14  1  0  0  0  0
 12 15  1  0  0  0  0
 16 17  2  0  0  0  0
 16 19  1  0  0  0  0
 17 18  1  0  0  0  0
 18 21  2  0  0  0  0
 20 19  2  0  0  0  0
 21 20  1  0  0  0  0
 21 22  1  0  0  0  0
 22 23  1  0  0  0  0
 22 27  1  0  0  0  0
 22 28  1  0  0  0  0
 23 24  1  0  0  0  0
 23 25  1  0  0  0  0
 23 26  1  0  0  0  0
 28 29  1  0  0  0  0
 28 30  1  0  0  0  0
 28 31  1  0  0  0  0
M  END