
          11280714522D 1   1.00000     0.00000     0

 28 31  0     0  0            999 V2000
    8.7375   -5.8292    0.0000 C   0  0  0  0  0  0           0  0  0
    8.0167   -5.4167    0.0000 O   0  0  0  0  0  0           0  0  0
    7.3042   -5.8375    0.0000 C   0  0  0  0  0  0           0  0  0
    9.4417   -5.4167    0.0000 C   0  0  0  0  0  0           0  0  0
    7.3042   -6.6625    0.0000 C   0  0  0  0  0  0           0  0  0
    8.7375   -6.6542    0.0000 C   0  0  0  0  0  0           0  0  0
    8.0167   -7.0750    0.0000 C   0  0  0  0  0  0           0  0  0
    9.4417   -4.5917    0.0000 C   0  0  0  0  0  0           0  0  0
    6.5917   -5.4250    0.0000 C   0  0  0  0  0  0           0  0  0
    8.0250   -7.9000    0.0000 O   0  0  0  0  0  0           0  0  0
    8.7250   -4.1792    0.0000 O   0  0  0  0  0  0           0  0  0
    5.8792   -5.8375    0.0000 C   0  0  0  0  0  0           0  0  0
    6.5917   -4.5917    0.0000 C   0  0  0  0  0  0           0  0  0
    4.4542   -4.1792    0.0000 O   0  0  0  0  0  0           0  0  0
   10.1542   -4.1750    0.0000 O   0  0  0  0  0  0           0  0  0
    5.1667   -4.5917    0.0000 C   0  0  0  0  0  0           0  0  0
   10.1625   -5.8250    0.0000 C   0  0  0  0  0  0           0  0  0
    9.4542   -7.0667    0.0000 C   0  0  0  0  0  0           0  0  0
    3.6292   -4.2042    0.0000 C   0  0  0  0  0  0           0  0  0
    5.1667   -5.4167    0.0000 C   0  0  0  0  0  0           0  0  0
    5.8875   -4.1792    0.0000 C   0  0  0  0  0  0           0  0  0
    3.1917   -3.5125    0.0000 C   0  0  0  0  0  0           0  0  0
   10.1667   -6.6542    0.0000 C   0  0  0  0  0  0           0  0  0
    3.5792   -2.8000    0.0000 C   0  0  0  0  0  0           0  0  0
    2.3750   -3.5542    0.0000 C   0  0  0  0  0  0           0  0  0
    1.9375   -2.8667    0.0000 C   0  0  0  0  0  0           0  0  0
    3.1417   -2.1042    0.0000 C   0  0  0  0  0  0           0  0  0
    2.3167   -2.1375    0.0000 C   0  0  0  0  0  0           0  0  0
  2  1  1  0     0  0
  3  2  1  0     0  0
  4  1  1  0     0  0
  5  7  1  0     0  0
  6  1  2  0     0  0
  7  6  1  0     0  0
  8  4  1  0     0  0
  9  3  1  0     0  0
 10  7  2  0     0  0
 11  8  2  0     0  0
 12  9  2  0     0  0
 13  9  1  0     0  0
 14 16  1  0     0  0
 15  8  1  0     0  0
 16 21  1  0     0  0
 17  4  2  0     0  0
 18  6  1  0     0  0
 19 14  1  0     0  0
 20 12  1  0     0  0
 21 13  2  0     0  0
 22 19  1  0     0  0
 23 18  2  0     0  0
 24 22  2  0     0  0
 25 22  1  0     0  0
 26 25  2  0     0  0
 27 24  1  0     0  0
 28 26  1  0     0  0
 23 17  1  0     0  0
  5  3  2  0     0  0
 16 20  2  0     0  0
 28 27  2  0     0  0
M  END