
  SciTegic06271217572D

 41 45  0  0  0  0            999 V2000
   11.2819  -21.9583    0.0000 C   0  0
   12.7120  -22.7852    0.0000 C   0  0
   12.7091  -21.9547    0.0000 C   0  0
   11.9938  -21.5455    0.0000 C   0  0
   11.9956  -23.1985    0.0000 C   0  0
   11.2807  -22.7857    0.0000 C   0  0
   10.5679  -23.1982    0.0000 C   0  0
   10.5687  -24.0234    0.0000 C   0  0
   11.2882  -24.4344    0.0000 C   0  0
   11.9981  -24.0195    0.0000 C   0  0
   13.4271  -23.1966    0.0000 C   0  0
   14.1409  -22.7829    0.0000 C   0  0
   14.8561  -23.1943    0.0000 C   0  0
   14.8574  -24.0193    0.0000 C   0  0
   15.5725  -24.4307    0.0000 O   0  0
   14.1435  -24.4329    0.0000 O   0  0
   14.1396  -21.9579    0.0000 N   0  0
   14.8535  -21.5443    0.0000 C   0  0
   14.8522  -20.7193    0.0000 O   0  0
   15.5686  -21.9557    0.0000 C   0  0
   16.2824  -21.5421    0.0000 C   0  0
   17.0335  -21.8746    0.0000 C   0  0
   17.5846  -21.2606    0.0000 N   0  0
   16.3643  -20.7197    0.0000 C   0  0
   17.1688  -20.5499    0.0000 C   0  0
   17.4225  -19.7697    0.0000 C   0  0
   16.8727  -19.1587    0.0000 C   0  0
   16.0660  -19.3330    0.0000 C   0  0
   15.8160  -20.1129    0.0000 C   0  0
   17.2065  -22.6812    0.0000 C   0  0
   18.4054  -21.3439    0.0000 C   0  0
   18.7437  -22.0963    0.0000 C   0  0
   18.8878  -20.6747    0.0000 O   0  0
   18.2569  -22.7632    0.0000 C   0  0
   18.5946  -23.5151    0.0000 C   0  0
   19.4162  -23.5989    0.0000 C   0  0
   19.8991  -22.9247    0.0000 C   0  0
   19.5587  -22.1755    0.0000 C   0  0
   19.7555  -24.3509    0.0000 Cl  0  0
   15.5117  -18.7219    0.0000 O   0  0
   15.7637  -17.9364    0.0000 C   0  0
 18 20  1  0
  9 10  2  0
 20 21  1  0
 21 22  2  0
 10  5  1  0
  5  2  2  0
 22 23  1  0
 23 25  1  0
 24 21  1  0
  2 11  1  0
  1  6  2  0
 24 25  2  0
 11 12  1  0
 25 26  1  0
  5  6  1  0
 26 27  2  0
 12 13  1  0
 27 28  1  0
  2  3  1  0
 28 29  2  0
 29 24  1  0
 13 14  1  0
 22 30  1  0
  6  7  1  0
 23 31  1  0
 14 15  1  0
 31 32  1  0
 31 33  2  0
 14 16  2  0
 32 34  2  0
  7  8  2  0
 34 35  1  0
 12 17  1  0
 35 36  2  0
  3  4  2  0
 36 37  1  0
 17 18  1  0
 37 38  2  0
 38 32  1  0
  8  9  1  0
 36 39  1  0
 18 19  2  0
 28 40  1  0
  4  1  1  0
 40 41  1  0
M  END