
  Mrv0541 05211314572D          

 32 35  0  0  0  0            999 V2000
    1.6111  -10.1623    0.0000 C   0  0  0  0  0  0  0  0  0  0  0  0
    1.6111   -9.3373    0.0000 C   0  0  0  0  0  0  0  0  0  0  0  0
    0.8967   -8.9248    0.0000 C   0  0  0  0  0  0  0  0  0  0  0  0
    0.8967  -10.5748    0.0000 C   0  0  0  0  0  0  0  0  0  0  0  0
   -0.6024  -10.4173    0.0000 N   0  0  0  0  0  0  0  0  0  0  0  0
    0.1822  -10.1623    0.0000 C   0  0  0  0  0  0  0  0  0  0  0  0
    0.1822   -9.3373    0.0000 C   0  0  0  0  0  0  0  0  0  0  0  0
   -0.6024   -9.0824    0.0000 N   0  0  0  0  0  0  0  0  0  0  0  0
   -1.0873   -9.7498    0.0000 C   0  0  0  0  0  0  0  0  0  0  0  0
   -1.9123   -9.7498    0.0000 N   0  0  0  0  0  0  0  0  0  0  0  0
   -2.3248  -10.4643    0.0000 C   0  0  0  0  0  0  0  0  0  0  0  0
   -3.1498  -10.4643    0.0000 C   0  0  0  0  0  0  0  0  0  0  0  0
   -3.5623  -11.1788    0.0000 C   0  0  0  0  0  0  0  0  0  0  0  0
   -3.1498  -11.8933    0.0000 C   0  0  0  0  0  0  0  0  0  0  0  0
   -2.3248  -11.8933    0.0000 C   0  0  0  0  0  0  0  0  0  0  0  0
   -1.9123  -11.1788    0.0000 C   0  0  0  0  0  0  0  0  0  0  0  0
   -0.8574   -8.2978    0.0000 C   0  0  0  0  0  0  0  0  0  0  0  0
   -0.3053   -7.6847    0.0000 C   0  0  0  0  0  0  0  0  0  0  0  0
   -0.5603   -6.9001    0.0000 C   0  0  0  0  0  0  0  0  0  0  0  0
   -0.0082   -6.2870    0.0000 C   0  0  0  0  0  0  0  0  0  0  0  0
    0.7987   -6.4585    0.0000 C   0  0  0  0  0  0  0  0  0  0  0  0
    1.0537   -7.2431    0.0000 C   0  0  0  0  0  0  0  0  0  0  0  0
    0.5016   -7.8562    0.0000 C   0  0  0  0  0  0  0  0  0  0  0  0
   -1.3672   -6.7285    0.0000 C   0  0  0  0  0  0  0  0  0  0  0  0
   -2.1742   -6.5570    0.0000 F   0  0  0  0  0  0  0  0  0  0  0  0
   -1.1957   -5.9216    0.0000 F   0  0  0  0  0  0  0  0  0  0  0  0
   -1.5388   -7.5355    0.0000 F   0  0  0  0  0  0  0  0  0  0  0  0
    2.3256  -10.5748    0.0000 C   0  0  0  0  0  0  0  0  0  0  0  0
    3.0401  -10.1623    0.0000 O   0  0  0  0  0  0  0  0  0  0  0  0
    2.3256  -11.3998    0.0000 O   0  0  0  0  0  0  0  0  0  0  0  0
   -3.5623  -12.6077    0.0000 O   0  0  0  0  0  0  0  0  0  0  0  0
   -3.1498  -13.3222    0.0000 C   0  0  0  0  0  0  0  0  0  0  0  0
  6  4  2  0  0  0  0
 15 16  2  0  0  0  0
 16 11  1  0  0  0  0
  5  6  1  0  0  0  0
  8 17  1  0  0  0  0
  7  8  1  0  0  0  0
 17 18  1  0  0  0  0
  8  9  1  0  0  0  0
 18 19  2  0  0  0  0
  9  5  2  0  0  0  0
 19 20  1  0  0  0  0
  4  1  1  0  0  0  0
 20 21  2  0  0  0  0
  9 10  1  0  0  0  0
 21 22  1  0  0  0  0
  6  7  1  0  0  0  0
 22 23  2  0  0  0  0
 23 18  1  0  0  0  0
 10 11  1  0  0  0  0
 19 24  1  0  0  0  0
 24 25  1  0  0  0  0
 11 12  2  0  0  0  0
 24 26  1  0  0  0  0
  2  3  1  0  0  0  0
 24 27  1  0  0  0  0
 12 13  1  0  0  0  0
  1 28  1  0  0  0  0
  3  7  2  0  0  0  0
 28 29  2  0  0  0  0
 13 14  2  0  0  0  0
 28 30  1  0  0  0  0
  1  2  2  0  0  0  0
 14 31  1  0  0  0  0
 14 15  1  0  0  0  0
 31 32  1  0  0  0  0
M  END