
  SciTegic11281211512D

 32 34  0  0  1  0            999 V2000
   -0.2087   -0.2421    0.0000 N   0  0
   -0.9224    0.1753    0.0000 C   0  0
    0.7179    0.9015    0.0000 C   0  0
   -1.6403   -0.2379    0.0000 C   0  0  1  0  0  0
   -2.3540    0.1753    0.0000 N   0  0
    0.5426    0.0960    0.0000 C   0  0  2  0  0  0
   -3.0761   -0.2379    0.0000 C   0  0
    1.5026    1.1603    0.0000 N   0  0
    2.3207    1.1603    0.0000 C   0  0  2  0  0  0
    2.7422    0.4508    0.0000 C   0  0
   -1.6403   -1.0643    0.0000 C   0  0
   -0.9224    1.0017    0.0000 O   0  0
    0.1044    1.4525    0.0000 O   0  0
   -3.0761   -1.0643    0.0000 O   0  0
    3.5603    0.4466    0.0000 C   0  0
   -3.7898    0.1836    0.0000 C   0  0  1  0  0  0
   -0.1335   -1.0643    0.0000 C   0  0
   -4.5035   -0.2296    0.0000 N   0  0
    1.0936   -0.5176    0.0000 C   0  0
    2.7339    1.8782    0.0000 C   0  0
    0.6804   -1.2396    0.0000 C   0  0
    3.5603    1.8782    0.0000 C   0  0
    2.3332   -0.2546    0.0000 C   0  0
   -2.3624   -1.4775    0.0000 C   0  0
   -0.9266   -1.4775    0.0000 C   0  0
   -1.6486   -1.8908    0.0000 C   0  0
    3.9735    1.1603    0.0000 C   0  0
    3.9693   -0.2546    0.0000 C   0  0
   -5.2173    0.1836    0.0000 C   0  0
   -3.7815    1.0017    0.0000 C   0  0
    2.7422   -0.9642    0.0000 C   0  0
    3.5603   -0.9642    0.0000 C   0  0
  2  1  1  0
  6  3  1  6
  4  2  1  0
  5  4  1  0
  6  1  1  0
  7  5  1  0
  8  3  1  0
  9  8  1  1
 10  9  1  0
  4 11  1  6
 12  2  2  0
 13  3  2  0
 14  7  2  0
 15 10  2  0
 16  7  1  0
 17  1  1  0
 18 16  1  0
 19  6  1  0
 20  9  1  0
 21 17  1  0
 22 20  1  0
 23 10  1  0
 24 11  1  0
 25 11  1  0
 26 11  1  0
 27 22  1  0
 28 15  1  0
 29 18  1  0
 16 30  1  1
 31 23  2  0
 32 31  1  0
 19 21  1  0
 15 27  1  0
 28 32  2  0
M  END