
  SciTegic10301317112D

 30 30  0  0  0  0            999 V2000
    2.1296   -3.0298    0.0000 S   0  0
    5.4302   -3.0173    0.0000 C   0  0
    2.9631   -3.0298    0.0000 C   0  0
   10.9438   -6.3804    0.0000 C   0  0
    9.7060   -5.6761    0.0000 N   0  0
    9.2184   -5.0051    0.0000 C   0  0
    5.8428   -3.7299    0.0000 N   0  0
   10.5312   -5.6678    0.0000 C   0  0  1  0  0  0
    2.1296   -3.8549    0.0000 O   0  0
    2.1296   -2.2046    0.0000 O   0  0
    7.0888   -4.4300    0.0000 C   0  0
   12.1690   -4.2300    0.0000 C   0  0
    4.6051   -3.0173    0.0000 C   0  0
    1.3127   -3.0256    0.0000 N   0  0
    7.9140   -4.4300    0.0000 N   0  0
    5.8386   -2.3004    0.0000 O   0  0
   10.5395   -7.0930    0.0000 O   0  0
    9.5560   -4.2550    0.0000 O   0  0
    6.6805   -5.1510    0.0000 O   0  0
   12.9942   -4.2258    0.0000 O   0  0
    3.3631   -2.3171    0.0000 C   0  0
    3.3756   -3.7424    0.0000 C   0  0
    4.1925   -3.7382    0.0000 C   0  0
    4.1800   -2.3046    0.0000 C   0  0
   10.9396   -4.9509    0.0000 C   0  0
    6.6680   -3.7174    0.0000 C   0  0
    8.4016   -5.0927    0.0000 C   0  0
   11.7647   -4.9426    0.0000 C   0  0
   11.7564   -3.5174    0.0000 N   0  0
   11.7689   -6.3762    0.0000 O   0  0
  2 13  1  0
  3  1  1  0
  4  8  1  0
  5  6  1  0
  6 27  1  0
  7  2  1  0
  8  5  1  0
  9  1  2  0
 10  1  2  0
 11 26  1  0
 12 28  1  0
 13 23  2  0
 14  1  1  0
 15 11  1  0
 16  2  2  0
 17  4  2  0
 18  6  2  0
 19 11  2  0
 20 12  2  0
 21  3  1  0
 22  3  2  0
 23 22  1  0
 24 21  2  0
  8 25  1  1
 26  7  1  0
 27 15  1  0
 28 25  1  0
 29 12  1  0
 30  4  1  0
 13 24  1  0
M  END