
  SciTegic10311316262D

 29 31  0  0  0  0            999 V2000
   14.0347  -31.4665    0.0000 C   0  0
   14.0335  -32.2939    0.0000 C   0  0
   14.7483  -32.7068    0.0000 C   0  0
   15.4648  -32.2934    0.0000 C   0  0
   15.4619  -31.4629    0.0000 C   0  0
   14.7465  -31.0538    0.0000 C   0  0
   16.1748  -31.0477    0.0000 N   0  0
   16.8908  -31.4575    0.0000 C   0  0
   17.6037  -31.0423    0.0000 C   0  0
   16.8939  -32.2825    0.0000 O   0  0
   18.3198  -31.4521    0.0000 S   0  0
   19.0327  -31.0369    0.0000 C   0  0
   19.7486  -31.4499    0.0000 N   0  0
   20.4594  -31.0382    0.0000 C   0  0
   20.4605  -30.2129    0.0000 C   0  0
   19.7446  -29.8009    0.0000 C   0  0
   19.0276  -30.2142    0.0000 N   0  0
   19.7443  -28.9759    0.0000 O   0  0
   21.1757  -29.8047    0.0000 C   0  0
   21.8902  -29.3922    0.0000 N   0  0
   21.1722  -31.4499    0.0000 C   0  0
   21.1708  -32.2760    0.0000 C   0  0
   21.8844  -32.6884    0.0000 C   0  0
   22.5999  -32.2759    0.0000 C   0  0
   22.5972  -31.4466    0.0000 C   0  0
   21.8830  -31.0379    0.0000 C   0  0
   23.3149  -32.6874    0.0000 Cl  0  0
   13.3187  -32.7058    0.0000 C   0  0
   13.3201  -31.0542    0.0000 C   0  0
  1  2  2  0
  2  3  1  0
  3  4  2  0
  4  5  1  0
  5  6  2  0
  6  1  1  0
  5  7  1  0
  7  8  1  0
  8  9  1  0
  8 10  2  0
  9 11  1  0
 11 12  1  0
 12 13  2  0
 12 17  1  0
 13 14  1  0
 14 15  2  0
 15 16  1  0
 16 17  1  0
 16 18  2  0
 19 20  3  0
 15 19  1  0
 21 22  2  0
 22 23  1  0
 23 24  2  0
 24 25  1  0
 25 26  2  0
 26 21  1  0
 14 21  1  0
 24 27  1  0
  2 28  1  0
  1 29  1  0
M  END