
  SciTegic12091611382D

 89 94  0  0  0  0            999 V2000
    9.0582    3.5562    0.0000 N   0  0
    9.1800    4.7500    0.0000 C   0  0  2  0  0  0
    8.0237    6.8146    0.0000 O   0  0
    7.9100    5.6200    0.0000 C   0  0
   10.6100    5.3500    0.0000 C   0  0
   11.8400    4.4400    0.0000 S   0  0
    6.5100    5.0100    0.0000 N   0  0
    5.1200    5.9600    0.0000 C   0  0  2  0  0  0
    3.4472    4.1374    0.0000 O   0  0
    3.5800    5.3300    0.0000 C   0  0
    4.2900    4.9000    0.0000 C   0  0
    6.3500    3.5700    0.0000 C   0  0
    4.7600    3.5000    0.0000 C   0  0
    2.3500    6.1900    0.0000 N   0  0
    0.9500    5.5800    0.0000 C   0  0  1  0  0  0
   -0.3095    3.5692    0.0000 O   0  0
   -0.0182    6.2890    0.0000 C   0  0
    0.7900    4.0500    0.0000 C   0  0
   -1.6421   -6.6435    0.0000 N   0  0
   -2.8967   -7.4670    0.0000 C   0  0
   -3.9684   -6.9272    0.0000 N   0  0
   -2.8288   -8.6651    0.0000 N   0  0
    2.0200    3.1300    0.0000 N   0  0
    0.6600   -2.0000    0.0000 C   0  0  2  0  0  0
    2.8627   -2.2442    0.0000 O   0  0
    2.0000   -2.7500    0.0000 C   0  0
   -0.5573   -2.8231    0.0000 C   0  0
   -0.4723   -4.3215    0.0000 C   0  0
   -1.7270   -5.1450    0.0000 C   0  0
    2.0000   -4.2600    0.0000 N   0  0
    3.3100   -5.0500    0.0000 C   0  0  2  0  0  0
    4.6316   -3.3000    0.0000 O   0  0
    4.6300   -4.3000    0.0000 C   0  0
    6.0100   -5.0900    0.0000 N   0  0
    7.3400   -4.3600    0.0000 C   0  0  2  0  0  0
    8.6474   -6.3199    0.0000 O   0  0
    8.6600   -5.1200    0.0000 C   0  0
    7.8633   -2.9532    0.0000 C   0  0
    6.9074   -1.7962    0.0000 C   0  0
   10.0100   -4.3800    0.0000 N   0  0
   11.3800   -5.1200    0.0000 C   0  0  1  0  0  0
   12.7186   -3.2200    0.0000 O   0  0
   11.3735   -6.3200    0.0000 C   0  0
   12.7100   -4.4200    0.0000 C   0  0
   14.0500   -5.1500    0.0000 N   0  0
   15.3600   -4.4200    0.0000 C   0  0  2  0  0  0
   14.4235   -2.2422    0.0000 O   0  0
   15.4400   -2.8800    0.0000 C   0  0
   16.6261   -5.2263    0.0000 C   0  0
   16.5616   -6.7258    0.0000 C   0  0
   17.5737   -7.3706    0.0000 C   0  0
   15.4974   -7.2802    0.0000 C   0  0
   16.7700   -2.1500    0.0000 N   0  0
   16.8400   -0.6300    0.0000 C   0  0  2  0  0  0
   14.4692   -0.2815    0.0000 O   0  0
   15.5500    0.2400    0.0000 C   0  0
   15.6700    1.7700    0.0000 N   0  0
   14.4000    2.6500    0.0000 C   0  0  1  0  0  0
   14.5000    4.1300    0.0000 C   0  0
   13.0392    2.0169    0.0000 C   0  0
   12.9336    0.8216    0.0000 O   0  0
   13.2600    5.0400    0.0000 S   0  0
    3.2905   -6.5503    0.0000 C   0  0
    1.9816   -7.2846    0.0000 C   0  0
    1.9599   -8.7845    0.0000 C   0  0
    0.6501   -9.5157    0.0000 C   0  0
   -0.6380   -8.7471    0.0000 C   0  0
   -0.6163   -7.2472    0.0000 C   0  0
    0.6934   -6.5160    0.0000 C   0  0
   18.1865    0.0328    0.0000 C   0  0
   19.4342   -0.8012    0.0000 C   0  0
   12.0565    2.7057    0.0000 O   0  0
    7.4284   -0.3895    0.0000 C   0  0
    6.4707    0.7650    0.0000 C   0  0
    4.9920    0.5129    0.0000 N   0  0
    4.4710   -0.8937    0.0000 C   0  0
    5.4287   -2.0482    0.0000 C   0  0
    4.0315    1.6661    0.0000 C   0  0
    4.4463    2.7921    0.0000 N   0  0
    2.8488    1.4627    0.0000 N   0  0
   19.4752   -2.2901    0.0000 C   0  0
   20.8935   -2.6885    0.0000 N   0  0
   20.8187   -0.2755    0.0000 C   0  0
   21.7364   -1.4557    0.0000 C   0  0
   23.2283   -1.2657    0.0000 C   0  0
   23.7946    0.1446    0.0000 C   0  0
   22.8769    1.3248    0.0000 C   0  0
   21.3706    1.1236    0.0000 C   0  0
    4.9965    6.9523    0.0000 H   0  0
  4  7  1  0
 10 14  1  0
 18 23  1  0
 26 30  1  0
 33 34  1  0
 37 40  1  0
 44 45  1  0
 48 53  1  0
 56 57  1  0
 59 62  1  0
  2  1  1  6
  2  4  1  0
  4  3  2  0
  2  5  1  0
  5  6  1  0
  7  8  1  0
  8 10  1  0
 10  9  2  0
  8 11  1  0
 12 13  1  0
 13 11  1  0
 12  7  1  0
 14 15  1  0
 15 18  1  0
 18 16  2  0
 15 17  1  6
 19 20  1  0
 20 21  1  0
 20 22  2  0
 23 24  1  0
 24 26  1  0
 26 25  2  0
 24 27  1  6
 27 28  1  0
 28 29  1  0
 29 19  1  0
 30 31  1  0
 31 33  1  0
 33 32  2  0
 34 35  1  0
 35 37  1  0
 37 36  2  0
 35 38  1  1
 38 39  1  0
 40 41  1  0
 41 44  1  0
 44 42  2  0
 41 43  1  6
 45 46  1  0
 46 48  1  0
 48 47  2  0
 46 49  1  6
 49 50  1  0
 50 51  1  0
 50 52  1  0
 53 54  1  0
 54 56  1  0
 56 55  2  0
 57 58  1  0
 58 59  1  0
 58 60  1  6
 60 61  1  0
 31 63  1  6
 63 64  1  0
 64 65  2  0
 65 66  1  0
 66 67  2  0
 67 68  1  0
 68 69  2  0
 69 64  1  0
 54 70  1  6
 70 71  1  0
 60 72  2  0
  6 62  1  0
 39 73  1  0
 39 77  1  0
 73 74  1  0
 74 75  1  0
 75 76  1  0
 76 77  1  0
 75 78  1  0
 78 79  1  0
 78 80  2  0
 71 81  2  0
 81 82  1  0
 82 84  1  0
 83 71  1  0
 83 84  2  0
 84 85  1  0
 85 86  2  0
 86 87  1  0
 87 88  2  0
 88 83  1  0
  8 89  1  6
M  END