
  SciTegic09081514162D

 31 34  0  0  0  0            999 V2000
   -2.3155    0.7475    0.0000 C   0  0
   -2.3155   -0.7475    0.0000 C   0  0
   -1.0028   -1.5132    0.0000 C   0  0
   -1.0028    1.5132    0.0000 C   0  0
    0.2917    0.7475    0.0000 C   0  0
    0.2917   -0.7475    0.0000 C   0  0
    1.7138   -1.2033    0.0000 N   0  0
    2.5889    0.0182    0.0000 C   0  0
    1.7138    1.2033    0.0000 C   0  0
    2.1812    2.6271    0.0000 C   0  0
    3.6500    2.9355    0.0000 C   0  0  1  0  0  0
    4.1198    4.3609    0.0000 C   0  0
    4.6488    1.8153    0.0000 N   0  0
    5.2947    4.6051    0.0000 O   0  0
    3.1210    5.4811    0.0000 O   0  0
    3.5908    6.9065    0.0000 C   0  0
    2.5920    8.0267    0.0000 C   0  0
    3.0618    9.4521    0.0000 C   0  0
    2.0651   10.5732    0.0000 C   0  0
    2.5376   11.9968    0.0000 C   0  0
    4.0067   12.2995    0.0000 C   0  0
    5.0034   11.1785    0.0000 C   0  0
    4.5310    9.7549    0.0000 C   0  0
    4.1791    0.3899    0.0000 C   0  0
    5.1779   -0.7302    0.0000 C   0  0
    3.2000    0.1865    0.0000 O   0  0
    4.7104   -2.1556    0.0000 C   0  0
    5.7110   -3.2731    0.0000 C   0  0
    7.1791   -2.9654    0.0000 C   0  0
    7.6466   -1.5401    0.0000 C   0  0
    6.6460   -0.4226    0.0000 C   0  0
  1  2  2  0
  2  3  1  0
  3  6  2  0
  5  4  2  0
  4  1  1  0
  5  6  1  0
  6  7  1  0
  7  8  1  0
  8  9  2  0
  9  5  1  0
  9 10  1  0
 11 10  1  1
 11 12  1  0
 11 13  1  0
 12 14  2  0
 12 15  1  0
 15 16  1  0
 16 17  1  0
 17 18  1  0
 18 19  2  0
 19 20  1  0
 20 21  2  0
 21 22  1  0
 22 23  2  0
 23 18  1  0
 13 24  1  0
 24 25  1  0
 24 26  2  0
 25 27  2  0
 27 28  1  0
 28 29  2  0
 29 30  1  0
 30 31  2  0
 31 25  1  0
M  END