
          11280715092D 1   1.00000     0.00000     0

 36 38  0     1  0            999 V2000
   13.0042   -6.1042    0.0000 S   0  0  3  0  0  0           0  0  0
    7.9375   -4.4417    0.0000 C   0  0  0  0  0  0           0  0  0
    7.4542   -5.1167    0.0000 N   0  0  3  0  0  0           0  0  0
    8.7167   -4.7000    0.0000 C   0  0  0  0  0  0           0  0  0
   13.4167   -5.3917    0.0000 N   0  0  0  0  0  0           0  0  0
   13.0125   -4.6792    0.0000 C   0  0  2  0  0  0           0  0  0
    8.7250   -5.5250    0.0000 C   0  0  0  0  0  0           0  0  0
    9.4375   -4.2792    0.0000 C   0  0  0  0  0  0           0  0  0
   10.8667   -4.2792    0.0000 C   0  0  0  0  0  0           0  0  0
    7.9417   -5.7792    0.0000 C   0  0  0  0  0  0           0  0  0
   13.7250   -4.2667    0.0000 C   0  0  0  0  0  0           0  0  0
   10.1542   -4.6917    0.0000 C   0  0  0  0  0  0           0  0  0
   11.5792   -4.6875    0.0000 N   0  0  0  0  0  0           0  0  0
   12.2042   -5.8917    0.0000 O   0  0  0  0  0  0           0  0  0
   13.8000   -6.3167    0.0000 O   0  0  0  0  0  0           0  0  0
    7.6792   -3.6667    0.0000 O   0  0  0  0  0  0           0  0  0
    6.7417   -4.7042    0.0000 C   0  0  0  0  0  0           0  0  0
   12.2917   -4.2750    0.0000 C   0  0  0  0  0  0           0  0  0
   12.5875   -6.8167    0.0000 N   0  0  0  0  0  0           0  0  0
    3.8875   -3.8750    0.0000 N   0  0  0  0  0  0           0  0  0
    9.4375   -5.9375    0.0000 C   0  0  0  0  0  0           0  0  0
   10.8625   -3.4542    0.0000 O   0  0  0  0  0  0           0  0  0
   13.7167   -3.4417    0.0000 O   0  0  0  0  0  0           0  0  0
   10.1542   -5.5250    0.0000 C   0  0  0  0  0  0           0  0  0
   14.4417   -4.6792    0.0000 O   0  0  0  0  0  0           0  0  0
    6.0250   -5.1167    0.0000 C   0  0  0  0  0  0           0  0  0
    5.3125   -4.7042    0.0000 C   0  0  3  0  0  0           0  0  0
    4.6042   -3.4667    0.0000 C   0  0  0  0  0  0           0  0  0
    3.8875   -4.7042    0.0000 C   0  0  0  0  0  0           0  0  0
   12.9917   -7.5375    0.0000 C   0  0  0  0  0  0           0  0  0
    4.6000   -5.1167    0.0000 C   0  0  0  0  0  0           0  0  0
    5.3167   -3.8792    0.0000 C   0  0  0  0  0  0           0  0  0
   12.5667   -8.2417    0.0000 C   0  0  0  0  0  0           0  0  0
   12.9792   -8.9667    0.0000 C   0  0  0  0  0  0           0  0  0
   12.5542   -9.6750    0.0000 C   0  0  0  0  0  0           0  0  0
   12.5917   -5.3917    0.0000 H   0  0  0  0  0  0           0  0  0
  2  4  1  0     0  0
  3  2  1  0     0  0
  4  8  1  0     0  0
  5  1  1  0     0  0
  6  5  1  1     0  0
  7 21  1  0     0  0
  8 12  2  0     0  0
  9 13  1  0     0  0
 10  7  1  0     0  0
 11  6  1  0     0  0
 12  9  1  0     0  0
 13 18  1  0     0  0
 14  1  2  0     0  0
 15  1  2  0     0  0
 16  2  2  0     0  0
 17  3  1  0     0  0
 18  6  1  0     0  0
 19  1  1  0     0  0
 20 28  1  0     0  0
 21 24  2  0     0  0
 22  9  2  0     0  0
 23 11  2  0     0  0
 24 12  1  0     0  0
 25 11  1  0     0  0
 26 17  1  0     0  0
 27 26  1  0     0  0
 28 32  1  0     0  0
 29 31  1  0     0  0
 30 19  1  0     0  0
 31 27  1  0     0  0
 32 27  1  0     0  0
 33 30  1  0     0  0
 34 33  1  0     0  0
 35 34  1  0     0  0
  6 36  1  6     0  0
  4  7  2  0     0  0
  3 10  1  0     0  0
 29 20  1  0     0  0
M  END