
  SciTegic01161211252D

 30 30  0  0  0  0            999 V2000
    5.4375   -2.1417    0.0000 C   0  0
    6.3875   -1.9292    0.0000 C   0  0
    6.9792   -2.2375    0.0000 C   0  0
    5.1167   -1.3792    0.0000 C   0  0
    8.3417   -2.6667    0.0000 S   0  0
    6.2292   -3.5167    0.0000 S   0  0
    3.6375   -1.6250    0.0000 S   0  0
    7.0917   -0.6875    0.0000 S   0  0
    7.5375   -2.8417    0.0000 O   0  0
    6.6667   -1.4625    0.0000 O   0  0
    5.7667   -1.6792    0.0000 C   0  0
    4.4292    0.2125    0.0000 N   0  3
    5.6500   -2.9375    0.0000 O   0  0
    6.3792   -1.1042    0.0000 O   0  0
    4.4292   -1.8625    0.0000 O   0  0
    3.8667    0.7750    0.0000 N   0  5
    4.9917   -0.3500    0.0000 N   0  0
    9.1417   -2.4500    0.0000 O   0  0
    7.8250   -0.3042    0.0000 O   0  0
    6.8167   -4.1042    0.0000 O   0  0
    2.8417   -1.3875    0.0000 O   0  0
    8.1292   -1.8667    0.0000 O   0  0
    8.7542   -3.3792    0.0000 O   0  0
    7.0292   -3.3042    0.0000 O   0  0
    5.4292   -3.7292    0.0000 O   0  0
    7.4667   -1.4167    0.0000 O   0  0
    3.8667   -0.8292    0.0000 O   0  0
    3.3917   -2.4125    0.0000 O   0  0
    6.7125    0.0458    0.0000 O   0  0
    5.5542   -0.9125    0.0000 C   0  0
  2  1  1  0
  3  2  1  0
  4  1  1  0
  5  9  1  0
  6 13  1  0
  7 15  1  0
  8 14  1  0
  9  3  1  0
 10 11  1  0
 11  4  1  0
 12 17  2  0
 13  1  1  0
 14  2  1  0
 15  4  1  0
 16 12  2  0
 17 30  1  0
 18  5  1  0
 19  8  1  0
 20  6  1  0
 21  7  1  0
 22  5  2  0
 23  5  2  0
 24  6  2  0
 25  6  2  0
 26  8  2  0
 27  7  2  0
 28  7  2  0
 29  8  2  0
 30 11  1  0
 10  3  1  0
M  CHG  2  12   1  16  -1
M  END