
  SciTegic04191613082D

187198  0  0  1  0            999 V2000
   -3.9980   16.9426    0.0000 C   0  0
   -5.3959   17.5210    0.0000 C   0  0
   -6.5886   16.6162    0.0000 C   0  0
   -7.9684   17.1969    0.0000 C   0  0
   -9.1611   16.2921    0.0000 C   0  0
   -8.9740   14.8066    0.0000 C   0  0
   -7.5941   14.2258    0.0000 C   0  0
   -6.4015   15.1306    0.0000 C   0  0
   -5.0216   14.5499    0.0000 C   0  0
   -3.8121   15.4566    0.0000 C   0  0
   -2.4282   14.8758    0.0000 C   0  0
   -1.2234   15.7903    0.0000 C   0  0  2  0  0  0
   -1.5225   17.2602    0.0000 N   0  0
   -1.5196   18.7602    0.0000 C   0  0
   -2.7132   18.8839    0.0000 O   0  0
   -1.2148   20.2289    0.0000 C   0  0  1  0  0  0
   -0.6206   21.6062    0.0000 N   0  0
    0.2387   22.8356    0.0000 C   0  0
    1.3148   23.8819    0.0000 C   0  0  2  0  0  0
    2.6037   24.6493    0.0000 C   0  0
    4.0145   25.1589    0.0000 N   0  0
    5.4962   25.3922    0.0000 C   0  0
    5.4231   26.5900    0.0000 O   0  0
    6.9954   25.3410    0.0000 C   0  0
    8.4425   24.9428    0.0000 C   0  0
    9.7879   24.2796    0.0000 C   0  0
   10.9723   23.3592    0.0000 C   0  0
   11.6627   24.0826    0.0000 O   0  0
   11.9472   22.2191    0.0000 N   0  0
   12.6726   20.9062    0.0000 C   0  0
   13.1188   19.4741    0.0000 C   0  0  2  0  0  0
   13.2677   17.9815    0.0000 N   0  0
   13.1131   16.4895    0.0000 C   0  0
   12.6613   15.0592    0.0000 C   0  0  1  0  0  0
   11.9308   13.7491    0.0000 N   0  0
   10.9515   12.6128    0.0000 C   0  0
    9.7636   11.6970    0.0000 C   0  0  2  0  0  0
   10.0764   10.2171    0.0000 C   0  0
   11.2574    9.2910    0.0000 C   0  0
   11.0469    7.8051    0.0000 C   0  0
   12.2280    6.8790    0.0000 N   0  0
   12.0174    5.3930    0.0000 C   0  0
   10.9042    4.9451    0.0000 N   0  0
   12.9618    4.6526    0.0000 N   0  0
    8.4156   11.0390    0.0000 N   0  0
    6.9627   10.6658    0.0000 C   0  0
    5.4645   10.5927    0.0000 C   0  0  2  0  0  0
    5.3879    9.0821    0.0000 C   0  0
    4.0522    8.3977    0.0000 C   0  0
    2.5892    8.7287    0.0000 C   0  0
    1.5710    7.6272    0.0000 C   0  0
    2.0157    6.1947    0.0000 C   0  0
    3.4787    5.8636    0.0000 C   0  0
    4.4970    6.9650    0.0000 C   0  0
    3.9823   10.8227    0.0000 N   0  0
    2.5767   11.3464    0.0000 C   0  0
    1.3052   12.1423    0.0000 C   0  0  2  0  0  0
    0.3794   10.9462    0.0000 C   0  0
    0.9470    9.5569    0.0000 C   0  0
    0.0283    8.3701    0.0000 C   0  0
    0.5960    6.9807    0.0000 N   0  0
   -0.3227    5.7939    0.0000 C   0  0
    0.1312    4.6830    0.0000 N   0  0
   -1.5117    5.9559    0.0000 N   0  0
    0.2200   13.1779    0.0000 N   0  0
   -0.6345   14.4107    0.0000 C   0  0
   -1.6848   13.8303    0.0000 O   0  0
    2.0461   10.2701    0.0000 O   0  0
    7.1123    9.6771    0.0000 O   0  0
   11.7766   11.7415    0.0000 O   0  0
   14.0512   14.4627    0.0000 C   0  0
   14.2292   12.9725    0.0000 C   0  0
   15.6084   12.3806    0.0000 C   0  0
   15.7863   10.8903    0.0000 N   0  0
   17.1655   10.2984    0.0000 C   0  0
   17.3078    9.1069    0.0000 N   0  0
   18.1265   11.0171    0.0000 N   0  0
   14.2880   16.2457    0.0000 O   0  0
   14.6144   19.2477    0.0000 C   0  0
   15.0517   18.1302    0.0000 O   0  0
   15.5516   20.4199    0.0000 N   0  0
   17.0355   20.1953    0.0000 C   0  0  2  0  0  0
   17.5854   18.7988    0.0000 C   0  0
   18.7721   18.6205    0.0000 O   0  0
   16.8379   17.8600    0.0000 O   0  0
   17.9728   21.3675    0.0000 C   0  0
   19.4567   21.1429    0.0000 C   0  0
   20.3939   22.3151    0.0000 C   0  0
   21.8778   22.0904    0.0000 C   0  0
   22.6272   23.0277    0.0000 N   0  0
   10.3847   24.1534    0.0000 C   0  0
    9.8304   24.4022    0.0000 C   0  0
   11.0638   23.5485    0.0000 C   0  0
   12.1134   22.4769    0.0000 N   0  0
   12.9412   21.2260    0.0000 C   0  0  1  0  0  0
   13.5174   19.8411    0.0000 C   0  0
   14.4730   20.1357    0.0000 O   0  0
   13.8210   18.3721    0.0000 N   0  0
   13.8411   16.8723    0.0000 C   0  0  2  0  0  0
   13.5770   15.3957    0.0000 C   0  0
   14.7328   15.0731    0.0000 O   0  0
   13.0382   13.9958    0.0000 N   0  0
   12.2443   12.7231    0.0000 C   0  0  2  0  0  0
   13.4471   11.8057    0.0000 C   0  0  2  0  0  0
   14.5543   12.2686    0.0000 C   0  0
   13.2947   10.6155    0.0000 O   0  0
   11.2238   11.6238    0.0000 C   0  0
   11.8888   10.8769    0.0000 O   0  0
   10.0138   10.7374    0.0000 N   0  0
   11.2515    9.8746    0.0000 C   0  0
   11.1289    8.3797    0.0000 C   0  0
    9.7730    7.7383    0.0000 C   0  0
    8.5395    8.5919    0.0000 C   0  0
    8.6578   10.0960    0.0000 C   0  0  2  0  0  0
    7.2049    9.7228    0.0000 C   0  0
    5.7077    9.6313    0.0000 N   0  0
    4.2203    9.8249    0.0000 C   0  0  2  0  0  0
    2.7963   10.2964    0.0000 C   0  0
    2.3125    9.1983    0.0000 O   0  0
    1.4873   11.0289    0.0000 N   0  0
    0.3406   11.9959    0.0000 C   0  0  1  0  0  0
   -0.7380   10.9353    0.0000 C   0  0
   -0.3628    9.4822    0.0000 C   0  0
   -1.4329    8.4299    0.0000 C   0  0
   -1.0576    6.9767    0.0000 N   0  0
   -2.1278    5.9245    0.0000 C   0  0
   -3.2841    6.2452    0.0000 N   0  0
   -1.8277    4.7626    0.0000 N   0  0
   -0.6023   13.1624    0.0000 C   0  0
   -1.3075   14.4863    0.0000 N   0  0
   -1.7494   15.9198    0.0000 C   0  0  1  0  0  0
   -2.7287   15.7174    0.0000 C   0  0
   -1.9120   17.4109    0.0000 C   0  0
   -3.1119   17.3948    0.0000 O   0  0
   -1.7895   18.9059    0.0000 N   0  0
   -1.3862   20.3507    0.0000 C   0  0  1  0  0  0
   -0.7168   21.6931    0.0000 C   0  0
    0.1945   22.8845    0.0000 N   0  0
   -1.7350   22.3282    0.0000 O   0  0
   -2.7991   20.8913    0.0000 C   0  0
   -3.0364   22.3733    0.0000 C   0  0
   -4.4365   22.9114    0.0000 C   0  0
   -4.6707   24.3930    0.0000 C   0  0
   -3.5046   25.3366    0.0000 C   0  0
   -2.1045   24.7986    0.0000 C   0  0
   -1.8703   23.3169    0.0000 C   0  0
   -1.6031   12.5002    0.0000 O   0  0
    3.8862    8.3495    0.0000 C   0  0
    4.9876    7.3299    0.0000 C   0  0
    4.6593    5.8688    0.0000 C   0  0
    5.7788    4.8511    0.0000 C   0  0
    7.2074    5.2986    0.0000 C   0  0
    8.3090    4.2849    0.0000 C   0  0
    9.7377    4.7324    0.0000 C   0  0
   10.0646    6.1935    0.0000 C   0  0
    8.9630    7.2072    0.0000 C   0  0
    7.5344    6.7597    0.0000 C   0  0
    6.4327    7.7734    0.0000 C   0  0
    7.3916    8.5374    0.0000 O   0  0
   15.2993   17.2746    0.0000 C   0  0
   16.3691   16.2219    0.0000 C   0  0
   17.8157   16.6188    0.0000 C   0  0
   18.8827   15.5645    0.0000 C   0  0
   18.5031   14.1133    0.0000 C   0  0
   17.0566   13.7164    0.0000 C   0  0
   15.9896   14.7707    0.0000 C   0  0
   19.3568   13.2699    0.0000 F   0  0
   14.2750   21.9398    0.0000 C   0  0
   14.3243   23.4398    0.0000 C   0  0
   15.6459   24.1495    0.0000 C   0  0
   15.6921   25.6488    0.0000 C   0  0
   14.4168   26.4385    0.0000 C   0  0
   13.0953   25.7289    0.0000 C   0  0
   13.0490   24.2296    0.0000 C   0  0
   11.7085   24.3130    0.0000 O   0  0
    8.4577   25.0069    0.0000 C   0  0
   -0.6754   23.6130    0.0000 O   0  0
   -2.7258   20.1608    0.0000 C   0  0
   -3.4178   18.8290    0.0000 C   0  0
   -4.9171   18.7614    0.0000 C   0  0
   -5.7260   20.0255    0.0000 N   0  0
   -7.2253   19.9579    0.0000 C   0  0
   -7.7644   20.8002    0.0000 N   0  0
   -7.7776   18.8925    0.0000 N   0  0
    8.0144    9.3304    0.0000 H   0  0
   13.2280   12.9029    0.0000 H   0  0
    0.5827   23.2007    0.0000 H   0  0
  2  1  2  0
  3  2  1  0
  4  3  2  0
  5  4  1  0
  6  5  2  0
  7  6  1  0
  8  7  2  0
  3  8  1  0
  9  8  1  0
 10  9  2  0
  1 10  1  0
 11 10  1  0
 12 11  1  6
 13 12  1  0
 14 13  1  0
 14 15  2  0
 16 14  1  0
 17 16  1  0
 18 17  1  0
 19 18  1  0
 19 20  1  0
 20 21  1  0
 22 21  1  0
 22 23  2  0
 24 22  1  0
 25 24  1  0
 26 25  2  0
 26 27  1  0
 27 28  2  0
 27 29  1  0
 29 30  1  0
 31 30  1  0
 31 32  1  0
 32 33  1  0
 33 34  1  0
 34 35  1  0
 35 36  1  0
 36 37  1  0
 37 38  1  6
 38 39  1  0
 39 40  1  0
 40 41  1  0
 41 42  1  0
 42 43  1  0
 42 44  2  0
 37 45  1  0
 46 45  1  0
 47 46  1  0
 47 48  1  6
 48 49  1  0
 49 50  2  0
 50 51  1  0
 51 52  2  0
 52 53  1  0
 53 54  2  0
 54 49  1  0
 55 47  1  0
 56 55  1  0
 57 56  1  0
 57 58  1  6
 58 59  1  0
 59 60  1  0
 60 61  1  0
 61 62  1  0
 62 63  2  0
 62 64  1  0
 65 57  1  0
 66 65  1  0
 12 66  1  0
 66 67  2  0
 56 68  2  0
 46 69  2  0
 36 70  2  0
 34 71  1  6
 71 72  1  0
 72 73  1  0
 73 74  1  0
 74 75  1  0
 75 76  2  0
 75 77  1  0
 33 78  2  0
 31 79  1  1
 79 80  2  0
 79 81  1  0
 82 81  1  1
 82 83  1  0
 83 84  2  0
 83 85  1  0
 82 86  1  0
 86 87  1  0
 87 88  1  0
 88 89  1  0
 89 90  1  0
 91 26  1  0
 92 91  2  0
 93 92  1  0
 94 93  1  0
 94 95  1  0
 95 96  1  0
 96 97  2  0
 98 96  1  0
 99 98  1  0
100 99  1  0
100101  2  0
102100  1  0
103102  1  0
103104  1  0
104105  1  6
104106  1  0
103107  1  0
107108  2  0
109107  1  0
110109  1  0
111110  1  0
112111  1  0
113112  1  0
114113  1  0
114109  1  0
114115  1  0
116115  1  0
117116  1  0
117118  1  0
118119  2  0
118120  1  0
120121  1  0
121122  1  1
122123  1  0
123124  1  0
124125  1  0
125126  1  0
126127  1  0
126128  2  0
121129  1  0
129130  1  0
130131  1  0
131132  1  1
131133  1  0
133134  2  0
133135  1  0
135136  1  0
136137  1  0
137138  1  0
138 19  1  0
137139  2  0
136140  1  6
140141  1  0
141142  2  0
142143  1  0
143144  2  0
144145  1  0
145146  2  0
146141  1  0
129147  2  0
117148  1  1
148149  1  0
150149  1  0
151150  2  0
152151  1  0
153152  2  0
154153  1  0
155154  2  0
156155  1  0
157156  2  0
152157  1  0
158157  1  0
149158  2  0
115159  2  0
 99160  1  1
160161  1  0
161162  2  0
162163  1  0
163164  2  0
164165  1  0
165166  2  0
166161  1  0
164167  1  0
 95168  1  6
168169  1  0
170169  1  0
171170  2  0
172171  1  0
173172  2  0
174173  1  0
169174  2  0
 93175  2  0
176 92  1  0
 24176  2  0
 18177  2  0
 16178  1  6
178179  1  0
179180  1  0
180181  1  0
181182  1  0
182183  2  0
182184  1  0
114185  1  1
103186  1  1
 19187  1  6
M  END