
          11280714452D 1   1.00000     0.00000     0

 37 40  0     0  0            999 V2000
    0.6125   -1.5792    0.0000 C   0  0  0  0  0  0           0  0  0
    0.5250   -2.4042    0.0000 N   0  0  0  0  0  0           0  0  0
    8.4625   -1.1667    0.0000 C   0  0  0  0  0  0           0  0  0
   -0.1500   -1.2542    0.0000 N   0  0  3  0  0  0           0  0  0
    7.7417   -1.5792    0.0000 C   0  0  0  0  0  0           0  0  0
    7.0292   -1.1667    0.0000 C   0  0  0  0  0  0           0  0  0
   -0.6958   -1.8667    0.0000 C   0  0  0  0  0  0           0  0  0
   -0.2875   -2.5792    0.0000 C   0  0  0  0  0  0           0  0  0
    9.1750   -1.5792    0.0000 C   0  0  0  0  0  0           0  0  0
    6.3125   -1.5792    0.0000 C   0  0  0  0  0  0           0  0  0
    5.6000   -1.1667    0.0000 C   0  0  0  0  0  0           0  0  0
    8.4625   -0.3417    0.0000 C   0  0  0  0  0  0           0  0  0
    7.0292   -0.3417    0.0000 C   0  0  0  0  0  0           0  0  0
    4.8875   -1.5792    0.0000 C   0  0  0  0  0  0           0  0  0
    1.3250   -1.1667    0.0000 C   0  0  0  0  0  0           0  0  0
    7.7417    0.0708    0.0000 C   0  0  0  0  0  0           0  0  0
    9.8875   -1.1667    0.0000 O   0  0  0  0  0  0           0  0  0
    6.3125   -2.4042    0.0000 O   0  0  0  0  0  0           0  0  0
    2.0375   -1.5792    0.0000 O   0  0  0  0  0  0           0  0  0
    7.7417   -2.4042    0.0000 O   0  0  0  0  0  0           0  0  0
    4.1750   -1.1667    0.0000 C   0  0  0  0  0  0           0  0  0
    9.1750   -2.4042    0.0000 O   0  0  0  0  0  0           0  0  0
   -0.3208   -0.4417    0.0000 C   0  0  0  0  0  0           0  0  0
    2.7500   -1.1667    0.0000 C   0  0  0  0  0  0           0  0  0
    3.4625   -1.5792    0.0000 C   0  0  0  0  0  0           0  0  0
    7.7375    0.8958    0.0000 Cl  0  0  0  0  0  0           0  0  0
   -1.5208   -1.8667    0.0000 C   0  0  0  0  0  0           0  0  0
   -0.6875   -3.2917    0.0000 C   0  0  0  0  0  0           0  0  0
    1.0750   -0.1417    0.0000 O   0  0  0  0  0  0           0  0  0
    3.4625    0.0708    0.0000 C   0  0  0  0  0  0           0  0  0
    4.1750   -0.3417    0.0000 C   0  0  0  0  0  0           0  0  0
    2.7500   -0.3417    0.0000 C   0  0  0  0  0  0           0  0  0
    0.2875    0.1083    0.0000 C   0  0  0  0  0  0           0  0  0
    1.6875    0.4083    0.0000 C   0  0  0  0  0  0           0  0  0
   -1.9250   -2.5792    0.0000 C   0  0  0  0  0  0           0  0  0
   -1.5125   -3.2917    0.0000 C   0  0  0  0  0  0           0  0  0
    2.4750    0.1583    0.0000 C   0  0  0  0  0  0           0  0  0
  2  1  2  0     0  0
  3  5  2  0     0  0
  4  1  1  0     0  0
  5  6  1  0     0  0
  6 10  1  0     0  0
  7  4  1  0     0  0
  8  2  1  0     0  0
  9  3  1  0     0  0
 10 11  1  0     0  0
 11 14  2  0     0  0
 12 16  2  0     0  0
 13  6  2  0     0  0
 14 21  1  0     0  0
 15  1  1  0     0  0
 16 13  1  0     0  0
 17  9  2  0     0  0
 18 10  2  0     0  0
 19 15  1  0     0  0
 20  5  1  0     0  0
 21 25  1  0     0  0
 22  9  1  0     0  0
 23  4  1  0     0  0
 24 19  1  0     0  0
 25 24  2  0     0  0
 26 16  1  0     0  0
 27  7  1  0     0  0
 28  8  1  0     0  0
 29 33  1  0     0  0
 30 32  2  0     0  0
 31 30  1  0     0  0
 32 24  1  0     0  0
 33 23  1  0     0  0
 34 29  1  0     0  0
 35 27  2  0     0  0
 36 28  2  0     0  0
 37 34  1  0     0  0
  7  8  2  0     0  0
 36 35  1  0     0  0
 31 21  2  0     0  0
 12  3  1  0     0  0
M  END