
  SciTegic02011310402D

 29 32  0  0  0  0            999 V2000
    2.0652  -10.2625    0.0000 C   0  0
    2.0641  -11.0898    0.0000 C   0  0
    2.7789  -11.5027    0.0000 C   0  0
    2.7771   -9.8497    0.0000 N   0  0
    3.4925  -10.2588    0.0000 C   0  0
    3.4913  -11.0919    0.0000 C   0  0
    4.2082  -11.5072    0.0000 C   0  0
    4.9308  -11.0940    0.0000 N   0  0
    4.9320  -10.2609    0.0000 N   0  0
    4.2106   -9.8410    0.0000 C   0  0
    4.2058  -12.3322    0.0000 C   0  0
    3.4902  -12.7427    0.0000 C   0  0
    2.7796  -12.3234    0.0000 C   0  0
    2.0644  -12.7331    0.0000 C   0  0
    2.0617  -13.5590    0.0000 C   0  0
    2.7800  -13.9734    0.0000 C   0  0
    3.4922  -13.5612    0.0000 C   0  0
    1.3466  -13.9705    0.0000 Cl  0  0
    4.2106   -9.0160    0.0000 O   0  0
    5.6475   -9.8501    0.0000 C   0  0
    6.3610  -10.2644    0.0000 C   0  0  1  0  0  0
    6.3738  -11.0866    0.0000 C   0  0
    7.1632  -11.3266    0.0000 C   0  0
    7.6354  -10.6501    0.0000 C   0  0
    7.1379   -9.9920    0.0000 N   0  0
    7.1710   -9.1676    0.0000 C   0  0
    7.9015   -8.7841    0.0000 C   0  0
    8.5988   -9.2249    0.0000 C   0  0
    9.3293   -8.8414    0.0000 C   0  0
 13 14  1  0
  1  2  2  0
 14 15  2  0
  5  4  2  0
 15 16  1  0
  4  1  1  0
 16 17  2  0
 17 12  1  0
  5 10  1  0
 15 18  1  0
  6  7  1  0
 10 19  2  0
  7  8  2  0
  9 20  1  0
  8  9  1  0
 21 20  1  6
 21 22  1  0
  9 10  1  0
  5  6  1  0
  7 11  1  0
 22 23  1  0
 23 24  1  0
 24 25  1  0
 25 21  1  0
 11 12  1  0
 25 26  1  0
  2  3  1  0
 26 27  1  0
 12 13  2  0
 27 28  1  0
  3  6  2  0
 28 29  1  0
M  END