
          08180812482D 1   1.00000     0.00000     0

 17 18  0     0  0            999 V2000
   -2.7725   -3.9669    0.0000 N   0  0  0  0  0  0           0  0  0
   -2.7736   -4.7944    0.0000 C   0  0  0  0  0  0           0  0  0
   -2.0588   -5.2073    0.0000 C   0  0  0  0  0  0           0  0  0
   -2.0606   -3.5542    0.0000 C   0  0  0  0  0  0           0  0  0
   -1.3451   -3.9633    0.0000 C   0  0  0  0  0  0           0  0  0
   -1.3449   -4.7944    0.0000 C   0  0  0  0  0  0           0  0  0
   -0.5887   -3.6339    0.0000 C   0  0  0  0  0  0           0  0  0
    0.0748   -4.1242    0.0000 N   0  3  0  0  0  0           0  0  0
    0.0652   -4.9486    0.0000 C   0  0  0  0  0  0           0  0  0
    0.8478   -5.2099    0.0000 S   0  0  0  0  0  0           0  0  0
    1.3382   -4.5462    0.0000 C   0  0  0  0  0  0           0  0  0
    0.8586   -3.8750    0.0000 C   0  0  0  0  0  0           0  0  0
    1.1191   -3.0921    0.0000 C   0  0  0  0  0  0           0  0  0
    2.1632   -4.5528    0.0000 C   0  0  0  0  0  0           0  0  0
    2.5700   -5.2707    0.0000 C   0  0  0  0  0  0           0  0  0
    3.3950   -5.2773    0.0000 O   0  0  0  0  0  0           0  0  0
   -3.4885   -5.2063    0.0000 N   0  0  0  0  0  0           0  0  0
  8  9  2  0     0  0
  5  4  2  0     0  0
  4  1  1  0     0  0
  5  6  1  0     0  0
  9 10  1  0     0  0
 10 11  1  0     0  0
 11 12  2  0     0  0
 12  8  1  0     0  0
  2  3  1  0     0  0
 12 13  1  0     0  0
  3  6  2  0     0  0
 11 14  1  0     0  0
  5  7  1  0     0  0
 14 15  1  0     0  0
  1  2  2  0     0  0
 15 16  1  0     0  0
  7  8  1  0     0  0
  2 17  1  0     0  0
M  CHG  1   8   1
M  END