
  SciTegic10311316262D

 20 22  0  0  0  0            999 V2000
   17.0936  -11.2590    0.0000 C   0  0
   17.0924  -12.0786    0.0000 C   0  0
   17.8005  -12.4875    0.0000 C   0  0
   17.7987  -10.8502    0.0000 C   0  0
   18.5073  -11.2554    0.0000 C   0  0
   18.5107  -12.0806    0.0000 C   0  0
   19.2231  -12.4880    0.0000 C   0  0
   19.9366  -12.0748    0.0000 C   0  0
   19.9332  -11.2496    0.0000 C   0  0
   19.2163  -10.8376    0.0000 N   0  0
   20.6397  -10.8388    0.0000 O   0  0
   16.3878  -10.8467    0.0000 C   0  0
   16.3890  -10.0284    0.0000 C   0  0
   15.6820   -9.6200    0.0000 C   0  0
   14.9734  -10.0288    0.0000 C   0  0
   14.9762  -10.8503    0.0000 C   0  0
   15.6838  -11.2549    0.0000 C   0  0
   19.2253  -13.3052    0.0000 C   0  0
   17.0970   -9.6203    0.0000 Cl  0  0
   14.2651   -9.6214    0.0000 N   0  0
  1  2  2  0
  2  3  1  0
  3  6  2  0
  5  4  2  0
  4  1  1  0
  5  6  1  0
  5 10  1  0
  6  7  1  0
  7  8  2  0
  8  9  1  0
  9 10  1  0
  9 11  2  0
 12 13  2  0
 13 14  1  0
 14 15  2  0
 15 16  1  0
 16 17  2  0
 17 12  1  0
  1 12  1  0
  7 18  1  0
 13 19  1  0
 15 20  1  0
M  END