
  SciTegic12201615462D

 17 17  0  0  0  0            999 V2000
    2.5951   -3.0039    0.0000 C   0  0
    3.8933   -3.7570    0.0000 C   0  0
    1.5548   -3.6021    0.0000 O   0  0
    2.5973   -1.5031    0.0000 N   0  0
    1.2990   -0.7500    0.0000 C   0  0
    1.2990    0.7500    0.0000 C   0  0
    0.0000    1.5000    0.0000 C   0  0
   -1.2990    0.7500    0.0000 C   0  0
   -1.2990   -0.7500    0.0000 C   0  0
    0.0000   -1.5000    0.0000 C   0  0
   -2.3383    1.3500    0.0000 Cl  0  0
    3.8916   -4.9570    0.0000 Cl  0  0
    4.9336   -3.1588    0.0000 Cl  0  0
    0.0000    3.0008    0.0000 C   0  0
    1.0388    3.6015    0.0000 F   0  0
   -1.0394    3.6005    0.0000 F   0  0
   -0.0006    4.2008    0.0000 F   0  0
  1  2  1  0
  1  3  2  0
  1  4  1  0
  5  6  1  0
  6  7  2  0
  7  8  1  0
  8  9  2  0
  9 10  1  0
  5 10  2  0
  8 11  1  0
  4  5  1  0
  2 12  1  0
  2 13  1  0
 14 15  1  0
 14 16  1  0
 14 17  1  0
  7 14  1  0
M  END