
  CDK    9/16/09,9:54

 23 25  0  0  0  0  0  0  0  0999 V2000
   -1.8252   -4.2462    0.0000 C   0  0  0  0  0  0  0  0  0  0  0  0
   -1.8252   -5.0713    0.0000 N   0  0  0  0  0  0  0  0  0  0  0  0
   -1.1131   -5.4797    0.0000 C   0  0  0  0  0  0  0  0  0  0  0  0
   -0.4010   -5.0713    0.0000 C   0  0  0  0  0  0  0  0  0  0  0  0
   -0.4010   -4.2462    0.0000 C   0  0  0  0  0  0  0  0  0  0  0  0
   -1.1131   -3.8296    0.0000 C   0  0  0  0  0  0  0  0  0  0  0  0
   -2.5391   -5.4849    0.0000 C   0  0  0  0  0  0  0  0  0  0  0  0
   -3.2542   -5.0734    0.0000 C   0  0  0  0  0  0  0  0  0  0  0  0
   -2.5379   -6.3100    0.0000 O   0  0  0  0  0  0  0  0  0  0  0  0
   -3.9682   -5.4869    0.0000 C   0  0  0  0  0  0  0  0  0  0  0  0
   -4.6879   -5.8922    0.0000 N   0  0  0  0  0  0  0  0  0  0  0  0
    0.3147   -3.8358    0.0000 C   0  0  0  0  0  0  0  0  0  0  0  0
    0.3129   -5.4849    0.0000 N   0  0  0  0  0  0  0  0  0  0  0  0
    0.3117   -6.3100    0.0000 C   0  0  0  0  0  0  0  0  0  0  0  0
    1.0281   -5.0734    0.0000 C   0  0  0  0  0  0  0  0  0  0  0  0
   -0.4044   -6.7197    0.0000 N   0  0  0  0  0  0  0  0  0  0  0  0
   -0.4059   -7.5441    0.0000 C   0  0  0  0  0  0  0  0  0  0  0  0
    0.3085   -7.9584    0.0000 N   0  0  0  0  0  0  0  0  0  0  0  0
    1.0240   -6.7196    0.0000 C   0  0  0  0  0  0  0  0  0  0  0  0
    1.0262   -7.5415    0.0000 C   0  0  0  0  0  0  0  0  0  0  0  0
    1.8085   -7.7935    0.0000 N   0  0  0  0  0  0  0  0  0  0  0  0
    2.2899   -7.1273    0.0000 C   0  0  0  0  0  0  0  0  0  0  0  0
    1.8051   -6.4637    0.0000 C   0  0  0  0  0  0  0  0  0  0  0  0
  4  5  1  0  0  0  0 
  5 12  1  1  0  0  0 
  5  6  1  0  0  0  0 
  4 13  1  6  0  0  0 
 13 14  1  0  0  0  0 
  2  7  1  0  0  0  0 
 13 15  1  0  0  0  0 
  1  2  1  0  0  0  0 
 14 16  2  0  0  0  0 
  7  8  1  0  0  0  0 
 16 17  1  0  0  0  0 
  1  6  1  0  0  0  0 
 17 18  2  0  0  0  0 
 18 20  1  0  0  0  0 
 19 14  1  0  0  0  0 
 19 20  2  0  0  0  0 
  7  9  2  0  0  0  0 
  2  3  1  0  0  0  0 
  8 10  1  0  0  0  0 
  3  4  1  0  0  0  0 
 10 11  3  0  0  0  0 
 20 21  1  0  0  0  0 
 21 22  1  0  0  0  0 
 22 23  2  0  0  0  0 
 23 19  1  0  0  0  0 
M  END