
  SciTegic04091415032D

 38 41  0  0  0  0            999 V2000
    4.0391  -24.1814    0.0000 C   0  0
    4.0380  -25.0009    0.0000 C   0  0
    4.7460  -25.4099    0.0000 C   0  0
    4.7443  -23.7725    0.0000 C   0  0
    5.4529  -24.1778    0.0000 C   0  0
    5.4536  -24.9968    0.0000 C   0  0
    6.1622  -25.4039    0.0000 N   0  0
    6.8704  -24.9931    0.0000 C   0  0
    6.8657  -24.1709    0.0000 C   0  0
    6.1566  -23.7676    0.0000 C   0  0
    3.3353  -23.7687    0.0000 C   0  0
    6.1523  -22.9504    0.0000 C   0  0
    6.8578  -22.5380    0.0000 O   0  0
    5.4424  -22.5455    0.0000 O   0  0
    7.5797  -25.3989    0.0000 C   0  0
    7.5829  -26.2161    0.0000 N   0  0
    8.2858  -24.9876    0.0000 O   0  0
    8.2922  -26.6219    0.0000 C   0  0  2  0  0  0
    8.2954  -27.4391    0.0000 C   0  0
    8.9983  -26.2106    0.0000 C   0  0
    9.7076  -26.6164    0.0000 C   0  0
    9.7077  -27.4306    0.0000 C   0  0
   10.4161  -27.8364    0.0000 C   0  0
   11.1232  -27.4250    0.0000 C   0  0
   11.1174  -26.6036    0.0000 C   0  0
   10.4084  -26.2015    0.0000 C   0  0
    3.3441  -22.9519    0.0000 C   0  0
    2.6411  -22.5393    0.0000 C   0  0
    1.9309  -22.9426    0.0000 C   0  0
    1.9280  -23.7626    0.0000 C   0  0
    2.6316  -24.1715    0.0000 C   0  0
    1.2190  -24.1690    0.0000 C   0  0
    0.5126  -23.7582    0.0000 F   0  0
    1.2164  -24.9862    0.0000 F   0  0
    0.5076  -24.5694    0.0000 F   0  0
   11.8330  -27.8299    0.0000 O   0  0
    7.5892  -27.8505    0.0000 O   0  0
    7.5924  -28.6676    0.0000 C   0  0
  1  2  2  0
  2  3  1  0
  3  6  2  0
  5  4  2  0
  4  1  1  0
  5  6  1  0
  6  7  1  0
  7  8  2  0
  8  9  1  0
  9 10  2  0
 10  5  1  0
  1 11  1  0
 10 12  1  0
 12 13  2  0
 12 14  1  0
  8 15  1  0
 15 16  1  0
 15 17  2  0
 16 18  1  0
 18 19  1  1
 18 20  1  0
 20 21  1  0
 21 22  2  0
 22 23  1  0
 23 24  2  0
 24 25  1  0
 25 26  2  0
 26 21  1  0
 11 27  2  0
 27 28  1  0
 28 29  2  0
 29 30  1  0
 30 31  2  0
 31 11  1  0
 30 32  1  0
 32 33  1  0
 32 34  1  0
 32 35  1  0
 24 36  1  0
 19 37  1  0
 37 38  1  0
M  END