
  SciTegic12231509382D

 15 17  0  0  0  0            999 V2000
    9.9746  -18.7870    0.0000 C   0  0
    9.9739  -19.6133    0.0000 C   0  0
   10.6852  -20.0246    0.0000 C   0  0
   11.4017  -19.6144    0.0000 N   0  0
   11.4024  -18.7882    0.0000 C   0  0
   10.6865  -18.3721    0.0000 C   0  0
    9.2578  -18.3771    0.0000 C   0  0
    9.1702  -17.5565    0.0000 C   0  0
    8.3626  -17.3861    0.0000 N   0  0
    8.5044  -18.7139    0.0000 C   0  0
    7.9517  -18.1015    0.0000 C   0  0
    7.1470  -18.2745    0.0000 C   0  0
    6.8939  -19.0594    0.0000 C   0  0
    7.4517  -19.6714    0.0000 C   0  0
    8.2543  -19.4953    0.0000 C   0  0
  1  2  1  0
  1  6  1  0
  8  9  1  0
  9 11  1  0
 10  7  1  0
  1  7  1  0
  2  3  1  0
  3  4  1  0
 10 11  2  0
  4  5  1  0
 11 12  1  0
  5  6  1  0
 12 13  2  0
  7  8  2  0
 13 14  1  0
 14 15  2  0
 15 10  1  0
M  END