
  SciTegic02271514372D

 25 27  0  0  0  0            999 V2000
    3.1414  -25.2211    0.0000 C   0  0
    2.4395  -24.7985    0.0000 C   0  0
    1.7217  -25.1951    0.0000 C   0  0
    1.7045  -26.0129    0.0000 C   0  0
    2.4064  -26.4397    0.0000 C   0  0
    3.8648  -24.8260    0.0000 C   0  0
    4.5667  -25.2529    0.0000 C   0  0
    3.8316  -26.4674    0.0000 O   0  0
    5.2515  -26.4934    0.0000 O   0  0
    4.5495  -26.0707    0.0000 C   0  0
    3.1256  -26.0446    0.0000 C   0  0
    5.2832  -24.8599    0.0000 C   0  0
    5.3010  -24.0429    0.0000 O   0  0
    6.0175  -23.6499    0.0000 C   0  0  2  0  0  0
    6.6884  -24.9110    0.0000 O   0  0
    6.7733  -22.4477    0.0000 C   0  0  2  0  0  0
    7.4444  -23.7073    0.0000 C   0  0  1  0  0  0
    5.3535  -22.4013    0.0000 O   0  0
    6.7180  -24.0910    0.0000 C   0  0  1  0  0  0
    6.0504  -22.8335    0.0000 C   0  0  2  0  0  0
    8.1376  -24.1415    0.0000 O   0  0
    7.4684  -22.8855    0.0000 O   0  0
    8.1082  -24.9581    0.0000 C   0  0
    6.8026  -21.6310    0.0000 C   0  0
    7.5245  -21.2481    0.0000 O   0  0
  6  1  1  0
  7  6  2  0
  1  2  1  0
  1 11  2  0
 10  8  1  0
 10  7  1  0
 10  9  2  0
  3  4  1  0
 11  8  1  0
  5 11  1  0
  2  3  2  0
  4  5  2  0
  7 12  1  0
 12 13  1  0
 14 13  1  1
 16 20  1  0
 16 22  1  0
 17 21  1  6
 19 17  1  0
 19 15  1  6
 17 22  1  0
 14 19  1  0
 20 14  1  0
 20 18  1  1
 21 23  1  0
 16 24  1  1
 24 25  1  0
M  END