
  SciTegic05061116452D

 21 22  0  0  0  0            999 V2000
    4.9652  -13.3916    0.0000 C   0  0
    4.9641  -14.2190    0.0000 C   0  0
    5.6789  -14.6319    0.0000 C   0  0
    5.6771  -12.9789    0.0000 C   0  0
    6.3925  -13.3880    0.0000 C   0  0
    6.3932  -14.2148    0.0000 C   0  0
    7.1085  -14.6258    0.0000 N   0  0
    7.8236  -14.2110    0.0000 C   0  0
    7.8188  -13.3811    0.0000 C   0  0
    7.1029  -12.9738    0.0000 N   0  0
    8.5396  -14.6208    0.0000 O   0  0
    8.5429  -15.4458    0.0000 C   0  0
    9.2589  -15.8555    0.0000 C   0  0
    8.5307  -12.9642    0.0000 C   0  0
    9.2477  -13.3724    0.0000 N   0  0
    9.9555  -12.9574    0.0000 C   0  0
    8.5257  -12.1392    0.0000 O   0  0
    9.9499  -12.1324    0.0000 C   0  0
   10.6616  -11.7151    0.0000 N   0  0
   10.6561  -10.8901    0.0000 C   0  0
   11.3789  -12.1228    0.0000 C   0  0
 10  5  1  0
  8 11  1  0
  2  3  1  0
 11 12  1  0
  5  6  1  0
 12 13  1  0
  3  6  2  0
  9 14  1  0
  6  7  1  0
 14 15  1  0
  1  2  2  0
 15 16  1  0
  7  8  2  0
 14 17  2  0
  5  4  2  0
 16 18  1  0
  8  9  1  0
 18 19  1  0
  4  1  1  0
 19 20  1  0
  9 10  2  0
 19 21  1  0
M  END