
  SciTegic01111613442D

 22 25  0  0  0  0            999 V2000
   -0.7088   -1.6031    0.0000 C   0  0
    0.0000   -0.2531    0.0000 C   0  0
    0.0000   -2.9532    0.0000 C   0  0
    1.3669   -3.2907    0.0000 N   0  0
    1.3669    0.0675    0.0000 N   0  0
   -1.1813    0.7931    0.0000 S   0  0
   -0.9257   -4.1344    0.0000 N   0  0
   -2.2275   -1.3838    0.0000 C   0  0
   -2.4638    0.0675    0.0000 C   0  0
    2.5144   -2.3288    0.0000 C   0  0
    2.5144   -0.8438    0.0000 C   0  0
   -2.6041   -6.6259    0.0000 N   0  0
   -0.2682   -5.4886    0.0000 C   0  0
   -2.4211   -4.0343    0.0000 C   0  0
   -3.2608   -5.2773    0.0000 C   0  0
   -1.1079   -6.7316    0.0000 C   0  0
   -3.2759   -7.6203    0.0000 C   0  0
   -3.5457    0.5865    0.0000 C   0  0
    3.8307   -3.0713    0.0000 C   0  0
    3.8307    0.0000    0.0000 C   0  0
    5.1469   -2.3288    0.0000 C   0  0
    5.1469   -0.8438    0.0000 C   0  0
  2  1  2  0
  3  1  1  0
  4  3  2  0
  5  2  1  0
  6  2  1  0
  7  3  1  0
  8  1  1  0
  9  8  2  0
 10  4  1  0
 11  5  1  0
 12 15  1  0
 13  7  1  0
 14  7  1  0
 15 14  1  0
 16 13  1  0
 17 12  1  0
 18  9  1  0
 19 10  1  0
 20 11  1  0
 21 19  2  0
 22 20  2  0
  9  6  1  0
 10 11  2  0
 12 16  1  0
 22 21  1  0
M  END