
  SciTegic01161211252D

 14 13  0  0  0  0            999 V2000
    7.8500   -6.4000    0.0000 P   0  0
    4.2125   -6.7000    0.0000 P   0  0
    7.8375   -7.2000    0.0000 O   0  0
    8.4292   -6.3750    0.0000 O   0  0
    3.5875   -6.6875    0.0000 O   0  0
    4.2125   -5.9667    0.0000 O   0  0
    7.8500   -5.8000    0.0000 O   0  0
    4.2042   -7.3000    0.0000 O   0  0
    7.3292   -6.7000    0.0000 C   0  0
    4.7292   -6.4000    0.0000 C   0  0
    5.2542   -6.7000    0.0000 C   0  0
    6.8125   -6.4000    0.0000 C   0  0
    6.2917   -6.7000    0.0000 C   0  0
    5.7750   -6.4000    0.0000 C   0  0
  2 10  1  0
  3  1  1  0
  4  1  1  0
  5  2  1  0
  6  2  1  0
  7  1  2  0
  8  2  2  0
  9  1  1  0
 10 11  1  0
 11 14  1  0
 12  9  1  0
 13 12  1  0
 14 13  1  0
M  END