
  SciTegic01061414252D

 25 26  0  0  0  0            999 V2000
   22.9157  -25.2072    0.0000 O   0  0
   22.0907  -25.2072    0.0000 S   0  0
   22.5032  -25.9216    0.0000 O   0  0
   21.3809  -23.1447    0.0000 C   0  0
   21.3798  -23.9721    0.0000 C   0  0
   22.0945  -24.3849    0.0000 C   0  0
   22.8110  -23.9716    0.0000 C   0  0
   22.8082  -23.1411    0.0000 C   0  0
   22.0927  -22.7321    0.0000 C   0  0
   23.5210  -22.7260    0.0000 C   0  0
   24.2370  -23.1358    0.0000 C   0  0
   23.5179  -21.9010    0.0000 O   0  0
   24.9498  -22.7205    0.0000 S   0  0
   25.6659  -23.1304    0.0000 C   0  0
   25.6659  -23.9542    0.0000 N   0  0
   26.3810  -24.3639    0.0000 C   0  0
   27.0949  -23.9486    0.0000 C   0  0
   27.0891  -23.1194    0.0000 C   0  0
   26.3734  -22.7135    0.0000 N   0  0
   21.3798  -25.6222    0.0000 N   0  0
   27.8005  -22.7017    0.0000 O   0  0
   26.3838  -25.1889    0.0000 C   0  0
   27.0996  -25.5991    0.0000 C   0  0
   25.6707  -25.6038    0.0000 C   0  0
   26.3838  -26.0139    0.0000 C   0  0
  2  1  2  0
  3  2  2  0
  4  5  2  0
  5  6  1  0
  6  7  2  0
  7  8  1  0
  8  9  2  0
  9  4  1  0
  8 10  1  0
 10 11  1  0
 10 12  2  0
 11 13  1  0
 13 14  1  0
 14 15  2  0
 15 16  1  0
 16 17  2  0
 17 18  1  0
 18 19  1  0
 19 14  1  0
  6  2  1  0
  2 20  1  0
 18 21  2  0
 16 22  1  0
 22 23  1  0
 22 24  1  0
 22 25  1  0
M  END