
  SciTegic09081514182D

100102  0  0  0  0            999 V2000
   -7.2369   -3.4670    0.0000 O   0  0
   -7.2486   -4.6669    0.0000 S   0  0
   -8.2938   -5.2565    0.0000 O   0  5
   -1.1455  -23.6226    0.0000 O   0  0
   -1.2579  -22.4279    0.0000 S   0  0
   -0.2792  -21.7336    0.0000 O   0  0
   -7.9547  -20.7597    0.0000 O   0  0
  -10.8287  -18.3693    0.0000 O   0  0
  -12.9858  -19.9932    0.0000 O   0  0
  -12.4982  -22.5530    0.0000 O   0  0
   -9.1204  -21.6361    0.0000 O   0  0
   -9.3025  -20.1472    0.0000 C   0  0  2  0  0  0
  -10.6830  -19.5605    0.0000 C   0  0  1  0  0  0
  -11.8814  -20.4626    0.0000 C   0  0  2  0  0  0
  -11.6993  -21.9515    0.0000 C   0  0  1  0  0  0
  -10.3188  -22.5383    0.0000 C   0  0  1  0  0  0
  -10.1397  -24.0284    0.0000 C   0  0
   -4.3943  -16.7348    0.0000 O   0  0
   -8.2114  -17.7921    0.0000 N   0  0
   -5.2186  -22.0410    0.0000 O   0  0
   -4.2626  -18.1873    0.0000 O   0  0
   -5.6245  -17.5585    0.0000 C   0  0  2  0  0  0
   -6.8499  -18.4236    0.0000 C   0  0  1  0  0  0
   -6.7124  -19.9177    0.0000 C   0  0  2  0  0  0
   -5.3516  -20.5461    0.0000 C   0  0  2  0  0  0
   -4.1262  -19.6811    0.0000 C   0  0  1  0  0  0
   -2.7623  -20.3074    0.0000 C   0  0
   -6.9634  -12.5325    0.0000 O   0  0
   -6.6333  -15.1176    0.0000 O   0  0
   -3.2965  -12.9118    0.0000 O   0  0
   -4.6385  -12.2416    0.0000 C   0  0  2  0  0  0
   -5.8899  -13.0687    0.0000 C   0  0  1  0  0  0
   -5.7993  -14.5659    0.0000 C   0  0  2  0  0  0
   -4.4565  -15.2353    0.0000 C   0  0  1  0  0  0
   -3.2059  -14.4090    0.0000 C   0  0  1  0  0  0
   -1.8648  -15.0827    0.0000 C   0  0
    4.4944    3.4978    0.0000 C   0  0
    4.4819    1.9979    0.0000 C   0  0
    5.7748    1.2372    0.0000 C   0  0
    7.0800    1.9764    0.0000 C   0  0
    7.0924    3.4764    0.0000 C   0  0
    5.7996    4.2371    0.0000 C   0  0
    8.3751    1.2180    0.0000 N   0  0
    9.6799    1.9595    0.0000 C   0  0
   10.9750    1.2010    0.0000 C   0  0
    9.6877    3.1594    0.0000 O   0  0
   12.2798    1.9425    0.0000 C   0  0
   13.5749    1.1840    0.0000 C   0  0
   14.8798    1.9256    0.0000 C   0  0
   16.1748    1.1671    0.0000 C   0  0
   17.5313    1.7769    0.0000 S   0  0
   18.5257    0.6540    0.0000 S   0  0
   17.7650   -0.6388    0.0000 C   0  0
   16.3005   -0.3149    0.0000 C   0  0
    3.1775    1.2556    0.0000 N   0  0
    3.1672   -0.2452    0.0000 C   0  0
    1.8628   -0.9875    0.0000 C   0  0  1  0  0  0
    1.8525   -2.4883    0.0000 C   0  0  2  0  0  0
    0.8275   -0.3807    0.0000 O   0  0
    0.5481   -3.2306    0.0000 C   0  0  1  0  0  0
    2.8878   -3.0951    0.0000 O   0  0
    0.5378   -4.7314    0.0000 C   0  0  2  0  0  0
    1.5731   -5.3382    0.0000 O   0  0
   -0.4872   -2.6238    0.0000 O   0  0
   -0.7666   -5.4737    0.0000 C   0  0
   -0.7769   -6.9745    0.0000 O   0  0
   -2.0813   -7.7168    0.0000 C   0  0  2  0  0  0
   -0.7989   -9.9756    0.0000 N   0  0
   -3.3837  -11.4559    0.0000 O   0  0
   -5.7359   -9.7867    0.0000 O   0  0
   -3.3741   -6.9561    0.0000 O   0  0
   -2.0937   -9.2168    0.0000 C   0  0  2  0  0  0
   -3.3999   -9.9552    0.0000 C   0  0  2  0  0  0
   -4.6917   -9.1952    0.0000 C   0  0  2  0  0  0
   -4.6793   -7.6953    0.0000 C   0  0  1  0  0  0
   -5.9712   -6.9315    0.0000 C   0  0
    0.5062   -9.2346    0.0000 C   0  0
    0.5130   -8.2346    0.0000 C   0  0
    1.3689   -9.7402    0.0000 O   0  0
   -5.9567   -5.4307    0.0000 O   0  0
   -5.5438  -11.8168    0.0000 H   0  0
   -1.8061  -16.0810    0.0000 O   0  0
   -1.0294  -14.5330    0.0000 O   0  0
   -6.5424  -17.1617    0.0000 H   0  0
   -8.3462  -16.2973    0.0000 C   0  0
   -7.5284  -15.7218    0.0000 C   0  0
   -9.2534  -15.8765    0.0000 O   0  0
   -9.4482  -19.1579    0.0000 H   0  0
   -9.2204  -24.4220    0.0000 O   0  0
  -10.9400  -24.6279    0.0000 O   0  0
   -2.6218  -21.8016    0.0000 O   0  0
   -0.1671  -22.9282    0.0000 O   0  5
   -6.4462  -22.9044    0.0000 S   0  0
   -6.3399  -24.0997    0.0000 O   0  0
   -7.5347  -22.3992    0.0000 O   0  5
   -7.4281  -23.5943    0.0000 O   0  0
   -8.2819   -4.0567    0.0000 O   0  0
   22.9258    4.8668    0.0000 Na  0  3
   20.4258    4.8668    0.0000 Na  0  3
   17.9258    4.8668    0.0000 Na  0  3
  2  1  2  0
  3  2  1  0
  5  4  2  0
  6  5  2  0
 16 11  1  0
 11 12  1  0
 12 13  1  0
 13 14  1  0
 14 15  1  0
 15 16  1  0
 16 17  1  6
 12  7  1  0
 13  8  1  1
 14  9  1  6
 15 10  1  1
 26 21  1  0
 21 22  1  0
 22 23  1  0
 23 24  1  0
 24 25  1  0
 25 26  1  0
 26 27  1  6
 22 18  1  0
 23 19  1  1
 24  7  1  6
 25 20  1  6
 35 30  1  0
 30 31  1  0
 31 32  1  0
 32 33  1  0
 33 34  1  0
 34 35  1  0
 35 36  1  6
 32 28  1  1
 33 29  1  6
 34 18  1  1
 37 38  2  0
 38 39  1  0
 39 40  2  0
 40 41  1  0
 41 42  2  0
 42 37  1  0
 40 43  1  0
 43 44  1  0
 44 45  1  0
 44 46  2  0
 45 47  1  0
 47 48  1  0
 48 49  1  0
 49 50  1  0
 50 51  1  0
 51 52  1  0
 52 53  1  0
 53 54  1  0
 54 50  1  0
 38 55  1  0
 55 56  1  0
 56 57  1  0
 57 58  1  0
 57 59  1  1
 58 60  1  0
 58 61  1  1
 60 62  1  0
 62 63  1  6
 60 64  1  1
 62 65  1  0
 65 66  1  0
 67 66  1  1
 75 71  1  0
 71 67  1  0
 67 72  1  0
 72 73  1  0
 73 74  1  0
 74 75  1  0
 75 76  1  1
 72 68  1  6
 73 69  1  1
 74 70  1  1
 68 77  1  0
 77 78  1  0
 77 79  2  0
 76 80  1  0
 69 31  1  0
 31 81  1  1
 36 82  2  0
 36 83  1  0
 22 84  1  1
 19 85  1  0
 85 86  1  0
 85 87  2  0
 12 88  1  1
 17 89  2  0
 17 90  1  0
 27 91  1  0
 91  5  1  0
  5 92  1  0
 20 93  1  0
 93 94  2  0
 93 95  1  0
 93 96  2  0
 80  2  1  0
  2 97  2  0
M  CHG  6   3  -1  92  -1  95  -1  98   1  99   1 100   1
M  END