
          11280714522D 1   1.00000     0.00000     0

 32 36  0     0  0            999 V2000
    6.5167   -5.2417    0.0000 C   0  0  0  0  0  0           0  0  0
    5.8000   -4.8292    0.0000 O   0  0  0  0  0  0           0  0  0
    5.0875   -5.2500    0.0000 C   0  0  0  0  0  0           0  0  0
    7.2250   -4.8292    0.0000 C   0  0  0  0  0  0           0  0  0
    5.0875   -6.0750    0.0000 C   0  0  0  0  0  0           0  0  0
    6.5167   -6.0667    0.0000 C   0  0  0  0  0  0           0  0  0
    5.8000   -6.4875    0.0000 C   0  0  0  0  0  0           0  0  0
    7.2167   -4.0042    0.0000 C   0  0  0  0  0  0           0  0  0
    0.0917   -3.9750    0.0000 N   0  0  0  0  0  0           0  0  0
    4.3750   -4.8375    0.0000 C   0  0  0  0  0  0           0  0  0
   -0.6125   -3.5500    0.0000 C   0  0  0  0  0  0           0  0  0
    5.8042   -7.3125    0.0000 O   0  0  0  0  0  0           0  0  0
    6.5042   -3.5917    0.0000 O   0  0  0  0  0  0           0  0  0
    0.8125   -3.5667    0.0000 C   0  0  0  0  0  0           0  0  0
   -0.6083   -2.7292    0.0000 C   0  0  0  0  0  0           0  0  0
    3.6625   -5.2500    0.0000 C   0  0  0  0  0  0           0  0  0
    4.3750   -4.0042    0.0000 C   0  0  0  0  0  0           0  0  0
    0.1125   -2.3250    0.0000 C   0  0  0  0  0  0           0  0  0
    2.2375   -3.5875    0.0000 O   0  0  0  0  0  0           0  0  0
    7.9292   -3.5875    0.0000 O   0  0  0  0  0  0           0  0  0
    2.9500   -4.0042    0.0000 C   0  0  0  0  0  0           0  0  0
    7.9417   -5.2375    0.0000 C   0  0  0  0  0  0           0  0  0
    1.5167   -3.9875    0.0000 C   0  0  0  0  0  0           0  0  0
    7.2292   -6.4792    0.0000 C   0  0  0  0  0  0           0  0  0
    0.8250   -2.7417    0.0000 C   0  0  0  0  0  0           0  0  0
    2.9417   -4.8292    0.0000 C   0  0  0  0  0  0           0  0  0
    3.6667   -3.5917    0.0000 C   0  0  0  0  0  0           0  0  0
    7.9417   -6.0667    0.0000 C   0  0  0  0  0  0           0  0  0
   -1.3333   -3.9625    0.0000 C   0  0  0  0  0  0           0  0  0
   -1.3083   -2.3042    0.0000 C   0  0  0  0  0  0           0  0  0
   -2.0375   -3.5375    0.0000 C   0  0  0  0  0  0           0  0  0
   -2.0333   -2.7125    0.0000 C   0  0  0  0  0  0           0  0  0
  2  1  1  0     0  0
  3  2  1  0     0  0
  4  1  1  0     0  0
  5  7  1  0     0  0
  6  1  2  0     0  0
  7  6  1  0     0  0
  8  4  1  0     0  0
  9 14  2  0     0  0
 10  3  1  0     0  0
 11  9  1  0     0  0
 12  7  2  0     0  0
 13  8  2  0     0  0
 14 23  1  0     0  0
 15 18  1  0     0  0
 16 10  2  0     0  0
 17 10  1  0     0  0
 18 25  2  0     0  0
 19 21  1  0     0  0
 20  8  1  0     0  0
 21 27  1  0     0  0
 22  4  2  0     0  0
 23 19  1  0     0  0
 24  6  1  0     0  0
 25 14  1  0     0  0
 26 16  1  0     0  0
 27 17  2  0     0  0
 28 24  2  0     0  0
 29 11  1  0     0  0
 30 15  1  0     0  0
 31 29  2  0     0  0
 32 30  2  0     0  0
 28 22  1  0     0  0
  5  3  2  0     0  0
 21 26  2  0     0  0
 11 15  2  0     0  0
 31 32  1  0     0  0
M  END