
  CDK    9/16/09,10:6

 46 48  0  0  0  0  0  0  0  0999 V2000
   -2.0941  -25.0786    0.0000 C   0  0  0  0  0  0  0  0  0  0  0  0
   -2.0941  -25.9068    0.0000 C   0  0  0  0  0  0  0  0  0  0  0  0
   -1.3780  -26.3211    0.0000 C   0  0  0  0  0  0  0  0  0  0  0  0
   -0.6619  -25.9068    0.0000 C   0  0  0  0  0  0  0  0  0  0  0  0
   -0.6619  -25.0786    0.0000 C   0  0  0  0  0  0  0  0  0  0  0  0
   -1.3780  -24.6643    0.0000 C   0  0  0  0  0  0  0  0  0  0  0  0
   -1.3792  -23.8406    0.0000 O   0  0  0  0  0  0  0  0  0  0  0  0
   -1.3792  -27.1448    0.0000 O   0  0  0  0  0  0  0  0  0  0  0  0
   -2.8066  -24.6708    0.0000 C   0  0  0  0  0  0  0  0  0  0  0  0
   -2.8086  -23.8471    0.0000 C   0  0  0  0  0  0  0  0  0  0  0  0
   -3.5258  -23.4346    0.0000 C   0  0  0  0  0  0  0  0  0  0  0  0
   -2.0982  -23.4312    0.0000 C   0  0  0  0  0  0  0  0  0  0  0  0
   -2.1002  -22.6075    0.0000 C   0  0  0  0  0  0  0  0  0  0  0  0
   -1.3850  -22.1961    0.0000 C   0  0  0  0  0  0  0  0  0  0  0  0
   -2.8126  -22.1997    0.0000 O   0  0  0  0  0  0  0  0  0  0  0  0
   -2.8146  -21.3760    0.0000 C   0  0  0  0  0  0  0  0  0  0  0  0
   -1.3870  -21.3726    0.0000 C   0  0  0  0  0  0  0  0  0  0  0  0
   -0.6726  -22.6040    0.0000 O   0  0  0  0  0  0  0  0  0  0  0  0
   -0.6766  -20.9566    0.0000 C   0  0  0  0  0  0  0  0  0  0  0  0
   -2.1042  -20.9601    0.0000 C   0  0  0  0  0  0  0  0  0  0  0  0
    0.0405  -21.3690    0.0000 C   0  0  0  0  0  0  0  0  0  0  0  0
    0.7510  -20.9531    0.0000 C   0  0  0  0  0  0  0  0  0  0  0  0
    0.0426  -22.1927    0.0000 C   0  0  0  0  0  0  0  0  0  0  0  0
    1.5729  -20.9507    0.0000 C   0  0  0  0  0  0  0  0  0  0  0  0
    2.2849  -21.3650    0.0000 C   0  0  0  0  0  0  0  0  0  0  0  0
    1.7850  -20.1556    0.0000 O   0  0  0  0  0  0  0  0  0  0  0  0
    0.7033  -20.1318    0.0000 O   0  0  0  0  0  0  0  0  0  0  0  0
   -0.0325  -19.7634    0.0000 C   0  0  0  0  0  0  0  0  0  0  0  0
   -0.0833  -18.9362    0.0000 O   0  0  0  0  0  0  0  0  0  0  0  0
   -0.7213  -20.2166    0.0000 N   0  0  0  0  0  0  0  0  0  0  0  0
    2.5847  -19.9433    0.0000 C   0  0  0  0  0  0  0  0  0  0  0  0
    2.2829  -22.1887    0.0000 C   0  0  0  0  0  0  0  0  0  0  0  0
    1.5657  -22.5963    0.0000 C   0  0  0  0  0  0  0  0  0  0  0  0
    1.5636  -23.4200    0.0000 C   0  0  0  0  0  0  0  0  0  0  0  0
    2.2788  -23.8360    0.0000 C   0  0  0  0  0  0  0  0  0  0  0  0
    0.0546  -24.6698    0.0000 N   0  0  0  0  0  0  0  0  0  0  0  0
    0.0555  -23.8461    0.0000 C   0  0  0  0  0  0  0  0  0  0  0  0
   -0.6602  -23.4312    0.0000 O   0  0  0  0  0  0  0  0  0  0  0  0
   -2.8056  -26.3211    0.0000 N   0  0  0  0  0  0  0  0  0  0  0  0
   -3.5326  -25.9048    0.0000 C   0  0  0  0  0  0  0  0  0  0  0  0
   -4.2564  -26.3262    0.0000 C   0  0  0  0  0  0  0  0  0  0  0  0
   -4.9834  -25.9101    0.0000 N   0  0  0  0  0  0  0  0  0  0  0  0
   -5.2016  -25.1046    0.0000 C   0  0  0  0  0  0  0  0  0  0  0  0
   -6.0099  -25.3243    0.0000 C   0  0  0  0  0  0  0  0  0  0  0  0
   -5.7902  -26.1326    0.0000 C   0  0  0  0  0  0  0  0  0  0  0  0
    0.1628  -22.6028    0.0000 C   0  0  0  0  0  0  0  0  0  0  0  0
 21 23  1  0  0  0  0 
  4  5  2  0  0  0  0 
 22 24  1  0  0  0  0 
 10 12  1  0  0  0  0 
 24 25  1  0  0  0  0 
  5  6  1  0  0  0  0 
 24 26  1  1  0  0  0 
 12 13  1  0  0  0  0 
 22 27  1  6  0  0  0 
 27 28  1  0  0  0  0 
 13 14  1  0  0  0  0 
 28 29  2  0  0  0  0 
  6  7  2  0  0  0  0 
 28 30  1  0  0  0  0 
 13 15  1  6  0  0  0 
 26 31  1  0  0  0  0 
  1  2  2  0  0  0  0 
 25 32  2  0  0  0  0 
 15 16  1  0  0  0  0 
 32 33  1  0  0  0  0 
  3  8  2  0  0  0  0 
 33 34  2  0  0  0  0 
 14 17  1  0  0  0  0 
 34 35  1  0  0  0  0 
  1  6  1  0  0  0  0 
  5 36  1  0  0  0  0 
 14 18  1  1  0  0  0 
 36 37  1  0  0  0  0 
  1  9  1  0  0  0  0 
 37 38  2  0  0  0  0 
 37 34  1  0  0  0  0 
 17 19  1  0  0  0  0 
  2 39  1  0  0  0  0 
  2  3  1  0  0  0  0 
 39 40  1  0  0  0  0 
 17 20  1  1  0  0  0 
 40 41  1  0  0  0  0 
  9 10  1  0  0  0  0 
 41 42  1  0  0  0  0 
 42 43  1  0  0  0  0 
 19 21  2  0  0  0  0 
  3  4  1  0  0  0  0 
 21 22  1  0  0  0  0 
 43 44  1  0  0  0  0 
 44 45  1  0  0  0  0 
 45 42  1  0  0  0  0 
 10 11  1  1  0  0  0 
 18 46  1  0  0  0  0 
M  END