
  SciTegic10191216002D

 33 36  0  0  1  0            999 V2000
   -0.8273  -24.2613    0.0000 C   0  0
   -0.1440  -24.7244    0.0000 N   0  0
    0.5075  -24.2176    0.0000 C   0  0
    1.3054  -24.4274    0.0000 P   0  0
    2.1002  -24.6164    0.0000 O   0  0
    1.1050  -25.2277    0.0000 O   0  0
    1.5138  -23.6291    0.0000 O   0  0
    2.2328  -23.2230    0.0000 C   0  0
    2.5232  -25.3247    0.0000 C   0  0
    2.9426  -23.6448    0.0000 C   0  0
    3.6605  -23.2398    0.0000 C   0  0
    3.6689  -22.4140    0.0000 C   0  0
    2.9533  -21.9948    0.0000 C   0  0
    2.2383  -22.4022    0.0000 C   0  0
    2.1185  -26.0417    0.0000 C   0  0
    2.5408  -26.7496    0.0000 C   0  0
    3.3666  -26.7379    0.0000 C   0  0
    3.7683  -26.0123    0.0000 C   0  0
    3.3437  -25.3074    0.0000 C   0  0
   -0.1169  -25.5490    0.0000 C   0  0
   -0.8176  -25.9847    0.0000 C   0  0  1  0  0  0
   -1.5452  -25.5959    0.0000 N   0  0
   -0.7905  -26.8093    0.0000 C   0  0  1  0  0  0
   -1.4911  -27.2451    0.0000 C   0  0
   -1.4641  -28.0697    0.0000 C   0  0
    0.6106  -25.9379    0.0000 O   0  0
   -0.5981  -23.4684    0.0000 C   0  0
    0.2240  -23.4420    0.0000 C   0  0
    0.6104  -22.7180    0.0000 C   0  0
    0.1759  -22.0199    0.0000 C   0  0
   -0.6492  -22.0504    0.0000 C   0  0
   -1.0318  -22.7749    0.0000 C   0  0
   -0.0629  -27.1982    0.0000 C   0  0
  4  7  1  0
 15 16  1  0
  3 28  1  0
 16 17  2  0
  7  8  1  0
 17 18  1  0
 18 19  2  0
 19  9  1  0
  5  9  1  0
  2 20  1  0
  3  4  1  0
 20 21  1  0
  8 10  2  0
 21 22  1  6
 27  1  1  0
 21 23  1  0
 10 11  1  0
 23 24  1  0
  4  5  1  0
 24 25  1  0
 11 12  2  0
 20 26  2  0
  1  2  1  0
 12 13  1  0
 27 28  2  0
  4  6  2  0
 28 29  1  0
 13 14  2  0
 29 30  2  0
 14  8  1  0
 30 31  1  0
  2  3  1  0
 31 32  2  0
 32 27  1  0
  9 15  2  0
 23 33  1  6
M  END