
  SciTegic06051315212D

 31 34  0  0  0  0            999 V2000
    3.0651  -24.7757    0.0000 C   0  0
    3.0640  -25.5953    0.0000 C   0  0
    3.7720  -26.0042    0.0000 C   0  0
    4.4817  -25.5948    0.0000 C   0  0
    4.4788  -24.7721    0.0000 C   0  0
    3.7702  -24.3669    0.0000 C   0  0
    3.7718  -26.8214    0.0000 C   0  0
    5.1900  -26.0023    0.0000 O   0  0
    5.8971  -25.5926    0.0000 C   0  0
    3.1156  -27.3016    0.0000 N   0  0
    3.3679  -28.0788    0.0000 N   0  0
    4.1852  -28.0790    0.0000 C   0  0
    4.4378  -27.3019    0.0000 C   0  0
    4.6654  -28.7402    0.0000 C   0  0
    2.8874  -28.7398    0.0000 C   0  0
    6.6054  -26.0000    0.0000 C   0  0
    2.0762  -28.6491    0.0000 C   0  0
    1.5958  -29.3093    0.0000 C   0  0
    1.9280  -30.0569    0.0000 C   0  0
    2.7452  -30.1403    0.0000 C   0  0
    3.2219  -29.4792    0.0000 C   0  0
    4.3294  -29.4838    0.0000 C   0  0
    4.8089  -30.1446    0.0000 C   0  0
    5.6225  -30.0596    0.0000 C   0  0
    5.9544  -29.3082    0.0000 C   0  0
    5.4728  -28.6506    0.0000 C   0  0
    7.3125  -25.5903    0.0000 C   0  0
    8.0209  -25.9978    0.0000 C   0  0
    8.7279  -25.5881    0.0000 O   0  0
    8.0221  -26.8150    0.0000 O   0  0
    1.4484  -30.7185    0.0000 Cl  0  0
  1  2  2  0
  2  3  1  0
  3  4  2  0
  4  5  1  0
  5  6  2  0
  6  1  1  0
  3  7  1  0
  4  8  1  0
  8  9  1  0
  7 10  2  0
 10 11  1  0
 11 12  1  0
 12 13  2  0
 13  7  1  0
 12 14  1  0
 11 15  1  0
  9 16  1  0
 15 17  2  0
 17 18  1  0
 18 19  2  0
 19 20  1  0
 20 21  2  0
 21 15  1  0
 14 22  2  0
 22 23  1  0
 23 24  2  0
 24 25  1  0
 25 26  2  0
 26 14  1  0
 16 27  1  0
 27 28  1  0
 28 29  1  0
 28 30  2  0
 19 31  1  0
M  END