
  Mrv0541 01111613452D          

 54 56  0  0  0  0            999 V2000
    3.1579   -8.5506    0.0000 C   0  0  2  0  0  0  0  0  0  0  0  0
    0.5150   -7.2729    0.0000 C   0  0  2  0  0  0  0  0  0  0  0  0
   -0.9037   -7.2778    0.0000 C   0  0  0  0  0  0  0  0  0  0  0  0
   -1.6178   -5.2228    0.0000 C   0  0  1  0  0  0  0  0  0  0  0  0
   -0.1895   -7.6860    0.0000 C   0  0  2  0  0  0  0  0  0  0  0  0
    2.7450   -9.2600    0.0000 C   0  0  1  0  0  0  0  0  0  0  0  0
    1.2292   -6.0389    0.0000 C   0  0  1  0  0  0  0  0  0  0  0  0
    0.5150   -6.4471    0.0000 C   0  0  1  0  0  0  0  0  0  0  0  0
   -0.9037   -3.9985    0.0000 C   0  0  2  0  0  0  0  0  0  0  0  0
   -0.9037   -6.4568    0.0000 O   0  0  0  0  0  0  0  0  0  0  0  0
   -0.9037   -4.8146    0.0000 C   0  0  1  0  0  0  0  0  0  0  0  0
   -0.1991   -3.5854    0.0000 C   0  0  0  0  0  0  0  0  0  0  0  0
    3.1531   -7.4527    0.0000 O   0  0  0  0  0  0  0  0  0  0  0  0
   -1.1028  -10.8633    0.0000 C   0  0  2  0  0  0  0  0  0  0  0  0
    1.9239   -9.2600    0.0000 C   0  0  2  0  0  0  0  0  0  0  0  0
    1.2292   -5.2228    0.0000 C   0  0  1  0  0  0  0  0  0  0  0  0
    0.1360  -10.1539    0.0000 C   0  0  1  0  0  0  0  0  0  0  0  0
   -0.2720  -10.8633    0.0000 C   0  0  0  0  0  0  0  0  0  0  0  0
    2.7450   -7.8364    0.0000 O   0  0  0  0  0  0  0  0  0  0  0  0
   -0.2720   -9.4397    0.0000 O   0  0  0  0  0  0  0  0  0  0  0  0
   -1.6178   -6.0486    0.0000 C   0  0  2  0  0  0  0  0  0  0  0  0
   -1.5158  -10.1539    0.0000 C   0  0  2  0  0  0  0  0  0  0  0  0
    1.2340   -7.6811    0.0000 O   0  0  0  0  0  0  0  0  0  0  0  0
   -1.1028   -9.4397    0.0000 C   0  0  2  0  0  0  0  0  0  0  0  0
    0.5150   -3.9935    0.0000 C   0  0  1  0  0  0  0  0  0  0  0  0
    0.5150   -4.8146    0.0000 C   0  0  0  0  0  0  0  0  0  0  0  0
    1.5061   -8.5506    0.0000 C   0  0  0  0  0  0  0  0  0  0  0  0
    1.5109   -9.9790    0.0000 N   0  0  0  0  0  0  0  0  0  0  0  0
   -1.6227   -7.6907    0.0000 O   0  0  0  0  0  0  0  0  0  0  0  0
    1.9239   -7.8364    0.0000 C   0  0  1  0  0  0  0  0  0  0  0  0
   -0.1991   -2.7595    0.0000 O   0  0  0  0  0  0  0  0  0  0  0  0
   -2.0356   -4.5037    0.0000 O   0  0  0  0  0  0  0  0  0  0  0  0
    3.1628   -9.9790    0.0000 O   0  0  0  0  0  0  0  0  0  0  0  0
    1.6373   -4.5037    0.0000 O   0  0  0  0  0  0  0  0  0  0  0  0
   -0.1944   -5.2325    0.0000 O   0  0  0  0  0  0  0  0  0  0  0  0
   -1.8169  -11.2714    0.0000 O   0  0  0  0  0  0  0  0  0  0  0  0
   -2.3417  -10.1539    0.0000 O   0  0  0  0  0  0  0  0  0  0  0  0
   -2.4437   -5.2228    0.0000 C   0  0  0  0  0  0  0  0  0  0  0  0
   -0.1895   -8.5119    0.0000 C   0  0  0  0  0  0  0  0  0  0  0  0
   -0.1991   -6.0340    0.0000 C   0  0  0  0  0  0  0  0  0  0  0  0
   -1.6227   -3.5854    0.0000 C   0  0  0  0  0  0  0  0  0  0  0  0
   -1.1028  -11.6940    0.0000 C   0  0  0  0  0  0  0  0  0  0  0  0
    2.0600   -5.2228    0.0000 C   0  0  0  0  0  0  0  0  0  0  0  0
   -2.3369   -6.4617    0.0000 C   0  0  0  0  0  0  0  0  0  0  0  0
   -1.5109   -8.7208    0.0000 C   0  0  0  0  0  0  0  0  0  0  0  0
    1.2340   -3.5758    0.0000 C   0  0  0  0  0  0  0  0  0  0  0  0
    0.6850   -9.9790    0.0000 C   0  0  0  0  0  0  0  0  0  0  0  0
    1.9239  -10.6932    0.0000 C   0  0  0  0  0  0  0  0  0  0  0  0
    1.5109   -7.1175    0.0000 C   0  0  0  0  0  0  0  0  0  0  0  0
   -2.5312  -10.8534    0.0000 C   0  0  0  0  0  0  0  0  0  0  0  0
   -3.0510   -6.0486    0.0000 C   0  0  0  0  0  0  0  0  0  0  0  0
    3.8673   -8.9636    0.0000 H   0  0  0  0  0  0  0  0  0  0  0  0
    2.0600   -6.0389    0.0000 H   0  0  0  0  0  0  0  0  0  0  0  0
    0.8502  -10.5668    0.0000 H   0  0  0  0  0  0  0  0  0  0  0  0
  2  8  1  0  0  0  0
  3  5  1  0  0  0  0
  4 11  1  0  0  0  0
  5  2  1  0  0  0  0
  6  1  1  0  0  0  0
  7 13  1  0  0  0  0
  8  7  1  0  0  0  0
  9 12  1  0  0  0  0
 10  3  1  0  0  0  0
 11  9  1  0  0  0  0
 12 25  1  0  0  0  0
 13  1  1  0  0  0  0
 14 18  1  0  0  0  0
 15  6  1  0  0  0  0
 16  7  1  0  0  0  0
 17 23  1  0  0  0  0
 18 17  1  0  0  0  0
 19  1  1  0  0  0  0
 20 17  1  0  0  0  0
 21 10  1  0  0  0  0
 22 24  1  0  0  0  0
  2 23  1  6  0  0  0
 24 20  1  0  0  0  0
 25 26  1  0  0  0  0
 26 16  1  0  0  0  0
 27 30  1  0  0  0  0
 15 28  1  1  0  0  0
 29  3  2  0  0  0  0
 30 19  1  0  0  0  0
 31 12  2  0  0  0  0
  4 32  1  1  0  0  0
  6 33  1  6  0  0  0
 16 34  1  1  0  0  0
 11 35  1  1  0  0  0
 14 36  1  1  0  0  0
 22 37  1  1  0  0  0
 38  4  1  0  0  0  0
  5 39  1  1  0  0  0
  8 40  1  6  0  0  0
  9 41  1  1  0  0  0
 42 14  1  0  0  0  0
 43 16  1  0  0  0  0
 21 44  1  6  0  0  0
 24 45  1  6  0  0  0
 25 46  1  6  0  0  0
 47 28  1  0  0  0  0
 48 28  1  0  0  0  0
 30 49  1  1  0  0  0
 50 36  1  0  0  0  0
 51 44  1  0  0  0  0
  1 52  1  6  0  0  0
  7 53  1  1  0  0  0
 17 54  1  6  0  0  0
 27 15  1  0  0  0  0
 21  4  1  0  0  0  0
 22 14  1  0  0  0  0
M  END