
  SciTegic01161211232D

 27 28  0  0  0  0            999 V2000
   -6.4925   11.7095    0.0000 C   0  0
   -6.4952   10.5095    0.0000 O   0  0
   -7.7961    9.7611    0.0000 C   0  0
   -8.8342   10.3631    0.0000 O   0  0
   -7.7994    8.2603    0.0000 C   0  0
   -6.5005    7.5101    0.0000 C   0  0
   -6.5006    6.0101    0.0000 C   0  0
   -7.7999    5.2603    0.0000 C   0  0
   -9.0988    6.0105    0.0000 C   0  0
   -9.0986    7.5105    0.0000 C   0  0
  -10.1377    8.1107    0.0000 O   0  0
   -5.2025    5.2568    0.0000 C   0  0
   -4.1622    5.8549    0.0000 O   0  0
   -5.2049    3.7560    0.0000 C   0  0
   -3.9067    3.0027    0.0000 N   0  0
   -3.9091    1.5019    0.0000 C   0  0
   -2.6111    0.7486    0.0000 C   0  0
   -2.6111   -0.7486    0.0000 C   0  0
   -1.2964   -1.4973    0.0000 O   0  0
    0.0000   -0.7486    0.0000 C   0  0
    1.2964   -1.4973    0.0000 C   0  0
    2.5929   -0.7486    0.0000 C   0  0
    2.5929    0.7486    0.0000 C   0  0
    1.2964    1.4973    0.0000 C   0  0
    0.0000    0.7486    0.0000 C   0  0
   -1.2964    1.4973    0.0000 O   0  0
    5.0929    5.2565    0.0000 Cl  0  0
  1  2  1  0
  2  3  1  0
  3  4  2  0
  3  5  1  0
  5  6  2  0
  6  7  1  0
  7  8  2  0
  8  9  1  0
  9 10  2  0
 10  5  1  0
 10 11  1  0
  7 12  1  0
 12 13  1  0
 12 14  1  0
 14 15  1  0
 15 16  1  0
 16 17  1  0
 17 18  1  0
 18 19  1  0
 19 20  1  0
 20 21  2  0
 21 22  1  0
 22 23  2  0
 23 24  1  0
 24 25  2  0
 25 20  1  0
 25 26  1  0
 26 17  1  0
M  END