
  CDK    9/16/09,10:2

 81 86  0  0  0  0  0  0  0  0999 V2000
    8.5704   -5.2850    0.0000 C   0  0  0  0  0  0  0  0  0  0  0  0
   10.0009   -5.2797    0.0000 O   0  0  0  0  0  0  0  0  0  0  0  0
    9.2856   -4.8702    0.0000 C   0  0  0  0  0  0  0  0  0  0  0  0
    7.8536   -4.8748    0.0000 C   0  0  0  0  0  0  0  0  0  0  0  0
    7.8492   -4.0471    0.0000 C   0  0  0  0  0  0  0  0  0  0  0  0
    7.1348   -3.6382    0.0000 C   0  0  0  0  0  0  0  0  0  0  0  0
    7.1303   -2.8151    0.0000 O   0  0  0  0  0  0  0  0  0  0  0  0
    9.9924   -3.6308    0.0000 C   0  0  0  0  0  0  0  0  0  0  0  0
    9.2733   -2.4033    0.0000 O   0  0  0  0  0  0  0  0  0  0  0  0
    9.9879   -2.8114    0.0000 C   0  0  0  0  0  0  0  0  0  0  0  0
   10.6962   -1.5684    0.0000 C   0  0  0  0  0  0  0  0  0  0  0  0
   12.1295   -1.5650    0.0000 O   0  0  0  0  0  0  0  0  0  0  0  0
   11.4124   -1.1500    0.0000 C   0  0  0  0  0  0  0  0  0  0  0  0
    9.9453   -1.2318    0.0000 C   0  0  0  0  0  0  0  0  0  0  0  0
    9.8609   -0.4048    0.0000 C   0  0  0  0  0  0  0  0  0  0  0  0
    9.1106   -0.0672    0.0000 C   0  0  0  0  0  0  0  0  0  0  0  0
   10.5343    0.0721    0.0000 C   0  0  0  0  0  0  0  0  0  0  0  0
   12.1220    0.0868    0.0000 C   0  0  0  0  0  0  0  0  0  0  0  0
   11.3994    1.3053    0.0000 O   0  0  0  0  0  0  0  0  0  0  0  0
   12.1175    0.9065    0.0000 C   0  0  0  0  0  0  0  0  0  0  0  0
   12.8391   -0.3198    0.0000 C   0  0  0  0  0  0  0  0  0  0  0  0
    7.8620   -7.3492    0.0000 C   0  0  0  0  0  0  0  0  0  0  0  0
    7.8575   -6.5243    0.0000 C   0  0  0  0  0  0  0  0  0  0  0  0
    7.1405   -6.1138    0.0000 O   0  0  0  0  0  0  0  0  0  0  0  0
    8.5801   -7.7603    0.0000 C   0  0  0  0  0  0  0  0  0  0  0  0
    9.2899   -7.3442    0.0000 C   0  0  0  0  0  0  0  0  0  0  0  0
   10.0047   -7.7621    0.0000 C   0  0  0  0  0  0  0  0  0  0  0  0
   10.7223   -7.3395    0.0000 C   0  0  0  0  0  0  0  0  0  0  0  0
   10.7174   -6.5147    0.0000 C   0  0  0  0  0  0  0  0  0  0  0  0
    9.9941   -6.1062    0.0000 C   0  0  0  0  0  0  0  0  0  0  0  0
    9.2839   -6.5252    0.0000 C   0  0  0  0  0  0  0  0  0  0  0  0
   11.4289   -6.0978    0.0000 O   0  0  0  0  0  0  0  0  0  0  0  0
   12.1462   -6.5084    0.0000 P   0  0  0  0  0  0  0  0  0  0  0  0
   11.7376   -7.2222    0.0000 O   0  0  0  0  0  0  0  0  0  0  0  0
    8.5718   -6.1105    0.0000 N   0  0  0  0  0  0  0  0  0  0  0  0
    6.4211   -4.0515    0.0000 N   0  0  0  0  0  0  0  0  0  0  0  0
    9.2782   -4.0447    0.0000 N   0  0  0  0  0  0  0  0  0  0  0  0
   10.7006   -2.3939    0.0000 N   0  0  0  0  0  0  0  0  0  0  0  0
   11.4078   -0.3245    0.0000 N   0  0  0  0  0  0  0  0  0  0  0  0
   13.5582    0.0973    0.0000 O   0  0  0  0  0  0  0  0  0  0  0  0
   12.8345    1.3280    0.0000 N   0  0  0  0  0  0  0  0  0  0  0  0
    7.1477   -7.7631    0.0000 N   0  0  0  0  0  0  0  0  0  0  0  0
   12.8619   -6.9177    0.0000 O   0  0  0  0  0  0  0  0  0  0  0  0
   12.5591   -5.7866    0.0000 O   0  0  0  0  0  0  0  0  0  0  0  0
    6.4325   -7.3557    0.0000 C   0  0  0  0  0  0  0  0  0  0  0  0
    6.4314   -6.5303    0.0000 O   0  0  0  0  0  0  0  0  0  0  0  0
    4.0483   -7.1526    0.0000 C   0  0  0  0  0  0  0  0  0  0  0  0
    3.2737   -6.8709    0.0000 C   0  0  0  0  0  0  0  0  0  0  0  0
    2.6423   -7.4015    0.0000 C   0  0  0  0  0  0  0  0  0  0  0  0
    2.7785   -8.2133    0.0000 C   0  0  0  0  0  0  0  0  0  0  0  0
    2.1474   -8.7436    0.0000 C   0  0  0  0  0  0  0  0  0  0  0  0
    1.8651   -7.1045    0.0000 O   0  0  0  0  0  0  0  0  0  0  0  0
    1.2281   -7.6393    0.0000 C   0  0  0  0  0  0  0  0  0  0  0  0
    1.3674   -8.4517    0.0000 C   0  0  0  0  0  0  0  0  0  0  0  0
    0.7363   -8.9795    0.0000 C   0  0  0  0  0  0  0  0  0  0  0  0
   -0.0396   -8.6928    0.0000 C   0  0  0  0  0  0  0  0  0  0  0  0
   -0.1762   -7.8792    0.0000 C   0  0  0  0  0  0  0  0  0  0  0  0
    0.4601   -7.3542    0.0000 C   0  0  0  0  0  0  0  0  0  0  0  0
    4.6812   -6.6267    0.0000 O   0  0  0  0  0  0  0  0  0  0  0  0
    2.1436   -9.8187    0.0000 C   0  0  0  0  0  0  0  0  0  0  0  0
    2.8620  -10.2370    0.0000 C   0  0  0  0  0  0  0  0  0  0  0  0
    2.1349  -11.4665    0.0000 C   0  0  0  0  0  0  0  0  0  0  0  0
    1.4224  -11.0481    0.0000 C   0  0  0  0  0  0  0  0  0  0  0  0
    1.4258  -10.2248    0.0000 C   0  0  0  0  0  0  0  0  0  0  0  0
    2.1303  -12.2930    0.0000 N   0  0  0  0  0  0  0  0  0  0  0  0
    2.1293  -13.1173    0.0000 C   0  0  0  0  0  0  0  0  0  0  0  0
    2.1246  -13.9437    0.0000 S   0  0  0  0  0  0  0  0  0  0  0  0
    3.5800   -9.8261    0.0000 C   0  0  0  0  0  0  0  0  0  0  0  0
    3.5581   -8.4986    0.0000 C   0  0  0  0  0  0  0  0  0  0  0  0
    3.5810   -9.0001    0.0000 O   0  0  0  0  0  0  0  0  0  0  0  0
    4.1883   -7.9745    0.0000 C   0  0  0  0  0  0  0  0  0  0  0  0
    2.8552  -11.0545    0.0000 C   0  0  0  0  0  0  0  0  0  0  0  0
   -0.9518   -7.5890    0.0000 O   0  0  0  0  0  0  0  0  0  0  0  0
    4.2909  -10.2394    0.0000 N   0  0  0  0  0  0  0  0  0  0  0  0
    5.0071   -9.8287    0.0000 C   0  0  0  0  0  0  0  0  0  0  0  0
    5.7185  -10.2454    0.0000 C   0  0  0  0  0  0  0  0  0  0  0  0
    6.4341   -9.8354    0.0000 C   0  0  0  0  0  0  0  0  0  0  0  0
    6.4370   -9.0090    0.0000 C   0  0  0  0  0  0  0  0  0  0  0  0
    5.7183   -8.5944    0.0000 C   0  0  0  0  0  0  0  0  0  0  0  0
    5.0056   -9.0067    0.0000 C   0  0  0  0  0  0  0  0  0  0  0  0
    5.7178   -7.7689    0.0000 C   0  0  0  0  0  0  0  0  0  0  0  0
 29 32  1  0  0  0  0 
 32 33  1  0  0  0  0 
 33 34  2  0  0  0  0 
  1  3  1  0  0  0  0 
  3  2  2  0  0  0  0 
  1  4  1  1  0  0  0 
  4  5  1  0  0  0  0 
  5  6  1  0  0  0  0 
 23 35  1  0  0  0  0 
 45 42  1  0  0  0  0 
 35  1  1  0  0  0  0 
 45 46  2  0  0  0  0 
 21 40  1  0  0  0  0 
 37  8  1  0  0  0  0 
  3 37  1  0  0  0  0 
 20 41  1  0  0  0  0 
 42 22  1  0  0  0  0 
 38 11  1  0  0  0  0 
 10 38  1  0  0  0  0 
 33 43  1  0  0  0  0 
  6 36  1  0  0  0  0 
 33 44  1  0  0  0  0 
 39 18  1  0  0  0  0 
 13 39  1  0  0  0  0 
  6  7  2  0  0  0  0 
  8 10  1  0  0  0  0 
 10  9  2  0  0  0  0 
 11 13  1  0  0  0  0 
 13 12  2  0  0  0  0 
 11 14  1  1  0  0  0 
 14 15  1  0  0  0  0 
 15 16  1  0  0  0  0 
 15 17  1  0  0  0  0 
 18 20  1  0  0  0  0 
 20 19  2  0  0  0  0 
 18 21  1  6  0  0  0 
 22 23  1  0  0  0  0 
 23 24  2  0  0  0  0 
 22 25  1  6  0  0  0 
 47 71  1  0  0  0  0 
 71 69  2  0  0  0  0 
 69 50  1  0  0  0  0 
 49 48  2  0  0  0  0 
 48 47  1  0  0  0  0 
 49 50  1  0  0  0  0 
 49 52  1  0  0  0  0 
 50 51  2  0  0  0  0 
 51 54  1  0  0  0  0 
 53 52  1  0  0  0  0 
 53 54  2  0  0  0  0 
 54 55  1  0  0  0  0 
 55 56  2  0  0  0  0 
 56 57  1  0  0  0  0 
 57 58  2  0  0  0  0 
 58 53  1  0  0  0  0 
 47 59  2  0  0  0  0 
 60 61  2  0  0  0  0 
 61 72  1  0  0  0  0 
 72 62  2  0  0  0  0 
 62 63  1  0  0  0  0 
 63 64  2  0  0  0  0 
 64 60  1  0  0  0  0 
 51 60  1  0  0  0  0 
 62 65  1  0  0  0  0 
 65 66  2  0  0  0  0 
 66 67  2  0  0  0  0 
 61 68  1  0  0  0  0 
 68 70  2  0  0  0  0 
 57 73  1  0  0  0  0 
 68 74  1  0  0  0  0 
 25 26  1  0  0  0  0 
 74 75  1  0  0  0  0 
 26 27  2  0  0  0  0 
 75 76  2  0  0  0  0 
 27 28  1  0  0  0  0 
 76 77  1  0  0  0  0 
 28 29  2  0  0  0  0 
 77 78  2  0  0  0  0 
 29 30  1  0  0  0  0 
 78 79  1  0  0  0  0 
 30 31  2  0  0  0  0 
 79 80  2  0  0  0  0 
 80 75  1  0  0  0  0 
 31 26  1  0  0  0  0 
 79 81  1  0  0  0  0 
 81 45  1  0  0  0  0 
M  END