
  SciTegic01161211242D

 40 45  0  0  0  0            999 V2000
    0.1841   -9.0963    0.0000 C   0  0
    0.8701   -8.6383    0.0000 C   0  0
    1.6416   -8.9273    0.0000 N   0  0
    0.9005   -7.8172    0.0000 C   0  0
    1.6945   -7.5934    0.0000 N   0  0
    2.1473   -8.2790    0.0000 C   0  0
    2.9393   -8.0603    0.0000 S   0  0
    2.2067   -6.9510    0.0000 C   0  0
    2.9768   -7.2437    0.0000 C   0  0
    3.6132   -6.7236    0.0000 C   0  0
    3.4798   -5.9111    0.0000 C   0  0
    2.7064   -5.6207    0.0000 C   0  0
    2.0732   -6.1426    0.0000 C   0  0
   -1.2431   -9.1000    0.0000 C   0  0
   -1.2443   -9.9273    0.0000 C   0  0
   -0.5294  -10.3402    0.0000 C   0  0
    0.1870   -9.9269    0.0000 C   0  0
   -0.5312   -8.6872    0.0000 C   0  0
   -1.9591  -10.3393    0.0000 N   0  0
   -2.6732   -9.9262    0.0000 C   0  0
   -3.3880  -10.3381    0.0000 N   0  0
   -2.6725   -9.1012    0.0000 O   0  0
   -4.1021   -9.9251    0.0000 C   0  0
   -4.1835   -9.1018    0.0000 C   0  0
   -4.9903   -8.9296    0.0000 C   0  0
   -5.4034   -9.6438    0.0000 O   0  0
   -4.8518  -10.2572    0.0000 N   0  0
   -5.3253   -8.1757    0.0000 C   0  0
   -4.8398   -7.5086    0.0000 C   0  0
   -6.1542   -8.1750    0.0000 C   0  0
   -5.7458   -7.4583    0.0000 C   0  0
    4.1701   -5.4593    0.0000 C   0  0
    4.9065   -5.8312    0.0000 C   0  0
    5.5968   -5.3794    0.0000 C   0  0
    6.3332   -5.7512    0.0000 N   0  0
    6.3732   -6.5806    0.0000 C   0  0
    7.1055   -6.9526    0.0000 C   0  0
    7.7984   -6.5042    0.0000 O   0  0
    7.7542   -5.6794    0.0000 C   0  0
    7.0171   -5.3031    0.0000 C   0  0
  5  4  1  0
 15 19  1  0
  8  9  2  0
 19 20  1  0
  4  2  2  0
 20 21  1  0
  9 10  1  0
 20 22  2  0
  5  6  1  0
 21 23  1  0
 23 24  1  0
 10 11  2  0
  2  3  1  0
 11 12  1  0
 24 25  2  0
 25 26  1  0
 26 27  1  0
 27 23  2  0
 12 13  2  0
 25 28  1  0
 13  8  1  0
 28 29  1  0
  1  2  1  0
 28 30  1  0
  6  7  1  0
 28 31  1  0
 14 15  2  0
 11 32  1  0
  7  9  1  0
 32 33  1  0
 15 16  1  0
 33 34  1  0
  8  5  1  0
 34 35  1  0
 35 36  1  0
 16 17  2  0
 17  1  1  0
  3  6  2  0
  1 18  2  0
 18 14  1  0
 35 40  1  0
 36 37  1  0
 37 38  1  0
 38 39  1  0
 39 40  1  0
M  END