
  SciTegic05161214222D

 54 57  0  0  0  0            999 V2000
    3.1335  -29.0129    0.0000 C   0  0
    3.8483  -28.6009    0.0000 C   0  0
   -1.1458  -28.1958    0.0000 C   0  0
   -1.1458  -29.0208    0.0000 C   0  0
   -0.4338  -29.4292    0.0000 O   0  0
    0.2782  -29.0208    0.0000 C   0  0
    0.2782  -28.1958    0.0000 C   0  0
   -0.4338  -27.7792    0.0000 C   0  0
   -1.8635  -27.7906    0.0000 S   0  0
   -2.2718  -28.5075    0.0000 O   0  0
   -1.4469  -28.5027    0.0000 O   0  0
   -4.7306  -22.8541    0.0000 C   0  0
   -4.7318  -23.6815    0.0000 C   0  0
   -4.0169  -24.0944    0.0000 C   0  0
   -4.0187  -22.4414    0.0000 C   0  0
   -3.3034  -22.8505    0.0000 C   0  0
   -3.3026  -23.6773    0.0000 C   0  0
   -2.5873  -24.0883    0.0000 N   0  0
   -1.8723  -23.6735    0.0000 C   0  0
   -1.8770  -22.8436    0.0000 C   0  0
   -2.5929  -22.4363    0.0000 C   0  0
   -1.1562  -24.0833    0.0000 C   0  0
   -2.5973  -21.6114    0.0000 C   0  0
   -4.0150  -24.9194    0.0000 O   0  0
   -3.2996  -25.3302    0.0000 C   0  0
   -3.2977  -26.1552    0.0000 C   0  0
   -4.0138  -26.5650    0.0000 C   0  0
   -4.0122  -27.3892    0.0000 C   0  0
   -3.2963  -27.8009    0.0000 C   0  0
   -2.5804  -27.3823    0.0000 C   0  0
   -2.5855  -26.5594    0.0000 C   0  0
   -4.7279  -26.1518    0.0000 Cl  0  0
   -1.8738  -26.1421    0.0000 Cl  0  0
   -1.1515  -27.3739    0.0000 N   0  0
    0.2774  -27.3656    0.0000 C   0  0
    0.9932  -27.7759    0.0000 N   0  0
    0.2749  -26.5406    0.0000 O   0  0
    0.9921  -28.6009    0.0000 C   0  0
    1.7037  -29.0111    0.0000 C   0  0
    2.4194  -28.5999    0.0000 N   0  0
    2.4188  -27.7739    0.0000 C   0  0
    1.7026  -27.3592    0.0000 C   0  0
    3.1330  -29.8379    0.0000 O   0  0
    4.5625  -29.0139    0.0000 C   0  0
    5.2772  -28.6019    0.0000 C   0  0
    5.9914  -29.0149    0.0000 C   0  0
    6.7062  -28.6029    0.0000 N   0  0
    5.6909  -26.3051    0.0000 F   0  0
    6.4053  -25.8926    0.0000 C   0  0
    7.1198  -26.3051    0.0000 F   0  0
    6.3992  -26.7134    0.0000 F   0  0
    6.4084  -25.0676    0.0000 C   0  0
    7.1244  -24.6578    0.0000 O   0  0
    5.6955  -24.6524    0.0000 O   0  0
 14 24  1  0
  5  6  1  0
 24 25  1  0
 13 14  1  0
 25 26  1  0
 14 17  2  0
 26 27  2  0
  6  7  1  0
 27 28  1  0
 16 15  2  0
 28 29  2  0
 15 12  1  0
 29 30  1  0
  7  8  1  0
 30 31  2  0
 31 26  1  0
 10  9  2  0
 27 32  1  0
 16 17  1  0
 31 33  1  0
 30  9  1  0
  9 11  2  0
  9 34  1  0
 34  8  1  0
 17 18  1  0
  8 35  1  0
 35 36  1  0
 18 19  2  0
 35 37  2  0
 36 38  1  0
  1  2  1  0
 19 20  1  0
  3  4  1  0
 20 21  2  0
 21 16  1  0
 36 42  1  0
 38 39  1  0
 39 40  1  0
 40 41  1  0
 41 42  1  0
 40  1  1  0
  3  8  1  0
  1 43  2  0
 19 22  1  0
  2 44  1  0
  4  5  1  0
 44 45  1  0
 21 23  1  0
 45 46  1  0
 12 13  2  0
 46 47  1  0
 48 49  1  0
 49 51  1  0
 49 52  1  0
 49 50  1  0
 52 53  1  0
 52 54  2  0
M  END