
          11280715092D 1   1.00000     0.00000     0

 48 52  0     0  0            999 V2000
    6.1375   -3.5375    0.0000 C   0  0  0  0  0  0           0  0  0
    6.6542   -3.2417    0.0000 C   0  0  0  0  0  0           0  0  0
    7.1667   -3.5375    0.0000 N   0  0  3  0  0  0           0  0  0
    5.6250   -3.2500    0.0000 N   0  0  0  0  0  0           0  0  0
    5.1042   -3.5417    0.0000 C   0  0  0  0  0  0           0  0  0
    6.1375   -4.1292    0.0000 C   0  0  0  0  0  0           0  0  0
    7.1750   -4.1292    0.0000 C   0  0  0  0  0  0           0  0  0
    2.7875   -1.0750    0.0000 C   0  0  3  0  0  0           0  0  0
    4.5875   -3.2500    0.0000 C   0  0  3  0  0  0           0  0  0
    6.6500   -4.4375    0.0000 C   0  0  0  0  0  0           0  0  0
    2.2542   -1.3667    0.0000 C   0  0  0  0  0  0           0  0  0
    3.5542   -3.2542    0.0000 C   0  0  0  0  0  0           0  0  0
    4.0750   -3.5500    0.0000 N   0  0  0  0  0  0           0  0  0
    7.6875   -3.2375    0.0000 C   0  0  0  0  0  0           0  0  0
    3.3125   -1.3750    0.0000 C   0  0  0  0  0  0           0  0  0
    6.6500   -2.6417    0.0000 O   0  0  0  0  0  0           0  0  0
    5.1000   -4.1417    0.0000 O   0  0  0  0  0  0           0  0  0
    1.4792   -3.2542    0.0000 C   0  0  0  0  0  0           0  0  0
    4.5875   -2.6500    0.0000 C   0  0  0  0  0  0           0  0  0
    2.0000   -3.5542    0.0000 C   0  0  0  0  0  0           0  0  0
    2.2500   -1.7750    0.0000 O   0  0  0  0  0  0           0  0  0
    3.5042   -2.7500    0.0000 O   0  0  0  0  0  0           0  0  0
    2.5167   -3.2542    0.0000 C   0  0  0  0  0  0           0  0  0
    3.0375   -3.5542    0.0000 C   0  0  0  0  0  0           0  0  0
    1.4750   -2.6542    0.0000 C   0  0  0  0  0  0           0  0  0
    3.1542   -1.9625    0.0000 C   0  0  0  0  0  0           0  0  0
    3.8917   -1.2167    0.0000 C   0  0  0  0  0  0           0  0  0
    2.0000   -2.3500    0.0000 C   0  0  0  0  0  0           0  0  0
    8.2042   -3.5375    0.0000 C   0  0  0  0  0  0           0  0  0
    4.1625   -2.2250    0.0000 C   0  0  0  0  0  0           0  0  0
    1.7500   -1.0667    0.0000 O   0  0  0  0  0  0           0  0  0
    2.5167   -2.6500    0.0000 C   0  0  0  0  0  0           0  0  0
    9.2375   -4.1250    0.0000 C   0  0  0  0  0  0           0  0  0
    3.5792   -2.3792    0.0000 C   0  0  0  0  0  0           0  0  0
    4.3125   -1.6417    0.0000 C   0  0  0  0  0  0           0  0  0
    8.2042   -4.1292    0.0000 C   0  0  0  0  0  0           0  0  0
    8.7125   -3.2375    0.0000 C   0  0  0  0  0  0           0  0  0
    9.2292   -3.5250    0.0000 C   0  0  0  0  0  0           0  0  0
    8.7167   -4.4250    0.0000 C   0  0  0  0  0  0           0  0  0
    2.3625   -0.6500    0.0000 C   0  0  0  0  0  0           0  0  0
    3.2125   -0.6500    0.0000 C   0  0  0  0  0  0           0  0  0
    9.7500   -4.4250    0.0000 O   0  0  0  0  0  0           0  0  0
    5.6125   -4.4292    0.0000 C   0  0  0  0  0  0           0  0  0
    0.9625   -3.5625    0.0000 C   0  0  0  0  0  0           0  0  0
    0.9542   -2.3542    0.0000 C   0  0  0  0  0  0           0  0  0
    9.7500   -5.0250    0.0000 C   0  0  0  0  0  0           0  0  0
    0.4417   -3.2667    0.0000 C   0  0  0  0  0  0           0  0  0
    0.4375   -2.6625    0.0000 C   0  0  0  0  0  0           0  0  0
  2  1  1  0     0  0
  3  2  1  0     0  0
  4  1  1  0     0  0
  5  4  1  0     0  0
  6  1  2  0     0  0
  7 10  2  0     0  0
  8 15  1  0     0  0
  9  5  1  0     0  0
 10  6  1  0     0  0
 11  8  1  0     0  0
 12 13  1  0     0  0
 13  9  1  0     0  0
 14  3  1  0     0  0
 15 27  2  0     0  0
 16  2  2  0     0  0
 17  5  2  0     0  0
 18 20  1  0     0  0
 19  9  1  0     0  0
 20 23  2  0     0  0
 21 11  2  0     0  0
 22 12  2  0     0  0
 23 24  1  0     0  0
 24 12  1  0     0  0
 25 28  1  0     0  0
 26 34  2  0     0  0
 27 35  1  0     0  0
 28 32  2  0     0  0
 29 14  1  0     0  0
 30 19  1  0     0  0
 31 11  1  0     0  0
 32 23  1  0     0  0
 33 38  1  0     0  0
 34 30  1  0     0  0
 35 30  2  0     0  0
 36 29  2  0     0  0
 37 29  1  0     0  0
 38 37  2  0     0  0
 39 36  1  0     0  0
 40  8  1  0     0  0
 41  8  1  0     0  0
 42 33  1  0     0  0
 43  6  1  0     0  0
 44 18  1  0     0  0
 45 25  1  0     0  0
 46 42  1  0     0  0
 47 44  2  0     0  0
 48 45  2  0     0  0
  3  7  1  0     0  0
 33 39  2  0     0  0
 26 15  1  0     0  0
 25 18  2  0     0  0
 48 47  1  0     0  0
M  END