
          11280714452D 1   1.00000     0.00000     0

 31 34  0     0  0            999 V2000
   -1.7958   -0.8667    0.0000 N   0  0  0  0  0  0           0  0  0
   -2.5458   -0.5292    0.0000 C   0  0  0  0  0  0           0  0  0
   -1.6583    0.4625    0.0000 N   0  0  0  0  0  0           0  0  0
   -2.4625    0.2875    0.0000 N   0  0  3  0  0  0           0  0  0
   -1.8083   -4.2375    0.0000 C   0  0  0  0  0  0           0  0  0
   -0.9208   -3.2417    0.0000 N   0  0  0  0  0  0           0  0  0
   -1.7250   -3.4167    0.0000 N   0  0  0  0  0  0           0  0  0
   -0.5083   -3.9542    0.0000 N   0  0  0  0  0  0           0  0  0
   -1.2458   -0.2500    0.0000 C   0  0  0  0  0  0           0  0  0
   -1.0583   -4.5667    0.0000 N   0  0  0  0  0  0           0  0  0
   -2.5250   -4.6542    0.0000 C   0  0  0  0  0  0           0  0  0
   -3.2458   -4.2417    0.0000 C   0  0  0  0  0  0           0  0  0
   -3.2583   -0.9417    0.0000 C   0  0  0  0  0  0           0  0  0
   -3.2458   -3.4167    0.0000 C   0  0  0  0  0  0           0  0  0
   -3.9583   -3.0125    0.0000 C   0  0  0  0  0  0           0  0  0
   -2.5333   -3.0042    0.0000 C   0  0  0  0  0  0           0  0  0
   -3.2500   -1.7667    0.0000 C   0  0  0  0  0  0           0  0  0
   -3.0833    0.8333    0.0000 C   0  0  0  0  0  0           0  0  0
   -3.9708   -2.1917    0.0000 C   0  0  0  0  0  0           0  0  0
   -2.5333   -2.1792    0.0000 C   0  0  0  0  0  0           0  0  0
   -0.4208   -0.3292    0.0000 C   0  0  0  0  0  0           0  0  0
   -2.5250   -5.4792    0.0000 C   0  0  0  0  0  0           0  0  0
   -3.9583   -4.6542    0.0000 C   0  0  0  0  0  0           0  0  0
   -2.9125    1.6458    0.0000 C   0  0  0  0  0  0           0  0  0
   -0.0833   -1.0875    0.0000 C   0  0  0  0  0  0           0  0  0
    0.7375   -1.1667    0.0000 C   0  0  0  0  0  0           0  0  0
   -3.5333    2.1958    0.0000 C   0  0  0  0  0  0           0  0  0
   -3.9583   -5.4792    0.0000 C   0  0  0  0  0  0           0  0  0
   -3.2458   -5.8917    0.0000 C   0  0  0  0  0  0           0  0  0
    1.0792   -1.9167    0.0000 C   0  0  0  0  0  0           0  0  0
   -3.3625    3.0000    0.0000 C   0  0  0  0  0  0           0  0  0
  2  1  2  0     0  0
  3  9  2  0     0  0
  4  2  1  0     0  0
  5 11  1  0     0  0
  6  7  2  0     0  0
  7  5  1  0     0  0
  8 10  1  0     0  0
  9  1  1  0     0  0
 10  5  2  0     0  0
 11 12  2  0     0  0
 12 14  1  0     0  0
 13  2  1  0     0  0
 14 16  2  0     0  0
 15 19  2  0     0  0
 16 20  1  0     0  0
 17 13  1  0     0  0
 18  4  1  0     0  0
 19 17  1  0     0  0
 20 17  2  0     0  0
 21  9  1  0     0  0
 22 11  1  0     0  0
 23 12  1  0     0  0
 24 18  1  0     0  0
 25 21  1  0     0  0
 26 25  1  0     0  0
 27 24  1  0     0  0
 28 23  2  0     0  0
 29 28  1  0     0  0
 30 26  1  0     0  0
 31 27  1  0     0  0
  3  4  1  0     0  0
 15 14  1  0     0  0
 29 22  2  0     0  0
  8  6  1  0     0  0
M  END