
          11280715082D 1   1.00000     0.00000     0

 48 52  0     0  0            999 V2000
    5.8750   -3.5375    0.0000 C   0  0  0  0  0  0           0  0  0
    6.3917   -3.2417    0.0000 C   0  0  0  0  0  0           0  0  0
    6.9042   -3.5375    0.0000 N   0  0  3  0  0  0           0  0  0
    5.3625   -3.2500    0.0000 N   0  0  0  0  0  0           0  0  0
    4.8417   -3.5417    0.0000 C   0  0  0  0  0  0           0  0  0
    5.8750   -4.1292    0.0000 C   0  0  0  0  0  0           0  0  0
    6.9125   -4.1292    0.0000 C   0  0  0  0  0  0           0  0  0
    2.5250   -1.0750    0.0000 C   0  0  3  0  0  0           0  0  0
    3.2917   -3.2542    0.0000 C   0  0  0  0  0  0           0  0  0
    4.3250   -3.2500    0.0000 C   0  0  3  0  0  0           0  0  0
    6.3875   -4.4375    0.0000 C   0  0  0  0  0  0           0  0  0
    2.0000   -1.3667    0.0000 C   0  0  0  0  0  0           0  0  0
    3.8125   -3.5500    0.0000 N   0  0  0  0  0  0           0  0  0
    2.2542   -3.2542    0.0000 C   0  0  0  0  0  0           0  0  0
    7.4250   -3.2375    0.0000 C   0  0  0  0  0  0           0  0  0
    2.7750   -3.5542    0.0000 C   0  0  0  0  0  0           0  0  0
    1.7375   -3.5542    0.0000 C   0  0  0  0  0  0           0  0  0
    3.0500   -1.3750    0.0000 C   0  0  0  0  0  0           0  0  0
    6.3875   -2.6417    0.0000 O   0  0  0  0  0  0           0  0  0
    4.8375   -4.1417    0.0000 O   0  0  0  0  0  0           0  0  0
    4.3250   -2.6500    0.0000 C   0  0  0  0  0  0           0  0  0
    1.9875   -1.7750    0.0000 O   0  0  0  0  0  0           0  0  0
    3.2417   -2.7500    0.0000 O   0  0  0  0  0  0           0  0  0
    2.8917   -1.9625    0.0000 C   0  0  0  0  0  0           0  0  0
    3.6292   -1.2167    0.0000 C   0  0  0  0  0  0           0  0  0
    1.2167   -3.2542    0.0000 C   0  0  0  0  0  0           0  0  0
    7.9417   -3.5375    0.0000 C   0  0  0  0  0  0           0  0  0
    3.9000   -2.2250    0.0000 C   0  0  0  0  0  0           0  0  0
    1.4875   -1.0667    0.0000 O   0  0  0  0  0  0           0  0  0
    8.9750   -4.1250    0.0000 C   0  0  0  0  0  0           0  0  0
    4.0500   -1.6417    0.0000 C   0  0  0  0  0  0           0  0  0
    3.3167   -2.3792    0.0000 C   0  0  0  0  0  0           0  0  0
    8.4500   -3.2375    0.0000 C   0  0  0  0  0  0           0  0  0
    7.9417   -4.1292    0.0000 C   0  0  0  0  0  0           0  0  0
    8.4542   -4.4250    0.0000 C   0  0  0  0  0  0           0  0  0
    8.9667   -3.5250    0.0000 C   0  0  0  0  0  0           0  0  0
    2.2542   -2.6500    0.0000 C   0  0  0  0  0  0           0  0  0
    2.1000   -0.6500    0.0000 C   0  0  0  0  0  0           0  0  0
    2.9500   -0.6500    0.0000 C   0  0  0  0  0  0           0  0  0
    9.4875   -4.4250    0.0000 O   0  0  0  0  0  0           0  0  0
    5.3500   -4.4292    0.0000 C   0  0  0  0  0  0           0  0  0
    1.7375   -2.3500    0.0000 C   0  0  0  0  0  0           0  0  0
    1.7375   -4.1500    0.0000 C   0  0  0  0  0  0           0  0  0
    1.2125   -2.6500    0.0000 C   0  0  0  0  0  0           0  0  0
    0.7000   -3.5542    0.0000 C   0  0  0  0  0  0           0  0  0
    9.4875   -5.0250    0.0000 C   0  0  0  0  0  0           0  0  0
    1.2250   -4.4417    0.0000 C   0  0  0  0  0  0           0  0  0
    0.7000   -4.1542    0.0000 C   0  0  0  0  0  0           0  0  0
  2  1  1  0     0  0
  3  2  1  0     0  0
  4  1  1  0     0  0
  5  4  1  0     0  0
  6  1  2  0     0  0
  7 11  2  0     0  0
  8 18  1  0     0  0
  9 13  1  0     0  0
 10  5  1  0     0  0
 11  6  1  0     0  0
 12  8  1  0     0  0
 13 10  1  0     0  0
 14 16  1  0     0  0
 15  3  1  0     0  0
 16  9  1  0     0  0
 17 14  1  0     0  0
 18 24  1  0     0  0
 19  2  2  0     0  0
 20  5  2  0     0  0
 21 10  1  0     0  0
 22 12  2  0     0  0
 23  9  2  0     0  0
 24 32  2  0     0  0
 25 31  1  0     0  0
 26 17  1  0     0  0
 27 15  1  0     0  0
 28 21  1  0     0  0
 29 12  1  0     0  0
 30 35  2  0     0  0
 31 28  2  0     0  0
 32 28  1  0     0  0
 33 27  1  0     0  0
 34 27  2  0     0  0
 35 34  1  0     0  0
 36 33  2  0     0  0
 37 14  2  0     0  0
 38  8  1  0     0  0
 39  8  1  0     0  0
 40 30  1  0     0  0
 41  6  1  0     0  0
 42 37  1  0     0  0
 43 17  2  0     0  0
 44 42  2  0     0  0
 45 26  2  0     0  0
 46 40  1  0     0  0
 47 43  1  0     0  0
 48 47  2  0     0  0
  3  7  1  0     0  0
 36 30  1  0     0  0
 18 25  2  0     0  0
 44 26  1  0     0  0
 48 45  1  0     0  0
M  END