
  SciTegic05171617282D

 33 36  0  0  0  0            999 V2000
    2.3383   -1.3500    0.0000 C   0  0
    1.2990   -0.7500    0.0000 N   0  0
    1.2990    0.7500    0.0000 C   0  0
    0.0000    1.5000    0.0000 C   0  0
   -1.2990    0.7500    0.0000 C   0  0
   -1.2990   -0.7500    0.0000 C   0  0
    0.0000   -1.5000    0.0000 C   0  0
   -2.6003    1.4977    0.0000 N   0  0
   -3.8990    0.7455    0.0000 C   0  0
   -3.8969   -0.4545    0.0000 O   0  0
   -5.2003    1.4932    0.0000 C   0  0
   -6.5517    0.8722    0.0000 C   0  0
   -7.5554    1.9869    0.0000 C   0  0
   -6.8054    3.2859    0.0000 N   0  0
   -5.3382    2.9741    0.0000 O   0  0
   -9.0479    1.8300    0.0000 C   0  0
   -9.7563    0.5134    0.0000 C   0  0
   -9.1257   -0.5075    0.0000 O   0  0
  -11.2556    0.4693    0.0000 C   0  0
  -12.0435    1.7457    0.0000 C   0  0
  -13.2430    1.7104    0.0000 O   0  0
  -11.3320    3.0662    0.0000 C   0  0
   -9.8327    3.1104    0.0000 C   0  0
   -9.1219    4.4321    0.0000 O   0  0
   -9.9104    5.7091    0.0000 C   0  0
   -9.2019    7.0313    0.0000 C   0  0
   -9.9925    8.3060    0.0000 C   0  0
  -11.4918    8.2586    0.0000 C   0  0
  -12.2004    6.9365    0.0000 C   0  0
  -11.4097    5.6618    0.0000 C   0  0
  -12.2855    9.5324    0.0000 N   0  3
  -11.7205   10.5910    0.0000 O   0  5
  -13.4849    9.4927    0.0000 O   0  0
  1  2  1  0
  2  3  1  0
  3  4  1  0
  4  5  1  0
  5  6  1  0
  6  7  1  0
  2  7  1  0
  5  8  1  0
  8  9  1  0
  9 10  2  0
  9 11  1  0
 11 12  2  0
 12 13  1  0
 13 14  2  0
 14 15  1  0
 11 15  1  0
 13 16  1  0
 16 17  2  0
 17 18  1  0
 17 19  1  0
 19 20  2  0
 20 21  1  0
 20 22  1  0
 22 23  2  0
 16 23  1  0
 23 24  1  0
 24 25  1  0
 25 26  2  0
 26 27  1  0
 27 28  2  0
 28 29  1  0
 29 30  2  0
 25 30  1  0
 28 31  1  0
 31 32  1  0
 31 33  2  0
M  CHG  2  31   1  32  -1
M  END