
          05080814042D 1   1.00000     0.00000     0

 23 25  0     0  0            999 V2000
   -4.3469   -1.7830    0.0000 C   0  0  0  0  0  0           0  0  0
   -4.3482   -2.6107    0.0000 C   0  0  0  0  0  0           0  0  0
   -3.6351   -3.0236    0.0000 C   0  0  0  0  0  0           0  0  0
   -2.9158   -2.6102    0.0000 C   0  0  0  0  0  0           0  0  0
   -2.9190   -1.7791    0.0000 C   0  0  0  0  0  0           0  0  0
   -3.6371   -1.3702    0.0000 C   0  0  0  0  0  0           0  0  0
   -5.0633   -3.0222    0.0000 C   0  0  0  0  0  0           0  0  0
   -5.7802   -3.4365    0.0000 N   0  0  0  0  0  0           0  0  0
   -3.6407   -0.5418    0.0000 C   0  0  0  0  0  0           0  0  0
   -2.9282   -0.1260    0.0000 O   0  0  0  0  0  0           0  0  0
   -4.3572   -0.1326    0.0000 O   0  0  0  0  0  0           0  0  0
   -2.2064   -1.3629    0.0000 C   0  0  0  0  0  0           0  0  0
   -1.4898   -1.7719    0.0000 C   0  0  0  0  0  0           0  0  0
   -0.7774   -1.3559    0.0000 C   0  0  0  0  0  0           0  0  0
   -0.0222   -1.6836    0.0000 C   0  0  0  0  0  0           0  0  0
   -0.6955   -0.5309    0.0000 N   0  0  3  0  0  0           0  0  0
   -1.3115    0.0179    0.0000 C   0  0  0  0  0  0           0  0  0
    0.1107   -0.3552    0.0000 C   0  0  0  0  0  0           0  0  0
    0.5241   -1.0675    0.0000 C   0  0  0  0  0  0           0  0  0
    1.3457   -1.0647    0.0000 C   0  0  0  0  0  0           0  0  0
    1.7550   -0.3504    0.0000 C   0  0  0  0  0  0           0  0  0
    1.3366    0.3627    0.0000 C   0  0  0  0  0  0           0  0  0
    0.5164    0.3563    0.0000 C   0  0  0  0  0  0           0  0  0
  5  6  2  0     0  0
  5 12  1  0     0  0
  6  1  1  0     0  0
 12 13  2  0     0  0
  1  2  2  0     0  0
 13 14  1  0     0  0
 14 15  2  0     0  0
  2  7  1  0     0  0
  3  4  2  0     0  0
 15 19  1  0     0  0
 18 16  1  0     0  0
 16 14  1  0     0  0
  7  8  3  0     0  0
 16 17  1  0     0  0
  4  5  1  0     0  0
 18 19  2  0     0  0
  2  3  1  0     0  0
 19 20  1  0     0  0
  9 10  1  0     0  0
 20 21  2  0     0  0
  9 11  2  0     0  0
 21 22  1  0     0  0
  6  9  1  0     0  0
 22 23  2  0     0  0
 23 18  1  0     0  0
M  END