
          11280715122D 1   1.00000     0.00000     0

 31 34  0     0  0            999 V2000
    6.6667   -5.8792    0.0000 C   0  0  0  0  0  0           0  0  0
    3.6542   -1.5542    0.0000 C   0  0  0  0  0  0           0  0  0
    6.1375   -7.1125    0.0000 N   0  0  0  0  0  0           0  0  0
    6.8417   -6.6917    0.0000 N   0  0  0  0  0  0           0  0  0
    5.5167   -6.5792    0.0000 N   0  0  0  0  0  0           0  0  0
    3.6542   -0.7250    0.0000 C   0  0  0  0  0  0           0  0  0
    5.8500   -5.8042    0.0000 N   0  0  0  0  0  0           0  0  0
    7.2167   -5.2667    0.0000 C   0  0  0  0  0  0           0  0  0
    4.3667   -1.9667    0.0000 N   0  0  3  0  0  0           0  0  0
    7.2167   -4.4417    0.0000 C   0  0  0  0  0  0           0  0  0
    2.9417   -1.9667    0.0000 N   0  0  0  0  0  0           0  0  0
    6.5042   -4.0292    0.0000 C   0  0  0  0  0  0           0  0  0
    4.3667   -2.7917    0.0000 C   0  0  0  0  0  0           0  0  0
    4.3792   -0.3042    0.0000 C   0  0  3  0  0  0           0  0  0
    5.7917   -4.4417    0.0000 C   0  0  0  0  0  0           0  0  0
    6.5042   -3.2000    0.0000 C   0  0  0  0  0  0           0  0  0
    5.0792   -3.2042    0.0000 C   0  0  0  0  0  0           0  0  0
    2.9417   -0.3125    0.0000 C   0  0  0  0  0  0           0  0  0
    5.0792   -4.0292    0.0000 C   0  0  0  0  0  0           0  0  0
    5.7875   -2.7875    0.0000 C   0  0  0  0  0  0           0  0  0
    5.1000   -0.7167    0.0000 O   0  0  0  0  0  0           0  0  0
    5.0792   -1.5542    0.0000 C   0  0  0  0  0  0           0  0  0
    7.9292   -5.6792    0.0000 C   0  0  0  0  0  0           0  0  0
    7.9292   -4.0292    0.0000 C   0  0  0  0  0  0           0  0  0
    2.2292   -1.5542    0.0000 C   0  0  0  0  0  0           0  0  0
    4.3750    0.5333    0.0000 C   0  0  0  0  0  0           0  0  0
    5.7875   -1.9667    0.0000 C   0  0  0  0  0  0           0  0  0
    2.2292   -0.7292    0.0000 C   0  0  0  0  0  0           0  0  0
    8.6417   -4.4375    0.0000 C   0  0  0  0  0  0           0  0  0
    8.6417   -5.2667    0.0000 C   0  0  0  0  0  0           0  0  0
    6.4917   -1.5542    0.0000 C   0  0  0  0  0  0           0  0  0
  2  9  1  0     0  0
  3  4  2  0     0  0
  4  1  1  0     0  0
  5  7  1  0     0  0
  6  2  1  0     0  0
  7  1  2  0     0  0
  8  1  1  0     0  0
  9 13  1  0     0  0
 10  8  2  0     0  0
 11  2  2  0     0  0
 12 10  1  0     0  0
 13 17  1  0     0  0
 14  6  1  0     0  0
 15 12  2  0     0  0
 16 12  1  0     0  0
 17 20  1  0     0  0
 18  6  2  0     0  0
 19 15  1  0     0  0
 20 16  2  0     0  0
 21 14  1  0     0  0
 22  9  1  0     0  0
 23  8  1  0     0  0
 24 10  1  0     0  0
 25 11  1  0     0  0
 26 14  1  0     0  0
 27 22  1  0     0  0
 28 25  2  0     0  0
 29 30  1  0     0  0
 30 23  2  0     0  0
 31 27  1  0     0  0
  5  3  1  0     0  0
 29 24  2  0     0  0
 17 19  2  0     0  0
 18 28  1  0     0  0
M  END