
  SciTegic04191613082D

180189  0  0  1  0            999 V2000
  -32.0917    2.6597    0.0000 C   0  0
  -33.1960    2.1901    0.0000 N   0  0
  -30.8928    1.7569    0.0000 N   0  0
  -31.0743    0.2671    0.0000 C   0  0
  -29.8753   -0.6357    0.0000 C   0  0
  -30.5554   -1.9737    0.0000 C   0  0
  -30.2146   -3.4473    0.0000 C   0  0  2  0  0  0
  -28.8819   -2.7588    0.0000 N   0  0
  -27.4380   -2.3526    0.0000 C   0  0
  -25.9418   -2.2454    0.0000 C   0  0  1  0  0  0
  -24.4547   -2.4416    0.0000 N   0  0
  -23.0375   -2.9331    0.0000 C   0  0
  -21.7483   -3.6998    0.0000 C   0  0  1  0  0  0
  -20.6398   -4.7104    0.0000 N   0  0
  -19.7574   -5.9234    0.0000 C   0  0
  -18.7205   -5.3193    0.0000 O   0  0
  -19.1372   -7.2892    0.0000 C   0  0  1  0  0  0
  -18.8047   -8.7519    0.0000 N   0  0
  -18.7734  -10.2516    0.0000 C   0  0
  -17.5773  -10.3481    0.0000 O   0  0
  -19.0447  -11.7268    0.0000 C   0  0  1  0  0  0
  -19.6074  -13.1173    0.0000 N   0  0
  -20.4384  -14.3661    0.0000 C   0  0
  -21.4904  -15.4366    0.0000 C   0  0  1  0  0  0
  -20.3931  -14.4139    0.0000 N   0  0
  -19.5091  -13.2020    0.0000 C   0  0
  -18.4768  -13.8138    0.0000 O   0  0
  -18.8705  -11.8447    0.0000 C   0  0  2  0  0  0
  -18.5003  -10.3911    0.0000 N   0  0
  -18.4119   -8.8937    0.0000 C   0  0
  -17.2126   -8.8503    0.0000 O   0  0
  -18.6084   -7.4067    0.0000 C   0  0  2  0  0  0
  -17.1073   -7.5943    0.0000 C   0  0
  -16.2007   -6.3983    0.0000 C   0  0
  -14.7115   -6.5845    0.0000 C   0  0
  -13.8049   -5.3884    0.0000 N   0  0
  -12.3157   -5.5746    0.0000 C   0  0
  -11.5908   -4.6183    0.0000 N   0  0
  -11.8496   -6.6804    0.0000 N   0  0
  -19.0828   -5.9837    0.0000 N   0  0
  -19.8180   -4.6762    0.0000 C   0  0
  -18.9969   -4.1054    0.0000 O   0  0
  -20.7873   -3.5314    0.0000 C   0  0  2  0  0  0
  -19.7289   -2.4506    0.0000 C   0  0
  -20.1316   -1.0048    0.0000 C   0  0
  -19.0816    0.0675    0.0000 C   0  0
  -19.4843    1.5133    0.0000 N   0  0
  -18.4343    2.5856    0.0000 C   0  0
  -17.2721    2.2868    0.0000 N   0  0
  -18.7563    3.7416    0.0000 N   0  0
  -21.9558   -2.5908    0.0000 N   0  0
  -23.2811   -1.8884    0.0000 C   0  0
  -22.8224   -0.7795    0.0000 O   0  0
  -24.7154   -1.4494    0.0000 C   0  0  1  0  0  0
  -26.2069   -1.2898    0.0000 N   0  0
  -27.7016   -1.4154    0.0000 C   0  0
  -29.1456   -1.8216    0.0000 C   0  0  2  0  0  0
  -30.4866   -2.4937    0.0000 N   0  0
  -31.6762   -3.4074    0.0000 C   0  0
  -32.6713   -4.5298    0.0000 C   0  0  2  0  0  0
  -33.4361   -5.8202    0.0000 N   0  0
  -33.9428   -7.2320    0.0000 C   0  0
  -34.1731   -8.7142    0.0000 C   0  0
  -34.1188  -10.2132    0.0000 N   0  0
  -35.2905   -9.9541    0.0000 C   0  0
  -33.7818  -11.6749    0.0000 C   0  0
  -34.7305  -11.9912    0.0000 O   0  0
  -33.1743  -13.0463    0.0000 C   0  0  2  0  0  0
  -34.6178  -13.4852    0.0000 C   0  0
  -34.6492  -14.9849    0.0000 C   0  0
  -33.2326  -15.4781    0.0000 C   0  0
  -32.3182  -14.2780    0.0000 N   0  0
  -31.2444  -15.3255    0.0000 C   0  0
  -29.9919  -16.1507    0.0000 C   0  0
  -28.6058  -16.7241    0.0000 C   0  0
  -27.1362  -17.0247    0.0000 C   0  0
  -28.5920  -16.6596    0.0000 C   0  0
  -29.9522  -16.0273    0.0000 C   0  0
  -31.1573  -15.1340    0.0000 C   0  0
  -32.1578  -14.0165    0.0000 N   0  0
  -32.9130  -12.7205    0.0000 C   0  0
  -33.3918  -11.2989    0.0000 C   0  0  2  0  0  0
  -33.5746   -9.8101    0.0000 N   0  0
  -33.4540   -8.3150    0.0000 C   0  0
  -33.0349   -6.8747    0.0000 C   0  0  1  0  0  0
  -32.3345   -5.5483    0.0000 N   0  0
  -31.3814   -4.3900    0.0000 C   0  0
  -32.2261   -3.5377    0.0000 O   0  0
  -34.4381   -6.3100    0.0000 C   0  0
  -34.6500   -4.8242    0.0000 C   0  0
  -36.0423   -4.2639    0.0000 C   0  0
  -36.2542   -2.7781    0.0000 N   0  0
  -37.6465   -2.2178    0.0000 C   0  0
  -38.5908   -2.9582    0.0000 N   0  0
  -37.8159   -1.0299    0.0000 N   0  0
  -34.6342   -8.0980    0.0000 O   0  0
  -34.8921  -11.1067    0.0000 C   0  0
  -35.3548   -9.9994    0.0000 O   0  0
  -35.8024  -12.2999    0.0000 N   0  0
  -37.2910  -12.1092    0.0000 C   0  0  2  0  0  0
  -37.8726  -10.7256    0.0000 C   0  0
  -39.0630  -10.5744    0.0000 O   0  0
  -37.1467   -9.7700    0.0000 O   0  0
  -38.2013  -13.3024    0.0000 C   0  0
  -39.6899  -13.1117    0.0000 C   0  0
  -40.6002  -14.3049    0.0000 C   0  0
  -42.0889  -14.1142    0.0000 C   0  0
  -42.8167  -15.0683    0.0000 N   0  0
  -31.8310  -15.8730    0.0000 O   0  0
  -30.5518  -15.9147    0.0000 C   0  0
  -25.6363  -17.0418    0.0000 C   0  0
  -24.1603  -16.7747    0.0000 N   0  0
  -22.7614  -16.2331    0.0000 C   0  0
  -25.5358  -18.2376    0.0000 O   0  0
  -31.8715  -16.1044    0.0000 O   0  0
  -35.1056   -6.9358    0.0000 O   0  0
  -33.8918   -3.6360    0.0000 C   0  0
  -33.7301   -2.1439    0.0000 C   0  0
  -34.6982   -1.4348    0.0000 O   0  0
  -32.6322   -1.6596    0.0000 O   0  0
  -32.4943   -2.5296    0.0000 O   0  0
  -31.7437   -1.6594    0.0000 C   0  0
  -31.6552   -0.1620    0.0000 C   0  0
  -30.3142    0.5101    0.0000 C   0  0
  -29.0617   -0.3152    0.0000 C   0  0
  -27.9153   -0.2346    0.0000 O   0  0
  -24.4094    0.0321    0.0000 C   0  0
  -25.5298    1.0306    0.0000 C   0  0
  -26.9527    0.5638    0.0000 C   0  0
  -28.0730    1.5806    0.0000 C   0  0
  -27.7646    3.0455    0.0000 C   0  0
  -28.8792    4.0449    0.0000 C   0  0
  -28.5707    5.5099    0.0000 C   0  0
  -27.1476    5.9754    0.0000 C   0  0
  -26.0330    4.9760    0.0000 C   0  0
  -26.3415    3.5110    0.0000 C   0  0
  -25.2269    2.5116    0.0000 C   0  0
  -17.7092  -12.8141    0.0000 C   0  0
  -17.9651  -14.2930    0.0000 C   0  0
  -19.0916  -14.7066    0.0000 O   0  0
  -17.0439  -15.0620    0.0000 O   0  0
  -19.5068  -15.1224    0.0000 O   0  0
  -17.5916  -12.1466    0.0000 C   0  0
  -16.5092  -11.1069    0.0000 C   0  0
  -15.0675  -11.5211    0.0000 C   0  0
  -13.9879  -10.4797    0.0000 C   0  0
  -14.3500   -9.0241    0.0000 C   0  0
  -15.7916   -8.6098    0.0000 C   0  0
  -16.8712   -9.6512    0.0000 C   0  0
  -17.7047   -6.8036    0.0000 C   0  0
  -17.4104   -5.3320    0.0000 C   0  0
  -18.5330   -4.3408    0.0000 C   0  0
  -18.2229   -2.8601    0.0000 C   0  0
  -16.8032   -2.3849    0.0000 C   0  0
  -15.6816   -3.3768    0.0000 C   0  0
  -14.2620   -2.9016    0.0000 C   0  0
  -13.9639   -1.4346    0.0000 C   0  0
  -15.0855   -0.4426    0.0000 C   0  0
  -16.5051   -0.9178    0.0000 C   0  0
  -15.9797   -4.8439    0.0000 C   0  0
  -20.8499   -2.4830    0.0000 C   0  0
  -21.4490   -1.1069    0.0000 C   0  0
  -20.5577    0.1005    0.0000 C   0  0
  -21.1568    1.4766    0.0000 N   0  0
  -20.2654    2.6840    0.0000 C   0  0
  -19.0730    2.5492    0.0000 N   0  0
  -20.7445    3.7843    0.0000 N   0  0
  -22.5316   -1.8450    0.0000 O   0  0
  -25.3850   -0.8390    0.0000 C   0  0
  -23.9005   -0.6188    0.0000 C   0  0
  -23.8586    0.8814    0.0000 C   0  0
  -22.5389    1.5961    0.0000 N   0  0
  -22.4970    3.0963    0.0000 C   0  0
  -21.4418    3.6678    0.0000 N   0  0
  -23.5193    3.7248    0.0000 N   0  0
  -27.6100   -1.3675    0.0000 O   0  0
  -31.9466    3.8509    0.0000 N   0  0
  -34.0835  -12.6301    0.0000 H   0  0
  -28.5198   -1.0416    0.0000 H   0  0
  -20.7740  -14.7389    0.0000 H   0  0
  1  2  1  0
  3  1  1  0
  4  3  1  0
  5  4  1  0
  6  5  1  0
  7  6  1  6
  7  8  1  0
  9  8  1  0
 10  9  1  0
 11 10  1  0
 12 11  1  0
 13 12  1  0
 14 13  1  0
 15 14  1  0
 15 16  2  0
 17 15  1  0
 18 17  1  0
 19 18  1  0
 19 20  2  0
 21 19  1  0
 22 21  1  0
 23 22  1  0
 24 23  1  0
 25 24  1  0
 26 25  1  0
 26 27  2  0
 28 26  1  0
 29 28  1  0
 30 29  1  0
 30 31  2  0
 32 30  1  0
 32 33  1  1
 33 34  1  0
 34 35  1  0
 35 36  1  0
 36 37  1  0
 37 38  2  0
 37 39  1  0
 40 32  1  0
 41 40  1  0
 41 42  2  0
 43 41  1  0
 43 44  1  1
 44 45  1  0
 45 46  1  0
 46 47  1  0
 47 48  1  0
 48 49  1  0
 48 50  2  0
 51 43  1  0
 52 51  1  0
 52 53  2  0
 54 52  1  0
 54 55  1  0
 55 56  1  0
 57 56  1  0
 57 58  1  0
 58 59  1  0
 59 60  1  0
 60 61  1  0
 61 62  1  0
 62 63  1  0
 63 64  1  0
 64 65  1  0
 64 66  1  0
 66 67  2  0
 68 66  1  0
 68 69  1  0
 69 70  1  0
 70 71  1  0
 71 72  1  0
 72 68  1  0
 72 73  1  0
 73 74  1  0
 75 74  1  0
 76 75  2  0
 77 76  1  0
 78 77  2  0
 78 79  1  0
 79 80  1  0
 80 81  1  0
 82 81  1  0
 82 83  1  0
 83 84  1  0
 84 85  1  0
 85 86  1  0
 86 87  1  0
 87 88  2  0
 87  7  1  0
 85 89  1  6
 89 90  1  0
 90 91  1  0
 91 92  1  0
 92 93  1  0
 93 94  1  0
 93 95  2  0
 84 96  2  0
 82 97  1  1
 97 98  2  0
 97 99  1  0
100 99  1  1
100101  1  0
101102  2  0
101103  1  0
100104  1  0
104105  1  0
105106  1  0
106107  1  0
107108  1  0
 79109  2  0
110 78  1  0
 74110  2  0
 76111  1  0
111112  1  0
113112  1  0
 24113  1  0
111114  2  0
 73115  2  0
 62116  2  0
 60117  1  6
117118  1  0
118119  2  0
118120  1  0
 59121  2  0
122 58  1  0
123122  1  0
124123  1  0
125124  1  0
 57125  1  0
 56126  2  0
 54127  1  1
127128  1  0
129128  1  0
130129  2  0
131130  1  0
132131  2  0
133132  1  0
134133  2  0
135134  1  0
136135  2  0
137136  1  0
128137  2  0
131136  1  0
 28138  1  6
138139  1  0
139140  1  0
139141  2  0
 23142  2  0
 21143  1  6
143144  1  0
144145  2  0
145146  1  0
146147  2  0
147148  1  0
148149  2  0
149144  1  0
 17150  1  6
150151  1  0
152151  1  0
153152  2  0
154153  1  0
154155  1  0
155156  2  0
156157  1  0
157158  2  0
158159  1  0
159154  2  0
160155  1  0
151160  2  0
 13161  1  6
161162  1  0
162163  1  0
163164  1  0
164165  1  0
165166  1  0
165167  2  0
 12168  2  0
 10169  1  6
169170  1  0
170171  1  0
171172  1  0
172173  1  0
173174  2  0
173175  1  0
  9176  2  0
  1177  2  0
 68178  1  6
 57179  1  1
 24180  1  6
M  END