
          11280715062D 1   1.00000     0.00000     0

 13 13  0     0  0            999 V2000
    2.7875   -3.9375    0.0000 N   0  0  0  0  0  0           0  0  0
    5.7292   -3.1167    0.0000 C   0  0  0  0  0  0           0  0  0
    2.8750   -3.1167    0.0000 C   0  0  0  0  0  0           0  0  0
    1.5667   -3.3917    0.0000 N   0  0  0  0  0  0           0  0  0
    1.9792   -4.1125    0.0000 C   0  0  0  0  0  0           0  0  0
    5.7292   -3.9417    0.0000 S   0  0  0  0  0  0           0  0  0
    2.1167   -2.7792    0.0000 C   0  0  0  0  0  0           0  0  0
    5.0167   -2.7042    0.0000 N   0  0  0  0  0  0           0  0  0
    6.4417   -2.7042    0.0000 N   0  0  0  0  0  0           0  0  0
    3.5875   -2.7042    0.0000 C   0  0  0  0  0  0           0  0  0
    4.3000   -3.1167    0.0000 C   0  0  0  0  0  0           0  0  0
    7.1542   -3.1167    0.0000 C   0  0  0  0  0  0           0  0  0
    7.8750   -2.7042    0.0000 C   0  0  0  0  0  0           0  0  0
  2  8  1  0     0  0
  3  1  1  0     0  0
  4  5  1  0     0  0
  5  1  2  0     0  0
  6  2  1  0     0  0
  7  3  2  0     0  0
  8 11  1  0     0  0
  9  2  2  0     0  0
 10  3  1  0     0  0
 11 10  1  0     0  0
 12  9  1  0     0  0
 13 12  1  0     0  0
  7  4  1  0     0  0
M  END