
          11280714452D 1   1.00000     0.00000     0

 32 35  0     0  0            999 V2000
    7.1500   -2.8875    0.0000 C   0  0  0  0  0  0           0  0  0
    7.1500   -2.0625    0.0000 C   0  0  0  0  0  0           0  0  0
    0.0167   -2.0667    0.0000 N   0  0  0  0  0  0           0  0  0
    7.8625   -1.6417    0.0000 C   0  0  0  0  0  0           0  0  0
    7.8542   -0.8167    0.0000 C   0  0  0  0  0  0           0  0  0
    6.4292   -3.3000    0.0000 C   0  0  0  0  0  0           0  0  0
    5.7167   -2.8875    0.0000 C   0  0  0  0  0  0           0  0  0
   -0.6958   -1.6625    0.0000 C   0  0  0  0  0  0           0  0  0
    7.8625   -3.3000    0.0000 C   0  0  0  0  0  0           0  0  0
    5.0042   -3.3000    0.0000 C   0  0  0  0  0  0           0  0  0
    7.1417   -0.4042    0.0000 O   0  0  0  0  0  0           0  0  0
    8.5792   -2.0542    0.0000 C   0  0  0  0  0  0           0  0  0
    0.7250   -1.6542    0.0000 C   0  0  0  0  0  0           0  0  0
    6.4292   -4.1250    0.0000 O   0  0  0  0  0  0           0  0  0
    8.5792   -2.8875    0.0000 C   0  0  0  0  0  0           0  0  0
   -0.7000   -0.8292    0.0000 C   0  0  0  0  0  0           0  0  0
    0.0167   -0.4167    0.0000 C   0  0  0  0  0  0           0  0  0
    4.2917   -2.8875    0.0000 C   0  0  0  0  0  0           0  0  0
    2.1542   -1.6500    0.0000 O   0  0  0  0  0  0           0  0  0
    8.5667   -0.4042    0.0000 O   0  0  0  0  0  0           0  0  0
    2.8667   -2.0625    0.0000 C   0  0  0  0  0  0           0  0  0
    1.4417   -2.0667    0.0000 C   0  0  0  0  0  0           0  0  0
    0.7292   -0.8292    0.0000 C   0  0  0  0  0  0           0  0  0
    7.8625   -4.1250    0.0000 O   0  0  0  0  0  0           0  0  0
    4.2917   -2.0542    0.0000 C   0  0  0  0  0  0           0  0  0
    3.5792   -3.2917    0.0000 C   0  0  0  0  0  0           0  0  0
    2.8667   -2.8875    0.0000 C   0  0  0  0  0  0           0  0  0
    3.5792   -1.6417    0.0000 C   0  0  0  0  0  0           0  0  0
   -1.4083   -2.0792    0.0000 C   0  0  0  0  0  0           0  0  0
   -1.4208   -0.4250    0.0000 C   0  0  0  0  0  0           0  0  0
   -2.1250   -1.6750    0.0000 C   0  0  0  0  0  0           0  0  0
   -2.1333   -0.8417    0.0000 C   0  0  0  0  0  0           0  0  0
  2  1  2  0     0  0
  3 13  1  0     0  0
  4  2  1  0     0  0
  5  4  1  0     0  0
  6  1  1  0     0  0
  7  6  1  0     0  0
  8  3  2  0     0  0
  9  1  1  0     0  0
 10  7  2  0     0  0
 11  5  2  0     0  0
 12 15  1  0     0  0
 13 22  1  0     0  0
 14  6  2  0     0  0
 15  9  2  0     0  0
 16 17  2  0     0  0
 17 23  1  0     0  0
 18 10  1  0     0  0
 19 21  1  0     0  0
 20  5  1  0     0  0
 21 27  1  0     0  0
 22 19  1  0     0  0
 23 13  2  0     0  0
 24  9  1  0     0  0
 25 18  2  0     0  0
 26 18  1  0     0  0
 27 26  2  0     0  0
 28 25  1  0     0  0
 29  8  1  0     0  0
 30 16  1  0     0  0
 31 29  2  0     0  0
 32 30  2  0     0  0
 12  4  2  0     0  0
 21 28  2  0     0  0
 16  8  1  0     0  0
 32 31  1  0     0  0
M  END