
          02060813472D 1   1.00000     0.00000     0

 30 32  0     1  0            999 V2000
   -3.7376  -10.8226    0.0000 N   0  0  0  0  0  0           0  0  0
   -3.8424  -10.0043    0.0000 C   0  0  2  0  0  0           0  0  0
   -3.1860   -9.5044    0.0000 C   0  0  0  0  0  0           0  0  0
   -4.6034   -9.6859    0.0000 C   0  0  0  0  0  0           0  0  0
   -2.3997   -9.7455    0.0000 N   0  0  0  0  0  0           0  0  0
   -1.9293   -9.0666    0.0000 C   0  0  0  0  0  0           0  0  0
   -2.4310   -8.4102    0.0000 C   0  0  0  0  0  0           0  0  0
   -3.2096   -8.6856    0.0000 O   0  0  0  0  0  0           0  0  0
   -1.1046   -9.0474    0.0000 C   0  0  0  0  0  0           0  0  0
   -0.6755   -9.7521    0.0000 N   0  0  3  0  0  0           0  0  0
   -0.7088   -8.3235    0.0000 O   0  0  0  0  0  0           0  0  0
   -0.9907  -10.5160    0.0000 C   0  0  0  0  0  0           0  0  0
   -0.3649  -11.0536    0.0000 C   0  0  0  0  0  0           0  0  0
    0.1494   -9.8218    0.0000 C   0  0  2  0  0  0           0  0  0
    0.6879   -9.1968    0.0000 C   0  0  0  0  0  0           0  0  0
    1.4985   -9.3501    0.0000 N   0  0  0  0  0  0           0  0  0
    0.4158   -8.4179    0.0000 O   0  0  0  0  0  0           0  0  0
    1.9043  -10.0684    0.0000 C   0  0  2  0  0  0           0  0  0
    2.7293  -10.0761    0.0000 C   0  0  0  0  0  0           0  0  0
    1.4852  -10.7790    0.0000 C   0  0  0  0  0  0           0  0  0
    0.4215  -10.6007    0.0000 C   0  0  0  0  0  0           0  0  0
    1.8910  -11.4973    0.0000 C   0  0  0  0  0  0           0  0  0
    3.1351  -10.7944    0.0000 O   0  0  0  0  0  0           0  0  0
    3.1484   -9.3655    0.0000 O   0  0  0  0  0  0           0  0  0
    1.4690  -12.2075    0.0000 C   0  0  0  0  0  0           0  0  0
    1.8741  -12.9253    0.0000 C   0  0  0  0  0  0           0  0  0
    2.7000  -12.9334    0.0000 C   0  0  0  0  0  0           0  0  0
    3.1190  -12.2178    0.0000 C   0  0  0  0  0  0           0  0  0
    2.7115  -11.5029    0.0000 C   0  0  0  0  0  0           0  0  0
    3.1068  -13.6511    0.0000 O   0  0  0  0  0  0           0  0  0
 14 10  1  0     0  0
  6  7  2  0     0  0
 14 15  1  6     0  0
  7  8  1  0     0  0
 15 16  1  0     0  0
  8  3  1  0     0  0
 15 17  2  0     0  0
  5  6  1  0     0  0
 16 18  1  0     0  0
  6  9  1  0     0  0
 18 19  1  0     0  0
 18 20  1  6     0  0
  9 10  1  0     0  0
  2  3  1  0     0  0
 20 22  1  0     0  0
  9 11  2  0     0  0
 19 23  1  0     0  0
 10 12  1  0     0  0
 19 24  2  0     0  0
  1  2  1  0     0  0
 22 25  2  0     0  0
  2  4  1  1     0  0
 25 26  1  0     0  0
  3  5  2  0     0  0
 26 27  2  0     0  0
 12 13  1  0     0  0
 27 28  1  0     0  0
 13 21  1  0     0  0
 28 29  2  0     0  0
 29 22  1  0     0  0
 21 14  1  0     0  0
 27 30  1  0     0  0
M  END