
  Mrv0541 05211314572D          

 17 15  0  0  0  0            999 V2000
    1.8331    0.1535    0.0000 C   0  0  0  0  0  0  0  0  0  0  0  0
    2.5867    0.4890    0.0000 N   0  0  0  0  0  0  0  0  0  0  0  0
    1.9193   -0.6670    0.0000 C   0  0  0  0  0  0  0  0  0  0  0  0
   -2.4538    0.1535    0.0000 C   0  0  0  0  0  0  0  0  0  0  0  0
    3.1388   -0.1241    0.0000 C   0  0  0  0  0  0  0  0  0  0  0  0
    2.7263   -0.8385    0.0000 N   0  0  0  0  0  0  0  0  0  0  0  0
   -2.4538   -0.6715    0.0000 N   0  0  0  0  0  0  0  0  0  0  0  0
   -3.1682    0.5660    0.0000 N   0  0  0  0  0  0  0  0  0  0  0  0
   -1.7393    0.5660    0.0000 N   0  0  0  0  0  0  0  0  0  0  0  0
    1.1186    0.5660    0.0000 C   0  0  0  0  0  0  0  0  0  0  0  0
    0.4041    0.1535    0.0000 S   0  0  0  0  0  0  0  0  0  0  0  0
    5.3780    0.0000    0.0000 Cl  0  0  0  0  0  0  0  0  0  0  0  0
    0.0000   -2.8690    0.0000 Cl  0  0  0  0  0  0  0  0  0  0  0  0
    1.3062   -1.2190    0.0000 C   0  0  0  0  0  0  0  0  0  0  0  0
   -1.0248    0.1535    0.0000 C   0  0  0  0  0  0  0  0  0  0  0  0
   -3.8827    0.1535    0.0000 C   0  0  0  0  0  0  0  0  0  0  0  0
   -0.3104    0.5660    0.0000 C   0  0  0  0  0  0  0  0  0  0  0  0
  1  2  1  0  0  0  0
  1  3  2  0  0  0  0
  2  5  1  0  0  0  0
  3  6  1  0  0  0  0
  5  6  2  0  0  0  0
  4  7  1  0  0  0  0
  4  8  2  0  0  0  0
  4  9  1  0  0  0  0
  1 10  1  0  0  0  0
 10 11  1  0  0  0  0
  3 14  1  0  0  0  0
  9 15  1  0  0  0  0
  8 16  1  0  0  0  0
 11 17  1  0  0  0  0
 15 17  1  0  0  0  0
M  END