
          11280715422D 1   1.00000     0.00000     0

 28 30  0     0  0            999 V2000
    0.4875    0.9208    0.0000 C   0  0  0  0  0  0           0  0  0
   -0.5000    0.0250    0.0000 C   0  0  0  0  0  0           0  0  0
   -0.3333    0.8333    0.0000 N   0  0  0  0  0  0           0  0  0
    0.2042   -0.3917    0.0000 N   0  0  3  0  0  0           0  0  0
    0.8167    0.1625    0.0000 C   0  0  0  0  0  0           0  0  0
   -1.2333   -0.0542    0.0000 C   0  0  0  0  0  0           0  0  0
    0.9000    1.6333    0.0000 C   0  0  0  0  0  0           0  0  0
   -1.6458    0.6625    0.0000 C   0  0  0  0  0  0           0  0  0
    0.2000   -1.2125    0.0000 C   0  0  0  0  0  0           0  0  0
    1.7000    1.4208    0.0000 O   0  0  0  0  0  0           0  0  0
   -1.6500   -0.7750    0.0000 C   0  0  0  0  0  0           0  0  0
   -2.4625    0.6625    0.0000 C   0  0  0  0  0  0           0  0  0
    0.8625    2.4625    0.0000 O   0  0  0  0  0  0           0  0  0
    2.2792    2.0083    0.0000 C   0  0  3  0  0  0           0  0  0
    0.9042   -1.6250    0.0000 C   0  0  0  0  0  0           0  0  0
   -0.5125   -1.6125    0.0000 C   0  0  0  0  0  0           0  0  0
   -2.8833   -0.0500    0.0000 C   0  0  0  0  0  0           0  0  0
   -1.2333    1.3750    0.0000 Cl  0  0  0  0  0  0           0  0  0
    1.6250   -0.0042    0.0000 C   0  0  0  0  0  0           0  0  0
   -2.4750   -0.7667    0.0000 C   0  0  0  0  0  0           0  0  0
    0.1875   -2.8500    0.0000 C   0  0  0  0  0  0           0  0  0
    0.9000   -2.4417    0.0000 C   0  0  0  0  0  0           0  0  0
   -0.5208   -2.4375    0.0000 C   0  0  0  0  0  0           0  0  0
   -3.7125   -0.0500    0.0000 Cl  0  0  0  0  0  0           0  0  0
    0.1792   -3.6750    0.0000 Cl  0  0  0  0  0  0           0  0  0
    3.0792    1.7958    0.0000 C   0  0  0  0  0  0           0  0  0
    2.0625    2.8000    0.0000 C   0  0  0  0  0  0           0  0  0
    2.6875    1.2958    0.0000 C   0  0  0  0  0  0           0  0  0
  2  3  2  0     0  0
  3  1  1  0     0  0
  4  5  1  0     0  0
  5  1  2  0     0  0
  6  2  1  0     0  0
  7  1  1  0     0  0
  8  6  2  0     0  0
  9  4  1  0     0  0
 10  7  1  0     0  0
 11  6  1  0     0  0
 12  8  1  0     0  0
 13  7  2  0     0  0
 14 10  1  0     0  0
 15  9  1  0     0  0
 16  9  2  0     0  0
 17 20  1  0     0  0
 18  8  1  0     0  0
 19  5  1  0     0  0
 20 11  2  0     0  0
 21 23  2  0     0  0
 22 15  2  0     0  0
 23 16  1  0     0  0
 24 17  1  0     0  0
 25 21  1  0     0  0
 26 14  1  0     0  0
 27 14  1  0     0  0
 28 14  1  0     0  0
  4  2  1  0     0  0
 21 22  1  0     0  0
 17 12  2  0     0  0
M  END