
  SciTegic11111309142D

 49 53  0  0  0  0            999 V2000
   -0.9859   -7.0417    0.0000 C   0  0
   -0.0771  -14.0563    0.0000 C   0  0
    0.7097  -14.3075    0.0000 C   0  0
    1.1916  -13.6389    0.0000 C   0  0
    0.7060  -12.9768    0.0000 C   0  0
   -0.0771  -13.2313    0.0000 C   0  0
   -2.1083   -9.7968    0.0000 O   0  0
   -2.5935  -10.4646    0.0000 C   0  0
   -2.2908  -11.2326    0.0000 C   0  0
   -2.7925  -11.8446    0.0000 C   0  0
   -2.5118  -12.5789    0.0000 C   0  0
   -1.7347  -12.6827    0.0000 C   0  0
   -1.2729  -12.0482    0.0000 C   0  0
   -1.5954  -11.3256    0.0000 C   0  0
   -3.6074  -11.7125    0.0000 Cl  0  0
   -1.1011  -10.6644    0.0000 Cl  0  0
   -0.4519  -12.1345    0.0000 S   0  0
   -0.3656  -11.3135    0.0000 O   0  0
   -0.5382  -12.9555    0.0000 O   0  0
    1.4209  -12.5640    0.0000 C   0  0
    2.1351  -12.9764    0.0000 N   0  0
    1.4209  -11.7377    0.0000 O   0  0
    2.1351  -13.8035    0.0000 C   0  0
    2.8453  -14.2135    0.0000 C   0  0
    3.5561  -13.8031    0.0000 N   0  0
    3.5561  -12.9810    0.0000 C   0  0
    2.8455  -12.5662    0.0000 C   0  0
    4.2675  -14.2139    0.0000 C   0  0
    4.2675  -15.0350    0.0000 N   0  0
    4.9862  -13.7989    0.0000 N   0  0
   -2.4450   -9.0403    0.0000 C   0  0
   -3.1165   -7.5319    0.0000 C   0  0
   -3.6035   -8.2069    0.0000 C   0  0
   -3.2647   -8.9600    0.0000 C   0  0
   -2.2922   -7.6191    0.0000 C   0  0
   -1.9600   -8.3761    0.0000 C   0  0
   -1.1401   -8.4657    0.0000 N   0  0
   -0.6514   -7.7992    0.0000 C   0  0
   -1.8075   -6.9549    0.0000 C   0  0
    0.1719   -7.8877    0.0000 C   0  0
   -2.1435   -6.1982    0.0000 C   0  0
    5.7032  -14.2129    0.0000 C   0  0
    6.4203  -13.7989    0.0000 C   0  0
    7.1374  -14.2129    0.0000 C   0  0
    7.8544  -13.7989    0.0000 N   0  3
    8.5715  -14.2129    0.0000 C   0  0
    7.8544  -12.9709    0.0000 C   0  0
    8.5656  -13.3805    0.0000 C   0  0
    0.3682  -12.2241    0.0000 N   0  0
  5 20  1  0
 20 21  1  0
 20 22  2  0
 21 23  1  0
 21 27  1  0
 23 24  1  0
 24 25  1  0
 25 26  1  0
 26 27  1  0
 25 28  1  0
 28 29  2  0
 28 30  1  0
  7 31  1  0
 31 36  2  0
  2  3  1  0
 35 32  2  0
  3  4  1  0
 32 33  1  0
  4  5  1  0
 33 34  2  0
 34 31  1  0
  5  6  1  0
  6  2  1  0
 35 36  1  0
  7  8  1  0
 36 37  1  0
  8  9  1  0
 37 38  2  0
 38  1  1  0
  9 10  2  0
  1 39  2  0
 39 35  1  0
 10 11  1  0
 38 40  1  0
 11 12  2  0
 39 41  1  0
 12 13  1  0
 30 42  1  0
 13 14  2  0
 42 43  1  0
 14  9  1  0
 43 44  1  0
 10 15  1  0
 44 45  1  0
 14 16  1  0
 45 46  1  0
 13 17  1  0
 45 47  1  0
 17 18  2  0
 45 48  1  0
 17 19  2  0
 17 49  1  0
 49  5  1  0
M  CHG  1  45   1
M  END