
          11280715352D 1   1.00000     0.00000     0

 32 34  0     0  0            999 V2000
   -2.4833   -4.2250    0.0000 C   0  0  0  0  0  0           0  0  0
   -1.9750   -5.0875    0.0000 N   0  0  0  0  0  0           0  0  0
   -1.4708   -4.7917    0.0000 C   0  0  0  0  0  0           0  0  0
   -2.4833   -4.8042    0.0000 C   0  0  0  0  0  0           0  0  0
   -1.4750   -4.2167    0.0000 C   0  0  0  0  0  0           0  0  0
   -0.4333   -5.3917    0.0000 N   0  0  0  0  0  0           0  0  0
   -0.9500   -5.0917    0.0000 C   0  0  0  0  0  0           0  0  0
   -0.8875   -2.4917    0.0000 C   0  0  3  0  0  0           0  0  0
   -1.4875   -2.4917    0.0000 N   0  0  0  0  0  0           0  0  0
    1.2875   -1.4667    0.0000 N   0  0  0  0  0  0           0  0  0
    1.8667   -1.3167    0.0000 C   0  0  0  0  0  0           0  0  0
   -2.9833   -3.9375    0.0000 C   0  0  0  0  0  0           0  0  0
    1.1292   -2.0500    0.0000 C   0  0  3  0  0  0           0  0  0
   -2.9833   -3.3542    0.0000 O   0  0  0  0  0  0           0  0  0
   -0.2875   -2.4917    0.0000 C   0  0  3  0  0  0           0  0  0
    2.2875   -1.7417    0.0000 O   0  0  0  0  0  0           0  0  0
    0.1667   -2.3292    0.0000 C   0  0  0  0  0  0           0  0  0
    0.0042   -1.9667    0.0000 C   0  0  0  0  0  0           0  0  0
   -1.9875   -2.2042    0.0000 C   0  0  0  0  0  0           0  0  0
   -2.4875   -2.4917    0.0000 C   0  0  3  0  0  0           0  0  0
    0.6375   -2.2125    0.0000 C   0  0  0  0  0  0           0  0  0
    0.8292   -2.5667    0.0000 C   0  0  0  0  0  0           0  0  0
   -2.4833   -3.0667    0.0000 C   0  0  0  0  0  0           0  0  0
    2.6042   -0.5875    0.0000 Br  0  0  0  0  0  0           0  0  0
   -2.9833   -5.0917    0.0000 C   0  0  0  0  0  0           0  0  0
   -2.9875   -2.2042    0.0000 O   0  0  0  0  0  0           0  0  0
    2.0250   -0.7417    0.0000 C   0  0  0  0  0  0           0  0  0
   -3.4750   -4.8042    0.0000 C   0  0  0  0  0  0           0  0  0
   -0.8958   -3.0917    0.0000 C   0  0  0  0  0  0           0  0  0
   -0.5958   -1.9667    0.0000 C   0  0  0  0  0  0           0  0  0
   -3.4750   -4.2250    0.0000 C   0  0  0  0  0  0           0  0  0
    1.7292   -2.0500    0.0000 C   0  0  0  0  0  0           0  0  0
  2  4  1  0     0  0
  3  5  2  0     0  0
  4  1  1  0     0  0
  5  1  1  0     0  0
  6  7  3  0     0  0
  7  3  1  0     0  0
  8  9  1  0     0  0
  9 19  1  0     0  0
 10 13  1  0     0  0
 11 10  1  0     0  0
 12  1  2  0     0  0
 13 21  1  0     0  0
 14 12  1  0     0  0
 15  8  1  0     0  0
 16 11  2  0     0  0
 17 15  1  0     0  0
 18 15  1  0     0  0
 19 20  1  0     0  0
 20 23  1  0     0  0
 21 18  1  0     0  0
 22 17  1  0     0  0
 23 14  1  0     0  0
 24 27  1  0     0  0
 25  4  2  0     0  0
 26 20  1  0     0  0
 27 11  1  0     0  0
 28 31  2  0     0  0
 29  8  1  0     0  0
 30  8  1  0     0  0
 31 12  1  0     0  0
 32 13  1  0     0  0
  3  2  1  0     0  0
 28 25  1  0     0  0
 13 22  1  0     0  0
M  END