
  SciTegic06051315212D

 55 58  0  0  0  0            999 V2000
    9.8831  -21.5786    0.0000 C   0  0
   10.5975  -21.1661    0.0000 C   0  0
    9.8831  -22.4036    0.0000 C   0  0
   11.3120  -21.5786    0.0000 C   0  0
   10.5975  -20.3411    0.0000 C   0  0
   11.3120  -22.4036    0.0000 O   0  0
   12.0264  -21.1661    0.0000 O   0  0
   12.6712  -21.6802    0.0000 C   0  0  1  0  0  0
   12.6339  -22.5042    0.0000 C   0  0
   13.4634  -21.4592    0.0000 C   0  0  2  0  0  0
   11.9454  -22.9587    0.0000 C   0  0
   13.4119  -22.7960    0.0000 C   0  0
   13.9208  -22.1469    0.0000 C   0  0  1  0  0  0
   14.7513  -22.1372    0.0000 C   0  0  1  0  0  0
   15.2770  -22.7759    0.0000 C   0  0
   15.0997  -23.5836    0.0000 C   0  0  1  0  0  0
   14.3574  -23.9549    0.0000 C   0  0  2  0  0  0
   13.6002  -23.6026    0.0000 C   0  0  1  0  0  0
   13.0321  -24.2152    0.0000 O   0  0
   15.1496  -24.1660    0.0000 O   0  0
   14.5330  -21.3369    0.0000 C   0  0
   15.4621  -21.7202    0.0000 O   0  0
   15.4565  -20.8954    0.0000 C   0  0
   16.1681  -20.4780    0.0000 O   0  0
   14.7392  -20.4877    0.0000 C   0  0
   15.9251  -23.5879    0.0000 O   0  0
   16.3415  -22.8757    0.0000 C   0  0
   17.1665  -22.8801    0.0000 C   0  0
   15.9328  -22.1590    0.0000 O   0  0
   17.5828  -22.1679    0.0000 C   0  0
   18.4078  -22.1723    0.0000 C   0  0
   13.7414  -20.6831    0.0000 O   0  0
   13.3253  -19.9707    0.0000 C   0  0
   13.7343  -19.2542    0.0000 O   0  0
   12.5003  -19.9749    0.0000 C   0  0
   14.1330  -22.9411    0.0000 H   0  0
   12.0843  -19.2624    0.0000 C   0  0
   11.2593  -19.2666    0.0000 C   0  0
   10.8433  -18.5542    0.0000 C   0  0
   10.0183  -18.5583    0.0000 C   0  0
    9.6022  -17.8460    0.0000 C   0  0
    8.7773  -17.8500    0.0000 C   0  0
   14.6549  -25.5064    0.0000 O   0  0
   14.2554  -24.7832    0.0000 C   0  0  2  0  0  0
   13.4437  -24.9408    0.0000 C   0  0  2  0  0  0
   13.3443  -25.7620    0.0000 N   0  0
   14.0952  -26.1076    0.0000 C   0  0
   14.5427  -26.8006    0.0000 C   0  0
   15.0496  -24.9952    0.0000 C   0  0
   15.3667  -26.7595    0.0000 C   0  0
   15.8143  -27.4525    0.0000 O   0  0
   16.6382  -27.4114    0.0000 C   0  0
   17.0858  -28.1044    0.0000 C   0  0
   12.7747  -23.5994    0.0000 H   0  0
   12.6163  -24.9327    0.0000 H   0  0
  1  2  2  0
  1  3  1  0
  2  4  1  0
  2  5  1  0
  4  6  2  0
  4  7  1  0
  8  7  1  6
  9 12  2  0
  8  9  1  0
 13 10  1  0
 10  8  1  0
  9 11  1  0
 12 13  1  0
 13 14  1  0
 12 18  1  0
 14 15  1  0
 15 16  1  0
 17 16  1  0
 17 18  1  0
 44 17  1  0
 18 19  1  0
 19 45  1  0
 17 20  1  1
 14 21  1  0
 14 22  1  1
 22 23  1  0
 23 24  2  0
 23 25  1  0
 16 26  1  6
 26 27  1  0
 27 28  1  0
 27 29  2  0
 28 30  1  0
 30 31  1  0
 10 32  1  1
 32 33  1  0
 33 34  2  0
 33 35  1  0
 13 36  1  1
 35 37  1  0
 37 38  1  0
 38 39  1  0
 39 40  1  0
 40 41  1  0
 41 42  1  0
 44 45  1  0
 43 44  1  0
 45 46  1  0
 46 47  2  0
 47 43  1  0
 47 48  1  0
 44 49  1  1
 48 50  1  0
 50 51  1  0
 51 52  1  0
 52 53  1  0
 18 54  1  6
 45 55  1  1
M  END