
  SciTegic01161211262D

 66 71  0  0  0  0            999 V2000
    7.3637   -2.5922    0.0000 N   0  0
    7.2240   -3.4060    0.0000 C   0  0
    7.7674   -4.0293    0.0000 C   0  0  2  0  0  0
    8.5978   -3.9841    0.0000 C   0  0
    9.0768   -3.3124    0.0000 C   0  0
    8.8546   -2.5171    0.0000 C   0  0
    8.0943   -2.1985    0.0000 C   0  0
    9.4334   -1.9233    0.0000 C   0  0
   10.2298   -2.1286    0.0000 C   0  0
   10.4566   -2.9238    0.0000 C   0  0
    9.8826   -3.5184    0.0000 C   0  0
    6.4241   -3.6329    0.0000 O   0  0
    7.4461   -4.7916    0.0000 N   0  0
    7.9824   -6.9026    0.0000 N   0  0
    7.5307   -6.2166    0.0000 C   0  0  2  0  0  0
    8.7209   -5.4335    0.0000 O   0  0
    7.9023   -5.4821    0.0000 C   0  0
    6.7029   -6.2724    0.0000 C   0  0
    6.7703   -7.6951    0.0000 C   0  0
    6.3272   -7.0047    0.0000 C   0  0
    5.5037   -7.0420    0.0000 C   0  0
    5.1281   -7.7744    0.0000 C   0  0
    5.5712   -8.4693    0.0000 C   0  0
    6.3947   -8.4274    0.0000 C   0  0
    5.1955   -9.2017    0.0000 O   0  0
    7.5943   -7.6574    0.0000 C   0  0
    5.0605   -6.3516    0.0000 C   0  0
    6.6353   -2.2079    0.0000 C   0  0
    6.6022   -1.3835    0.0000 C   0  0
    5.8738   -1.0038    0.0000 N   0  0
    7.2976   -0.9435    0.0000 O   0  0
    3.7979   -0.3322    0.0000 N   0  0
    4.6206   -0.3159    0.0000 C   0  0
    5.0496   -1.0193    0.0000 C   0  0
    2.1275   -1.7311    0.0000 N   0  0
    1.3208   -1.5394    0.0000 C   0  0
    0.6641   -2.0477    0.0000 C   0  0  2  0  0  0
    0.6604   -2.8754    0.0000 C   0  0
    1.3057   -3.4007    0.0000 C   0  0
    2.1161   -3.2204    0.0000 C   0  0
    2.4762   -2.4799    0.0000 C   0  0
    2.6699   -3.8326    0.0000 C   0  0
    2.4190   -4.6159    0.0000 C   0  0
    1.6087   -4.7961    0.0000 C   0  0
    1.0491   -4.1885    0.0000 C   0  0
    1.1405   -0.7290    0.0000 O   0  0
   -0.0782   -1.6802    0.0000 N   0  0
   -2.2173   -2.0951    0.0000 N   0  0
   -1.5027   -1.6802    0.0000 C   0  0  2  0  0  0
   -0.7927   -2.9160    0.0000 O   0  0
   -0.7927   -2.0951    0.0000 C   0  0
   -1.5094   -0.8538    0.0000 C   0  0
   -2.9392   -0.8365    0.0000 C   0  0
   -2.2210   -0.4304    0.0000 C   0  0
   -2.2097    0.3900    0.0000 C   0  0
   -2.9168    0.8088    0.0000 C   0  0
   -3.6351    0.4072    0.0000 C   0  0
   -3.6462   -0.4177    0.0000 C   0  0
   -4.3420    0.8260    0.0000 O   0  0
   -2.9455   -1.6619    0.0000 C   0  0
   -1.4915    0.7961    0.0000 C   0  0
    2.5501   -1.0239    0.0000 C   0  0
    3.3754   -1.0394    0.0000 C   0  0
    3.7735   -1.7575    0.0000 O   0  0
    0.1185   -2.5978    0.0000 H   0  0
    8.2941   -4.5514    0.0000 H   0  0
  1  2  1  0
  2  3  1  0
  3  4  1  0
  4  5  1  0
  5  6  1  0
  6  7  1  0
  1  7  1  0
  8  9  1  0
  9 10  2  0
 10 11  1  0
  5 11  2  0
  6  8  2  0
  2 12  2  0
  3 13  1  0
 17 13  1  0
 14 15  1  0
 15 17  1  0
 17 16  2  0
 15 18  1  1
 18 20  1  0
 19 20  2  0
 20 21  1  0
 21 22  2  0
 22 23  1  0
 23 24  2  0
 24 19  1  0
 23 25  1  0
 19 26  1  0
 21 27  1  0
  1 28  1  0
 28 29  1  0
 29 30  1  0
 29 31  2  0
 32 33  1  0
 33 34  1  0
 34 30  1  0
 35 36  1  0
 36 37  1  0
 37 38  1  0
 38 39  1  0
 39 40  1  0
 40 41  1  0
 35 41  1  0
 42 43  1  0
 43 44  2  0
 44 45  1  0
 39 45  2  0
 40 42  2  0
 36 46  2  0
 37 47  1  0
 51 47  1  0
 48 49  1  0
 49 51  1  0
 51 50  2  0
 49 52  1  1
 52 54  1  0
 53 54  2  0
 54 55  1  0
 55 56  2  0
 56 57  1  0
 57 58  2  0
 58 53  1  0
 57 59  1  0
 53 60  1  0
 55 61  1  0
 35 62  1  0
 62 63  1  0
 63 64  2  0
 63 32  1  0
 37 65  1  1
  3 66  1  1
M  END