
          11280715092D 1   1.00000     0.00000     0

 33 37  0     0  0            999 V2000
    7.3000   -4.1667    0.0000 S   0  0  3  0  0  0           0  0  0
    6.9375   -3.6875    0.0000 N   0  0  3  0  0  0           0  0  0
    7.2917   -3.1917    0.0000 C   0  0  0  0  0  0           0  0  0
    7.8667   -3.3792    0.0000 C   0  0  0  0  0  0           0  0  0
    7.8667   -3.9750    0.0000 C   0  0  0  0  0  0           0  0  0
    2.7292   -2.6292    0.0000 C   0  0  0  0  0  0           0  0  0
    2.4292   -2.1125    0.0000 C   0  0  0  0  0  0           0  0  0
    3.3292   -2.6375    0.0000 N   0  0  3  0  0  0           0  0  0
    1.8250   -2.1167    0.0000 C   0  0  0  0  0  0           0  0  0
    6.9917   -4.6917    0.0000 O   0  0  0  0  0  0           0  0  0
    7.6292   -4.7292    0.0000 O   0  0  0  0  0  0           0  0  0
    2.4292   -3.1542    0.0000 C   0  0  0  0  0  0           0  0  0
    1.5250   -2.6375    0.0000 C   0  0  0  0  0  0           0  0  0
    4.5375   -2.6417    0.0000 N   0  0  3  0  0  0           0  0  0
    6.8625   -2.7667    0.0000 O   0  0  0  0  0  0           0  0  0
    2.7250   -1.5875    0.0000 O   0  0  0  0  0  0           0  0  0
    1.8250   -3.1542    0.0000 C   0  0  0  0  0  0           0  0  0
    1.5167   -1.6000    0.0000 O   0  0  0  0  0  0           0  0  0
    3.6292   -2.1125    0.0000 C   0  0  0  0  0  0           0  0  0
    3.6292   -3.1625    0.0000 C   0  0  0  0  0  0           0  0  0
    6.3375   -3.6875    0.0000 C   0  0  0  0  0  0           0  0  0
    4.2375   -2.1167    0.0000 C   0  0  0  0  0  0           0  0  0
    4.2292   -3.1625    0.0000 C   0  0  0  0  0  0           0  0  0
    8.3792   -3.0792    0.0000 C   0  0  0  0  0  0           0  0  0
    1.5167   -3.6750    0.0000 Cl  0  0  0  0  0  0           0  0  0
    8.3875   -4.2667    0.0000 C   0  0  0  0  0  0           0  0  0
    5.1375   -2.6417    0.0000 C   0  0  0  0  0  0           0  0  0
    2.4167   -1.0667    0.0000 C   0  0  0  0  0  0           0  0  0
    1.8167   -1.0667    0.0000 C   0  0  0  0  0  0           0  0  0
    6.0417   -3.1667    0.0000 C   0  0  0  0  0  0           0  0  0
    5.4375   -3.1667    0.0000 C   0  0  0  0  0  0           0  0  0
    8.8917   -3.3750    0.0000 C   0  0  0  0  0  0           0  0  0
    8.9042   -3.9750    0.0000 C   0  0  0  0  0  0           0  0  0
  2  1  1  0     0  0
  3  2  1  0     0  0
  4  5  2  0     0  0
  5  1  1  0     0  0
  6  8  1  0     0  0
  7  6  2  0     0  0
  8 20  1  0     0  0
  9  7  1  0     0  0
 10  1  2  0     0  0
 11  1  2  0     0  0
 12  6  1  0     0  0
 13 17  1  0     0  0
 14 27  1  0     0  0
 15  3  2  0     0  0
 16  7  1  0     0  0
 17 12  2  0     0  0
 18  9  1  0     0  0
 19 22  1  0     0  0
 20 23  1  0     0  0
 21  2  1  0     0  0
 22 14  1  0     0  0
 23 14  1  0     0  0
 24  4  1  0     0  0
 25 17  1  0     0  0
 26  5  1  0     0  0
 27 31  1  0     0  0
 28 16  1  0     0  0
 29 28  1  0     0  0
 30 21  1  0     0  0
 31 30  1  0     0  0
 32 33  1  0     0  0
 33 26  2  0     0  0
  3  4  1  0     0  0
 32 24  2  0     0  0
  8 19  1  0     0  0
 13  9  2  0     0  0
 18 29  1  0     0  0
M  END