
  SciTegic12231509382D

 24 24  0  0  0  0            999 V2000
    5.2792   -5.9042    0.0000 C   0  0
    5.3125   -5.2042    0.0000 C   0  0
    5.8917   -6.2750    0.0000 C   0  0
    2.8167   -5.8250    0.0000 C   0  0
    3.4167   -6.2042    0.0000 N   0  0
    4.6375   -6.2542    0.0000 C   0  0
    4.0417   -5.8667    0.0000 C   0  0
    5.9542   -4.9000    0.0000 O   0  0
    2.8167   -5.1125    0.0000 O   0  0
    6.5000   -5.9167    0.0000 O   0  0
    5.9875   -2.7875    0.0000 N   0  0
    4.7000   -4.8167    0.0000 C   0  0
    6.5792   -3.8417    0.0000 C   0  0
    5.9667   -4.1792    0.0000 C   0  0
    6.5917   -3.1417    0.0000 C   0  0
    4.0625   -5.1500    0.0000 C   0  0
    7.1792   -4.2042    0.0000 O   0  0
    5.3750   -3.1250    0.0000 C   0  0
    2.1917   -6.1542    0.0000 C   0  0
    5.8792   -6.9750    0.0000 C   0  0
    1.5667   -5.7875    0.0000 C   0  0
    4.7792   -2.7625    0.0000 C   0  0
    5.3917   -3.8167    0.0000 C   0  0
    0.9000   -6.1292    0.0000 C   0  0
  2  1  2  0
  3  1  1  0
  4  5  1  0
  5  7  1  0
  6  1  1  0
  7  6  2  0
  8  2  1  0
  9  4  2  0
 10  3  2  0
 11 15  1  0
 12  2  1  0
 13 14  1  0
 14  8  1  0
 15 13  1  0
 16  7  1  0
 17 13  1  0
 18 11  1  0
 19  4  1  0
 20  3  1  0
 21 19  1  0
 22 18  1  0
 23 18  1  0
 24 21  1  0
 16 12  2  0
M  END