
  SciTegic07221113202D

 26 26  0  0  0  0            999 V2000
    1.4143  -18.1205    0.0000 C   0  0
    2.2393  -18.1205    0.0000 C   0  0
    1.0018  -18.8350    0.0000 C   0  0
    2.6518  -18.8350    0.0000 C   0  0
    3.4768  -18.8350    0.0000 O   0  0
    2.2393  -19.5495    0.0000 O   0  0
    0.1768  -18.8350    0.0000 O   0  0
    1.4143  -19.5495    0.0000 O   0  0
    5.8396  -21.9375    0.0000 N   0  0
    5.1261  -22.3518    0.0000 C   0  0
    6.5645  -22.3518    0.0000 C   0  0
    6.5645  -23.1803    0.0000 O   0  0
    4.4070  -21.9375    0.0000 C   0  0
    5.1261  -23.1803    0.0000 C   0  0
    7.9971  -22.3518    0.0000 N   0  0
    7.2722  -21.9375    0.0000 C   0  0
    4.4070  -21.1090    0.0000 C   0  0
    3.6935  -22.3518    0.0000 C   0  0
    4.4185  -23.5945    0.0000 C   0  0
    5.8396  -23.5945    0.0000 C   0  0
    2.9744  -21.9490    0.0000 C   0  0
    3.6935  -20.6948    0.0000 C   0  0
    5.8396  -24.4230    0.0000 C   0  0
    4.4185  -24.4230    0.0000 C   0  0
    5.1261  -24.8372    0.0000 C   0  0
    2.9744  -21.1090    0.0000 C   0  0
  1  2  2  0
  1  3  1  0
  2  4  1  0
  4  5  2  0
  4  6  1  0
  3  7  1  0
  3  8  2  0
 10  9  1  0
 11  9  1  0
 12 11  2  0
 13 10  1  0
 14 10  1  0
 15 16  1  0
 16 11  1  0
 17 13  2  0
 18 13  1  0
 19 14  1  0
 20 14  1  0
 21 18  2  0
 22 17  1  0
 23 20  1  0
 24 19  1  0
 25 23  1  0
 26 21  1  0
 25 24  1  0
 26 22  2  0
M  END