
  Mrv0541 05211314572D          

 36 39  0  0  0  0            999 V2000
   -0.2047    0.3539    0.0000 C   0  0  0  0  0  0  0  0  0  0  0  0
    0.5097   -0.0586    0.0000 C   0  0  0  0  0  0  0  0  0  0  0  0
    1.2242    0.3539    0.0000 C   0  0  0  0  0  0  0  0  0  0  0  0
    1.9387   -0.0586    0.0000 N   0  0  0  0  0  0  0  0  0  0  0  0
    1.2242    1.1789    0.0000 O   0  0  0  0  0  0  0  0  0  0  0  0
    2.6532    0.3539    0.0000 C   0  0  0  0  0  0  0  0  0  0  0  0
    3.3676   -0.0586    0.0000 C   0  0  0  0  0  0  0  0  0  0  0  0
    3.3676   -0.8836    0.0000 N   0  0  0  0  0  0  0  0  0  0  0  0
    2.6532   -1.2961    0.0000 C   0  0  0  0  0  0  0  0  0  0  0  0
    1.9387   -0.8836    0.0000 C   0  0  0  0  0  0  0  0  0  0  0  0
    4.0821   -1.2961    0.0000 C   0  0  0  0  0  0  0  0  0  0  0  0
    4.7966   -0.8836    0.0000 C   0  0  0  0  0  0  0  0  0  0  0  0
    5.5110   -1.2961    0.0000 C   0  0  0  0  0  0  0  0  0  0  0  0
    5.5110   -2.1211    0.0000 C   0  0  0  0  0  0  0  0  0  0  0  0
    4.7966   -2.5336    0.0000 C   0  0  0  0  0  0  0  0  0  0  0  0
    4.0821   -2.1211    0.0000 C   0  0  0  0  0  0  0  0  0  0  0  0
   -0.9192   -0.0586    0.0000 N   0  0  0  0  0  0  0  0  0  0  0  0
   -0.9192   -0.8836    0.0000 C   0  0  0  0  0  0  0  0  0  0  0  0
   -1.6337    0.3539    0.0000 C   0  0  0  0  0  0  0  0  0  0  0  0
   -2.3481   -0.0586    0.0000 C   0  0  0  0  0  0  0  0  0  0  0  0
   -3.0626    0.3539    0.0000 C   0  0  0  0  0  0  0  0  0  0  0  0
   -4.3683    0.6314    0.0000 C   0  0  0  0  0  0  0  0  0  0  0  0
   -3.8163    0.0184    0.0000 C   0  0  0  0  0  0  0  0  0  0  0  0
   -4.0712   -0.7663    0.0000 C   0  0  0  0  0  0  0  0  0  0  0  0
   -4.8782   -0.9378    0.0000 C   0  0  0  0  0  0  0  0  0  0  0  0
   -5.4302   -0.3247    0.0000 C   0  0  0  0  0  0  0  0  0  0  0  0
   -5.1753    0.4599    0.0000 C   0  0  0  0  0  0  0  0  0  0  0  0
   -3.1488    1.1744    0.0000 C   0  0  0  0  0  0  0  0  0  0  0  0
   -3.9558    1.3459    0.0000 C   0  0  0  0  0  0  0  0  0  0  0  0
   -4.2108    2.1305    0.0000 C   0  0  0  0  0  0  0  0  0  0  0  0
   -3.6587    2.7436    0.0000 C   0  0  0  0  0  0  0  0  0  0  0  0
   -2.8517    2.5721    0.0000 C   0  0  0  0  0  0  0  0  0  0  0  0
   -2.5968    1.7875    0.0000 C   0  0  0  0  0  0  0  0  0  0  0  0
    4.7966   -0.0586    0.0000 C   0  0  0  0  0  0  0  0  0  0  0  0
    4.7966    0.7664    0.0000 N   0  0  0  0  0  0  0  0  0  0  0  0
    7.7503    0.0000    0.0000 Cl  0  0  0  0  0  0  0  0  0  0  0  0
  1 17  1  0  0  0  0
  6  7  1  0  0  0  0
 17 18  1  0  0  0  0
  7  8  1  0  0  0  0
 17 19  1  0  0  0  0
  8  9  1  0  0  0  0
 19 20  1  0  0  0  0
  9 10  1  0  0  0  0
 20 21  1  0  0  0  0
 21 23  1  0  0  0  0
 22 29  1  0  0  0  0
 28 21  1  0  0  0  0
 22 23  2  0  0  0  0
  4  6  1  0  0  0  0
  8 11  1  0  0  0  0
  2  3  1  0  0  0  0
 11 12  2  0  0  0  0
  1  2  1  0  0  0  0
 12 13  1  0  0  0  0
 22 27  1  0  0  0  0
 23 24  1  0  0  0  0
 24 25  2  0  0  0  0
 25 26  1  0  0  0  0
 26 27  2  0  0  0  0
 28 29  2  0  0  0  0
  3  4  1  0  0  0  0
 13 14  2  0  0  0  0
 14 15  1  0  0  0  0
  3  5  2  0  0  0  0
 15 16  2  0  0  0  0
 28 33  1  0  0  0  0
 29 30  1  0  0  0  0
 30 31  2  0  0  0  0
 31 32  1  0  0  0  0
 32 33  2  0  0  0  0
 16 11  1  0  0  0  0
 12 34  1  0  0  0  0
  4 10  1  0  0  0  0
 34 35  3  0  0  0  0
M  END