
  SciTegic05201615352D

 44 48  0  0  0  0            999 V2000
    0.8392   -1.0491    0.0000 P   0  0
    0.3542   -0.3817    0.0000 O   0  0
    1.3241   -1.7166    0.0000 O   0  0
    1.5066   -0.5642    0.0000 O   0  0
    2.2603   -0.8998    0.0000 C   0  0
    2.9277   -0.4148    0.0000 C   0  0  1  0  0  0
    2.9277    0.4102    0.0000 O   0  0
    3.7123   -0.6698    0.0000 C   0  0  1  0  0  0
    3.9673   -1.4544    0.0000 O   0  0
    4.1973   -0.0023    0.0000 C   0  0  1  0  0  0
    5.0223   -0.0023    0.0000 O   0  0
    3.7123    0.6651    0.0000 C   0  0  2  0  0  0
    3.9673    1.4497    0.0000 N   0  0
    3.4824    2.1172    0.0000 C   0  0
    3.9673    2.7846    0.0000 N   0  0
    4.7519    2.5297    0.0000 C   0  0
    5.4664    2.9422    0.0000 C   0  0
    5.4664    3.7672    0.0000 N   0  0
    6.1808    2.5297    0.0000 N   0  0
    6.1808    1.7047    0.0000 C   0  0
    5.4664    1.2922    0.0000 N   0  0
    4.7519    1.7047    0.0000 C   0  0
    0.1717   -1.5340    0.0000 O   0  0
   -0.5819   -1.1985    0.0000 P   0  0
   -0.2464   -0.4448    0.0000 O   0  0
   -0.9175   -1.9522    0.0000 O   0  5
   -1.3356   -0.8629    0.0000 O   0  0
   -2.0031   -1.3478    0.0000 C   0  0
   -2.7567   -1.0123    0.0000 C   0  0  1  0  0  0
   -3.4712   -1.4248    0.0000 O   0  0
   -2.9283   -0.2053    0.0000 C   0  0  1  0  0  0
   -2.3762    0.4078    0.0000 O   0  0
   -3.7487   -0.1191    0.0000 C   0  0  1  0  0  0
   -4.1612    0.5954    0.0000 O   0  0
   -4.0843   -0.8728    0.0000 C   0  0  2  0  0  0
   -4.8913   -1.0443    0.0000 N   0  3
   -5.4433   -0.4312    0.0000 C   0  0
   -6.2503   -0.6027    0.0000 C   0  0
   -6.8023    0.0104    0.0000 C   0  0
   -7.6093   -0.1612    0.0000 O   0  0
   -6.5474    0.7950    0.0000 N   0  0
   -6.5052   -1.3873    0.0000 C   0  0
   -5.9532   -2.0004    0.0000 C   0  0
   -5.1462   -1.8289    0.0000 C   0  0
  2  1  2  0
  1  3  1  0
  1  4  1  0
 23  1  1  0
  5  4  1  0
  6  5  1  1
  6  7  1  0
  8  6  1  0
 12  7  1  0
  8  9  1  6
 10  8  1  0
 10 11  1  6
 12 10  1  0
 12 13  1  1
 14 13  1  0
 22 13  1  0
 14 15  2  0
 16 15  1  0
 16 17  1  0
 22 16  2  0
 17 18  1  0
 17 19  2  0
 20 19  1  0
 20 21  2  0
 22 21  1  0
 24 23  1  0
 25 24  2  0
 24 26  1  0
 27 24  1  0
 28 27  1  0
 29 28  1  1
 29 30  1  0
 31 29  1  0
 35 30  1  0
 31 32  1  6
 33 31  1  0
 33 34  1  6
 35 33  1  0
 35 36  1  1
 37 36  1  0
 44 36  2  0
 37 38  2  0
 38 39  1  0
 38 42  1  0
 39 40  2  0
 39 41  1  0
 42 43  2  0
 43 44  1  0
M  CHG  2  26  -1  36   1
M  END