
  SciTegic09261414532D

 36 39  0  0  0  0            999 V2000
    7.0891  -13.1563    0.0000 C   0  0
    7.0899  -13.9832    0.0000 C   0  0
    7.8053  -14.3942    0.0000 N   0  0
    8.5204  -13.9793    0.0000 C   0  0
    8.5156  -13.1493    0.0000 C   0  0
    7.7997  -12.7420    0.0000 C   0  0
    9.2366  -14.3892    0.0000 C   0  0
    9.2276  -12.7324    0.0000 C   0  0  1  0  0  0
    9.9447  -13.1406    0.0000 C   0  0
   10.6567  -12.7237    0.0000 O   0  0
    9.9497  -13.9656    0.0000 O   0  0
    9.2227  -11.9073    0.0000 O   0  0
    9.9347  -11.4905    0.0000 C   0  0
    9.9296  -10.6653    0.0000 C   0  0
   10.6518  -11.8986    0.0000 C   0  0
   10.6471  -11.0721    0.0000 C   0  0
    7.7953  -11.9169    0.0000 C   0  0
    8.5087  -11.5064    0.0000 C   0  0
    7.0802  -11.5162    0.0000 C   0  0
    7.0728  -10.6932    0.0000 C   0  0
    6.3760  -14.3968    0.0000 C   0  0
    6.3736  -12.7455    0.0000 C   0  0
    5.6644  -13.9839    0.0000 C   0  0
    4.9510  -14.3969    0.0000 C   0  0
    4.9518  -15.2228    0.0000 C   0  0
    5.6719  -15.6342    0.0000 C   0  0
    6.3825  -15.2188    0.0000 C   0  0
    4.2359  -13.9850    0.0000 C   0  0
    4.2383  -15.6375    0.0000 C   0  0
    7.7929  -10.2734    0.0000 C   0  0
    8.5012  -10.6846    0.0000 C   0  0
    9.2078  -10.2791    0.0000 C   0  0
    9.2120   -9.4606    0.0000 C   0  0
    8.5036   -9.0493    0.0000 C   0  0
    7.7910   -9.4565    0.0000 O   0  0
    8.5009  -12.3306    0.0000 C   0  0
  1  2  2  0
  2  3  1  0
  3  4  2  0
  4  5  1  0
  5  6  2  0
  6  1  1  0
  4  7  1  0
  5  8  1  0
  8  9  1  0
  9 10  1  0
  9 11  2  0
  8 12  1  6
 12 13  1  0
 13 14  1  0
 13 15  1  0
 13 16  1  0
  6 17  1  0
 17 18  2  0
 18 31  1  0
 20 19  2  0
 19 17  1  0
 20 30  1  0
  2 21  1  0
  1 22  1  0
 21 23  2  0
 23 24  1  0
 24 25  2  0
 25 26  1  0
 26 27  2  0
 27 21  1  0
 24 28  1  0
 25 29  1  0
 30 31  2  0
 30 35  1  0
 31 32  1  0
 32 33  1  0
 33 34  1  0
 34 35  1  0
 18 36  1  0
M  END