
  SciTegic12171312552D

 58 66  0  0  0  0            999 V2000
   19.1592  -22.3384    0.0000 C   0  0
   20.6783  -22.4503    0.0000 N   0  0
   19.9000  -22.7097    0.0000 C   0  0
   19.9062  -23.5302    0.0000 C   0  0
   20.6887  -23.7790    0.0000 N   0  0
   21.1655  -23.1104    0.0000 N   0  0
   21.1547  -24.4599    0.0000 C   0  0
   20.7980  -25.2038    0.0000 C   0  0
   19.9777  -25.2651    0.0000 C   0  0
   19.6210  -26.0082    0.0000 C   0  0
   20.0871  -26.6900    0.0000 C   0  0
   20.9137  -26.6240    0.0000 C   0  0
   21.2666  -25.8805    0.0000 C   0  0
   19.7315  -27.4344    0.0000 C   0  0
   18.9077  -27.4959    0.0000 C   0  0
   18.5521  -28.2395    0.0000 C   0  0
   19.0191  -28.9207    0.0000 C   0  0
   19.8456  -28.8535    0.0000 C   0  0
   20.1974  -28.1096    0.0000 C   0  0
   19.1107  -21.5149    0.0000 N   0  0
   18.1202  -20.9991    0.0000 C   0  0
   18.1168  -20.1738    0.0000 C   0  0
   18.7050  -19.5911    0.0000 N   0  0
   18.3325  -18.8515    0.0000 N   0  0
   17.5134  -18.9776    0.0000 N   0  0
   17.3808  -19.7944    0.0000 C   0  0
   17.0997  -18.2638    0.0000 C   0  0
   16.2747  -18.2653    0.0000 C   0  0
   15.8652  -17.5490    0.0000 C   0  0
   15.0410  -17.5500    0.0000 C   0  0
   14.6289  -18.2658    0.0000 C   0  0
   15.0471  -18.9818    0.0000 C   0  0
   15.8700  -18.9773    0.0000 C   0  0
   13.8039  -18.2683    0.0000 C   0  0
   13.3917  -17.5541    0.0000 C   0  0
   12.5675  -17.5563    0.0000 C   0  0
   12.1564  -18.2726    0.0000 C   0  0
   12.5755  -18.9882    0.0000 C   0  0
   13.3984  -18.9824    0.0000 C   0  0
   20.1131  -20.9991    0.0000 C   0  0
   19.5324  -19.5910    0.0000 N   0  0
   20.1131  -20.1706    0.0000 C   0  0
   20.8439  -19.7974    0.0000 C   0  0
   20.7157  -18.9863    0.0000 N   0  0
   19.9043  -18.8596    0.0000 N   0  0
   21.1155  -18.2646    0.0000 C   0  0
   21.9404  -18.2501    0.0000 C   0  0
   22.3629  -18.9561    0.0000 C   0  0
   23.1870  -18.9420    0.0000 C   0  0
   23.5876  -18.2197    0.0000 C   0  0
   23.1582  -17.5104    0.0000 C   0  0
   22.3355  -17.5281    0.0000 C   0  0
   24.4125  -18.2041    0.0000 C   0  0
   24.8366  -18.9131    0.0000 C   0  0
   25.6607  -18.8977    0.0000 C   0  0
   26.0604  -18.1751    0.0000 C   0  0
   25.6300  -17.4663    0.0000 C   0  0
   24.8073  -17.4850    0.0000 C   0  0
  1  3  1  0
  2  3  1  0
  3  4  2  0
  4  5  1  0
  5  6  1  0
  6  2  2  0
  5  7  1  0
  7  8  1  0
  8  9  2  0
  9 10  1  0
 10 11  2  0
 11 12  1  0
 12 13  2  0
 13  8  1  0
 11 14  1  0
 14 15  2  0
 15 16  1  0
 16 17  2  0
 17 18  1  0
 18 19  2  0
 19 14  1  0
  1 20  1  0
 21 22  1  0
 21 20  1  0
 22 23  1  0
 23 24  2  0
 24 25  1  0
 25 26  1  0
 26 22  2  0
 25 27  1  0
 27 28  1  0
 28 29  2  0
 29 30  1  0
 30 31  2  0
 31 32  1  0
 32 33  2  0
 33 28  1  0
 31 34  1  0
 34 35  2  0
 35 36  1  0
 36 37  2  0
 37 38  1  0
 38 39  2  0
 39 34  1  0
 20 40  1  0
 40 42  1  0
 41 42  1  0
 42 43  2  0
 43 44  1  0
 44 45  1  0
 45 41  2  0
 44 46  1  0
 46 47  1  0
 47 48  2  0
 48 49  1  0
 49 50  2  0
 50 51  1  0
 51 52  2  0
 52 47  1  0
 50 53  1  0
 53 54  2  0
 54 55  1  0
 55 56  2  0
 56 57  1  0
 57 58  2  0
 58 53  1  0
M  END