
          05080814042D 1   1.00000     0.00000     0

 33 37  0     1  0            999 V2000
   -4.6007  -16.6301    0.0000 C   0  0  0  0  0  0           0  0  0
   -5.3111  -17.0448    0.0000 C   0  0  0  0  0  0           0  0  0
   -5.3041  -17.8708    0.0000 C   0  0  0  0  0  0           0  0  0
   -4.5906  -18.2742    0.0000 C   0  0  0  0  0  0           0  0  0
   -3.8876  -17.0371    0.0000 C   0  0  0  0  0  0           0  0  0
   -3.8815  -17.8645    0.0000 C   0  0  0  0  0  0           0  0  0
   -3.1660  -18.2708    0.0000 C   0  0  0  0  0  0           0  0  0
   -3.1781  -16.6160    0.0000 C   0  0  0  0  0  0           0  0  0
   -2.4579  -17.0267    0.0000 C   0  0  2  0  0  0           0  0  0
   -2.4534  -17.8560    0.0000 C   0  0  2  0  0  0           0  0  0
   -1.7369  -18.2645    0.0000 N   0  0  3  0  0  0           0  0  0
   -1.0203  -17.8481    0.0000 C   0  0  0  0  0  0           0  0  0
   -1.0249  -17.0188    0.0000 C   0  0  1  0  0  0           0  0  0
   -1.7459  -16.6059    0.0000 C   0  0  0  0  0  0           0  0  0
   -2.4658  -16.1981    0.0000 H   0  0  0  0  0  0           0  0  0
   -2.4616  -18.6805    0.0000 H   0  0  0  0  0  0           0  0  0
   -0.3125  -16.6033    0.0000 C   0  0  0  0  0  0           0  0  0
    0.4035  -17.0124    0.0000 N   0  0  3  0  0  0           0  0  0
   -0.3162  -15.7786    0.0000 O   0  0  0  0  0  0           0  0  0
    0.4013  -17.8403    0.0000 C   0  0  0  0  0  0           0  0  0
    1.1132  -18.2494    0.0000 C   0  0  0  0  0  0           0  0  0
    1.8279  -17.8373    0.0000 C   0  0  0  0  0  0           0  0  0
    1.8262  -17.0117    0.0000 C   0  0  0  0  0  0           0  0  0
    1.1097  -16.5981    0.0000 C   0  0  0  0  0  0           0  0  0
   -4.6046  -15.8054    0.0000 O   0  0  0  0  0  0           0  0  0
   -5.3208  -15.3965    0.0000 C   0  0  0  0  0  0           0  0  0
   -1.7336  -19.0892    0.0000 C   0  0  0  0  0  0           0  0  0
    2.5424  -18.2493    0.0000 C   0  0  0  0  0  0           0  0  0
    2.5386  -19.0731    0.0000 C   0  0  0  0  0  0           0  0  0
    3.2522  -19.4849    0.0000 C   0  0  0  0  0  0           0  0  0
    3.9670  -19.0720    0.0000 C   0  0  0  0  0  0           0  0  0
    3.9638  -18.2431    0.0000 C   0  0  0  0  0  0           0  0  0
    3.2496  -17.8350    0.0000 N   0  0  0  0  0  0           0  0  0
  5  8  1  0     0  0
 10 16  1  1     0  0
  6  7  1  0     0  0
 13 17  1  1     0  0
  7 10  1  0     0  0
 17 18  1  0     0  0
  9  8  1  0     0  0
 17 19  2  0     0  0
 18 20  1  0     0  0
  9 10  1  0     0  0
  3  4  2  0     0  0
  4  6  1  0     0  0
  5  6  2  0     0  0
  1  2  2  0     0  0
 18 24  1  0     0  0
 20 21  1  0     0  0
 21 22  1  0     0  0
 22 23  2  0     0  0
 23 24  1  0     0  0
  5  1  1  0     0  0
  1 25  1  0     0  0
  2  3  1  0     0  0
 25 26  1  0     0  0
  9 14  1  0     0  0
 11 27  1  0     0  0
 10 11  1  0     0  0
 22 28  1  0     0  0
 11 12  1  0     0  0
 28 29  2  0     0  0
 12 13  1  0     0  0
 29 30  1  0     0  0
 13 14  1  0     0  0
 30 31  2  0     0  0
 31 32  1  0     0  0
  9 15  1  6     0  0
 32 33  2  0     0  0
 33 28  1  0     0  0
M  END