
  SciTegic05161214222D

 57 60  0  0  0  0            999 V2000
    2.4044   -3.7712    0.0000 C   0  0
    3.1191   -3.3592    0.0000 C   0  0  2  0  0  0
   -1.8750   -2.9542    0.0000 C   0  0
   -1.8750   -3.7792    0.0000 C   0  0
   -1.1630   -4.1875    0.0000 O   0  0
   -0.4510   -3.7792    0.0000 C   0  0
   -0.4510   -2.9542    0.0000 C   0  0
   -1.1630   -2.5375    0.0000 C   0  0
   -2.5927   -2.5489    0.0000 S   0  0
   -3.0010   -3.2658    0.0000 O   0  0
   -2.1760   -3.2610    0.0000 O   0  0
   -5.4598    2.3875    0.0000 C   0  0
   -5.4609    1.5602    0.0000 C   0  0
   -4.7461    1.1473    0.0000 C   0  0
   -4.7479    2.8003    0.0000 C   0  0
   -4.0325    2.3912    0.0000 C   0  0
   -4.0318    1.5643    0.0000 C   0  0
   -3.3165    1.1534    0.0000 N   0  0
   -2.6014    1.5681    0.0000 C   0  0
   -2.6062    2.3981    0.0000 C   0  0
   -3.3221    2.8053    0.0000 C   0  0
   -1.8854    1.1584    0.0000 C   0  0
   -3.3265    3.6303    0.0000 C   0  0
   -4.7442    0.3223    0.0000 O   0  0
   -4.0288   -0.0885    0.0000 C   0  0
   -4.0269   -0.9135    0.0000 C   0  0
   -4.7430   -1.3233    0.0000 C   0  0
   -4.7414   -2.1476    0.0000 C   0  0
   -4.0254   -2.5592    0.0000 C   0  0
   -3.3096   -2.1406    0.0000 C   0  0
   -3.3146   -1.3178    0.0000 C   0  0
   -5.4570   -0.9101    0.0000 Cl  0  0
   -2.6030   -0.9004    0.0000 Cl  0  0
   -1.8806   -2.1323    0.0000 N   0  0
   -0.4517   -2.1239    0.0000 C   0  0
    0.2640   -2.5342    0.0000 N   0  0
   -0.4543   -1.2989    0.0000 O   0  0
    0.2629   -3.3592    0.0000 C   0  0
    0.9746   -3.7694    0.0000 C   0  0
    1.6902   -3.3582    0.0000 N   0  0
    1.6896   -2.5323    0.0000 C   0  0
    0.9734   -2.1175    0.0000 C   0  0
    2.4038   -4.5962    0.0000 O   0  0
    3.8333   -3.7722    0.0000 C   0  0
    4.5481   -3.3602    0.0000 C   0  0
    5.2623   -3.7732    0.0000 C   0  0
    5.9770   -3.3612    0.0000 N   0  0
    3.1197   -2.5342    0.0000 N   0  0
    6.6912   -3.7742    0.0000 C   0  0
    5.9776   -2.5362    0.0000 C   0  0
    5.0972   -1.4301    0.0000 F   0  0
    5.8116   -1.0176    0.0000 C   0  0
    6.5261   -1.4301    0.0000 F   0  0
    5.8055   -1.8384    0.0000 F   0  0
    5.8147   -0.1926    0.0000 C   0  0
    6.5307    0.2172    0.0000 O   0  0
    5.1018    0.2226    0.0000 O   0  0
 13 14  1  0
 25 26  1  0
 14 17  2  0
 26 27  2  0
  6  7  1  0
 27 28  1  0
 16 15  2  0
 28 29  2  0
 15 12  1  0
 29 30  1  0
  7  8  1  0
 30 31  2  0
 31 26  1  0
 10  9  2  0
 27 32  1  0
 16 17  1  0
 31 33  1  0
 30  9  1  0
  9 11  2  0
  9 34  1  0
 34  8  1  0
 17 18  1  0
  8 35  1  0
 35 36  1  0
 18 19  2  0
 35 37  2  0
 36 38  1  0
  1  2  1  0
 19 20  1  0
  3  4  1  0
 20 21  2  0
 21 16  1  0
 36 42  1  0
 38 39  1  0
 39 40  1  0
 40 41  1  0
 41 42  1  0
 40  1  1  0
  3  8  1  0
  1 43  2  0
 19 22  1  0
  2 44  1  0
  4  5  1  0
 44 45  1  0
 21 23  1  0
 45 46  1  0
 12 13  2  0
 46 47  1  0
 14 24  1  0
  2 48  1  1
  5  6  1  0
 47 49  1  0
 24 25  1  0
 47 50  1  0
 51 52  1  0
 52 54  1  0
 52 55  1  0
 52 53  1  0
 55 56  1  0
 55 57  2  0
M  END