
  Mrv0541 04051115152D          

 26 29  0  0  0  0            999 V2000
   -1.2345   -0.7072    0.0000 C   0  0  0  0  0  0  0  0  0  0  0  0
   -0.5200   -1.1197    0.0000 N   0  0  0  0  0  0  0  0  0  0  0  0
    0.1945   -0.7072    0.0000 C   0  0  0  0  0  0  0  0  0  0  0  0
    0.9090   -1.1197    0.0000 N   0  0  0  0  0  0  0  0  0  0  0  0
    1.6234   -0.7072    0.0000 C   0  0  0  0  0  0  0  0  0  0  0  0
    2.3379   -1.1197    0.0000 O   0  0  0  0  0  0  0  0  0  0  0  0
    1.6234    0.1178    0.0000 N   0  0  0  0  0  0  0  0  0  0  0  0
    2.3379    0.5303    0.0000 C   0  0  0  0  0  0  0  0  0  0  0  0
    2.3379    1.3553    0.0000 C   0  0  0  0  0  0  0  0  0  0  0  0
    3.0524    1.7678    0.0000 C   0  0  0  0  0  0  0  0  0  0  0  0
    3.7668    1.3553    0.0000 C   0  0  0  0  0  0  0  0  0  0  0  0
    3.7668    0.5303    0.0000 C   0  0  0  0  0  0  0  0  0  0  0  0
    3.0524    0.1178    0.0000 C   0  0  0  0  0  0  0  0  0  0  0  0
    3.0524   -0.7072    0.0000 Cl  0  0  0  0  0  0  0  0  0  0  0  0
    0.9090    0.5303    0.0000 C   0  0  0  0  0  0  0  0  0  0  0  0
    0.1945    0.1178    0.0000 C   0  0  0  0  0  0  0  0  0  0  0  0
   -1.2345    0.1178    0.0000 N   0  0  0  0  0  0  0  0  0  0  0  0
   -0.5200    0.5303    0.0000 C   0  0  0  0  0  0  0  0  0  0  0  0
   -1.9489   -1.1197    0.0000 N   0  0  0  0  0  0  0  0  0  0  0  0
   -2.6634   -0.7072    0.0000 C   0  0  2  0  0  0  0  0  0  0  0  0
   -3.3779   -1.1197    0.0000 C   0  0  0  0  0  0  0  0  0  0  0  0
   -4.0923   -0.7072    0.0000 C   0  0  0  0  0  0  0  0  0  0  0  0
   -4.0923    0.1178    0.0000 C   0  0  1  0  0  0  0  0  0  0  0  0
   -4.8068    0.5303    0.0000 O   0  0  0  0  0  0  0  0  0  0  0  0
   -3.3779    0.5303    0.0000 C   0  0  0  0  0  0  0  0  0  0  0  0
   -2.6634    0.1178    0.0000 C   0  0  0  0  0  0  0  0  0  0  0  0
  1 17  2  0  0  0  0
  1 19  1  0  0  0  0
  1  2  1  0  0  0  0
  3  2  2  0  0  0  0
  3 16  1  0  0  0  0
  3  4  1  0  0  0  0
  5  4  1  0  0  0  0
  5  7  1  0  0  0  0
  5  6  2  0  0  0  0
 15  7  1  0  0  0  0
  8  7  1  0  0  0  0
  8  9  2  0  0  0  0
  8 13  1  0  0  0  0
  9 10  1  0  0  0  0
 10 11  2  0  0  0  0
 11 12  1  0  0  0  0
 12 13  2  0  0  0  0
 13 14  1  0  0  0  0
 16 15  1  0  0  0  0
 18 16  2  0  0  0  0
 18 17  1  0  0  0  0
 20 19  1  6  0  0  0
 20 21  1  0  0  0  0
 20 26  1  0  0  0  0
 21 22  1  0  0  0  0
 22 23  1  0  0  0  0
 23 24  1  1  0  0  0
 23 25  1  0  0  0  0
 25 26  1  0  0  0  0
M  END