
  SciTegic10161213532D

 29 32  0  0  0  0            999 V2000
    1.2880   -0.8167    0.0000 C   0  0
    1.2868   -1.6441    0.0000 C   0  0
    2.0022   -2.0549    0.0000 C   0  0
    2.0004   -0.4019    0.0000 C   0  0
    2.7164   -0.8131    0.0000 C   0  0
    2.7171   -1.6400    0.0000 C   0  0
    3.4330   -2.0489    0.0000 N   0  0
    4.1487   -1.6362    0.0000 C   0  0
    4.1439   -0.8062    0.0000 N   0  0
    3.4275   -0.3968    0.0000 C   0  0
    3.4231    0.4282    0.0000 N   0  0
    4.1359    0.8424    0.0000 C   0  0
    4.8532    0.4357    0.0000 C   0  0
    4.8523   -0.3867    0.0000 C   0  0
    5.5688   -0.7974    0.0000 C   0  0
    6.2784   -0.3790    0.0000 C   0  0
    6.2714    0.4502    0.0000 C   0  0
    5.5586    0.8531    0.0000 C   0  0
    0.5728   -0.4023    0.0000 C   0  0
   -0.1380   -0.8170    0.0000 C   0  0
   -0.8531   -0.4026    0.0000 C   0  0
   -0.8538    0.4230    0.0000 C   0  0
   -1.5682    0.8332    0.0000 C   0  0
   -2.2764    0.4226    0.0000 C   0  0
   -2.2792   -0.4068    0.0000 C   0  0
   -1.5664   -0.8174    0.0000 C   0  0
   -2.9916    0.8326    0.0000 N   0  0
   -2.9920    1.6577    0.0000 C   0  0
   -3.7066    0.4218    0.0000 C   0  0
 13 14  2  0
  6  7  1  0
 14 15  1  0
  1  2  2  0
 15 16  2  0
  7  8  2  0
 16 17  1  0
  5  4  2  0
 17 18  2  0
 18 13  1  0
  8  9  1  0
  1 19  1  0
  4  1  1  0
 19 20  2  0
  9 10  2  0
 20 21  1  0
 10  5  1  0
 21 22  2  0
 22 23  1  0
 10 11  1  0
 23 24  2  0
  2  3  1  0
 24 25  1  0
 11 12  1  0
 25 26  2  0
 26 21  1  0
  5  6  1  0
 24 27  1  0
 12 13  1  0
 27 28  1  0
  3  6  2  0
 27 29  1  0
M  END