
          02060813472D 1   1.00000     0.00000     0

 76 79  0     1  0            999 V2000
    3.0077  -14.7058    0.0000 C   0  0  0  0  0  0           0  0  0
    2.2937  -14.2916    0.0000 S   0  0  0  0  0  0           0  0  0
    1.5739  -14.6973    0.0000 S   0  0  0  0  0  0           0  0  0
    0.8597  -14.2790    0.0000 C   0  0  0  0  0  0           0  0  0
    0.8662  -13.4486    0.0000 C   0  0  0  0  0  0           0  0  0
    0.1571  -13.0302    0.0000 C   0  0  0  0  0  0           0  0  0
    0.1657  -12.2052    0.0000 N   0  0  0  0  0  0           0  0  0
   -0.5654  -13.4359    0.0000 O   0  0  0  0  0  0           0  0  0
   -0.5483  -11.7813    0.0000 C   0  0  2  0  0  0           0  0  0
   -0.5418  -10.9563    0.0000 C   0  0  0  0  0  0           0  0  0
   -1.2681  -12.1903    0.0000 C   0  0  0  0  0  0           0  0  0
   -1.9759  -11.7666    0.0000 C   0  0  0  0  0  0           0  0  0
   -1.9690  -10.9423    0.0000 C   0  0  0  0  0  0           0  0  0
   -2.6829  -10.5221    0.0000 C   0  0  0  0  0  0           0  0  0
   -3.4045  -10.9282    0.0000 C   0  0  0  0  0  0           0  0  0
   -3.4068  -11.7653    0.0000 C   0  0  0  0  0  0           0  0  0
   -2.6948  -12.1795    0.0000 C   0  0  0  0  0  0           0  0  0
    0.1787  -10.5547    0.0000 N   0  0  0  0  0  0           0  0  0
   -1.2551  -10.5421    0.0000 O   0  0  0  0  0  0           0  0  0
    0.8920  -10.5315    0.0000 C   0  0  2  0  0  0           0  0  0
    1.6064  -10.5631    0.0000 C   0  0  0  0  0  0           0  0  0
    2.3197  -10.9837    0.0000 N   0  0  0  0  0  0           0  0  0
    1.6130   -9.7349    0.0000 O   0  0  0  0  0  0           0  0  0
    3.0443  -10.5780    0.0000 C   0  0  2  0  0  0           0  0  0
    3.7577  -10.9964    0.0000 C   0  0  0  0  0  0           0  0  0
    3.0508   -9.7475    0.0000 C   0  0  0  0  0  0           0  0  0
    3.7706   -9.3418    0.0000 C   0  0  0  0  0  0           0  0  0
    3.7771   -8.5167    0.0000 C   0  0  0  0  0  0           0  0  0
    4.4969   -8.1077    0.0000 N   0  0  0  0  0  0           0  0  0
    3.0637   -8.0982    0.0000 O   0  0  0  0  0  0           0  0  0
    4.4774  -10.5906    0.0000 O   0  0  0  0  0  0           0  0  0
    3.7470  -11.8214    0.0000 N   0  0  0  0  0  0           0  0  0
    4.4602  -12.2410    0.0000 C   0  0  2  0  0  0           0  0  0
    4.4537  -13.0660    0.0000 C   0  0  0  0  0  0           0  0  0
    5.1746  -11.8361    0.0000 C   0  0  0  0  0  0           0  0  0
    5.8928  -12.2599    0.0000 C   0  0  0  0  0  0           0  0  0
    6.6126  -11.8446    0.0000 N   0  0  0  0  0  0           0  0  0
    5.8863  -13.0849    0.0000 O   0  0  0  0  0  0           0  0  0
    3.7340  -13.4718    0.0000 N   0  0  0  0  0  0           0  0  0
    5.1616  -13.4843    0.0000 O   0  0  0  0  0  0           0  0  0
    3.7212  -14.3064    0.0000 C   0  0  2  0  0  0           0  0  0
    4.4344  -14.7207    0.0000 C   0  0  0  0  0  0           0  0  0
    5.1551  -14.3148    0.0000 O   0  0  0  0  0  0           0  0  0
    0.9169  -11.3892    0.0000 C   0  0  2  0  0  0           0  0  0
    0.8917   -9.7062    0.0000 H   0  0  0  0  0  0           0  0  0
    1.6269  -11.7869    0.0000 C   0  0  0  0  0  0           0  0  0
    1.6149  -12.7543    0.0000 C   0  0  0  0  0  0           0  0  0
    0.2077  -11.6599    0.0000 C   0  0  0  0  0  0           0  0  0
    4.4304  -15.5459    0.0000 N   0  0  3  0  0  0           0  0  0
    3.7149  -15.9505    0.0000 C   0  0  0  0  0  0           0  0  0
    5.1320  -16.7875    0.0000 C   0  0  0  0  0  0           0  0  0
    5.1445  -15.9627    0.0000 C   0  0  1  0  0  0           0  0  0
    5.8657  -15.5519    0.0000 C   0  0  0  0  0  0           0  0  0
    6.5767  -15.9706    0.0000 N   0  0  0  0  0  0           0  0  0
    5.8695  -14.7268    0.0000 O   0  0  0  0  0  0           0  0  0
    7.2914  -15.5662    0.0000 C   0  0  2  0  0  0           0  0  0
    8.0025  -15.9807    0.0000 C   0  0  0  0  0  0           0  0  0
    7.2994  -14.7410    0.0000 C   0  0  0  0  0  0           0  0  0
    8.0143  -14.3302    0.0000 C   0  0  3  0  0  0           0  0  0
    8.0244  -13.5050    0.0000 C   0  0  0  0  0  0           0  0  0
    8.7253  -14.7490    0.0000 C   0  0  0  0  0  0           0  0  0
    7.9987  -16.8058    0.0000 O   0  0  0  0  0  0           0  0  0
    8.7215  -15.5741    0.0000 N   0  0  0  0  0  0           0  0  0
    9.4326  -15.9949    0.0000 C   0  0  0  0  0  0           0  0  0
   10.1536  -15.5842    0.0000 C   0  0  0  0  0  0           0  0  0
   10.8646  -16.0029    0.0000 N   0  0  0  0  0  0           0  0  0
   10.1574  -14.7590    0.0000 O   0  0  0  0  0  0           0  0  0
    4.4129  -17.1910    0.0000 C   0  0  0  0  0  0           0  0  0
    3.7078  -16.7695    0.0000 C   0  0  0  0  0  0           0  0  0
    2.9897  -17.1724    0.0000 C   0  0  0  0  0  0           0  0  0
    2.9749  -17.9963    0.0000 C   0  0  0  0  0  0           0  0  0
    3.6872  -18.4192    0.0000 C   0  0  0  0  0  0           0  0  0
    4.4009  -18.0126    0.0000 C   0  0  0  0  0  0           0  0  0
   -4.8336  -10.9237    0.0000 C   0  0  0  0  0  0           0  0  0
   -5.5478  -10.5118    0.0000 C   0  0  0  0  0  0           0  0  0
   -4.1178  -10.5136    0.0000 O   0  0  0  0  0  0           0  0  0
 41  1  1  0     0  0
  1  2  1  0     0  0
  2  3  1  0     0  0
  3  4  1  0     0  0
  4  5  1  0     0  0
  5  6  1  0     0  0
  6  7  1  0     0  0
  6  8  2  0     0  0
  7  9  1  0     0  0
  9 10  1  0     0  0
  9 11  1  1     0  0
 11 12  1  0     0  0
 12 13  2  0     0  0
 13 14  1  0     0  0
 14 15  2  0     0  0
 15 16  1  0     0  0
 16 17  2  0     0  0
 17 12  1  0     0  0
 10 18  1  0     0  0
 10 19  2  0     0  0
 18 20  1  0     0  0
 20 21  1  0     0  0
 21 22  1  0     0  0
 21 23  2  0     0  0
 22 24  1  0     0  0
 24 25  1  0     0  0
 24 26  1  1     0  0
 26 27  1  0     0  0
 27 28  1  0     0  0
 28 29  1  0     0  0
 28 30  2  0     0  0
 25 31  2  0     0  0
 25 32  1  0     0  0
 32 33  1  0     0  0
 33 34  1  0     0  0
 33 35  1  1     0  0
 35 36  1  0     0  0
 36 37  1  0     0  0
 36 38  2  0     0  0
 34 39  1  0     0  0
 34 40  2  0     0  0
 39 41  1  0     0  0
 41 42  1  6     0  0
 42 43  2  0     0  0
 20 44  1  0     0  0
 20 45  1  1     0  0
 44 46  1  0     0  0
 46 47  1  0     0  0
 44 48  1  6     0  0
 42 49  1  0     0  0
 49 50  1  0     0  0
 49 52  1  0     0  0
 50 69  1  0     0  0
 68 51  1  0     0  0
 51 52  1  0     0  0
 52 53  1  6     0  0
 53 54  1  0     0  0
 53 55  2  0     0  0
 54 56  1  0     0  0
 56 57  1  0     0  0
 56 58  1  1     0  0
 58 59  1  0     0  0
 59 60  1  0     0  0
 59 61  1  0     0  0
 57 62  2  0     0  0
 57 63  1  0     0  0
 63 64  1  0     0  0
 64 65  1  0     0  0
 65 66  1  0     0  0
 65 67  2  0     0  0
 68 69  2  0     0  0
 69 70  1  0     0  0
 70 71  2  0     0  0
 71 72  1  0     0  0
 72 73  2  0     0  0
 73 68  1  0     0  0
 74 75  1  0     0  0
 15 76  1  0     0  0
 76 74  1  0     0  0
M  END