
  SciTegic09171211542D

154149  0  0  0  0            999 V2000
    1.6041  -11.7584    0.0000 O   0  0
    2.2686  -10.4927    0.0000 C   0  0
    2.3011  -11.3170    0.0000 C   0  0  1  0  0  0
    3.0287  -11.6970    0.0000 C   0  0
    2.9637  -10.0483    0.0000 C   0  0
    3.6916  -10.4366    0.0000 C   0  0  1  0  0  0
    3.7206  -11.2611    0.0000 C   0  0  1  0  0  0
    4.4451  -11.6460    0.0000 C   0  0
    5.1453  -11.2110    0.0000 C   0  0
    4.3871   -9.9971    0.0000 C   0  0  2  0  0  0
    5.1125  -10.3891    0.0000 C   0  0  2  0  0  0
    5.0645   -8.7435    0.0000 C   0  0
    4.3600   -9.1752    0.0000 C   0  0
    5.7899   -9.1356    0.0000 C   0  0  1  0  0  0
    5.8134   -9.9568    0.0000 C   0  0  1  0  0  0
    6.6017  -10.1884    0.0000 C   0  0
    7.0655   -9.5102    0.0000 C   0  0
    6.5638   -8.8596    0.0000 C   0  0  2  0  0  0
    3.6517   -9.6125    0.0000 C   0  0
    4.4124  -10.8210    0.0000 H   0  0
    5.0718   -9.5649    0.0000 H   0  0
    5.8411  -10.7813    0.0000 H   0  0
    5.7519   -8.3079    0.0000 C   0  0
    6.7962   -8.0680    0.0000 C   0  0  1  0  0  0
    7.5980   -7.8735    0.0000 C   0  0
    6.2269   -7.4709    0.0000 C   0  0
    8.1673   -8.4706    0.0000 C   0  0
    8.9690   -8.2761    0.0000 C   0  0
    9.5383   -8.8732    0.0000 C   0  0
   10.3401   -8.6787    0.0000 C   0  0
    9.3059   -9.6648    0.0000 C   0  0
    7.3860   -8.8231    0.0000 H   0  0
    3.7449  -12.0816    0.0000 H   0  0
    0.3642   -9.3052    0.0000 N   0  0
    0.1452  -10.1006    0.0000 C   0  0
    0.8340  -10.5547    0.0000 C   0  0
    1.4787  -10.0398    0.0000 N   0  0
    1.1883   -9.2677    0.0000 N   0  0
   -0.3296   -9.7055    0.0000 O   0  0
   -1.0439   -9.2919    0.0000 S   0  0
   -1.0449  -10.1173    0.0000 O   0  0
   -1.6161   -8.2177    0.0000 S   0  0
   -2.5461   -6.9777    0.0000 O   0  0
   -1.7486   -7.2003    0.0000 S   0  0
   -1.9546   -6.3984    0.0000 O   0  0
   -3.3507   -4.7272    0.0000 O   0  0
   -3.1437   -5.5298    0.0000 S   0  0
   -2.5521   -4.9493    0.0000 O   0  0
   -4.7408   -2.2391    0.0000 O   0  0
   -4.5338   -3.0417    0.0000 S   0  0
   -3.9422   -2.4612    0.0000 O   0  0
   -3.5732   -0.1953    0.0000 O   0  0
   -3.7936   -0.9963    0.0000 S   0  0
   -2.9897   -0.7867    0.0000 O   0  0
   -2.4898   -0.3559    0.0000 O   0  0
   -3.0714    0.2289    0.0000 S   0  0
   -2.0495    1.1547    0.0000 O   0  0
   -1.6315    1.8537    0.0000 S   0  0
   -2.4528    1.8641    0.0000 O   0  0
   -0.3219    1.4383    0.0000 O   0  0
    0.5034    1.4302    0.0000 S   0  0
    0.0994    2.1546    0.0000 O   0  0
    0.0769   -1.1449    0.0000 O   0  0
    0.4810   -1.8642    0.0000 S   0  0
    0.9019   -1.1547    0.0000 O   0  0
    2.3247   -1.7605    0.0000 O   0  0
    1.9170   -1.0432    0.0000 S   0  0
    1.4997   -1.7549    0.0000 O   0  0
    0.8705   -2.8026    0.0000 O   0  0
    0.4533   -3.5190    0.0000 S   0  0
    1.2823   -3.5221    0.0000 O   0  0
    2.1103   -8.8124    0.0000 O   0  0
    2.5280   -8.1054    0.0000 S   0  0
    1.7068   -8.0972    0.0000 O   0  0
   -0.2250   -0.6234    0.0000 C   0  0  2  0  0  0
   -0.2188    0.2016    0.0000 C   0  0  2  0  0  0
   -0.9277    0.6153    0.0000 C   0  0  1  0  0  0
   -1.6428    0.2123    0.0000 C   0  0  2  0  0  0
   -1.6490   -0.6126    0.0000 C   0  0  2  0  0  0
   -0.9401   -1.0347    0.0000 O   0  0
   -2.3677   -1.0176    0.0000 O   0  0
   -2.3535    0.6312    0.0000 O   0  0
   -0.9214    1.4388    0.0000 O   0  0
    0.4982    0.6097    0.0000 O   0  0
    0.4876   -1.0392    0.0000 C   0  0
   -2.3764   -1.8426    0.0000 C   0  0  1  0  0  0
   -3.0952   -2.2448    0.0000 C   0  0  1  0  0  0
   -3.1058   -3.0661    0.0000 C   0  0  2  0  0  0
   -2.3975   -3.4899    0.0000 C   0  0  2  0  0  0
   -1.6770   -3.0862    0.0000 O   0  0
   -1.6646   -2.2586    0.0000 C   0  0  2  0  0  0
    1.2039   -0.6300    0.0000 O   0  0
   -0.9460   -1.8534    0.0000 C   0  0
   -3.8042   -1.8229    0.0000 O   0  0
   -3.8260   -3.4684    0.0000 O   0  0
   -2.4093   -4.3148    0.0000 O   0  0
   -1.7008   -4.7375    0.0000 C   0  0  1  0  0  0
   -1.7178   -5.5588    0.0000 C   0  0  1  0  0  0
   -1.0133   -5.9813    0.0000 C   0  0  2  0  0  0
   -0.2907   -5.5825    0.0000 C   0  0  2  0  0  0
   -0.2769   -4.7567    0.0000 O   0  0
   -0.9858   -4.3296    0.0000 C   0  0  2  0  0  0
   -0.9760   -3.5046    0.0000 C   0  0
   -0.2358   -2.2731    0.0000 O   0  0
   -0.2567   -3.1007    0.0000 O   0  0
   -2.4398   -5.9579    0.0000 O   0  0
   -1.0282   -6.8061    0.0000 O   0  0
    0.4162   -6.0079    0.0000 O   0  0
    0.4014   -6.8327    0.0000 C   0  0  1  0  0  0
   -0.3173   -7.2312    0.0000 C   0  0  1  0  0  0
   -0.3341   -8.0524    0.0000 C   0  0  2  0  0  0
    0.3710   -8.4816    0.0000 C   0  0  1  0  0  0
    1.0945   -8.0833    0.0000 O   0  0
    1.1131   -7.2559    0.0000 C   0  0  2  0  0  0
   -1.0321   -7.6425    0.0000 O   0  0
   -0.3331   -8.8811    0.0000 O   0  0
    1.8347   -6.8560    0.0000 C   0  0
    2.5418   -7.2810    0.0000 O   0  0
   -1.6478   -1.4377    0.0000 H   0  0
   -3.1123   -3.9017    0.0000 H   0  0
   -3.0853   -1.4268    0.0000 H   0  0
   -0.2895   -6.4106    0.0000 H   0  0
   -1.6874   -3.9166    0.0000 H   0  0
    1.1229   -6.4337    0.0000 H   0  0
    3.2344   -8.5309    0.0000 O   0  5
   -1.4087   -9.0161    0.0000 O   0  5
    0.4430   -4.3466    0.0000 O   0  5
    1.1931   -2.2875    0.0000 O   0  5
    2.6329   -0.6366    0.0000 O   0  5
    1.2203    1.8389    0.0000 O   0  5
   -1.6263    2.6757    0.0000 O   0  5
   -3.7824    0.6441    0.0000 O   0  5
   -4.5023   -0.5761    0.0000 O   0  5
   -5.2548   -3.4480    0.0000 O   0  5
   -3.8685   -5.9312    0.0000 O   0  5
   -2.3355   -7.7782    0.0000 O   0  5
   -3.0669    1.0558    0.0000 O   0  0
   -1.6116   -7.3908    0.0000 O   0  0
   -2.4151   -8.4225    0.0000 O   0  0
   -1.8429   -9.4968    0.0000 O   0  5
    0.8716  -11.3788    0.0000 C   0  0
    4.4375   -1.9063    0.0000 Na  0  3
    5.5312   -1.8750    0.0000 Na  0  3
    6.4375   -1.9063    0.0000 Na  0  3
    7.4687   -1.9375    0.0000 Na  0  3
    5.1875   -2.7500    0.0000 Na  0  3
    6.1563   -2.6875    0.0000 Na  0  3
    7.0313   -2.6563    0.0000 Na  0  3
    5.9687   -3.6875    0.0000 Na  0  3
    6.8750   -3.5938    0.0000 Na  0  3
    6.5000   -4.4687    0.0000 Na  0  3
    5.3750   -4.5625    0.0000 Na  0  3
    6.0312   -5.4062    0.0000 Na  0  3
    5.1250   -5.5625    0.0000 Na  0  3
 17 18  1  0
 35 36  2  0
 36 37  1  0
 37 38  2  0
 38 34  1  0
 75 80  1  0
 76 77  1  0
 77 78  1  0
 78 79  1  0
 79 80  1  0
 40 39  2  0
 79 81  1  0
 41 40  2  0
 78 82  1  6
 18 14  1  0
 77 83  1  1
  3  1  1  1
 76 84  1  6
  8  9  1  0
 75 85  1  1
  6 19  1  1
 81 86  1  0
 86 87  1  0
 44 43  2  0
 45 44  2  0
  9 11  1  0
 10 20  1  6
 10 11  1  0
 86 91  1  0
 87 88  1  0
 88 89  1  0
 89 90  1  0
 90 91  1  0
 47 46  2  0
 85 92  1  0
 48 47  2  0
 91 93  1  1
 11 21  1  1
 87 94  1  1
  4  7  1  0
 88 95  1  6
 15 22  1  6
 89 96  1  0
 50 49  2  0
 96 97  1  0
 97 98  1  0
 51 50  2  0
  6  5  1  0
 14 23  1  1
  6  7  1  0
 53 52  2  0
 97102  1  0
 98 99  1  0
 99100  1  0
100101  1  0
101102  1  0
 54 53  2  0
102103  1  1
 18 24  1  0
 93104  1  0
103105  1  0
 24 25  1  0
 98106  1  1
 56 55  2  0
 99107  1  6
 10 13  1  0
100108  1  0
 24 26  1  6
108109  1  0
109110  1  0
 58 57  2  0
 59 58  2  0
 11 15  1  0
 25 27  1  0
 14 12  1  0
109114  1  0
110111  1  0
111112  1  0
112113  1  0
113114  1  0
 61 60  2  0
110115  1  1
 62 61  2  0
111116  1  6
 27 28  1  0
114117  1  1
 12 13  1  0
117118  1  0
 28 29  1  0
 79119  1  1
 64 63  2  0
 89120  1  1
 65 64  2  0
 86121  1  1
 14 15  1  0
100122  1  1
 29 30  1  0
 97123  1  1
  2  3  1  0
109124  1  1
118 73  1  0
 67 66  2  0
 73125  1  0
107 44  1  0
115 42  1  0
 68 67  2  0
 42126  1  0
105 70  1  0
 29 31  1  0
 70127  1  0
104 64  1  0
  2  5  1  0
 64128  1  0
 92 67  1  0
 18 32  1  6
 67129  1  0
 84 61  1  0
 70 69  2  0
 61130  1  0
 83 58  1  0
 71 70  2  0
 58131  1  0
 82 56  1  0
  3  4  1  0
 56132  1  0
 94 53  1  0
  7 33  1  6
 53133  1  0
 95 50  1  0
 34 35  1  0
 50134  1  0
106 47  1  0
 73 72  2  0
 47135  1  0
 74 73  2  0
 44136  1  0
  6 10  1  0
 56137  2  0
  7  8  1  0
 42138  2  0
 15 16  1  0
 42139  2  0
116 40  1  0
 75 76  1  0
 40140  1  0
112 34  1  1
 16 17  1  0
 36141  1  0
141  1  1  0
M  CHG  8 125  -1 126  -1 127  -1 128  -1 129  -1 130  -1 131  -1 132  -1
M  CHG  8 133  -1 134  -1 135  -1 136  -1 140  -1 142   1 143   1 144   1
M  CHG  8 145   1 146   1 147   1 148   1 149   1 150   1 151   1 152   1
M  CHG  2 153   1 154   1
M  END