
  SciTegic12171313052D

 27 28  0  0  0  0            999 V2000
    8.9069   -5.4853    0.0000 C   0  0  1  0  0  0
    9.3218   -6.2021    0.0000 C   0  0
    8.1978   -4.2551    0.0000 C   0  0
    8.1978   -5.0807    0.0000 C   0  0
    9.6203   -5.0807    0.0000 N   0  0
    9.6203   -4.2551    0.0000 C   0  0
    8.9069   -3.8380    0.0000 N   0  0
    7.4831   -3.8433    0.0000 O   0  0
   10.3351   -3.8433    0.0000 N   0  0
    8.9069   -3.0164    0.0000 C   0  0
    6.9444   -5.8033    0.0000 C   0  0
    6.9336   -4.9820    0.0000 C   0  0
    6.2109   -4.5838    0.0000 C   0  0
    5.5038   -5.0070    0.0000 C   0  0
    5.5222   -5.8349    0.0000 C   0  0
    6.2416   -6.2315    0.0000 C   0  0
    8.4963   -6.2013    0.0000 C   0  0  1  0  0  0
    7.6705   -6.2021    0.0000 C   0  0  1  0  0  0
    8.0825   -6.9169    0.0000 C   0  0
    9.0760   -6.7869    0.0000 H   0  0
   14.6896   -5.1022    0.0000 C   0  0
   15.4004   -4.6891    0.0000 C   0  0
   13.9745   -4.6891    0.0000 F   0  0
   14.6896   -5.9244    0.0000 F   0  0
   13.9753   -5.5092    0.0000 F   0  0
   16.1114   -5.1022    0.0000 O   0  0
   15.4004   -3.8668    0.0000 O   0  0
 17  1  1  0
  1  2  1  1
  3  4  1  0
  3  7  1  0
  4  1  1  0
  1  5  1  0
  5  6  2  0
  6  7  1  0
  3  8  2  0
  6  9  1  0
  7 10  1  0
 18 11  1  1
 11 12  2  0
 12 13  1  0
 13 14  2  0
 14 15  1  0
 15 16  2  0
 16 11  1  0
 18 17  1  0
 19 18  1  0
 17 19  1  0
 17 20  1  1
 21 22  1  0
 21 23  1  0
 21 24  1  0
 21 25  1  0
 22 26  1  0
 22 27  2  0
M  END