
          11290713132D 1   1.00000     0.00000     0

 51 55  0     1  0            999 V2000
   13.9038    2.5400    0.0000 C   0  0  0  0  0  0           0  0  0
   14.8126   -4.4747    0.0000 C   0  0  0  0  0  0           0  0  0
   15.5995   -4.7260    0.0000 C   0  0  0  0  0  0           0  0  0
   16.0815   -4.0575    0.0000 C   0  0  0  0  0  0           0  0  0
   15.5958   -3.3952    0.0000 C   0  0  3  0  0  0           0  0  0
   14.8126   -3.6497    0.0000 C   0  0  0  0  0  0           0  0  0
   12.7815   -0.2151    0.0000 O   0  0  0  0  0  0           0  0  0
   12.2962   -0.8829    0.0000 C   0  0  0  0  0  0           0  0  0
   12.5990   -1.6509    0.0000 C   0  0  0  0  0  0           0  0  0
   12.0972   -2.2629    0.0000 C   0  0  0  0  0  0           0  0  0
   12.3779   -2.9972    0.0000 C   0  0  0  0  0  0           0  0  0
   13.1550   -3.1010    0.0000 C   0  0  0  0  0  0           0  0  0
   13.6169   -2.4666    0.0000 C   0  0  0  0  0  0           0  0  0
   13.2943   -1.7440    0.0000 C   0  0  0  0  0  0           0  0  0
   11.2823   -2.1309    0.0000 Cl  0  0  0  0  0  0           0  0  0
   13.7886   -1.0828    0.0000 Cl  0  0  0  0  0  0           0  0  0
   14.4379   -2.5528    0.0000 S   0  0  3  0  0  0           0  0  0
   14.5241   -1.7319    0.0000 O   0  0  0  0  0  0           0  0  0
   14.3516   -3.3738    0.0000 O   0  0  0  0  0  0           0  0  0
   16.3107   -2.9825    0.0000 C   0  0  0  0  0  0           0  0  0
   17.0249   -3.3948    0.0000 N   0  0  3  0  0  0           0  0  0
   16.3107   -2.1561    0.0000 O   0  0  0  0  0  0           0  0  0
   17.0249   -4.2220    0.0000 C   0  0  0  0  0  0           0  0  0
   17.7352   -4.6319    0.0000 C   0  0  0  0  0  0           0  0  0
   18.4459   -4.2216    0.0000 N   0  0  3  0  0  0           0  0  0
   18.4459   -3.3994    0.0000 C   0  0  0  0  0  0           0  0  0
   17.7354   -2.9847    0.0000 C   0  0  0  0  0  0           0  0  0
   19.1572   -4.6323    0.0000 C   0  0  0  0  0  0           0  0  0
   19.1572   -5.4534    0.0000 O   0  0  0  0  0  0           0  0  0
   19.8760   -4.2174    0.0000 C   0  0  0  0  0  0           0  0  0
   20.5869   -4.6278    0.0000 C   0  0  2  0  0  0           0  0  0
   21.3059   -4.2128    0.0000 C   0  0  0  0  0  0           0  0  0
   22.0167   -4.6232    0.0000 C   0  0  0  0  0  0           0  0  0
   22.7357   -4.2081    0.0000 C   0  0  0  0  0  0           0  0  0
   12.4446    0.5414    0.0000 C   0  0  0  0  0  0           0  0  0
   11.7732    2.0496    0.0000 C   0  0  0  0  0  0           0  0  0
   11.2862    1.3748    0.0000 C   0  0  0  0  0  0           0  0  0
   11.6250    0.6216    0.0000 C   0  0  0  0  0  0           0  0  0
   12.5976    1.9626    0.0000 C   0  0  0  0  0  0           0  0  0
   12.9297    1.2056    0.0000 C   0  0  0  0  0  0           0  0  0
   13.7497    1.1159    0.0000 N   0  0  0  0  0  0           0  0  0
   14.2384    1.7825    0.0000 C   0  0  0  0  0  0           0  0  0
   13.0822    2.6267    0.0000 C   0  0  0  0  0  0           0  0  0
   15.0615    1.6940    0.0000 C   0  0  0  0  0  0           0  0  0
   12.7462    3.3835    0.0000 C   0  0  0  0  0  0           0  0  0
   23.4528   -4.6221    0.0000 N   0  0  0  0  0  0           0  0  0
   20.5825   -5.4549    0.0000 N   0  3  3  0  0  0           0  0  0
   19.8632   -5.8651    0.0000 C   0  0  0  0  0  0           0  0  0
   21.2974   -5.8728    0.0000 C   0  0  0  0  0  0           0  0  0
   20.5783   -6.2829    0.0000 C   0  0  0  0  0  0           0  0  0
   15.2580   -2.6425    0.0000 N   0  0  0  0  0  0           0  0  0
 17 18  2  0     0  0
 17 19  2  0     0  0
  5 20  1  0     0  0
 20 21  1  0     0  0
 20 22  2  0     0  0
 21 23  1  0     0  0
 21 27  1  0     0  0
 23 24  1  0     0  0
 24 25  1  0     0  0
 25 26  1  0     0  0
 26 27  1  0     0  0
 25 28  1  0     0  0
 28 29  2  0     0  0
 28 30  1  0     0  0
 30 31  1  0     0  0
 31 32  1  0     0  0
 32 33  1  0     0  0
 33 34  1  0     0  0
  7 35  1  0     0  0
 35 40  2  0     0  0
  2  3  1  0     0  0
 39 36  2  0     0  0
  3  4  1  0     0  0
 36 37  1  0     0  0
  4  5  1  0     0  0
 37 38  2  0     0  0
 38 35  1  0     0  0
  5  6  1  0     0  0
  6  2  1  0     0  0
 39 40  1  0     0  0
  7  8  1  0     0  0
 40 41  1  0     0  0
  8  9  1  0     0  0
 41 42  2  0     0  0
 42  1  1  0     0  0
  9 10  2  0     0  0
  1 43  2  0     0  0
 43 39  1  0     0  0
 10 11  1  0     0  0
 42 44  1  0     0  0
 11 12  2  0     0  0
 43 45  1  0     0  0
 12 13  1  0     0  0
 34 46  1  0     0  0
 13 14  2  0     0  0
 31 47  1  6     0  0
 14  9  1  0     0  0
 47 48  1  0     0  0
 10 15  1  0     0  0
 47 49  1  0     0  0
 14 16  1  0     0  0
 47 50  1  0     0  0
 13 17  1  0     0  0
 17 51  1  0     0  0
 51  5  1  0     0  0
M  CHG  1  47   1
M  END