
  SciTegic01161211242D

 16 17  0  0  0  0            999 V2000
    1.7138   -1.2033    0.0000 O   0  0
    4.0896    0.0290    0.0000 C   0  0
    2.5889    0.0182    0.0000 C   0  0
    0.2917    0.7475    0.0000 C   0  0
    0.2917   -0.7475    0.0000 C   0  0
    5.0305    1.1747    0.0000 N   0  0
    1.7138    1.2033    0.0000 C   0  0
    4.8568   -1.2462    0.0000 N   0  0
   -1.0028    1.5132    0.0000 C   0  0
   -1.0028   -1.5132    0.0000 C   0  0
   -2.3155    0.7475    0.0000 C   0  0
   -2.3155   -0.7475    0.0000 C   0  0
   -3.3560    1.3452    0.0000 Cl  0  0
    8.9203    0.0000    0.0000 Cl  0  0
    6.4203    0.6103    0.0000 C   0  0
    6.3129   -0.8859    0.0000 C   0  0
  1  3  1  0
  2  3  1  0
  1  5  1  0
  4  5  1  0
  2  6  2  0
  3  7  1  0
  4  7  1  0
  2  8  1  0
  4  9  2  0
  5 10  2  0
  9 11  1  0
 10 12  1  0
 11 12  2  0
 11 13  1  0
  6 15  1  0
  8 16  1  0
 15 16  1  0
M  END