
          11280714522D 1   1.00000     0.00000     0

 60 65  0     0  0            999 V2000
    2.4417    0.2208    0.0000 N   0  0  0  0  0  0           0  0  0
    2.3167    1.0458    0.0000 C   0  0  3  0  0  0           0  0  0
    0.8292    1.1625    0.0000 N   0  0  3  0  0  0           0  0  0
    1.8750   -0.3917    0.0000 C   0  0  0  0  0  0           0  0  0
    1.6042    1.4708    0.0000 C   0  0  0  0  0  0           0  0  0
    1.0417   -0.3250    0.0000 C   0  0  0  0  0  0           0  0  0
    3.0125    1.5000    0.0000 N   0  0  0  0  0  0           0  0  0
    0.5792    0.3708    0.0000 C   0  0  0  0  0  0           0  0  0
    3.7500    1.1375    0.0000 C   0  0  0  0  0  0           0  0  0
    2.1667   -1.1625    0.0000 C   0  0  0  0  0  0           0  0  0
    4.4375    1.6000    0.0000 N   0  0  0  0  0  0           0  0  0
   12.7917  -12.2792    0.0000 N   0  0  3  0  0  0           0  0  0
    5.2042   -3.0750    0.0000 C   0  0  0  0  0  0           0  0  0
    1.6750    2.2875    0.0000 O   0  0  0  0  0  0           0  0  0
    8.8500   -6.5292    0.0000 C   0  0  0  0  0  0           0  0  0
    3.8042    0.3208    0.0000 O   0  0  0  0  0  0           0  0  0
    2.9792   -1.2875    0.0000 C   0  0  0  0  0  0           0  0  0
    5.1792    1.2375    0.0000 C   0  0  0  0  0  0           0  0  0
    5.7250   -2.4292    0.0000 O   0  0  0  0  0  0           0  0  0
    9.6375   -6.2792    0.0000 O   0  0  0  0  0  0           0  0  0
   12.0417  -11.9417    0.0000 C   0  0  0  0  0  0           0  0  0
   11.9500  -11.1250    0.0000 C   0  0  0  0  0  0           0  0  0
    8.6667   -7.3375    0.0000 N   0  0  0  0  0  0           0  0  0
    5.5042   -3.8417    0.0000 N   0  0  0  0  0  0           0  0  0
    4.0917   -2.1792    0.0000 O   0  0  0  0  0  0           0  0  0
    0.2292    1.7333    0.0000 C   0  0  0  0  0  0           0  0  0
    4.3917   -2.9500    0.0000 C   0  0  0  0  0  0           0  0  0
    3.2792   -2.0542    0.0000 C   0  0  0  0  0  0           0  0  0
    5.2292    0.4125    0.0000 C   0  0  0  0  0  0           0  0  0
   11.2000  -10.7875    0.0000 C   0  0  0  0  0  0           0  0  0
    0.6792   -1.0625    0.0000 C   0  0  0  0  0  0           0  0  0
   11.1125   -9.9750    0.0000 C   0  0  0  0  0  0           0  0  0
   -0.2458    0.3083    0.0000 C   0  0  0  0  0  0           0  0  0
    5.9667    0.0500    0.0000 C   0  0  0  0  0  0           0  0  0
    1.6500   -1.8000    0.0000 C   0  0  0  0  0  0           0  0  0
    9.5167   -8.4875    0.0000 C   0  0  0  0  0  0           0  0  0
   10.3625   -9.6417    0.0000 O   0  0  0  0  0  0           0  0  0
   12.8792  -13.1000    0.0000 C   0  0  0  0  0  0           0  0  0
   13.4417  -11.7917    0.0000 C   0  0  0  0  0  0           0  0  0
    1.9417   -2.5667    0.0000 C   0  0  0  0  0  0           0  0  0
   12.5167   -9.8250    0.0000 C   0  0  0  0  0  0           0  0  0
    6.5917    1.3375    0.0000 C   0  0  0  0  0  0           0  0  0
    8.5500   -5.7542    0.0000 C   0  0  0  0  0  0           0  0  0
    9.4167   -7.6667    0.0000 C   0  0  0  0  0  0           0  0  0
    5.8542    1.6958    0.0000 C   0  0  0  0  0  0           0  0  0
   12.6125  -10.6417    0.0000 C   0  0  0  0  0  0           0  0  0
   10.2667   -8.8167    0.0000 C   0  0  0  0  0  0           0  0  0
    2.7542   -2.7000    0.0000 C   0  0  0  0  0  0           0  0  0
    6.3250   -3.9667    0.0000 C   0  0  0  0  0  0           0  0  0
   11.7667   -9.4917    0.0000 C   0  0  0  0  0  0           0  0  0
    6.6542    0.5125    0.0000 C   0  0  0  0  0  0           0  0  0
    6.0250   -0.7667    0.0000 C   0  0  0  0  0  0           0  0  0
    7.7375   -5.6292    0.0000 C   0  0  0  0  0  0           0  0  0
    6.6167   -4.7375    0.0000 C   0  0  0  0  0  0           0  0  0
   -0.1458   -1.1167    0.0000 C   0  0  0  0  0  0           0  0  0
    7.4375   -4.8625    0.0000 C   0  0  0  0  0  0           0  0  0
   -0.6083   -0.4292    0.0000 C   0  0  0  0  0  0           0  0  0
   14.1917  -12.1292    0.0000 C   0  0  0  0  0  0           0  0  0
   13.6292  -13.4292    0.0000 C   0  0  0  0  0  0           0  0  0
   14.2917  -12.9500    0.0000 C   0  0  0  0  0  0           0  0  0
  2  1  1  0     0  0
  3  5  1  0     0  0
  4  1  2  0     0  0
  5  2  1  0     0  0
  6  4  1  0     0  0
  7  2  1  0     0  0
  8  6  1  0     0  0
  9  7  1  0     0  0
 10  4  1  0     0  0
 11  9  1  0     0  0
 12 21  1  0     0  0
 13 27  1  0     0  0
 14  5  2  0     0  0
 15 43  1  0     0  0
 16  9  2  0     0  0
 17 10  1  0     0  0
 18 11  1  0     0  0
 19 13  2  0     0  0
 20 15  2  0     0  0
 21 22  1  0     0  0
 22 30  2  0     0  0
 23 15  1  0     0  0
 24 13  1  0     0  0
 25 28  1  0     0  0
 26  3  1  0     0  0
 27 25  1  0     0  0
 28 17  2  0     0  0
 29 18  2  0     0  0
 30 32  1  0     0  0
 31  6  2  0     0  0
 32 37  1  0     0  0
 33  8  2  0     0  0
 34 29  1  0     0  0
 35 10  2  0     0  0
 36 44  1  0     0  0
 37 47  1  0     0  0
 38 12  1  0     0  0
 39 12  1  0     0  0
 40 35  1  0     0  0
 41 50  1  0     0  0
 42 45  2  0     0  0
 43 53  1  0     0  0
 44 23  1  0     0  0
 45 18  1  0     0  0
 46 41  2  0     0  0
 47 36  1  0     0  0
 48 40  2  0     0  0
 49 24  1  0     0  0
 50 32  2  0     0  0
 51 42  1  0     0  0
 52 34  1  0     0  0
 53 56  1  0     0  0
 54 49  1  0     0  0
 55 31  1  0     0  0
 56 54  1  0     0  0
 57 55  2  0     0  0
 58 39  1  0     0  0
 59 38  1  0     0  0
 60 58  1  0     0  0
  3  8  1  0     0  0
 48 28  1  0     0  0
 57 33  1  0     0  0
 51 34  2  0     0  0
 22 46  1  0     0  0
 59 60  1  0     0  0
M  END