
  SciTegic12131016252D

 45 53  0  0  0  0            999 V2000
    3.4208  -17.3125    0.0000 C   0  0  1  0  0  0
    3.1625  -18.1708    0.0000 N   0  0
    5.0916  -18.1583    0.0000 N   0  0
    3.7166  -18.7833    0.0000 C   0  0
    4.5416  -18.7833    0.0000 C   0  0
    4.7291  -17.3125    0.0000 C   0  0  2  0  0  0
    4.0791  -17.6958    0.0000 O   0  0
    3.3041  -19.5000    0.0000 C   0  0
    4.9625  -19.5000    0.0000 C   0  0
    3.4208  -16.5583    0.0000 C   0  0  1  0  0  0
    3.7250  -20.2250    0.0000 C   0  0
    4.0791  -16.1833    0.0000 C   0  0  1  0  0  0
    4.5541  -20.2250    0.0000 C   0  0
    2.4000  -18.5083    0.0000 C   0  0
    5.8541  -18.4958    0.0000 C   0  0
    4.7291  -16.5583    0.0000 C   0  0
    5.7750  -19.3250    0.0000 C   0  0
    2.4916  -19.3250    0.0000 C   0  0
    4.0750  -15.4250    0.0000 N   0  0
    3.4208  -15.0500    0.0000 C   0  0
    3.4666  -21.0125    0.0000 C   0  0  1  0  0  0
    4.1416  -21.5000    0.0000 N   0  0
    4.8125  -21.0125    0.0000 C   0  0
    2.7708  -15.4292    0.0000 O   0  0
    3.4208  -14.2958    0.0000 C   0  0
    2.7666  -16.1833    0.0000 O   0  0
    2.6916  -17.1208    0.0000 C   0  0
    6.6125  -18.1458    0.0000 C   0  0
    1.6625  -18.1708    0.0000 C   0  0
    1.8291  -19.8125    0.0000 C   0  0
    6.4541  -19.8125    0.0000 C   0  0
    4.7333  -15.0417    0.0000 C   0  0
    2.7666  -13.9208    0.0000 C   0  0
    4.0750  -13.9208    0.0000 C   0  0
    2.1166  -16.5583    0.0000 C   0  0
    7.2166  -19.4625    0.0000 C   0  0
    1.0791  -19.4750    0.0000 C   0  0
    0.9958  -18.6542    0.0000 C   0  0
    7.2958  -18.6292    0.0000 C   0  0
    4.0750  -13.1667    0.0000 C   0  0
    2.7666  -13.1667    0.0000 C   0  0
    3.4208  -12.7875    0.0000 C   0  0
    5.3791  -16.9375    0.0000 H   0  0
    5.5975  -21.2663    0.0000 O   0  0
    2.6820  -21.2674    0.0000 O   0  0
  3  6  1  0
  4  2  1  0
  5  4  1  0
  6  7  1  0
  7  1  1  0
  8  4  2  0
  9  5  2  0
 10  1  1  0
 11  8  1  0
 12 10  1  0
 13 11  2  0
 14  2  1  0
 15  3  1  0
 16  6  1  0
 17 15  2  0
 18 14  2  0
 12 19  1  6
 20 19  1  0
 21 11  1  0
 22 21  1  0
 23 13  1  0
 24 20  2  0
 25 20  1  0
 10 26  1  6
  1 27  1  1
 28 15  1  0
 29 14  1  0
 30 18  1  0
 31 17  1  0
 32 19  1  0
 33 25  2  0
 34 25  1  0
 35 26  1  0
 36 39  1  0
 37 38  1  0
 38 29  2  0
 39 28  2  0
 40 34  2  0
 41 33  1  0
 42 40  1  0
  6 43  1  1
 12 16  1  0
  3  5  1  0
 18  8  1  0
 17  9  1  0
 13  9  1  0
 37 30  2  0
 22 23  1  0
 31 36  2  0
 42 41  2  0
 23 44  2  0
  2  1  1  0
 21 45  1  1
M  END