
  SciTegic02011310462D

 33 36  0  0  0  0            999 V2000
    9.5510   -1.4509    0.0000 C   0  0
    9.5560   -2.2782    0.0000 C   0  0
   10.2737   -2.6858    0.0000 N   0  0
   10.9870   -2.2673    0.0000 C   0  0
   10.9781   -1.4369    0.0000 C   0  0
   10.2599   -1.0330    0.0000 C   0  0
   11.7051   -2.6734    0.0000 C   0  0
   12.4158   -2.2547    0.0000 N   0  0
   13.1339   -2.6608    0.0000 O   0  0
   11.6880   -1.0166    0.0000 O   0  0
    3.8275   -1.4965    0.0000 C   0  0
    3.8291   -2.3237    0.0000 C   0  0
    4.5451   -2.7343    0.0000 C   0  0
    4.5379   -1.0814    0.0000 C   0  0
    5.2546   -1.4882    0.0000 C   0  0
    5.2607   -2.3166    0.0000 C   0  0
    5.9772   -2.7232    0.0000 C   0  0
    6.6922   -2.3061    0.0000 N   0  0
    6.6861   -1.4776    0.0000 C   0  0
    5.9650   -1.0664    0.0000 C   0  0
    5.9815   -3.5459    0.0000 C   0  0
    5.2679   -3.9620    0.0000 C   0  0
    5.2724   -4.7863    0.0000 C   0  0
    5.9899   -5.1952    0.0000 C   0  0
    6.7042   -4.7741    0.0000 C   0  0
    6.6960   -3.9513    0.0000 C   0  0
    3.1116   -1.0864    0.0000 O   0  0
    3.1087   -0.2616    0.0000 C   0  0
    3.1157   -2.7379    0.0000 O   0  0
    2.4001   -2.3273    0.0000 C   0  0
    7.4116   -2.7098    0.0000 C   0  0
    8.1210   -2.2886    0.0000 C   0  0
    8.8403   -2.6927    0.0000 C   0  0
  1  2  2  0
  2  3  1  0
  3  4  2  0
  4  5  1  0
  5  6  2  0
  6  1  1  0
  4  7  1  0
  7  8  2  0
  8  9  1  0
  5 10  1  0
 11 12  2  0
 12 13  1  0
 13 16  2  0
 15 14  2  0
 14 11  1  0
 15 16  1  0
 15 20  1  0
 16 17  1  0
 17 18  1  0
 18 19  1  0
 19 20  1  0
 21 22  2  0
 22 23  1  0
 23 24  2  0
 24 25  1  0
 25 26  2  0
 26 21  1  0
 17 21  1  0
 11 27  1  0
 27 28  1  0
 12 29  1  0
 29 30  1  0
 18 31  1  0
 31 32  1  0
 32 33  1  0
 33  2  1  0
M  END