
  SciTegic06051315212D

 20 20  0  0  0  0            999 V2000
    7.4812   -8.5970    0.0000 C   0  0
    7.4801   -9.4165    0.0000 C   0  0
    8.1881   -9.8255    0.0000 C   0  0
    8.8978   -9.4160    0.0000 C   0  0
    8.8950   -8.5934    0.0000 C   0  0
    8.1864   -8.1881    0.0000 C   0  0
    8.1839   -7.3709    0.0000 S   0  0
    8.8904   -6.9602    0.0000 N   0  0
    7.3877   -7.5776    0.0000 O   0  0
    7.7674   -6.6572    0.0000 O   0  0
    9.6011   -8.1821    0.0000 F   0  0
    6.7734   -8.1886    0.0000 F   0  0
    6.7721   -9.8246    0.0000 F   0  0
    9.6062   -9.8235    0.0000 F   0  0
    8.1879  -10.6427    0.0000 S   0  0
    7.4801  -11.0511    0.0000 C   0  0
    6.7725  -10.6423    0.0000 C   0  0
    6.0647  -11.0507    0.0000 C   0  0
    5.3554  -10.6427    0.0000 O   0  0
    6.0628  -11.8687    0.0000 O   0  0
  1  2  2  0
  2  3  1  0
  3  4  2  0
  4  5  1  0
  5  6  2  0
  6  1  1  0
  6  7  1  0
  7  8  1  0
  7  9  2  0
  7 10  2  0
  5 11  1  0
  1 12  1  0
  2 13  1  0
  4 14  1  0
  3 15  1  0
 15 16  1  0
 16 17  1  0
 17 18  1  0
 18 19  1  0
 18 20  2  0
M  END