
          11280715122D 1   1.00000     0.00000     0

 35 38  0     0  0            999 V2000
    5.4167   -3.5417    0.0000 C   0  0  0  0  0  0           0  0  0
    5.4167   -4.3667    0.0000 C   0  0  0  0  0  0           0  0  0
    8.4250   -8.7000    0.0000 C   0  0  0  0  0  0           0  0  0
    7.8917   -9.9292    0.0000 N   0  0  0  0  0  0           0  0  0
    8.6042   -9.5042    0.0000 N   0  0  0  0  0  0           0  0  0
    7.2792   -9.3917    0.0000 N   0  0  0  0  0  0           0  0  0
    4.7000   -4.7792    0.0000 N   0  0  0  0  0  0           0  0  0
    7.6042   -8.6250    0.0000 N   0  0  0  0  0  0           0  0  0
    8.9750   -8.0792    0.0000 C   0  0  0  0  0  0           0  0  0
    6.1292   -4.7792    0.0000 N   0  0  3  0  0  0           0  0  0
    6.1375   -3.1167    0.0000 C   0  0  0  0  0  0           0  0  0
    8.9750   -7.2542    0.0000 C   0  0  0  0  0  0           0  0  0
    4.7000   -3.1292    0.0000 C   0  0  0  0  0  0           0  0  0
    2.5542   -3.5500    0.0000 C   0  0  0  0  0  0           0  0  0
    3.2667   -3.1292    0.0000 N   0  0  0  0  0  0           0  0  0
    8.2667   -6.8417    0.0000 C   0  0  0  0  0  0           0  0  0
    6.1250   -5.6042    0.0000 C   0  0  0  0  0  0           0  0  0
    3.9875   -3.5417    0.0000 C   0  0  0  0  0  0           0  0  0
    6.1292   -2.2917    0.0000 O   0  0  0  0  0  0           0  0  0
    3.9875   -4.3667    0.0000 C   0  0  0  0  0  0           0  0  0
    2.5625   -4.3750    0.0000 O   0  0  0  0  0  0           0  0  0
    7.5500   -7.2542    0.0000 C   0  0  0  0  0  0           0  0  0
    8.2625   -6.0167    0.0000 C   0  0  0  0  0  0           0  0  0
    6.8417   -6.0167    0.0000 C   0  0  0  0  0  0           0  0  0
    6.8542   -3.5292    0.0000 O   0  0  0  0  0  0           0  0  0
    7.5417   -5.6042    0.0000 C   0  0  0  0  0  0           0  0  0
    6.8375   -6.8417    0.0000 C   0  0  0  0  0  0           0  0  0
    6.8375   -4.3667    0.0000 C   0  0  0  0  0  0           0  0  0
    9.6875   -8.4917    0.0000 C   0  0  0  0  0  0           0  0  0
    9.6875   -6.8417    0.0000 C   0  0  0  0  0  0           0  0  0
    1.8417   -3.1417    0.0000 C   0  0  0  0  0  0           0  0  0
    7.5417   -4.7792    0.0000 C   0  0  0  0  0  0           0  0  0
   10.3917   -7.2542    0.0000 C   0  0  0  0  0  0           0  0  0
   10.4042   -8.0792    0.0000 C   0  0  0  0  0  0           0  0  0
    8.2542   -4.3750    0.0000 C   0  0  0  0  0  0           0  0  0
  2  1  1  0     0  0
  3  9  1  0     0  0
  4  5  2  0     0  0
  5  3  1  0     0  0
  6  8  1  0     0  0
  7  2  2  0     0  0
  8  3  2  0     0  0
  9 12  2  0     0  0
 10  2  1  0     0  0
 11  1  1  0     0  0
 12 16  1  0     0  0
 13  1  2  0     0  0
 14 15  1  0     0  0
 15 18  1  0     0  0
 16 22  2  0     0  0
 17 10  1  0     0  0
 18 13  1  0     0  0
 19 11  2  0     0  0
 20 18  2  0     0  0
 21 14  2  0     0  0
 22 27  1  0     0  0
 23 26  2  0     0  0
 24 17  1  0     0  0
 25 11  1  0     0  0
 26 24  1  0     0  0
 27 24  2  0     0  0
 28 10  1  0     0  0
 29  9  1  0     0  0
 30 12  1  0     0  0
 31 14  1  0     0  0
 32 28  1  0     0  0
 33 30  2  0     0  0
 34 33  1  0     0  0
 35 32  1  0     0  0
  7 20  1  0     0  0
 16 23  1  0     0  0
 29 34  2  0     0  0
  6  4  1  0     0  0
M  END