
  CDK    9/16/09,9:55

 39 43  0  0  0  0  0  0  0  0999 V2000
    5.5581  -17.7245    0.0000 C   0  0  0  0  0  0  0  0  0  0  0  0
    5.5566  -18.5522    0.0000 C   0  0  0  0  0  0  0  0  0  0  0  0
    6.2722  -18.9605    0.0000 C   0  0  0  0  0  0  0  0  0  0  0  0
    6.2701  -17.3115    0.0000 C   0  0  0  0  0  0  0  0  0  0  0  0
    6.9867  -17.7200    0.0000 C   0  0  0  0  0  0  0  0  0  0  0  0
    6.9872  -18.5522    0.0000 C   0  0  0  0  0  0  0  0  0  0  0  0
    7.7794  -18.8068    0.0000 N   0  0  0  0  0  0  0  0  0  0  0  0
    8.2662  -18.1352    0.0000 C   0  0  0  0  0  0  0  0  0  0  0  0
    7.7784  -17.4597    0.0000 N   0  0  0  0  0  0  0  0  0  0  0  0
    8.0252  -19.5892    0.0000 C   0  0  0  0  0  0  0  0  0  0  0  0
    7.4425  -20.1709    0.0000 C   0  0  0  0  0  0  0  0  0  0  0  0
    6.6479  -19.9563    0.0000 C   0  0  0  0  0  0  0  0  0  0  0  0
    6.0612  -20.5371    0.0000 C   0  0  0  0  0  0  0  0  0  0  0  0
    6.2769  -21.3368    0.0000 C   0  0  0  0  0  0  0  0  0  0  0  0
    7.0761  -21.5479    0.0000 C   0  0  0  0  0  0  0  0  0  0  0  0
    7.6545  -20.9654    0.0000 C   0  0  0  0  0  0  0  0  0  0  0  0
    5.6910  -21.9189    0.0000 C   0  0  0  0  0  0  0  0  0  0  0  0
    4.8959  -21.7056    0.0000 C   0  0  0  0  0  0  0  0  0  0  0  0
    4.3101  -22.2873    0.0000 C   0  0  0  0  0  0  0  0  0  0  0  0
    4.5269  -23.0869    0.0000 C   0  0  0  0  0  0  0  0  0  0  0  0
    5.3263  -23.2967    0.0000 C   0  0  0  0  0  0  0  0  0  0  0  0
    5.9085  -22.7133    0.0000 C   0  0  0  0  0  0  0  0  0  0  0  0
    4.6798  -20.9070    0.0000 C   0  0  0  0  0  0  0  0  0  0  0  0
    5.2666  -20.3251    0.0000 O   0  0  0  0  0  0  0  0  0  0  0  0
    3.8857  -20.6948    0.0000 O   0  0  0  0  0  0  0  0  0  0  0  0
    4.1286  -16.8995    0.0000 N   0  0  0  0  0  0  0  0  0  0  0  0
    5.2567  -16.5948    0.0000 O   0  0  0  0  0  0  0  0  0  0  0  0
    4.4369  -18.0276    0.0000 O   0  0  0  0  0  0  0  0  0  0  0  0
    4.8417  -17.3120    0.0000 S   0  0  0  0  0  0  0  0  0  0  0  0
    9.0911  -18.1358    0.0000 C   0  0  0  0  0  0  0  0  0  0  0  0
    9.5031  -18.8507    0.0000 C   0  0  0  0  0  0  0  0  0  0  0  0
   10.3280  -18.8514    0.0000 C   0  0  0  0  0  0  0  0  0  0  0  0
   10.7399  -19.5662    0.0000 C   0  0  0  0  0  0  0  0  0  0  0  0
    3.4138  -17.3114    0.0000 C   0  0  0  0  0  0  0  0  0  0  0  0
    2.7026  -16.8932    0.0000 C   0  0  0  0  0  0  0  0  0  0  0  0
    1.9899  -17.3016    0.0000 C   0  0  0  0  0  0  0  0  0  0  0  0
    1.9850  -18.1269    0.0000 C   0  0  0  0  0  0  0  0  0  0  0  0
    2.6990  -18.5422    0.0000 C   0  0  0  0  0  0  0  0  0  0  0  0
    3.4179  -18.1321    0.0000 C   0  0  0  0  0  0  0  0  0  0  0  0
 20 21  1  0  0  0  0 
  5  6  1  0  0  0  0 
 21 22  2  0  0  0  0 
 22 17  1  0  0  0  0 
 14 17  1  0  0  0  0 
  7 10  1  0  0  0  0 
 18 23  1  0  0  0  0 
 23 24  2  0  0  0  0 
 10 11  1  0  0  0  0 
 23 25  1  0  0  0  0 
  2  3  1  0  0  0  0 
 11 12  2  0  0  0  0 
  3  6  2  0  0  0  0 
 12 13  1  0  0  0  0 
  1  2  2  0  0  0  0 
  1 29  1  0  0  0  0 
 13 14  2  0  0  0  0 
 29 26  1  0  0  0  0 
  5  4  2  0  0  0  0 
 29 27  2  0  0  0  0 
 14 15  1  0  0  0  0 
  6  7  1  0  0  0  0 
 28 29  2  0  0  0  0 
  8 30  1  0  0  0  0 
 15 16  2  0  0  0  0 
 30 31  1  0  0  0  0 
 16 11  1  0  0  0  0 
 31 32  1  0  0  0  0 
  7  8  1  0  0  0  0 
 32 33  1  0  0  0  0 
  8  9  2  0  0  0  0 
 26 34  1  0  0  0  0 
 34 35  1  0  0  0  0 
 17 18  2  0  0  0  0 
  9  5  1  0  0  0  0 
 18 19  1  0  0  0  0 
  4  1  1  0  0  0  0 
 19 20  2  0  0  0  0 
 34 39  1  0  0  0  0 
 35 36  1  0  0  0  0 
 36 37  1  0  0  0  0 
 37 38  1  0  0  0  0 
 38 39  1  0  0  0  0 
M  END