
  SciTegic10041313232D

 31 33  0  0  1  0            999 V2000
    4.2875   -2.5625    0.0000 C   0  0
    5.0000   -2.9792    0.0000 N   0  0
    6.4292   -2.9875    0.0000 C   0  0
    5.7167   -2.5667    0.0000 C   0  0  2  0  0  0
    3.5667   -2.9750    0.0000 N   0  0
    7.1417   -2.5792    0.0000 N   0  0
    9.3954   -2.0994    0.0000 N   0  0
    8.5667   -2.5792    0.0000 C   0  0
    4.2792   -1.7375    0.0000 O   0  0
    6.4250   -3.8125    0.0000 O   0  0
    6.1250   -1.8500    0.0000 C   0  0
    2.1500   -3.8000    0.0000 O   0  0
    7.8542   -2.9917    0.0000 C   0  0  2  0  0  0
    8.5625   -4.2292    0.0000 C   0  0
    3.5667   -3.8000    0.0000 C   0  0
    2.8542   -2.5542    0.0000 C   0  0
    7.8542   -3.8167    0.0000 C   0  0
    8.5542   -5.0542    0.0000 C   0  0
    2.8542   -4.2042    0.0000 C   0  0
    2.1500   -2.9750    0.0000 C   0  0
    6.9500   -1.8417    0.0000 C   0  0
    5.7042   -1.1375    0.0000 C   0  0
    9.2750   -5.4667    0.0000 C   0  0
    7.8417   -5.4667    0.0000 C   0  0
    6.1125   -0.4167    0.0000 C   0  0
    7.3542   -1.1292    0.0000 C   0  0
    7.8417   -6.2875    0.0000 C   0  0
    9.2667   -6.2917    0.0000 C   0  0
    8.5542   -6.7042    0.0000 C   0  0
    6.9417   -0.4125    0.0000 C   0  0
    5.5000   -1.7667    0.0000 H   0  0
  2  1  1  0
  3  4  1  0
  4  2  1  0
  5  1  1  0
  6  3  1  0
  7  8  3  0
  8 13  1  0
  9  1  2  0
 10  3  2  0
  4 11  1  1
 12 20  1  0
 13  6  1  0
 14 17  1  0
 15  5  1  0
 16  5  1  0
 13 17  1  6
 18 14  1  0
 19 15  1  0
 20 16  1  0
 21 11  1  0
 22 11  1  0
 23 18  1  0
 24 18  2  0
 25 22  1  0
 26 21  1  0
 27 24  1  0
 28 23  2  0
 29 27  2  0
 30 25  1  0
  4 31  1  6
 12 19  1  0
 26 30  1  0
 28 29  1  0
M  END