
  SciTegic12091611382D

 86 90  0  0  0  0            999 V2000
   10.6100    5.3500    0.0000 C   0  0
    9.1800    4.7500    0.0000 C   0  0  1  0  0  0
    8.0237    6.8146    0.0000 O   0  0
    7.9100    5.6200    0.0000 C   0  0
    9.0582    3.5562    0.0000 N   0  0
    6.5100    5.0100    0.0000 N   0  0
    5.1200    5.9600    0.0000 C   0  0  2  0  0  0
    3.4472    4.1374    0.0000 O   0  0
    3.5800    5.3300    0.0000 C   0  0
    4.2900    4.9000    0.0000 C   0  0
    6.3500    3.5700    0.0000 C   0  0
    4.7600    3.5000    0.0000 C   0  0
    2.3500    6.1900    0.0000 N   0  0
    0.9500    5.5800    0.0000 C   0  0  2  0  0  0
   -0.3095    3.5692    0.0000 O   0  0
    0.7900    4.0500    0.0000 C   0  0
    2.0200    3.1300    0.0000 N   0  0
    0.6600   -2.0000    0.0000 C   0  0  2  0  0  0
    2.8627   -2.2442    0.0000 O   0  0
    2.0000   -2.7500    0.0000 C   0  0
   -0.5573   -2.8231    0.0000 C   0  0
   -1.7168   -5.1577    0.0000 C   0  0
   -0.4723   -4.3215    0.0000 C   0  0
    0.8752   -4.9809    0.0000 C   0  0
    0.9773   -6.4774    0.0000 C   0  0
   -0.2677   -7.3141    0.0000 C   0  0
   -1.6147   -6.6542    0.0000 C   0  0
   -0.1860   -8.5113    0.0000 O   0  0
    2.0000   -4.2600    0.0000 N   0  0
    3.3100   -5.0500    0.0000 C   0  0  2  0  0  0
    4.6316   -3.3000    0.0000 O   0  0
    4.6300   -4.3000    0.0000 C   0  0
    3.2905   -6.5503    0.0000 C   0  0
    2.2439   -7.1374    0.0000 O   0  0
    6.0100   -5.0900    0.0000 N   0  0
    7.3400   -4.3600    0.0000 C   0  0  2  0  0  0
    8.6495   -6.1199    0.0000 O   0  0
    8.6600   -5.1200    0.0000 C   0  0
    7.8633   -2.9532    0.0000 C   0  0
    6.9074   -1.7962    0.0000 C   0  0
   10.0100   -4.3800    0.0000 N   0  0
   11.3800   -5.1200    0.0000 C   0  0  2  0  0  0
   12.7186   -3.2200    0.0000 O   0  0
   12.7100   -4.4200    0.0000 C   0  0
   14.0500   -5.1500    0.0000 N   0  0
   15.3600   -4.4200    0.0000 C   0  0  2  0  0  0
   14.4235   -2.2422    0.0000 O   0  0
   15.4400   -2.8800    0.0000 C   0  0
   16.6261   -5.2263    0.0000 C   0  0
   16.5616   -6.7258    0.0000 C   0  0
   17.5737   -7.3706    0.0000 C   0  0
   15.4974   -7.2802    0.0000 C   0  0
   16.7700   -2.1500    0.0000 N   0  0
   16.8400   -0.6300    0.0000 C   0  0  2  0  0  0
   14.4692   -0.2815    0.0000 O   0  0
   15.5500    0.2400    0.0000 C   0  0
   18.1865    0.0328    0.0000 C   0  0
   19.4342   -0.8012    0.0000 C   0  0
   20.5109   -0.2714    0.0000 O   0  0
   19.3551   -1.9986    0.0000 O   0  0
   15.6700    1.7700    0.0000 N   0  0
   14.4000    2.6500    0.0000 C   0  0  2  0  0  0
   13.0392    2.0169    0.0000 C   0  0
   11.3844   -6.6214    0.0000 C   0  0
   -0.0182    6.2890    0.0000 C   0  0
   11.8400    4.4400    0.0000 S   0  0
   12.9336    0.8216    0.0000 O   0  0
   12.0565    2.7057    0.0000 O   0  0
   14.5000    4.1300    0.0000 C   0  0
   13.2600    5.0400    0.0000 S   0  0
   10.0875   -7.3767    0.0000 C   0  0
   10.0897   -8.8767    0.0000 C   0  0
    8.7919   -9.6288    0.0000 C   0  0
    7.4917   -8.8808    0.0000 C   0  0
    7.4893   -7.3808    0.0000 C   0  0
    8.7871   -6.6288    0.0000 C   0  0
    6.4534   -9.4825    0.0000 O   0  0
    7.4284   -0.3895    0.0000 C   0  0
    6.4707    0.7650    0.0000 C   0  0
    4.9920    0.5129    0.0000 N   0  0
    4.4710   -0.8937    0.0000 C   0  0
    5.4287   -2.0482    0.0000 C   0  0
    4.0315    1.6661    0.0000 C   0  0
    4.4463    2.7921    0.0000 N   0  0
    2.8488    1.4627    0.0000 N   0  0
    4.9965    6.9523    0.0000 H   0  0
  4  6  1  0
  9 13  1  0
 16 17  1  0
 20 29  1  0
 32 35  1  0
 38 41  1  0
 44 45  1  0
 48 53  1  0
 56 61  1  0
  1  2  1  0
  2  4  1  0
  4  3  2  0
  2  5  1  6
  6  7  1  0
  7  9  1  0
  9  8  2  0
  7 10  1  0
 11 12  1  0
 12 10  1  0
 11  6  1  0
 13 14  1  0
 14 16  1  0
 16 15  2  0
 17 18  1  0
 18 20  1  0
 20 19  2  0
 18 21  1  6
 21 23  1  0
 22 23  2  0
 23 24  1  0
 24 25  2  0
 25 26  1  0
 26 27  2  0
 27 22  1  0
 26 28  1  0
 29 30  1  0
 30 32  1  0
 32 31  2  0
 30 33  1  6
 33 34  1  0
 35 36  1  0
 36 38  1  0
 38 37  2  0
 36 39  1  1
 39 40  1  0
 41 42  1  0
 42 44  1  0
 44 43  2  0
 45 46  1  0
 46 48  1  0
 48 47  2  0
 46 49  1  6
 49 50  1  0
 50 51  1  0
 50 52  1  0
 53 54  1  0
 54 56  1  0
 56 55  2  0
 54 57  1  6
 57 58  1  0
 58 59  2  0
 58 60  1  0
 61 62  1  0
 62 63  1  6
 42 64  1  6
 14 65  1  6
  1 66  1  0
 63 67  1  0
 63 68  2  0
 62 69  1  0
 69 70  1  0
 66 70  1  0
 64 71  1  0
 71 72  2  0
 72 73  1  0
 73 74  2  0
 74 75  1  0
 75 76  2  0
 76 71  1  0
 74 77  1  0
 40 78  1  0
 40 82  1  0
 78 79  1  0
 79 80  1  0
 80 81  1  0
 81 82  1  0
 80 83  1  0
 83 84  1  0
 83 85  2  0
  7 86  1  6
M  END