
          11280715092D 1   1.00000     0.00000     0

 39 44  0     0  0            999 V2000
    8.7167   -0.2542    0.0000 C   0  0  0  0  0  0           0  0  0
    9.4375   -0.6667    0.0000 C   0  0  3  0  0  0           0  0  0
   10.3667   -1.6292    0.0000 N   0  0  0  0  0  0           0  0  0
   10.7542   -0.9042    0.0000 N   0  0  0  0  0  0           0  0  0
    8.7167    0.5708    0.0000 C   0  0  0  0  0  0           0  0  0
    9.5542   -1.4917    0.0000 N   0  0  0  0  0  0           0  0  0
   10.1792   -0.3042    0.0000 N   0  0  0  0  0  0           0  0  0
    7.2917   -0.2542    0.0000 C   0  0  0  0  0  0           0  0  0
    8.0042   -0.6667    0.0000 O   0  0  0  0  0  0           0  0  0
    8.0042    0.9833    0.0000 C   0  0  0  0  0  0           0  0  0
    7.2917    0.5708    0.0000 C   0  0  0  0  0  0           0  0  0
    1.5542   -4.3917    0.0000 C   0  0  0  0  0  0           0  0  0
    2.2792   -3.9792    0.0000 C   0  0  0  0  0  0           0  0  0
    6.5792   -0.6667    0.0000 C   0  0  0  0  0  0           0  0  0
    3.7125   -3.1500    0.0000 N   0  0  3  0  0  0           0  0  0
    6.5792    0.9833    0.0000 C   0  0  0  0  0  0           0  0  0
    8.0042    1.8083    0.0000 O   0  0  0  0  0  0           0  0  0
    0.8292   -3.9792    0.0000 C   0  0  0  0  0  0           0  0  0
    1.5542   -5.2250    0.0000 C   0  0  0  0  0  0           0  0  0
    3.0000   -4.3917    0.0000 C   0  0  0  0  0  0           0  0  0
    2.2792   -3.1500    0.0000 C   0  0  0  0  0  0           0  0  0
    5.8625   -0.2542    0.0000 C   0  0  0  0  0  0           0  0  0
    3.7125   -3.9792    0.0000 C   0  0  0  0  0  0           0  0  0
    2.9917   -2.7375    0.0000 C   0  0  0  0  0  0           0  0  0
    5.8625    0.5708    0.0000 C   0  0  0  0  0  0           0  0  0
    4.4250   -2.7375    0.0000 C   0  0  0  0  0  0           0  0  0
    4.4250   -1.9042    0.0000 C   0  0  0  0  0  0           0  0  0
    5.1417   -0.6667    0.0000 O   0  0  0  0  0  0           0  0  0
    5.1375   -1.4917    0.0000 C   0  0  0  0  0  0           0  0  0
    0.8375   -5.6375    0.0000 C   0  0  0  0  0  0           0  0  0
    2.2667   -5.6375    0.0000 C   0  0  0  0  0  0           0  0  0
    0.8292   -3.1500    0.0000 C   0  0  0  0  0  0           0  0  0
    0.1167   -4.3917    0.0000 C   0  0  0  0  0  0           0  0  0
    2.2667   -6.4667    0.0000 C   0  0  0  0  0  0           0  0  0
    0.1167   -2.7375    0.0000 C   0  0  0  0  0  0           0  0  0
   -0.6000   -3.9792    0.0000 C   0  0  0  0  0  0           0  0  0
    0.8375   -6.4667    0.0000 C   0  0  0  0  0  0           0  0  0
   -0.6000   -3.1500    0.0000 C   0  0  0  0  0  0           0  0  0
    1.5542   -6.8792    0.0000 C   0  0  0  0  0  0           0  0  0
  2  1  1  0     0  0
  3  6  2  0     0  0
  4  7  2  0     0  0
  5  1  2  0     0  0
  6  2  1  0     0  0
  7  2  1  0     0  0
  8  9  1  0     0  0
  9  1  1  0     0  0
 10  5  1  0     0  0
 11  8  1  0     0  0
 12 13  2  0     0  0
 13 21  1  0     0  0
 14  8  2  0     0  0
 15 26  1  0     0  0
 16 11  2  0     0  0
 17 10  2  0     0  0
 18 12  1  0     0  0
 19 12  1  0     0  0
 20 23  1  0     0  0
 21 24  1  0     0  0
 22 14  1  0     0  0
 23 15  1  0     0  0
 24 15  1  0     0  0
 25 22  2  0     0  0
 26 27  1  0     0  0
 27 29  1  0     0  0
 28 22  1  0     0  0
 29 28  1  0     0  0
 30 19  2  0     0  0
 31 19  1  0     0  0
 32 18  2  0     0  0
 33 18  1  0     0  0
 34 31  2  0     0  0
 35 32  1  0     0  0
 36 33  2  0     0  0
 37 30  1  0     0  0
 38 36  1  0     0  0
 39 34  1  0     0  0
 10 11  1  0     0  0
  3  4  1  0     0  0
 25 16  1  0     0  0
 13 20  1  0     0  0
 37 39  2  0     0  0
 35 38  2  0     0  0
M  END