
  SciTegic12201609482D

126135  0  0  0  0            999 V2000
   -7.8260    5.2390    0.0000 N   0  0
   -7.8205    3.7382    0.0000 C   0  0  2  0  0  0
   -5.4813    3.5952    0.0000 O   0  0
   -6.5185    2.9917    0.0000 C   0  0
   -9.1162    2.9808    0.0000 C   0  0
   -7.8896    0.6284    0.0000 N   0  0
   -8.3434   -0.8013    0.0000 C   0  0
   -9.8434   -0.8115    0.0000 N   0  0
  -10.3166    0.6119    0.0000 C   0  0
   -9.1090    1.4800    0.0000 C   0  0
   -6.5130    1.4909    0.0000 N   0  0
   -5.2110    0.7445    0.0000 C   0  0  1  0  0  0
   -6.2427   -1.3598    0.0000 O   0  0
   -5.2054   -0.7563    0.0000 C   0  0
   -3.9122    1.4966    0.0000 C   0  0
   -1.2964    1.4973    0.0000 C   0  0
   -2.6111    0.7486    0.0000 C   0  0
   -2.6111   -0.7486    0.0000 C   0  0
   -1.2964   -1.4973    0.0000 C   0  0
   -6.4749   -7.5201    0.0000 N   0  0
   -7.7706   -8.2775    0.0000 C   0  0
   -8.8129   -7.6828    0.0000 N   0  0
   -7.7649   -9.4775    0.0000 N   0  0
   -3.9034   -1.5028    0.0000 N   0  0
   -3.8979   -3.0036    0.0000 C   0  0  2  0  0  0
   -1.5587   -3.1466    0.0000 O   0  0
   -2.5959   -3.7501    0.0000 C   0  0
   -5.1936   -3.7611    0.0000 C   0  0
   -5.1864   -5.2619    0.0000 C   0  0
   -6.4821   -6.0193    0.0000 C   0  0
   -2.5904   -5.2509    0.0000 N   0  0
   -1.2884   -5.9974    0.0000 C   0  0  2  0  0  0
    1.0508   -5.8433    0.0000 O   0  0
    0.0104   -5.2453    0.0000 C   0  0
   -1.2829   -7.4982    0.0000 C   0  0
    1.3708   -7.6189    0.0000 C   0  0
    0.0192   -8.2446    0.0000 C   0  0
    2.3586   -8.7119    0.0000 N   0  0
    0.1643   -9.7185    0.0000 C   0  0
    1.6296  -10.0152    0.0000 C   0  0
    2.1232  -11.4359    0.0000 C   0  0
    1.1121  -12.5705    0.0000 C   0  0
   -0.3531  -12.2738    0.0000 C   0  0
   -0.8431  -10.8352    0.0000 C   0  0
    0.0000   -0.7486    0.0000 C   0  0
    0.0000    0.7486    0.0000 C   0  0
    1.2964    1.4973    0.0000 C   0  0
    2.5929    0.7486    0.0000 C   0  0
    2.5929   -0.7486    0.0000 C   0  0
    1.2964   -1.4973    0.0000 C   0  0
    0.0085   -4.0453    0.0000 N   0  0
  -20.9013   27.7118    0.0000 N   0  0
  -20.8958   26.2110    0.0000 C   0  0
  -19.5938   25.4645    0.0000 C   0  0
  -19.5883   23.9637    0.0000 C   0  0
  -18.2863   23.2173    0.0000 O   0  0
  -18.2807   21.7164    0.0000 C   0  0
  -16.9787   20.9700    0.0000 C   0  0
  -16.9732   19.4692    0.0000 O   0  0
  -15.6712   18.7227    0.0000 C   0  0
  -15.6657   17.2219    0.0000 C   0  0
  -14.3637   16.4754    0.0000 O   0  0
  -14.3582   14.9746    0.0000 C   0  0
  -13.0561   14.2281    0.0000 C   0  0
  -13.0506   12.7273    0.0000 C   0  0
  -11.7486   11.9809    0.0000 N   0  0
  -11.7431   10.4800    0.0000 C   0  0
  -10.4411    9.7336    0.0000 C   0  0
  -12.7803    9.8766    0.0000 O   0  0
  -10.4356    8.2328    0.0000 O   0  0
   -9.1335    7.4863    0.0000 C   0  0
   -9.1280    5.9855    0.0000 C   0  0
  -10.1652    5.3820    0.0000 O   0  0
  -30.0398   38.9426    0.0000 N   0  0
  -28.7410   39.6947    0.0000 C   0  0  2  0  0  0
  -26.4018   39.5517    0.0000 O   0  0
  -27.4390   38.9482    0.0000 C   0  0
  -28.7465   41.1955    0.0000 C   0  0
  -31.3967   41.3140    0.0000 N   0  0
  -32.4061   42.4236    0.0000 C   0  0
  -31.6627   43.7265    0.0000 N   0  0
  -30.1939   43.4221    0.0000 C   0  0
  -30.0485   41.9419    0.0000 C   0  0
  -27.4335   37.4474    0.0000 N   0  0
  -26.1314   36.7009    0.0000 C   0  0  1  0  0  0
  -27.1631   34.5966    0.0000 O   0  0
  -26.1259   35.2001    0.0000 C   0  0
  -24.8326   37.4530    0.0000 C   0  0
  -22.2188   37.4548    0.0000 C   0  0
  -23.5315   36.7051    0.0000 C   0  0
  -23.5313   35.2075    0.0000 C   0  0
  -22.2159   34.4602    0.0000 C   0  0
  -27.3954   28.4363    0.0000 N   0  0
  -28.6911   27.6789    0.0000 C   0  0
  -29.7334   28.2736    0.0000 N   0  0
  -28.6854   26.4789    0.0000 N   0  0
  -24.8239   34.4536    0.0000 N   0  0
  -24.8184   32.9528    0.0000 C   0  0  2  0  0  0
  -22.4792   32.8098    0.0000 O   0  0
  -23.5164   32.2064    0.0000 C   0  0
  -26.1141   32.1954    0.0000 C   0  0
  -26.1069   30.6946    0.0000 C   0  0
  -27.4026   29.9372    0.0000 C   0  0
  -23.5109   30.7056    0.0000 N   0  0
  -22.2088   29.9591    0.0000 C   0  0  2  0  0  0
  -23.2406   27.8548    0.0000 O   0  0
  -22.2033   28.4583    0.0000 C   0  0
  -20.9101   30.7112    0.0000 C   0  0
  -19.4676   28.4806    0.0000 C   0  0
  -19.6089   29.9633    0.0000 C   0  0
  -18.0256   28.1787    0.0000 N   0  0
  -18.2630   30.5812    0.0000 C   0  0
  -17.2678   29.4655    0.0000 C   0  0
  -15.7921   29.7557    0.0000 C   0  0
  -15.3222   31.2010    0.0000 C   0  0
  -16.3173   32.3166    0.0000 C   0  0
  -17.8067   32.0143    0.0000 C   0  0
  -31.3410   39.6905    0.0000 C   0  0
  -31.3426   40.6905    0.0000 C   0  0
  -32.3794   39.0891    0.0000 O   0  0
  -20.9202   35.2101    0.0000 C   0  0
  -20.9216   36.7074    0.0000 C   0  0
  -19.6260   37.4573    0.0000 C   0  0
  -18.3288   36.7099    0.0000 C   0  0
  -18.3273   35.2127    0.0000 C   0  0
  -19.6230   34.4627    0.0000 C   0  0
  4 11  1  0
 14 24  1  0
 27 31  1  0
  1  2  1  0
  2  4  1  0
  4  3  2  0
  2  5  1  6
  5 10  1  0
  6  7  1  0
  7  8  2  0
  8  9  1  0
  9 10  2  0
 10  6  1  0
 11 12  1  0
 12 14  1  0
 14 13  2  0
 12 15  1  6
 15 17  1  0
 16 17  2  0
 17 18  1  0
 18 19  2  0
 19 45  1  0
 46 16  1  0
 20 21  1  0
 21 22  1  0
 21 23  2  0
 24 25  1  0
 25 27  1  0
 27 26  2  0
 25 28  1  6
 28 29  1  0
 29 30  1  0
 30 20  1  0
 31 32  1  0
 32 34  1  0
 34 33  2  0
 32 35  1  6
 35 37  1  0
 36 37  2  0
 37 39  1  0
 38 36  1  0
 40 38  1  0
 39 40  2  0
 40 41  1  0
 41 42  2  0
 42 43  1  0
 43 44  2  0
 44 39  1  0
 45 46  1  0
 46 47  2  0
 47 48  1  0
 48 49  2  0
 49 50  1  0
 50 45  2  0
 34 51  1  0
 52 53  1  0
 53 54  1  0
 54 55  1  0
 55 56  1  0
 56 57  1  0
 57 58  1  0
 58 59  1  0
 59 60  1  0
 60 61  1  0
 61 62  1  0
 62 63  1  0
 63 64  1  0
 64 65  1  0
 65 66  1  0
 66 67  1  0
 67 68  1  0
 67 69  2  0
 68 70  1  0
 70 71  1  0
 71 72  1  0
 72  1  1  0
 72 73  2  0
 77 84  1  0
 87 97  1  0
100104  1  0
107 52  1  0
 74 75  1  0
 75 77  1  0
 77 76  2  0
 75 78  1  1
 78 83  1  0
 79 80  1  0
 80 81  2  0
 81 82  1  0
 82 83  2  0
 83 79  1  0
 84 85  1  0
 85 87  1  0
 87 86  2  0
 85 88  1  6
 88 90  1  0
 89 90  2  0
 90 91  1  0
 91 92  2  0
 92121  1  0
122 89  1  0
 93 94  1  0
 94 95  1  0
 94 96  2  0
 97 98  1  0
 98100  1  0
100 99  2  0
 98101  1  6
101102  1  0
102103  1  0
103 93  1  0
104105  1  0
105107  1  0
107106  2  0
105108  1  1
108110  1  0
109110  2  0
110112  1  0
111109  1  0
113111  1  0
112113  2  0
113114  1  0
114115  2  0
115116  1  0
116117  2  0
117112  1  0
 74118  1  0
118119  1  0
118120  2  0
121122  1  0
122123  2  0
123124  1  0
124125  2  0
125126  1  0
126121  2  0
M  END