
  SciTegic12201609252D

 26 27  0  0  0  0            999 V2000
   10.7989   -4.9727    0.0000 C   0  0
    1.3603   -1.5544    0.0000 O   0  0
    8.7032   -3.9223    0.0000 C   0  0
    3.6003   -4.9392    0.0000 F   0  0
    6.3163   -0.2719    0.0000 F   0  0
    3.4583   -2.6004    0.0000 C   0  0
    1.9575   -2.5953    0.0000 S   0  0
    5.7038   -3.9071    0.0000 C   0  0
    4.2038   -3.9020    0.0000 C   0  0
    4.2127   -1.3038    0.0000 C   0  0
    5.7127   -1.3091    0.0000 C   0  0
    7.9591   -2.6189    0.0000 S   0  0
    6.4583   -2.6107    0.0000 C   0  0
    0.7575   -2.5918    0.0000 N   0  0
    4.2173    1.2991    0.0000 C   0  0
    6.3003   -4.9484    0.0000 F   0  0
   10.2040   -3.9305    0.0000 C   0  0
    1.3543   -3.6327    0.0000 O   0  0
    3.4641   -0.0030    0.0000 N   0  0
    3.3075    2.4917    0.0000 C   0  0
    3.5074    3.9783    0.0000 C   0  0
    5.7039    1.0992    0.0000 C   0  0
    6.8965    2.0090    0.0000 C   0  0
    7.0964    3.4956    0.0000 C   0  0
    6.1866    4.6882    0.0000 C   0  0
    4.7000    4.8881    0.0000 C   0  0
  3 17  1  0
 10 19  1  0
  9  8  1  0
 12  3  1  0
  7  2  2  0
 11 10  2  0
 10  6  1  0
 13 12  1  0
 11  5  1  0
  6  9  2  0
 17  1  1  0
  9  4  1  0
 13 11  1  0
 18  7  2  0
  8 16  1  0
  7 14  1  0
  8 13  2  0
  6  7  1  0
 19 15  1  0
 15 20  1  0
 20 21  1  0
 15 22  1  0
 22 23  1  0
 23 24  1  0
 24 25  1  0
 25 26  1  0
 26 21  1  0
M  END