
  SciTegic05071316162D

 18 19  0  0  0  0            999 V2000
   17.9809  -11.0403    0.0000 C   0  0
   17.9798  -11.8598    0.0000 C   0  0
   18.6878  -12.2688    0.0000 C   0  0
   19.3975  -11.8594    0.0000 C   0  0
   19.3946  -11.0367    0.0000 C   0  0
   18.6860  -10.6314    0.0000 C   0  0
   17.2731  -10.6319    0.0000 C   0  0  1  0  0  0
   16.5655  -11.0406    0.0000 C   0  0
   15.8577  -10.6322    0.0000 C   0  0
   15.1501  -11.0410    0.0000 N   0  0
   14.4041  -10.7049    0.0000 N   0  0
   13.8574  -11.3123    0.0000 C   0  0
   14.2662  -12.0199    0.0000 N   0  0
   15.0655  -11.8497    0.0000 C   0  0
   17.2729   -9.8147    0.0000 C   0  0
   17.9805   -9.4059    0.0000 C   0  0
   18.6883   -9.8143    0.0000 C   0  0
   20.1058  -12.2668    0.0000 F   0  0
  1  2  2  0
  2  3  1  0
  3  4  2  0
  4  5  1  0
  5  6  2  0
  6  1  1  0
  1  7  1  0
  7  8  1  0
  8  9  1  0
  9 10  1  0
 10 11  1  0
 11 12  2  0
 12 13  1  0
 13 14  2  0
 14 10  1  0
  7 15  1  1
 15 16  1  0
 16 17  1  0
  4 18  1  0
M  END