
          11280714522D 1   1.00000     0.00000     0

 26 28  0     0  0            999 V2000
    9.3000   -1.5667    0.0000 C   0  0  0  0  0  0           0  0  0
    8.5792   -1.1417    0.0000 C   0  0  0  0  0  0           0  0  0
    9.3000   -2.4000    0.0000 C   0  0  0  0  0  0           0  0  0
   10.0167   -1.1542    0.0000 N   0  3  0  0  0  0           0  0  0
    7.8625   -1.5667    0.0000 C   0  0  0  0  0  0           0  0  0
    8.5750   -2.8125    0.0000 O   0  0  0  0  0  0           0  0  0
    7.8542   -2.4000    0.0000 C   0  0  0  0  0  0           0  0  0
    7.1417   -2.8042    0.0000 C   0  0  0  0  0  0           0  0  0
    7.1417   -1.1542    0.0000 C   0  0  0  0  0  0           0  0  0
    2.8542   -2.8042    0.0000 N   0  0  3  0  0  0           0  0  0
    1.4292   -3.6167    0.0000 N   0  0  3  0  0  0           0  0  0
   10.7292   -1.5667    0.0000 O   0  5  0  0  0  0           0  0  0
   10.0125   -2.8167    0.0000 O   0  0  0  0  0  0           0  0  0
   10.0167   -0.3292    0.0000 O   0  0  0  0  0  0           0  0  0
    8.5792   -0.3167    0.0000 O   0  0  0  0  0  0           0  0  0
    6.4292   -2.3917    0.0000 C   0  0  0  0  0  0           0  0  0
    1.4375   -2.7917    0.0000 C   0  0  0  0  0  0           0  0  0
    2.1500   -4.0375    0.0000 C   0  0  0  0  0  0           0  0  0
    2.1500   -2.3875    0.0000 C   0  0  0  0  0  0           0  0  0
    2.8667   -3.6292    0.0000 C   0  0  0  0  0  0           0  0  0
    6.4292   -1.5667    0.0000 C   0  0  0  0  0  0           0  0  0
    3.5750   -2.3917    0.0000 C   0  0  0  0  0  0           0  0  0
    4.2875   -2.8042    0.0000 C   0  0  0  0  0  0           0  0  0
    5.7167   -2.8042    0.0000 O   0  0  0  0  0  0           0  0  0
    0.7167   -4.0292    0.0000 C   0  0  0  0  0  0           0  0  0
    5.0042   -2.3917    0.0000 C   0  0  0  0  0  0           0  0  0
  2  1  2  0     0  0
  3  1  1  0     0  0
  4  1  1  0     0  0
  5  2  1  0     0  0
  6  3  1  0     0  0
  7  6  1  0     0  0
  8  7  2  0     0  0
  9  5  2  0     0  0
 10 22  1  0     0  0
 11 18  1  0     0  0
 12  4  1  0     0  0
 13  3  2  0     0  0
 14  4  2  0     0  0
 15  2  1  0     0  0
 16  8  1  0     0  0
 17 19  1  0     0  0
 18 20  1  0     0  0
 19 10  1  0     0  0
 20 10  1  0     0  0
 21  9  1  0     0  0
 22 23  1  0     0  0
 23 26  1  0     0  0
 24 16  1  0     0  0
 25 11  1  0     0  0
 26 24  1  0     0  0
  5  7  1  0     0  0
 21 16  2  0     0  0
 17 11  1  0     0  0
M  CHG  2   4   1  12  -1
M  END