
          11280715522D 1   1.00000     0.00000     0

 30 33  0     0  0            999 V2000
    7.7854   -7.2659    0.0000 C   0  0  0  0  0  0           0  0  0
    7.7842   -8.0933    0.0000 C   0  0  0  0  0  0           0  0  0
    8.4989   -8.5061    0.0000 C   0  0  0  0  0  0           0  0  0
    8.4971   -6.8533    0.0000 C   0  0  0  0  0  0           0  0  0
    9.2125   -7.2623    0.0000 C   0  0  0  0  0  0           0  0  0
    9.2133   -8.0891    0.0000 C   0  0  0  0  0  0           0  0  0
    9.9285   -8.5000    0.0000 N   0  0  0  0  0  0           0  0  0
   10.6434   -8.0853    0.0000 C   0  0  0  0  0  0           0  0  0
   10.6386   -7.2554    0.0000 C   0  0  0  0  0  0           0  0  0
    9.9228   -6.8482    0.0000 N   0  0  0  0  0  0           0  0  0
   11.3595   -8.4950    0.0000 O   0  0  0  0  0  0           0  0  0
   11.3506   -6.8386    0.0000 C   0  0  0  0  0  0           0  0  0
   12.0674   -7.2467    0.0000 N   0  0  0  0  0  0           0  0  0
   11.3456   -6.0136    0.0000 O   0  0  0  0  0  0           0  0  0
   12.7793   -6.8299    0.0000 C   0  0  0  0  0  0           0  0  0
   13.4940   -7.2414    0.0000 C   0  0  0  0  0  0           0  0  0
   14.2054   -6.8253    0.0000 C   0  0  0  0  0  0           0  0  0
   14.2008   -5.9996    0.0000 C   0  0  0  0  0  0           0  0  0
   13.4789   -5.5916    0.0000 C   0  0  0  0  0  0           0  0  0
   12.7704   -6.0100    0.0000 C   0  0  0  0  0  0           0  0  0
   14.9121   -5.5818    0.0000 O   0  0  0  0  0  0           0  0  0
   11.3627   -9.3199    0.0000 C   0  0  0  0  0  0           0  0  0
   13.4710   -4.7668    0.0000 C   0  0  0  0  0  0           0  0  0
   14.1813   -4.3474    0.0000 N   0  0  3  0  0  0           0  0  0
   14.8997   -4.7597    0.0000 C   0  0  0  0  0  0           0  0  0
   15.6081   -4.3439    0.0000 C   0  0  0  0  0  0           0  0  0
   15.6044   -3.5186    0.0000 C   0  0  0  0  0  0           0  0  0
   14.8861   -3.1108    0.0000 C   0  0  0  0  0  0           0  0  0
   14.1716   -3.5284    0.0000 C   0  0  0  0  0  0           0  0  0
   10.6498   -9.7351    0.0000 C   0  0  0  0  0  0           0  0  0
  6  7  2  0     0  0
 13 15  1  0     0  0
  1  2  1  0     0  0
 15 16  2  0     0  0
  7  8  1  0     0  0
 16 17  1  0     0  0
  5  4  1  0     0  0
 17 18  2  0     0  0
  8  9  2  0     0  0
 18 19  1  0     0  0
  4  1  2  0     0  0
 19 20  2  0     0  0
 20 15  1  0     0  0
  9 10  1  0     0  0
 18 21  1  0     0  0
 10  5  2  0     0  0
 11 22  1  0     0  0
 19 23  1  0     0  0
  8 11  1  0     0  0
 23 24  1  0     0  0
 24 25  1  0     0  0
  2  3  2  0     0  0
  9 12  1  0     0  0
  5  6  1  0     0  0
 12 13  1  0     0  0
  3  6  1  0     0  0
 24 29  1  0     0  0
 25 26  1  0     0  0
 26 27  1  0     0  0
 27 28  1  0     0  0
 28 29  1  0     0  0
 12 14  2  0     0  0
 22 30  1  0     0  0
M  END