
  SciTegic05171617282D

 36 40  0  0  0  0            999 V2000
    3.1347   -6.0355    0.0000 C   0  0
    4.0312   -5.2378    0.0000 C   0  0
    3.8933   -3.7570    0.0000 C   0  0
    2.5951   -3.0039    0.0000 C   0  0
    1.5548   -3.6021    0.0000 O   0  0
    2.5973   -1.5031    0.0000 N   0  0
    1.2990   -0.7500    0.0000 C   0  0
    1.2990    0.7500    0.0000 C   0  0
    0.0000    1.5000    0.0000 C   0  0
   -1.2990    0.7500    0.0000 C   0  0
   -2.6003    1.4977    0.0000 O   0  0
   -3.8990    0.7455    0.0000 C   0  0
   -5.2007    1.4909    0.0000 C   0  0
   -6.4972    0.7364    0.0000 C   0  0
   -6.4920   -0.7636    0.0000 N   0  0
   -5.1903   -1.5091    0.0000 C   0  0
   -5.1821   -3.0099    0.0000 N   0  0
   -3.8787   -3.7540    0.0000 C   0  0
   -2.8426   -3.1486    0.0000 O   0  0
   -3.8704   -5.2548    0.0000 C   0  0
   -3.1163   -6.4598    0.0000 C   0  0
   -4.6163   -6.4649    0.0000 C   0  0
   -3.8939   -0.7546    0.0000 C   0  0
   -1.2990   -0.7500    0.0000 C   0  0
    0.0000   -1.5000    0.0000 C   0  0
    5.2447   -3.1359    0.0000 C   0  0
    5.4872   -1.9607    0.0000 O   0  0
    6.2484   -4.2507    0.0000 N   0  0
    7.7410   -4.0938    0.0000 C   0  0
    8.4493   -2.7772    0.0000 C   0  0
    9.9487   -2.7331    0.0000 C   0  0
   10.7365   -4.0096    0.0000 C   0  0
   10.0250   -5.3301    0.0000 C   0  0
    8.5257   -5.3742    0.0000 C   0  0
    5.4984   -5.5497    0.0000 N   0  0
    5.9865   -6.6460    0.0000 C   0  0
  1  2  1  0
  2  3  2  0
  3  4  1  0
  4  5  2  0
  4  6  1  0
  6  7  1  0
  7  8  2  0
  8  9  1  0
  9 10  2  0
 10 11  1  0
 11 12  1  0
 12 13  2  0
 13 14  1  0
 14 15  2  0
 15 16  1  0
 16 17  1  0
 17 18  1  0
 18 19  2  0
 18 20  1  0
 20 21  1  0
 21 22  1  0
 20 22  1  0
 16 23  2  0
 12 23  1  0
 10 24  1  0
 24 25  2  0
  7 25  1  0
  3 26  1  0
 26 27  2  0
 26 28  1  0
 28 29  1  0
 29 30  2  0
 30 31  1  0
 31 32  2  0
 32 33  1  0
 33 34  2  0
 29 34  1  0
 28 35  1  0
  2 35  1  0
 35 36  1  0
M  END