
          08180812472D 1   1.00000     0.00000     0

 22 23  0     1  0            999 V2000
    0.3987   -0.1696    0.0000 C   0  0  2  0  0  0           0  0  0
    0.3987   -0.9991    0.0000 C   0  0  1  0  0  0           0  0  0
    1.1132   -1.4116    0.0000 C   0  0  2  0  0  0           0  0  0
    1.8323   -0.9991    0.0000 C   0  0  1  0  0  0           0  0  0
    1.8323   -0.1696    0.0000 O   0  0  0  0  0  0           0  0  0
    1.1132    0.2475    0.0000 C   0  0  2  0  0  0           0  0  0
   -0.3157   -1.4116    0.0000 N   0  0  0  0  0  0           0  0  0
   -0.3167    0.2412    0.0000 O   0  0  0  0  0  0           0  0  0
    2.5461   -1.4126    0.0000 S   0  0  0  0  0  0           0  0  0
    3.2611   -1.0011    0.0000 C   0  0  0  0  0  0           0  0  0
   -1.0301   -0.9991    0.0000 C   0  0  0  0  0  0           0  0  0
   -1.7447   -1.4116    0.0000 C   0  0  0  0  0  0           0  0  0
   -1.0301   -0.1741    0.0000 O   0  0  0  0  0  0           0  0  0
   -2.4579   -0.9949    0.0000 C   0  0  0  0  0  0           0  0  0
   -3.1719   -1.4068    0.0000 C   0  0  0  0  0  0           0  0  0
   -3.1724   -2.2326    0.0000 C   0  0  0  0  0  0           0  0  0
   -2.4529   -2.6449    0.0000 C   0  0  0  0  0  0           0  0  0
   -1.7418   -2.2308    0.0000 C   0  0  0  0  0  0           0  0  0
   -3.8863   -2.6461    0.0000 C   0  0  0  0  0  0           0  0  0
    1.1121   -2.2366    0.0000 O   0  0  0  0  0  0           0  0  0
    1.1121    1.0725    0.0000 C   0  0  0  0  0  0           0  0  0
    1.8260    1.4860    0.0000 O   0  0  0  0  0  0           0  0  0
  7 11  1  0     0  0
  4  5  1  0     0  0
 11 12  1  0     0  0
  5  6  1  0     0  0
 11 13  2  0     0  0
 12 14  2  0     0  0
  2  7  1  1     0  0
 14 15  1  0     0  0
  1  2  1  0     0  0
 15 16  2  0     0  0
  1  8  1  1     0  0
 16 17  1  0     0  0
  1  6  1  0     0  0
 17 18  2  0     0  0
 18 12  1  0     0  0
  4  9  1  1     0  0
 16 19  1  0     0  0
  2  3  1  0     0  0
  3 20  1  6     0  0
  9 10  1  0     0  0
  6 21  1  1     0  0
  3  4  1  0     0  0
 21 22  1  0     0  0
M  END