
          11280715352D 1   1.00000     0.00000     0

 29 31  0     1  0            999 V2000
    4.4917   -3.8417    0.0000 C   0  0  0  0  0  0           0  0  0
    4.4917   -5.0167    0.0000 C   0  0  0  0  0  0           0  0  0
    5.0042   -4.1417    0.0000 C   0  0  2  0  0  0           0  0  0
    3.9917   -4.1417    0.0000 C   0  0  0  0  0  0           0  0  0
    5.5167   -3.8542    0.0000 N   0  0  3  0  0  0           0  0  0
    3.9917   -4.7292    0.0000 C   0  0  0  0  0  0           0  0  0
    5.0042   -4.7292    0.0000 C   0  0  0  0  0  0           0  0  0
    4.5042   -3.2542    0.0000 C   0  0  0  0  0  0           0  0  0
    4.4917   -5.6042    0.0000 C   0  0  0  0  0  0           0  0  0
    3.4792   -5.5917    0.0000 N   0  0  0  0  0  0           0  0  0
    3.4792   -5.0042    0.0000 C   0  0  0  0  0  0           0  0  0
    5.5292   -3.2667    0.0000 C   0  0  0  0  0  0           0  0  0
    5.0167   -2.9667    0.0000 C   0  0  2  0  0  0           0  0  0
    9.0500   -6.5375    0.0000 C   0  0  0  0  0  0           0  0  0
    7.3792   -6.5167    0.0000 C   0  0  0  0  0  0           0  0  0
    8.6292   -5.8125    0.0000 C   0  0  0  0  0  0           0  0  0
    7.8042   -5.8125    0.0000 C   0  0  0  0  0  0           0  0  0
    7.8042   -7.2417    0.0000 O   0  0  0  0  0  0           0  0  0
    9.8750   -6.5375    0.0000 O   0  0  0  0  0  0           0  0  0
    3.4792   -3.8417    0.0000 C   0  0  0  0  0  0           0  0  0
    6.0292   -4.1542    0.0000 C   0  0  0  0  0  0           0  0  0
    8.6292   -7.2417    0.0000 O   0  0  0  0  0  0           0  0  0
    6.5542   -6.5167    0.0000 O   0  0  0  0  0  0           0  0  0
    5.0167   -2.3792    0.0000 C   0  0  0  0  0  0           0  0  0
    5.5417   -2.0917    0.0000 O   0  0  0  0  0  0           0  0  0
    2.9792   -4.1417    0.0000 C   0  0  0  0  0  0           0  0  0
    2.9792   -4.7292    0.0000 C   0  0  0  0  0  0           0  0  0
    5.5167   -4.4417    0.0000 H   0  0  0  0  0  0           0  0  0
    4.5042   -2.6667    0.0000 H   0  0  0  0  0  0           0  0  0
  2  6  1  0     0  0
  3  1  1  0     0  0
  4  1  1  0     0  0
  5  3  1  0     0  0
  6  4  2  0     0  0
  7  3  1  0     0  0
  8  1  2  0     0  0
  9  2  2  0     0  0
 10 11  1  0     0  0
 11  6  1  0     0  0
 12 13  1  0     0  0
 13  8  1  0     0  0
 15 17  1  0     0  0
 16 14  1  0     0  0
 17 16  2  0     0  0
 18 15  2  0     0  0
 19 14  2  0     0  0
 20  4  1  0     0  0
 21  5  1  0     0  0
 22 14  1  0     0  0
 23 15  1  0     0  0
 24 13  1  0     0  0
 25 24  1  0     0  0
 26 20  2  0     0  0
 27 11  2  0     0  0
  3 28  1  1     0  0
 13 29  1  6     0  0
  7  2  1  0     0  0
 12  5  1  0     0  0
  9 10  1  0     0  0
 26 27  1  0     0  0
M  END