
  SciTegic05171617272D

 28 31  0  0  0  0            999 V2000
   14.8901    2.2390    0.0000 C   0  0
   13.6945    2.1366    0.0000 O   0  0
   13.0569    0.7780    0.0000 C   0  0
   11.5615    0.6500    0.0000 C   0  0  1  0  0  0
   10.9222   -0.7070    0.0000 C   0  0
    9.4275   -0.8319    0.0000 C   0  0
    8.5718    0.4002    0.0000 C   0  0  2  0  0  0
    9.2111    1.7572    0.0000 C   0  0
   10.7059    1.8821    0.0000 C   0  0
    7.0761    0.2776    0.0000 N   0  0
    6.4347   -1.0784    0.0000 C   0  0
    4.9397   -1.2009    0.0000 C   0  0
    4.0896    0.0290    0.0000 C   0  0
    4.7275    1.3885    0.0000 C   0  0
    6.2225    1.5111    0.0000 C   0  0
    2.5889    0.0182    0.0000 N   0  0
    1.7138    1.2033    0.0000 C   0  0
    0.2917    0.7475    0.0000 C   0  0
   -1.0028    1.5132    0.0000 C   0  0
   -2.3155    0.7475    0.0000 C   0  0
   -2.3155   -0.7475    0.0000 C   0  0
   -1.0028   -1.5132    0.0000 C   0  0
   -0.9971   -3.0138    0.0000 C   0  0
    0.0446   -3.6095    0.0000 N   0  0
   -2.0337   -3.6184    0.0000 O   0  0
    0.2917   -0.7475    0.0000 C   0  0
    1.7138   -1.2033    0.0000 C   0  0
    2.0907   -2.3426    0.0000 O   0  0
  1  2  1  0
  2  3  1  0
  4  3  1  1
  4  5  1  0
  5  6  1  0
  6  7  1  0
  7  8  1  0
  8  9  1  0
  4  9  1  0
  7 10  1  1
 10 11  1  0
 11 12  1  0
 12 13  1  0
 13 14  1  0
 14 15  1  0
 10 15  1  0
 13 16  1  0
 16 17  1  0
 17 18  1  0
 18 19  2  0
 19 20  1  0
 20 21  2  0
 21 22  1  0
 22 23  1  0
 23 24  1  0
 23 25  2  0
 22 26  2  0
 18 26  1  0
 26 27  1  0
 16 27  1  0
 27 28  2  0
M  END