
  SciTegic01161211232D

 21 23  0  0  0  0            999 V2000
    5.4531  -10.2450    0.0000 C   0  0
    6.1682  -10.6564    0.0000 C   0  0
    6.8799  -10.2430    0.0000 C   0  0
    6.8778   -9.4182    0.0000 C   0  0
    6.1580   -9.0087    0.0000 C   0  0
    5.4492   -9.4245    0.0000 C   0  0
    6.1699  -11.4802    0.0000 O   0  0
    2.5866   -9.4242    0.0000 C   0  0
    2.5855  -10.2504    0.0000 C   0  0
    3.2993  -10.6627    0.0000 C   0  0
    3.2975   -9.0120    0.0000 C   0  0
    4.0119   -9.4205    0.0000 C   0  0
    4.0152  -10.2525    0.0000 C   0  0
    4.7334  -10.6632    0.0000 C   0  0
    4.7265   -8.9993    0.0000 C   0  0
    4.7356  -11.4870    0.0000 O   0  0
    3.2978  -11.4865    0.0000 O   0  0
    4.7221   -8.1756    0.0000 O   0  0
    7.5920   -9.0005    0.0000 C   0  0
    8.3073   -9.4093    0.0000 O   0  0
    7.5884   -8.1767    0.0000 O   0  0
  2  3  1  0
 12 11  2  0
 11  8  1  0
 12 13  1  0
  5  6  2  0
  6  1  1  0
  1  2  2  0
  2  7  1  0
 12 15  1  0
 13 14  1  0
 14  1  1  0
  6 15  1  0
  3  4  2  0
 14 16  2  0
 10 17  1  0
  8  9  2  0
 15 18  2  0
  4  5  1  0
  9 10  1  0
 10 13  2  0
 19 20  1  0
 19 21  2  0
  4 19  1  0
M  END