
          11280715522D 1   1.00000     0.00000     0

 48 52  0     1  0            999 V2000
   -0.4042   -2.6417    0.0000 N   0  0  3  0  0  0           0  0  0
   -0.3087   -3.4586    0.0000 C   0  0  0  0  0  0           0  0  0
    0.5001   -3.6212    0.0000 C   0  0  0  0  0  0           0  0  0
    0.9048   -2.9022    0.0000 C   0  0  0  0  0  0           0  0  0
    0.3460   -2.2953    0.0000 C   0  0  2  0  0  0           0  0  0
    0.5075   -1.4863    0.0000 C   0  0  0  0  0  0           0  0  0
    1.2889   -1.2217    0.0000 N   0  0  0  0  0  0           0  0  0
   -0.1124   -0.9419    0.0000 O   0  0  0  0  0  0           0  0  0
    1.9088   -1.7661    0.0000 C   0  0  0  0  0  0           0  0  0
    2.6902   -1.5014    0.0000 C   0  0  0  0  0  0           0  0  0
    3.3101   -2.0458    0.0000 C   0  0  0  0  0  0           0  0  0
    4.0915   -1.7812    0.0000 N   0  0  0  0  0  0           0  0  0
    4.7114   -2.3256    0.0000 C   0  0  0  0  0  0           0  0  0
    5.4928   -2.0609    0.0000 C   0  0  0  0  0  0           0  0  0
    4.5498   -3.1346    0.0000 O   0  0  0  0  0  0           0  0  0
    6.1098   -2.6055    0.0000 C   0  0  0  0  0  0           0  0  0
    6.8906   -2.3414    0.0000 C   0  0  0  0  0  0           0  0  0
    7.0527   -1.5316    0.0000 C   0  0  0  0  0  0           0  0  0
    6.4279   -0.9864    0.0000 C   0  0  0  0  0  0           0  0  0
    5.6495   -1.2534    0.0000 C   0  0  0  0  0  0           0  0  0
    7.8338   -1.2660    0.0000 C   0  0  0  0  0  0           0  0  0
    8.4544   -1.8095    0.0000 N   0  0  0  0  0  0           0  0  0
    7.9942   -0.4567    0.0000 N   0  0  0  0  0  0           0  0  0
   -3.9806    2.7042    0.0000 C   0  0  0  0  0  0           0  0  0
   -3.9818    1.8768    0.0000 C   0  0  0  0  0  0           0  0  0
   -3.2669    1.4640    0.0000 C   0  0  0  0  0  0           0  0  0
   -3.2687    3.1170    0.0000 C   0  0  0  0  0  0           0  0  0
   -2.5534    2.7078    0.0000 C   0  0  0  0  0  0           0  0  0
   -2.5526    1.8810    0.0000 C   0  0  0  0  0  0           0  0  0
   -1.8373    1.4700    0.0000 N   0  0  0  0  0  0           0  0  0
   -1.1223    1.8848    0.0000 C   0  0  0  0  0  0           0  0  0
   -1.1270    2.7148    0.0000 C   0  0  0  0  0  0           0  0  0
   -1.8429    3.1220    0.0000 C   0  0  0  0  0  0           0  0  0
   -3.2650    0.6390    0.0000 O   0  0  0  0  0  0           0  0  0
   -2.5496    0.2281    0.0000 C   0  0  0  0  0  0           0  0  0
   -2.5477   -0.5969    0.0000 C   0  0  0  0  0  0           0  0  0
   -3.2638   -1.0067    0.0000 C   0  0  0  0  0  0           0  0  0
   -3.2622   -1.8309    0.0000 C   0  0  0  0  0  0           0  0  0
   -2.5463   -2.2426    0.0000 C   0  0  0  0  0  0           0  0  0
   -1.8304   -1.8240    0.0000 C   0  0  0  0  0  0           0  0  0
   -1.8355   -1.0011    0.0000 C   0  0  0  0  0  0           0  0  0
   -3.9779   -0.5935    0.0000 Cl  0  0  0  0  0  0           0  0  0
   -1.1238   -0.5838    0.0000 Cl  0  0  0  0  0  0           0  0  0
   -0.4062    1.4751    0.0000 C   0  0  0  0  0  0           0  0  0
   -1.1135   -2.2323    0.0000 S   0  0  3  0  0  0           0  0  0
   -0.7032   -1.5166    0.0000 O   0  0  0  0  0  0           0  0  0
   -1.5186   -2.9510    0.0000 O   0  0  0  0  0  0           0  0  0
   -1.8473    3.9470    0.0000 C   0  0  0  0  0  0           0  0  0
 11 12  1  0     0  0
 24 25  2  0     0  0
  5  6  1  1     0  0
 25 26  1  0     0  0
 26 29  2  0     0  0
 12 13  1  0     0  0
 28 27  2  0     0  0
 27 24  1  0     0  0
  1  2  1  0     0  0
 13 14  1  0     0  0
 28 29  1  0     0  0
  6  7  1  0     0  0
 29 30  1  0     0  0
 13 15  2  0     0  0
 30 31  2  0     0  0
  2  3  1  0     0  0
 31 32  1  0     0  0
 14 16  2  0     0  0
 32 33  2  0     0  0
 33 28  1  0     0  0
  6  8  2  0     0  0
 26 34  1  0     0  0
 16 17  1  0     0  0
 34 35  1  0     0  0
  3  4  1  0     0  0
 35 36  1  0     0  0
 17 18  2  0     0  0
 36 37  2  0     0  0
  7  9  1  0     0  0
 37 38  1  0     0  0
 18 19  1  0     0  0
 38 39  2  0     0  0
  4  5  1  0     0  0
 39 40  1  0     0  0
 19 20  2  0     0  0
 40 41  2  0     0  0
 41 36  1  0     0  0
 20 14  1  0     0  0
 37 42  1  0     0  0
  9 10  1  0     0  0
 41 43  1  0     0  0
 18 21  1  0     0  0
 31 44  1  0     0  0
  5  1  1  0     0  0
 40 45  1  0     0  0
 45  1  1  0     0  0
 21 22  2  0     0  0
 45 46  2  0     0  0
 10 11  1  0     0  0
 45 47  2  0     0  0
 21 23  1  0     0  0
 33 48  1  0     0  0
M  END