
  SciTegic12231509382D

 23 25  0  0  0  0            999 V2000
    2.1745   -0.5648    0.0000 Br  0  0
   -0.6834    1.0852    0.0000 O   0  0
   -2.0653   -3.1123    0.0000 O   0  0
   -0.6834   -1.3898    0.0000 N   0  0
    0.0311   -0.1523    0.0000 C   0  0
    0.0311    0.6727    0.0000 C   0  0
    0.7455   -0.5648    0.0000 C   0  0
    1.4600   -0.1523    0.0000 C   0  0
    0.7455    1.0852    0.0000 C   0  0
   -0.6834   -0.5648    0.0000 C   0  0
    1.4600    0.6727    0.0000 C   0  0
   -0.6834    1.9102    0.0000 C   0  0
    0.0311    2.3227    0.0000 C   0  0
   -1.3979   -2.6273    0.0000 C   0  0
   -1.3979   -1.8023    0.0000 C   0  0
   -0.7304   -3.1123    0.0000 C   0  0
    0.0311    3.1477    0.0000 C   0  0
    0.7455    1.9102    0.0000 C   0  0
   -1.8104   -3.8969    0.0000 C   0  0
   -0.9854   -3.8969    0.0000 C   0  0
    0.7455    3.5602    0.0000 C   0  0
    1.4600    2.3227    0.0000 C   0  0
    1.4600    3.1477    0.0000 C   0  0
  1  8  1  0
  2  6  1  0
  2 12  1  0
  3 14  1  0
  3 19  1  0
  4 10  1  0
  4 15  1  0
  5  6  1  0
  5  7  2  0
  5 10  1  0
  6  9  2  0
  7  8  1  0
  8 11  2  0
  9 11  1  0
 12 13  1  0
 13 17  2  0
 13 18  1  0
 14 15  1  0
 14 16  1  0
 16 20  1  0
 17 21  1  0
 18 22  2  0
 19 20  1  0
 21 23  2  0
 22 23  1  0
M  END