
          11280715522D 1   1.00000     0.00000     0

 47 50  0     1  0            999 V2000
    8.6527  -22.8166    0.0000 C   0  0  0  0  0  0           0  0  0
    8.6516  -23.6440    0.0000 C   0  0  0  0  0  0           0  0  0
    9.3664  -24.0569    0.0000 C   0  0  0  0  0  0           0  0  0
    9.3646  -22.4039    0.0000 C   0  0  0  0  0  0           0  0  0
   10.0800  -22.8130    0.0000 C   0  0  0  0  0  0           0  0  0
   10.0807  -23.6398    0.0000 C   0  0  0  0  0  0           0  0  0
   10.7960  -24.0508    0.0000 N   0  0  0  0  0  0           0  0  0
   11.5111  -23.6360    0.0000 C   0  0  0  0  0  0           0  0  0
   11.5063  -22.8061    0.0000 C   0  0  0  0  0  0           0  0  0
   10.7904  -22.3988    0.0000 C   0  0  0  0  0  0           0  0  0
    9.3683  -24.8819    0.0000 O   0  0  0  0  0  0           0  0  0
   10.0837  -25.2927    0.0000 C   0  0  0  0  0  0           0  0  0
   10.0856  -26.1177    0.0000 C   0  0  0  0  0  0           0  0  0
    9.3695  -26.5275    0.0000 C   0  0  0  0  0  0           0  0  0
    9.3711  -27.3517    0.0000 C   0  0  0  0  0  0           0  0  0
   10.0871  -27.7634    0.0000 C   0  0  0  0  0  0           0  0  0
   10.8029  -27.3448    0.0000 C   0  0  0  0  0  0           0  0  0
   10.7979  -26.5219    0.0000 C   0  0  0  0  0  0           0  0  0
    8.6555  -26.1143    0.0000 Cl  0  0  0  0  0  0           0  0  0
   11.5095  -26.1046    0.0000 Cl  0  0  0  0  0  0           0  0  0
   12.2271  -24.0458    0.0000 C   0  0  0  0  0  0           0  0  0
   11.4885  -27.7218    0.0000 S   0  0  3  0  0  0           0  0  0
   12.2292  -28.1625    0.0000 N   0  0  0  0  0  0           0  0  0
   11.8677  -27.1624    0.0000 O   0  0  0  0  0  0           0  0  0
   11.1147  -28.4093    0.0000 O   0  0  0  0  0  0           0  0  0
   13.0061  -27.6562    0.0000 C   0  0  3  0  0  0           0  0  0
   13.6542  -27.3292    0.0000 C   0  0  0  0  0  0           0  0  0
   13.2975  -28.3057    0.0000 C   0  0  0  0  0  0           0  0  0
   12.6514  -26.9756    0.0000 C   0  0  0  0  0  0           0  0  0
   13.6451  -26.5042    0.0000 O   0  0  0  0  0  0           0  0  0
   14.3731  -27.7338    0.0000 N   0  0  3  0  0  0           0  0  0
   14.3777  -28.5592    0.0000 C   0  0  0  0  0  0           0  0  0
   15.0925  -28.9638    0.0000 C   0  0  0  0  0  0           0  0  0
   15.8049  -28.5470    0.0000 N   0  0  3  0  0  0           0  0  0
   15.7978  -27.7211    0.0000 C   0  0  0  0  0  0           0  0  0
   15.0784  -27.3120    0.0000 C   0  0  0  0  0  0           0  0  0
   16.5223  -28.9544    0.0000 C   0  0  0  0  0  0           0  0  0
   17.2338  -28.5368    0.0000 O   0  0  0  0  0  0           0  0  0
   16.5282  -29.7794    0.0000 C   0  0  2  0  0  0           0  0  0
   17.2456  -30.1867    0.0000 C   0  0  0  0  0  0           0  0  0
   15.8167  -30.1970    0.0000 N   0  0  0  0  0  0           0  0  0
   17.9571  -29.7691    0.0000 C   0  0  0  0  0  0           0  0  0
   18.6745  -30.1765    0.0000 C   0  0  0  0  0  0           0  0  0
   19.3860  -29.7589    0.0000 N   0  0  3  0  0  0           0  0  0
   20.1034  -30.1662    0.0000 C   0  0  0  0  0  0           0  0  0
   19.3801  -28.9339    0.0000 C   0  0  0  0  0  0           0  0  0
   10.7860  -21.5739    0.0000 C   0  0  0  0  0  0           0  0  0
 22 23  1  0     0  0
  3 11  1  0     0  0
 22 24  2  0     0  0
  2  3  1  0     0  0
 22 25  2  0     0  0
 11 12  1  0     0  0
 23 26  1  0     0  0
  5  6  1  0     0  0
 26 27  1  0     0  0
 12 13  1  0     0  0
 26 28  1  0     0  0
  3  6  2  0     0  0
 26 29  1  0     0  0
 13 14  2  0     0  0
 27 30  2  0     0  0
  6  7  1  0     0  0
 27 31  1  0     0  0
 31 32  1  0     0  0
 14 15  1  0     0  0
  1  2  2  0     0  0
 15 16  2  0     0  0
  7  8  2  0     0  0
 16 17  1  0     0  0
 31 36  1  0     0  0
 32 33  1  0     0  0
 33 34  1  0     0  0
 34 35  1  0     0  0
 35 36  1  0     0  0
  5  4  2  0     0  0
 34 37  1  0     0  0
 17 18  2  0     0  0
 37 38  2  0     0  0
 18 13  1  0     0  0
 37 39  1  0     0  0
  8  9  1  0     0  0
 39 40  1  0     0  0
 14 19  1  0     0  0
 39 41  1  6     0  0
  4  1  1  0     0  0
 40 42  1  0     0  0
 18 20  1  0     0  0
 42 43  1  0     0  0
  9 10  2  0     0  0
 43 44  1  0     0  0
  8 21  1  0     0  0
 44 45  1  0     0  0
 10  5  1  0     0  0
 44 46  1  0     0  0
 17 22  1  0     0  0
 10 47  1  0     0  0
M  END