
          11280714482D 1   1.00000     0.00000     0

 56 61  0     0  0            999 V2000
    8.6250    1.3083    0.0000 C   0  0  0  0  0  0           0  0  0
    9.3250    2.5833    0.0000 C   0  0  0  0  0  0           0  0  0
    9.3292    1.7333    0.0000 C   0  0  0  0  0  0           0  0  0
    8.6417    0.4500    0.0000 C   0  0  0  0  0  0           0  0  0
    8.6042    2.9875    0.0000 O   0  0  0  0  0  0           0  0  0
    9.3542    0.0458    0.0000 C   0  0  0  0  0  0           0  0  0
    7.9042    2.5583    0.0000 C   0  0  0  0  0  0           0  0  0
    7.9167    1.7083    0.0000 C   0  0  0  0  0  0           0  0  0
   10.0167    3.0083    0.0000 C   0  0  0  0  0  0           0  0  0
   10.0417    1.3208    0.0000 C   0  0  0  0  0  0           0  0  0
    9.3667   -0.8000    0.0000 C   0  0  0  0  0  0           0  0  0
   10.1417    0.2708    0.0000 C   0  0  0  0  0  0           0  0  0
   -0.6083   -2.8042    0.0000 N   0  0  3  0  0  0           0  0  0
    8.6792   -2.0792    0.0000 C   0  0  0  0  0  0           0  0  0
    8.6667   -1.2292    0.0000 C   0  0  0  0  0  0           0  0  0
    7.9375    0.0125    0.0000 C   0  0  0  0  0  0           0  0  0
   -1.3333   -2.4042    0.0000 C   0  0  0  0  0  0           0  0  0
    7.1875    2.9708    0.0000 C   0  0  0  0  0  0           0  0  0
   10.7375    1.7500    0.0000 C   0  0  0  0  0  0           0  0  0
   10.7292    2.5958    0.0000 C   0  0  0  0  0  0           0  0  0
    7.2042    1.2708    0.0000 C   0  0  0  0  0  0           0  0  0
   -1.3458   -1.5792    0.0000 N   0  0  0  0  0  0           0  0  0
   -0.6000   -3.6292    0.0000 C   0  0  0  0  0  0           0  0  0
    7.9542   -0.8292    0.0000 C   0  0  0  0  0  0           0  0  0
   10.3917    0.8208    0.0000 O   0  0  0  0  0  0           0  0  0
    9.4042   -2.4917    0.0000 O   0  0  0  0  0  0           0  0  0
    0.1125   -2.3542    0.0000 C   0  0  0  0  0  0           0  0  0
   11.4417    3.0083    0.0000 O   0  0  0  0  0  0           0  0  0
    7.9792   -2.5167    0.0000 N   0  0  0  0  0  0           0  0  0
    6.4792    2.5458    0.0000 C   0  0  0  0  0  0           0  0  0
   -1.3125   -4.0792    0.0000 C   0  0  0  0  0  0           0  0  0
    1.5417   -2.2917    0.0000 N   0  0  3  0  0  0           0  0  0
   10.7292   -0.3250    0.0000 O   0  0  0  0  0  0           0  0  0
    6.4875    1.6875    0.0000 C   0  0  0  0  0  0           0  0  0
    0.8292   -2.7417    0.0000 C   0  0  0  0  0  0           0  0  0
   -2.7458   -4.9667    0.0000 C   0  0  0  0  0  0           0  0  0
   -1.3083   -4.9125    0.0000 C   0  0  0  0  0  0           0  0  0
   -2.0333   -3.6917    0.0000 C   0  0  0  0  0  0           0  0  0
   -2.0208   -5.3542    0.0000 C   0  0  0  0  0  0           0  0  0
   -2.7583   -4.1292    0.0000 C   0  0  0  0  0  0           0  0  0
    5.7542    2.9458    0.0000 O   0  0  0  0  0  0           0  0  0
   -3.4625   -5.4125    0.0000 O   0  0  0  0  0  0           0  0  0
   -2.0458   -2.8542    0.0000 C   0  0  0  0  0  0           0  0  0
   -2.0625   -1.1875    0.0000 C   0  0  0  0  0  0           0  0  0
    7.2542   -2.1292    0.0000 C   0  0  0  0  0  0           0  0  0
    2.2667   -2.6792    0.0000 C   0  0  0  0  0  0           0  0  0
    1.5417   -1.4542    0.0000 C   0  0  0  0  0  0           0  0  0
   -3.4583   -6.2417    0.0000 C   0  0  0  0  0  0           0  0  0
    2.9667   -2.2500    0.0000 C   0  0  0  0  0  0           0  0  0
    6.5500   -2.5625    0.0000 C   0  0  0  0  0  0           0  0  0
    5.1250   -2.6042    0.0000 C   0  0  0  0  0  0           0  0  0
    5.8250   -2.1667    0.0000 C   0  0  0  0  0  0           0  0  0
    3.6917   -2.6417    0.0000 C   0  0  0  0  0  0           0  0  0
    4.3917   -2.2042    0.0000 C   0  0  0  0  0  0           0  0  0
   -2.7708   -2.4792    0.0000 C   0  0  0  0  0  0           0  0  0
   -2.7833   -1.6375    0.0000 C   0  0  0  0  0  0           0  0  0
  2  3  1  0     0  0
  3  1  2  0     0  0
  4  1  1  0     0  0
  5  7  1  0     0  0
  6  4  2  0     0  0
  7  8  2  0     0  0
  8  1  1  0     0  0
  9  2  2  0     0  0
 10  3  1  0     0  0
 11  6  1  0     0  0
 12  6  1  0     0  0
 13 27  1  0     0  0
 14 15  1  0     0  0
 15 24  1  0     0  0
 16  4  1  0     0  0
 17 13  1  0     0  0
 18  7  1  0     0  0
 19 10  2  0     0  0
 20 19  1  0     0  0
 21  8  1  0     0  0
 22 17  2  0     0  0
 23 13  1  0     0  0
 24 16  2  0     0  0
 25 12  2  0     0  0
 26 14  2  0     0  0
 27 35  1  0     0  0
 28 20  2  0     0  0
 29 14  1  0     0  0
 30 34  1  0     0  0
 31 23  1  0     0  0
 32 46  1  0     0  0
 33 12  1  0     0  0
 34 21  2  0     0  0
 35 32  1  0     0  0
 36 40  2  0     0  0
 37 31  1  0     0  0
 38 31  2  0     0  0
 39 37  2  0     0  0
 40 38  1  0     0  0
 41 30  1  0     0  0
 42 36  1  0     0  0
 43 17  1  0     0  0
 44 22  1  0     0  0
 45 29  1  0     0  0
 46 49  1  0     0  0
 47 32  1  0     0  0
 48 42  1  0     0  0
 49 53  1  0     0  0
 50 45  1  0     0  0
 51 52  1  0     0  0
 52 50  1  0     0  0
 53 54  1  0     0  0
 54 51  1  0     0  0
 55 43  2  0     0  0
 56 55  1  0     0  0
  2  5  1  0     0  0
 18 30  2  0     0  0
 15 11  2  0     0  0
 20  9  1  0     0  0
 36 39  1  0     0  0
 44 56  2  0     0  0
M  END