
          11280714552D 1   1.00000     0.00000     0

 33 37  0     0  0            999 V2000
    9.0000   -0.6000    0.0000 C   0  0  0  0  0  0           0  0  0
    8.1542   -0.3417    0.0000 N   0  0  0  0  0  0           0  0  0
   11.7625   -4.2292    0.0000 C   0  0  0  0  0  0           0  0  0
    8.2542   -1.7042    0.0000 N   0  0  3  0  0  0           0  0  0
   12.5625   -4.4417    0.0000 N   0  0  0  0  0  0           0  0  0
   11.7792   -3.3625    0.0000 N   0  0  0  0  0  0           0  0  0
    9.0417   -1.4292    0.0000 C   0  0  0  0  0  0           0  0  0
    7.7500   -1.0542    0.0000 C   0  0  0  0  0  0           0  0  0
   12.6292   -3.0667    0.0000 N   0  0  0  0  0  0           0  0  0
   13.0500   -3.7792    0.0000 N   0  0  3  0  0  0           0  0  0
   11.1042   -4.6750    0.0000 C   0  0  0  0  0  0           0  0  0
   10.3125   -4.8750    0.0000 C   0  0  0  0  0  0           0  0  0
    9.6167   -0.0625    0.0000 C   0  0  0  0  0  0           0  0  0
    8.0292   -2.5000    0.0000 C   0  0  0  0  0  0           0  0  0
    9.7417   -4.2792    0.0000 C   0  0  0  0  0  0           0  0  0
    9.4000    0.7333    0.0000 O   0  0  0  0  0  0           0  0  0
    9.9667   -3.4792    0.0000 C   0  0  0  0  0  0           0  0  0
    8.9375   -4.4792    0.0000 C   0  0  0  0  0  0           0  0  0
    8.6000   -3.0917    0.0000 C   0  0  0  0  0  0           0  0  0
    9.7125   -1.9042    0.0000 C   0  0  0  0  0  0           0  0  0
    6.9250   -1.0917    0.0000 C   0  0  0  0  0  0           0  0  0
    8.3667   -3.8792    0.0000 C   0  0  0  0  0  0           0  0  0
    9.3917   -2.8917    0.0000 C   0  0  0  0  0  0           0  0  0
   13.8750   -3.8292    0.0000 C   0  0  0  0  0  0           0  0  0
   11.6792   -5.2625    0.0000 C   0  0  0  0  0  0           0  0  0
   10.0792   -5.6667    0.0000 C   0  0  0  0  0  0           0  0  0
   10.4292   -0.2042    0.0000 C   0  0  0  0  0  0           0  0  0
    6.4875   -0.3917    0.0000 C   0  0  0  0  0  0           0  0  0
   10.5042   -1.6875    0.0000 C   0  0  0  0  0  0           0  0  0
   10.6417   -6.2542    0.0000 C   0  0  0  0  0  0           0  0  0
   11.4542   -6.0625    0.0000 C   0  0  0  0  0  0           0  0  0
   10.8167   -0.9250    0.0000 C   0  0  0  0  0  0           0  0  0
    5.6625   -0.4250    0.0000 C   0  0  0  0  0  0           0  0  0
  2  1  1  0     0  0
  3 11  1  0     0  0
  4  7  1  0     0  0
  5  3  2  0     0  0
  6  3  1  0     0  0
  7  1  2  0     0  0
  8  2  2  0     0  0
  9  6  2  0     0  0
 10  5  1  0     0  0
 11 12  1  0     0  0
 12 15  1  0     0  0
 13  1  1  0     0  0
 14  4  1  0     0  0
 15 17  1  0     0  0
 16 13  2  0     0  0
 17 23  2  0     0  0
 18 22  1  0     0  0
 19 14  1  0     0  0
 20  7  1  0     0  0
 21  8  1  0     0  0
 22 19  2  0     0  0
 23 19  1  0     0  0
 24 10  1  0     0  0
 25 11  2  0     0  0
 26 12  2  0     0  0
 27 13  1  0     0  0
 28 21  1  0     0  0
 29 20  1  0     0  0
 30 26  1  0     0  0
 31 30  2  0     0  0
 32 27  1  0     0  0
 33 28  1  0     0  0
  8  4  1  0     0  0
 32 29  1  0     0  0
 18 15  2  0     0  0
 31 25  1  0     0  0
 10  9  1  0     0  0
M  END