
  SciTegic09261414532D

 23 24  0  0  0  0            999 V2000
    7.8900   -7.5087    0.0000 C   0  0
    7.8848   -6.6876    0.0000 C   0  0
    7.1816   -6.2784    0.0000 C   0  0
    6.4708   -6.6930    0.0000 C   0  0
    7.1788   -5.4559    0.0000 C   0  0
    6.4673   -5.0515    0.0000 C   0  0
    6.4645   -4.2290    0.0000 C   0  0
    5.7379   -3.8409    0.0000 C   0  0
    5.0282   -4.2396    0.0000 C   0  0
    3.6081   -4.2536    0.0000 C   0  0
    3.6081   -5.0749    0.0000 C   0  0
    2.8949   -5.4835    0.0000 C   0  0
    2.1858   -5.0749    0.0000 C   0  0
    2.1858   -4.2536    0.0000 C   0  0
    2.8949   -3.8409    0.0000 C   0  0
    8.5993   -7.9169    0.0000 O   0  0
    7.1770   -7.9176    0.0000 O   0  0
    5.7303   -3.0196    0.0000 C   0  0
    2.8939   -3.0195    0.0000 C   0  0
    3.6052   -2.6100    0.0000 C   0  0
    4.3175   -3.0177    0.0000 C   0  0
    4.3186   -3.8391    0.0000 C   0  0
    2.8938   -6.3085    0.0000 C   0  0
  1  2  1  0
  2  3  2  0
  3  4  1  0
  3  5  1  0
  5  6  2  0
  6  7  1  0
  7  8  2  0
  8  9  1  0
  9 22  2  0
 22 10  1  0
 10 11  2  0
 11 12  1  0
 12 13  2  0
 13 14  1  0
 14 15  2  0
 10 15  1  0
  1 16  2  0
  1 17  1  0
  8 18  1  0
 15 19  1  0
 19 20  1  0
 20 21  1  0
 21 22  1  0
 12 23  1  0
M  END