
          11280714452D 1   1.00000     0.00000     0

 14 14  0     0  0            999 V2000
    1.0000   -2.3500    0.0000 C   0  0  0  0  0  0           0  0  0
    3.8500   -3.1667    0.0000 C   0  0  0  0  0  0           0  0  0
    3.1417   -2.7625    0.0000 C   0  0  0  0  0  0           0  0  0
    5.2792   -3.1667    0.0000 N   0  0  3  0  0  0           0  0  0
    1.7125   -2.7625    0.0000 N   0  0  3  0  0  0           0  0  0
    1.0000   -1.5250    0.0000 O   0  0  0  0  0  0           0  0  0
    4.5667   -3.5792    0.0000 C   0  0  0  0  0  0           0  0  0
    2.4292   -2.3500    0.0000 C   0  0  0  0  0  0           0  0  0
    0.2875   -2.7625    0.0000 C   0  0  0  0  0  0           0  0  0
    6.0292   -3.4917    0.0000 C   0  0  0  0  0  0           0  0  0
    5.3625   -2.3417    0.0000 C   0  0  0  0  0  0           0  0  0
    1.7125   -3.5875    0.0000 C   0  0  0  0  0  0           0  0  0
    6.1667   -2.1667    0.0000 C   0  0  0  0  0  0           0  0  0
    6.5792   -2.8792    0.0000 C   0  0  0  0  0  0           0  0  0
  2  3  3  0     0  0
  3  8  1  0     0  0
  4  7  1  0     0  0
  5  1  1  0     0  0
  6  1  2  0     0  0
  7  2  1  0     0  0
  8  5  1  0     0  0
  9  1  1  0     0  0
 10  4  1  0     0  0
 11  4  1  0     0  0
 12  5  1  0     0  0
 13 11  1  0     0  0
 14 10  1  0     0  0
 14 13  1  0     0  0
M  END