
  SciTegic01161211252D

 33 36  0  0  0  0            999 V2000
    0.5282  -25.9163    0.0000 O   0  0
   -0.2040  -26.2964    0.0000 S   0  0
    0.4934  -26.7410    0.0000 O   0  0
    0.5319  -24.2462    0.0000 N   0  0
    1.1920  -23.7486    0.0000 C   0  0
    0.9271  -22.9672    0.0000 C   0  0  2  0  0  0
    0.0995  -22.9807    0.0000 C   0  0
   -0.1422  -23.7697    0.0000 N   0  0
   -0.3278  -22.2725    0.0000 C   0  0
    0.0751  -21.5537    0.0000 C   0  0
   -0.3521  -20.8469    0.0000 C   0  0
   -1.1780  -20.8618    0.0000 C   0  0
   -1.5747  -21.5895    0.0000 C   0  0
   -1.1494  -22.2933    0.0000 C   0  0
    1.3639  -22.2705    0.0000 C   0  0
    2.1896  -22.3049    0.0000 C   0  0
    2.6288  -21.6055    0.0000 C   0  0
    2.2394  -20.8754    0.0000 C   0  0
    1.4105  -20.8491    0.0000 C   0  0
    0.9791  -21.5492    0.0000 C   0  0
    0.5445  -25.0712    0.0000 C   0  0
   -0.1758  -25.4730    0.0000 N   0  0
   -0.9308  -26.6889    0.0000 N   0  0
   -1.6277  -26.2515    0.0000 C   0  0
   -2.3523  -26.6406    0.0000 C   0  0
   -2.3815  -27.4649    0.0000 C   0  0
   -1.6799  -27.8988    0.0000 C   0  0
   -0.9492  -27.5124    0.0000 C   0  0
   -1.6034  -20.1598    0.0000 Cl  0  0
   -3.0776  -27.0183    0.0000 F   0  0
   -2.4281  -28.2822    0.0000 F   0  0
    1.2555  -25.4815    0.0000 N   0  0
    1.9663  -25.0708    0.0000 C   0  0
 16 17  1  0
  3  2  2  0
 17 18  2  0
  9 10  2  0
 18 19  1  0
  4  5  1  0
 19 20  2  0
 20 15  1  0
  6 15  1  6
 10 11  1  0
  4 21  1  0
 21 22  2  0
 22  2  1  0
 11 12  2  0
  2 23  1  0
 23 24  1  0
  5  6  1  0
 12 13  1  0
  6  7  1  0
 13 14  2  0
 14  9  1  0
 23 28  1  0
 24 25  1  0
 25 26  1  0
 26 27  1  0
 27 28  1  0
  7  9  1  0
 12 29  1  0
  7  8  2  0
 26 30  1  0
  8  4  1  0
 26 31  1  0
 15 16  2  0
 21 32  1  0
  2  1  2  0
 32 33  1  0
M  END