
  CDK    9/16/09,9:46

105110  0  0  0  0  0  0  0  0999 V2000
   14.1027  -16.8577    0.0000 N   0  0  0  0  0  0  0  0  0  0  0  0
   14.8170  -16.4450    0.0000 C   0  0  0  0  0  0  0  0  0  0  0  0
   15.5313  -17.6830    0.0000 O   0  0  0  0  0  0  0  0  0  0  0  0
   15.5313  -16.8577    0.0000 C   0  0  0  0  0  0  0  0  0  0  0  0
   14.8170  -15.6197    0.0000 C   0  0  0  0  0  0  0  0  0  0  0  0
   15.5284  -15.2127    0.0000 C   0  0  0  0  0  0  0  0  0  0  0  0
   15.5276  -14.3876    0.0000 C   0  0  0  0  0  0  0  0  0  0  0  0
   16.2434  -15.6248    0.0000 C   0  0  0  0  0  0  0  0  0  0  0  0
   16.2457  -16.4450    0.0000 N   0  0  0  0  0  0  0  0  0  0  0  0
   16.9601  -16.8577    0.0000 C   0  0  0  0  0  0  0  0  0  0  0  0
   18.3935  -16.8577    0.0000 O   0  0  0  0  0  0  0  0  0  0  0  0
   17.6791  -16.4450    0.0000 C   0  0  0  0  0  0  0  0  0  0  0  0
   16.9601  -17.6830    0.0000 C   0  0  0  0  0  0  0  0  0  0  0  0
   17.6791  -18.9209    0.0000 C   0  0  0  0  0  0  0  0  0  0  0  0
   17.6791  -18.0956    0.0000 C   0  0  0  0  0  0  0  0  0  0  0  0
   18.3935  -17.6830    0.0000 C   0  0  0  0  0  0  0  0  0  0  0  0
   19.1079  -18.0956    0.0000 C   0  0  0  0  0  0  0  0  0  0  0  0
   19.1079  -18.9209    0.0000 C   0  0  0  0  0  0  0  0  0  0  0  0
   18.3935  -19.3336    0.0000 C   0  0  0  0  0  0  0  0  0  0  0  0
   19.8223  -19.3336    0.0000 O   0  0  0  0  0  0  0  0  0  0  0  0
   17.6791  -15.6197    0.0000 N   0  0  0  0  0  0  0  0  0  0  0  0
   18.3472  -15.1321    0.0000 C   0  0  0  0  0  0  0  0  0  0  0  0
   19.0448  -16.4053    0.0000 O   0  0  0  0  0  0  0  0  0  0  0  0
   19.0421  -15.5815    0.0000 C   0  0  0  0  0  0  0  0  0  0  0  0
   18.0918  -14.3513    0.0000 C   0  0  0  0  0  0  0  0  0  0  0  0
   17.0111  -15.1321    0.0000 C   0  0  0  0  0  0  0  0  0  0  0  0
   17.2665  -14.3513    0.0000 C   0  0  0  0  0  0  0  0  0  0  0  0
   19.7492  -15.1578    0.0000 N   0  0  0  0  0  0  0  0  0  0  0  0
   20.4713  -15.5658    0.0000 C   0  0  0  0  0  0  0  0  0  0  0  0
   21.1746  -14.3227    0.0000 O   0  0  0  0  0  0  0  0  0  0  0  0
   20.4785  -16.3906    0.0000 C   0  0  0  0  0  0  0  0  0  0  0  0
   21.1818  -15.1476    0.0000 C   0  0  0  0  0  0  0  0  0  0  0  0
   21.8995  -15.5545    0.0000 O   0  0  0  0  0  0  0  0  0  0  0  0
   11.9579  -16.4331    0.0000 N   0  0  0  0  0  0  0  0  0  0  0  0
   12.6709  -16.8486    0.0000 C   0  0  0  0  0  0  0  0  0  0  0  0
   13.3874  -16.4388    0.0000 C   0  0  0  0  0  0  0  0  0  0  0  0
   13.3906  -15.6135    0.0000 O   0  0  0  0  0  0  0  0  0  0  0  0
   -3.7629  -13.1249    0.0000 N   0  0  0  0  0  0  0  0  0  0  0  0
   -4.4773  -12.7122    0.0000 C   0  0  0  0  0  0  0  0  0  0  0  0
   -5.1917  -13.1249    0.0000 N   0  0  0  0  0  0  0  0  0  0  0  0
   -4.4773  -11.8869    0.0000 N   0  0  0  0  0  0  0  0  0  0  0  0
   -4.4773  -15.1881    0.0000 N   0  0  0  0  0  0  0  0  0  0  0  0
   -3.7629  -15.6008    0.0000 C   0  0  0  0  0  0  0  0  0  0  0  0
   -4.4773  -16.8387    0.0000 O   0  0  0  0  0  0  0  0  0  0  0  0
   -3.7629  -16.4261    0.0000 C   0  0  0  0  0  0  0  0  0  0  0  0
   -3.0486  -15.1881    0.0000 C   0  0  0  0  0  0  0  0  0  0  0  0
   -3.0486  -14.3628    0.0000 C   0  0  0  0  0  0  0  0  0  0  0  0
   -3.7629  -13.9502    0.0000 C   0  0  0  0  0  0  0  0  0  0  0  0
   -3.0486  -16.8387    0.0000 N   0  0  0  0  0  0  0  0  0  0  0  0
   -2.3296  -16.4261    0.0000 C   0  0  0  0  0  0  0  0  0  0  0  0
   -1.6152  -17.6640    0.0000 O   0  0  0  0  0  0  0  0  0  0  0  0
   -1.6152  -16.8387    0.0000 C   0  0  0  0  0  0  0  0  0  0  0  0
   -2.3296  -15.6008    0.0000 C   0  0  0  0  0  0  0  0  0  0  0  0
   -1.6152  -14.3628    0.0000 C   0  0  0  0  0  0  0  0  0  0  0  0
   -1.6152  -15.1881    0.0000 C   0  0  0  0  0  0  0  0  0  0  0  0
   -0.9008  -15.6008    0.0000 C   0  0  0  0  0  0  0  0  0  0  0  0
   -0.1864  -15.1881    0.0000 C   0  0  0  0  0  0  0  0  0  0  0  0
   -0.1864  -14.3628    0.0000 C   0  0  0  0  0  0  0  0  0  0  0  0
   -0.9008  -13.9502    0.0000 C   0  0  0  0  0  0  0  0  0  0  0  0
   -0.9008  -16.4261    0.0000 N   0  0  0  0  0  0  0  0  0  0  0  0
   -0.1864  -16.8387    0.0000 C   0  0  0  0  0  0  0  0  0  0  0  0
    0.5280  -15.6008    0.0000 O   0  0  0  0  0  0  0  0  0  0  0  0
    0.5280  -16.4261    0.0000 C   0  0  0  0  0  0  0  0  0  0  0  0
   -0.1864  -17.6640    0.0000 C   0  0  0  0  0  0  0  0  0  0  0  0
   -0.9008  -18.0767    0.0000 C   0  0  0  0  0  0  0  0  0  0  0  0
    0.5280  -18.0767    0.0000 C   0  0  0  0  0  0  0  0  0  0  0  0
    1.2424  -16.8387    0.0000 N   0  0  0  0  0  0  0  0  0  0  0  0
    1.9567  -16.4261    0.0000 C   0  0  0  0  0  0  0  0  0  0  0  0
    2.6711  -17.6640    0.0000 O   0  0  0  0  0  0  0  0  0  0  0  0
    2.6711  -16.8387    0.0000 C   0  0  0  0  0  0  0  0  0  0  0  0
    1.9567  -15.6008    0.0000 C   0  0  0  0  0  0  0  0  0  0  0  0
    2.6711  -15.1881    0.0000 O   0  0  0  0  0  0  0  0  0  0  0  0
    1.2424  -15.1881    0.0000 C   0  0  0  0  0  0  0  0  0  0  0  0
    3.3855  -16.4261    0.0000 N   0  0  0  0  0  0  0  0  0  0  0  0
    4.0999  -16.8387    0.0000 C   0  0  0  0  0  0  0  0  0  0  0  0
    4.8188  -15.6008    0.0000 O   0  0  0  0  0  0  0  0  0  0  0  0
    4.8188  -16.4261    0.0000 C   0  0  0  0  0  0  0  0  0  0  0  0
    5.5332  -16.8387    0.0000 N   0  0  0  0  0  0  0  0  0  0  0  0
    6.2476  -16.4261    0.0000 C   0  0  0  0  0  0  0  0  0  0  0  0
    6.9619  -17.6640    0.0000 O   0  0  0  0  0  0  0  0  0  0  0  0
    6.9619  -16.8387    0.0000 C   0  0  0  0  0  0  0  0  0  0  0  0
    6.2476  -15.6008    0.0000 C   0  0  0  0  0  0  0  0  0  0  0  0
    6.0158  -14.1448    0.0000 N   0  0  0  0  0  0  0  0  0  0  0  0
    5.3470  -13.6587    0.0000 C   0  0  0  0  0  0  0  0  0  0  0  0
    4.6798  -14.1440    0.0000 N   0  0  0  0  0  0  0  0  0  0  0  0
    4.9351  -14.9305    0.0000 C   0  0  0  0  0  0  0  0  0  0  0  0
    5.7617  -14.9280    0.0000 C   0  0  0  0  0  0  0  0  0  0  0  0
    7.6763  -16.4261    0.0000 N   0  0  0  0  0  0  0  0  0  0  0  0
    8.3907  -16.8387    0.0000 C   0  0  0  0  0  0  0  0  0  0  0  0
    9.1051  -15.6008    0.0000 O   0  0  0  0  0  0  0  0  0  0  0  0
    9.1051  -16.4261    0.0000 C   0  0  0  0  0  0  0  0  0  0  0  0
    8.3907  -17.6640    0.0000 C   0  0  0  0  0  0  0  0  0  0  0  0
    9.1051  -18.0767    0.0000 C   0  0  0  0  0  0  0  0  0  0  0  0
    9.1051  -18.9020    0.0000 C   0  0  0  0  0  0  0  0  0  0  0  0
    9.8195  -19.3146    0.0000 C   0  0  0  0  0  0  0  0  0  0  0  0
   10.5339  -18.9020    0.0000 C   0  0  0  0  0  0  0  0  0  0  0  0
   10.5339  -18.0767    0.0000 C   0  0  0  0  0  0  0  0  0  0  0  0
    9.8195  -16.8387    0.0000 N   0  0  0  0  0  0  0  0  0  0  0  0
    9.8194  -17.6640    0.0000 C   0  0  0  0  0  0  0  0  0  0  0  0
   10.5343  -16.4262    0.0000 C   0  0  0  0  0  0  0  0  0  0  0  0
   11.2453  -16.8420    0.0000 C   0  0  0  0  0  0  0  0  0  0  0  0
   11.9624  -15.6075    0.0000 C   0  0  0  0  0  0  0  0  0  0  0  0
   11.2479  -15.1924    0.0000 C   0  0  0  0  0  0  0  0  0  0  0  0
   10.5289  -15.6031    0.0000 C   0  0  0  0  0  0  0  0  0  0  0  0
   11.2419  -17.6673    0.0000 O   0  0  0  0  0  0  0  0  0  0  0  0
 32 30  2  0  0  0  0 
 29 31  1  6  0  0  0 
  4  9  1  0  0  0  0 
 34 35  1  0  0  0  0 
 12 21  1  0  0  0  0 
 35 36  1  0  0  0  0 
 36  1  1  0  0  0  0 
 24 28  1  0  0  0  0 
 36 37  2  0  0  0  0 
 32 33  1  0  0  0  0 
  2  1  1  0  0  0  0 
  2  4  1  0  0  0  0 
  4  3  2  0  0  0  0 
  2  5  1  1  0  0  0 
  5  6  1  0  0  0  0 
  6  7  1  0  0  0  0 
  6  8  1  0  0  0  0 
 10  9  1  6  0  0  0 
 10 12  1  0  0  0  0 
 12 11  2  0  0  0  0 
 10 13  1  0  0  0  0 
 13 15  1  0  0  0  0 
 14 15  2  0  0  0  0 
 15 16  1  0  0  0  0 
 16 17  2  0  0  0  0 
 17 18  1  0  0  0  0 
 18 19  2  0  0  0  0 
 19 14  1  0  0  0  0 
 18 20  1  0  0  0  0 
 21 22  1  0  0  0  0 
 22 24  1  1  0  0  0 
 45 49  1  0  0  0  0 
 52 60  1  0  0  0  0 
 63 67  1  0  0  0  0 
 70 74  1  0  0  0  0 
 77 78  1  0  0  0  0 
 81 88  1  0  0  0  0 
 91 98  1  0  0  0  0 
 38 39  1  0  0  0  0 
 39 40  1  0  0  0  0 
 39 41  2  0  0  0  0 
 43 42  1  1  0  0  0 
 43 45  1  0  0  0  0 
 45 44  2  0  0  0  0 
 43 46  1  0  0  0  0 
 46 47  1  0  0  0  0 
 47 48  1  0  0  0  0 
 48 38  1  0  0  0  0 
 50 49  1  1  0  0  0 
 50 52  1  0  0  0  0 
 52 51  2  0  0  0  0 
 50 53  1  0  0  0  0 
 53 55  1  0  0  0  0 
 54 55  2  0  0  0  0 
 55 56  1  0  0  0  0 
 56 57  2  0  0  0  0 
 57 58  1  0  0  0  0 
 58 59  2  0  0  0  0 
 59 54  1  0  0  0  0 
 61 60  1  6  0  0  0 
 61 63  1  0  0  0  0 
 63 62  2  0  0  0  0 
 61 64  1  0  0  0  0 
 64 65  1  0  0  0  0 
 64 66  1  0  0  0  0 
 68 67  1  1  0  0  0 
 68 70  1  0  0  0  0 
 70 69  2  0  0  0  0 
 68 71  1  0  0  0  0 
 71 72  1  1  0  0  0 
 71 73  1  0  0  0  0 
 74 75  1  0  0  0  0 
 75 77  1  0  0  0  0 
 77 76  2  0  0  0  0 
 79 78  1  1  0  0  0 
 79 81  1  0  0  0  0 
 81 80  2  0  0  0  0 
 79 82  1  0  0  0  0 
 82 87  1  0  0  0  0 
 83 84  1  0  0  0  0 
 84 85  2  0  0  0  0 
 85 86  1  0  0  0  0 
 86 87  2  0  0  0  0 
 87 83  1  0  0  0  0 
 89 88  1  6  0  0  0 
 89 91  1  0  0  0  0 
 91 90  2  0  0  0  0 
 89 92  1  0  0  0  0 
 92 93  1  0  0  0  0 
 99 93  2  0  0  0  0 
 93 94  1  0  0  0  0 
 94 95  2  0  0  0  0 
 95 96  1  0  0  0  0 
 96 97  2  0  0  0  0 
 97 99  1  0  0  0  0 
 24 23  2  0  0  0  0 
 22 25  1  0  0  0  0 
100 98  1  6  0  0  0 
100101  1  0  0  0  0 
 26 27  1  0  0  0  0 
 27 25  1  0  0  0  0 
 26 21  1  0  0  0  0 
 28 29  1  0  0  0  0 
100104  1  0  0  0  0 
101 34  1  0  0  0  0 
 34102  1  0  0  0  0 
102103  1  0  0  0  0 
103104  1  0  0  0  0 
 29 32  1  0  0  0  0 
101105  2  0  0  0  0 
M  END