
  SciTegic02271514512D

 25 27  0  0  0  0            999 V2000
    3.1284  -12.6830    0.0000 C   0  0
    3.1284  -13.5002    0.0000 C   0  0
    3.8337  -13.9046    0.0000 C   0  0
    4.5390  -13.5002    0.0000 C   0  0
    4.5390  -12.6830    0.0000 C   0  0
    3.8337  -12.2703    0.0000 C   0  0
    2.4223  -13.9103    0.0000 C   0  0
    1.7137  -13.5010    0.0000 C   0  0
    1.0071  -13.9099    0.0000 C   0  0
    1.0078  -14.7280    0.0000 C   0  0
    1.7211  -15.1354    0.0000 C   0  0
    2.4248  -14.7241    0.0000 C   0  0
    3.8337  -11.4531    0.0000 O   0  0
    5.2479  -12.2765    0.0000 S   0  0
    5.9544  -12.6871    0.0000 C   0  0
    5.2461  -13.9098    0.0000 O   0  0
    5.9504  -13.5054    0.0000 C   0  0
    6.6561  -13.9159    0.0000 C   0  0
    7.3660  -13.5094    0.0000 C   0  0
    7.3658  -12.6879    0.0000 C   0  0
    6.6595  -12.2811    0.0000 C   0  0
    6.6596  -11.4639    0.0000 C   0  0
    6.6568  -10.6493    0.0000 N   0  0
    1.7133  -12.6838    0.0000 Cl  0  0
    3.1342  -15.1297    0.0000 Br  0  0
  1  2  1  0
  1  6  1  0
  2  3  1  0
  3  4  1  0
  4  5  1  0
  5  6  2  0
  7  8  2  0
  8  9  1  0
  9 10  2  0
 10 11  1  0
 11 12  2  0
 12  7  1  0
  2  7  1  0
  6 13  1  0
  5 14  1  0
 14 15  1  0
  4 16  2  0
 15 17  2  0
 17 18  1  0
 18 19  2  0
 19 20  1  0
 20 21  2  0
 21 15  1  0
 21 22  1  0
 22 23  3  0
  8 24  1  0
 12 25  1  0
M  END