
          05270816392D 1   1.00000     0.00000     0

 38 43  0     1  0            999 V2000
   -4.2641  -27.2571    0.0000 C   0  0  0  0  0  0           0  0  0
   -4.2654  -28.0801    0.0000 C   0  0  0  0  0  0           0  0  0
   -2.8408  -27.2532    0.0000 C   0  0  0  0  0  0           0  0  0
   -3.5498  -26.8444    0.0000 C   0  0  0  0  0  0           0  0  0
   -2.8377  -28.0797    0.0000 C   0  0  0  0  0  0           0  0  0
   -3.5491  -28.4942    0.0000 C   0  0  0  0  0  0           0  0  0
   -3.5504  -29.3163    0.0000 C   0  0  0  0  0  0           0  0  0
   -2.8374  -29.7302    0.0000 C   0  0  0  0  0  0           0  0  0
   -4.8813  -28.6322    0.0000 N   0  0  0  0  0  0           0  0  0
   -4.3348  -29.5709    0.0000 C   0  0  0  0  0  0           0  0  0
   -2.1229  -28.4919    0.0000 C   0  0  2  0  0  0           0  0  0
   -2.1221  -29.3197    0.0000 C   0  0  2  0  0  0           0  0  0
   -1.4087  -29.7306    0.0000 N   0  0  3  0  0  0           0  0  0
   -0.6916  -29.3182    0.0000 C   0  0  0  0  0  0           0  0  0
   -0.6925  -28.4903    0.0000 C   0  0  1  0  0  0           0  0  0
   -1.4104  -28.0749    0.0000 C   0  0  0  0  0  0           0  0  0
   -2.1313  -30.1401    0.0000 H   0  0  0  0  0  0           0  0  0
   -2.1313  -27.6651    0.0000 H   0  0  0  0  0  0           0  0  0
    0.0220  -28.0778    0.0000 C   0  0  0  0  0  0           0  0  0
    0.0220  -27.2528    0.0000 O   0  0  0  0  0  0           0  0  0
    0.7365  -28.4903    0.0000 N   0  0  3  0  0  0           0  0  0
    0.7314  -29.3206    0.0000 C   0  0  0  0  0  0           0  0  0
    1.4418  -29.7330    0.0000 C   0  0  0  0  0  0           0  0  0
    2.1586  -29.3240    0.0000 N   0  0  3  0  0  0           0  0  0
    2.1606  -28.4980    0.0000 C   0  0  0  0  0  0           0  0  0
    1.4456  -28.0811    0.0000 C   0  0  0  0  0  0           0  0  0
    2.8716  -29.7392    0.0000 C   0  0  0  0  0  0           0  0  0
    2.8635  -30.5631    0.0000 C   0  0  0  0  0  0           0  0  0
    3.5756  -30.9782    0.0000 C   0  0  0  0  0  0           0  0  0
    4.2927  -30.5682    0.0000 C   0  0  0  0  0  0           0  0  0
    4.2931  -29.7391    0.0000 C   0  0  0  0  0  0           0  0  0
    3.5804  -29.3277    0.0000 N   0  0  0  0  0  0           0  0  0
   -4.6293  -30.3415    0.0000 Br  0  0  0  0  0  0           0  0  0
   -1.4090  -30.5556    0.0000 C   0  0  0  0  0  0           0  0  0
   -2.1236  -30.9679    0.0000 C   0  0  0  0  0  0           0  0  0
   -2.1239  -31.7929    0.0000 C   0  0  3  0  0  0           0  0  0
   -2.8386  -32.2051    0.0000 C   0  0  0  0  0  0           0  0  0
   -1.4095  -32.2056    0.0000 C   0  0  0  0  0  0           0  0  0
  7  8  1  0     0  0
 11 18  1  6     0  0
  8 12  1  0     0  0
 15 19  1  1     0  0
  3  4  2  0     0  0
 19 20  2  0     0  0
  2  9  1  0     0  0
 19 21  1  0     0  0
 21 22  1  0     0  0
  4  1  1  0     0  0
  7 10  2  0     0  0
  9 10  1  0     0  0
 11 12  1  0     0  0
  5  6  2  0     0  0
 21 26  1  0     0  0
 22 23  1  0     0  0
 23 24  1  0     0  0
 24 25  1  0     0  0
 25 26  1  0     0  0
  2  6  1  0     0  0
 24 27  1  0     0  0
 27 28  2  0     0  0
  5  3  1  0     0  0
 28 29  1  0     0  0
  1  2  2  0     0  0
 29 30  2  0     0  0
  5 11  1  0     0  0
 30 31  1  0     0  0
 11 16  1  0     0  0
 31 32  2  0     0  0
 32 27  1  0     0  0
 12 13  1  0     0  0
 10 33  1  0     0  0
 13 14  1  0     0  0
 13 34  1  0     0  0
 14 15  1  0     0  0
 34 35  1  0     0  0
 15 16  1  0     0  0
 35 36  1  0     0  0
  6  7  1  0     0  0
 36 37  1  0     0  0
 12 17  1  1     0  0
 36 38  1  0     0  0
M  END