
          11280715342D 1   1.00000     0.00000     0

 28 28  0     0  0            999 V2000
    0.2792   -4.1875    0.0000 S   0  0  3  0  0  0           0  0  0
    3.5750   -4.1750    0.0000 C   0  0  0  0  0  0           0  0  0
    5.9792   -9.8750    0.0000 C   0  0  0  0  0  0           0  0  0
    1.1042   -4.1875    0.0000 C   0  0  0  0  0  0           0  0  0
    7.2792   -6.3250    0.0000 C   0  0  0  0  0  0           0  0  0
    6.0542   -5.5875    0.0000 N   0  0  0  0  0  0           0  0  0
    5.2292   -5.5917    0.0000 C   0  0  0  0  0  0           0  0  0
    3.9917   -4.8875    0.0000 N   0  0  0  0  0  0           0  0  0
    0.2792   -5.0125    0.0000 O   0  0  0  0  0  0           0  0  0
    0.2792   -3.3625    0.0000 O   0  0  0  0  0  0           0  0  0
    6.4542   -6.3042    0.0000 C   0  0  3  0  0  0           0  0  0
    6.3792  -10.5917    0.0000 N   0  0  0  0  0  0           0  0  0
    2.7500   -4.1792    0.0000 C   0  0  0  0  0  0           0  0  0
   -0.5458   -4.1792    0.0000 N   0  0  0  0  0  0           0  0  0
    3.9792   -3.4542    0.0000 O   0  0  0  0  0  0           0  0  0
    7.7042   -5.6167    0.0000 O   0  0  0  0  0  0           0  0  0
    4.8250   -6.3042    0.0000 O   0  0  0  0  0  0           0  0  0
    1.5042   -3.4750    0.0000 C   0  0  0  0  0  0           0  0  0
    1.5167   -4.9000    0.0000 C   0  0  0  0  0  0           0  0  0
    2.3417   -4.8917    0.0000 C   0  0  0  0  0  0           0  0  0
    2.3292   -3.4667    0.0000 C   0  0  0  0  0  0           0  0  0
    6.4042   -9.1667    0.0000 N   0  0  0  0  0  0           0  0  0
    4.8167   -4.8792    0.0000 C   0  0  0  0  0  0           0  0  0
    5.1542   -9.8542    0.0000 N   0  0  0  0  0  0           0  0  0
    7.6792   -7.0417    0.0000 O   0  0  0  0  0  0           0  0  0
    6.0292   -7.0167    0.0000 C   0  0  0  0  0  0           0  0  0
    6.0042   -8.4417    0.0000 C   0  0  0  0  0  0           0  0  0
    6.4292   -7.7375    0.0000 C   0  0  0  0  0  0           0  0  0
  2 13  1  0     0  0
  3 22  1  0     0  0
  4  1  1  0     0  0
  5 11  1  0     0  0
  6  7  1  0     0  0
  7 23  1  0     0  0
  8  2  1  0     0  0
  9  1  2  0     0  0
 10  1  2  0     0  0
 11  6  1  0     0  0
 12  3  2  0     0  0
 13 20  2  0     0  0
 14  1  1  0     0  0
 15  2  2  0     0  0
 16  5  2  0     0  0
 17  7  2  0     0  0
 18  4  1  0     0  0
 19  4  2  0     0  0
 20 19  1  0     0  0
 21 18  2  0     0  0
 22 27  1  0     0  0
 23  8  1  0     0  0
 24  3  1  0     0  0
 25  5  1  0     0  0
 26 11  1  0     0  0
 27 28  1  0     0  0
 28 26  1  0     0  0
 21 13  1  0     0  0
M  END