
  SciTegic01161211242D

 22 22  0  0  0  0            999 V2000
   -3.9122    1.4966    0.0000 C   0  0  1  0  0  0
   -2.6111    0.7486    0.0000 C   0  0
   -5.2109    0.7445    0.0000 C   0  0  2  0  0  0
   -1.2964    1.4973    0.0000 C   0  0
   -6.5121    1.4924    0.0000 C   0  0
   -3.9115    2.9974    0.0000 C   0  0
    0.0000    0.7486    0.0000 C   0  0
   -2.6111   -0.7486    0.0000 C   0  0
    0.0000   -0.7486    0.0000 C   0  0
   -1.2964   -1.4973    0.0000 C   0  0
   -2.6119    3.7481    0.0000 N   0  0
   -5.2090   -0.4555    0.0000 O   0  0
    5.0929    1.8758    0.0000 Cl  0  0
   -7.5506    0.8910    0.0000 C   0  0
   -6.5141    2.6924    0.0000 C   0  0
   -7.5522    2.0909    0.0000 C   0  0
    1.2964    1.4973    0.0000 C   0  0
   -2.6114    4.9481    0.0000 C   0  0
   -1.5727    3.1479    0.0000 C   0  0
    1.2964   -1.4973    0.0000 C   0  0
    2.5929    0.7486    0.0000 C   0  0
    2.5929   -0.7486    0.0000 C   0  0
  1  2  1  1
  1  3  1  0
  2  4  1  0
  3  5  1  0
  1  6  1  0
  4  7  2  0
  2  8  2  0
  7  9  1  0
  8 10  1  0
  9 10  2  0
  6 11  1  0
  3 12  1  1
  5 14  1  0
  5 15  1  0
  5 16  1  0
  7 17  1  0
 11 18  1  0
 11 19  1  0
  9 20  1  0
 17 21  2  0
 20 22  2  0
 21 22  1  0
M  END