
          05080814042D 1   1.00000     0.00000     0

 29 31  0     0  0            999 V2000
   11.0425  -22.5922    0.0000 C   0  0  0  0  0  0           0  0  0
   11.0432  -23.4190    0.0000 C   0  0  0  0  0  0           0  0  0
   11.7585  -23.8300    0.0000 C   0  0  0  0  0  0           0  0  0
   12.4736  -23.4152    0.0000 C   0  0  0  0  0  0           0  0  0
   12.4688  -22.5852    0.0000 C   0  0  0  0  0  0           0  0  0
   11.7529  -22.1780    0.0000 C   0  0  0  0  0  0           0  0  0
   13.1821  -22.1679    0.0000 C   0  0  0  0  0  0           0  0  0
   13.8991  -22.5760    0.0000 O   0  0  0  0  0  0           0  0  0
   13.1771  -21.3429    0.0000 O   0  0  0  0  0  0           0  0  0
   13.1896  -23.8249    0.0000 N   0  0  0  0  0  0           0  0  0
   13.1929  -24.6499    0.0000 C   0  0  0  0  0  0           0  0  0
   13.9089  -25.0596    0.0000 O   0  0  0  0  0  0           0  0  0
   12.4800  -25.0652    0.0000 C   0  0  0  0  0  0           0  0  0
   11.7671  -24.6532    0.0000 C   0  0  0  0  0  0           0  0  0
   11.0547  -25.0677    0.0000 C   0  0  0  0  0  0           0  0  0
   11.0575  -25.8936    0.0000 C   0  0  0  0  0  0           0  0  0
   11.7786  -26.3032    0.0000 C   0  0  0  0  0  0           0  0  0
   12.4880  -25.8862    0.0000 C   0  0  0  0  0  0           0  0  0
   10.3452  -26.3098    0.0000 S   0  0  3  0  0  0           0  0  0
    9.6250  -26.7167    0.0000 N   0  0  3  0  0  0           0  0  0
   10.7562  -27.0252    0.0000 O   0  0  0  0  0  0           0  0  0
    9.9361  -25.5934    0.0000 O   0  0  0  0  0  0           0  0  0
   10.3270  -22.1815    0.0000 C   0  0  0  0  0  0           0  0  0
    9.6083  -21.7667    0.0000 N   0  0  0  0  0  0           0  0  0
    8.9128  -26.2942    0.0000 C   0  0  0  0  0  0           0  0  0
    8.1947  -26.6975    0.0000 C   0  0  0  0  0  0           0  0  0
    8.1827  -27.5249    0.0000 O   0  0  0  0  0  0           0  0  0
    8.8949  -27.9474    0.0000 C   0  0  0  0  0  0           0  0  0
    9.6192  -27.5425    0.0000 C   0  0  0  0  0  0           0  0  0
  3  4  2  0     0  0
 14 15  1  0     0  0
 15 16  2  0     0  0
  7  8  1  0     0  0
 16 17  1  0     0  0
  7  9  2  0     0  0
 17 18  2  0     0  0
 18 13  1  0     0  0
  5  7  1  0     0  0
 16 19  1  0     0  0
  4  5  1  0     0  0
 19 20  1  0     0  0
  4 10  1  0     0  0
 19 21  2  0     0  0
  2  3  1  0     0  0
 19 22  2  0     0  0
 10 11  1  0     0  0
  1 23  1  0     0  0
  5  6  2  0     0  0
 23 24  3  0     0  0
 20 25  1  0     0  0
 11 12  2  0     0  0
  6  1  1  0     0  0
 11 13  1  0     0  0
  1  2  2  0     0  0
 13 14  2  0     0  0
 20 29  1  0     0  0
 25 26  1  0     0  0
 26 27  1  0     0  0
 27 28  1  0     0  0
 28 29  1  0     0  0
M  END