
  SciTegic12191611482D

 32 33  0  0  0  0            999 V2000
    5.4431  -10.3638    0.0000 O   0  0
    6.4833   -9.7656    0.0000 C   0  0
    6.4855   -8.2648    0.0000 N   0  0
    5.1873   -7.5117    0.0000 C   0  0
    5.1894   -6.0109    0.0000 C   0  0
    3.8912   -5.2578    0.0000 N   0  0
    3.8933   -3.7570    0.0000 C   0  0
    2.5951   -3.0039    0.0000 C   0  0
    2.5973   -1.5031    0.0000 C   0  0
    1.2990   -0.7500    0.0000 C   0  0
    1.2990    0.7500    0.0000 C   0  0
    2.5972    1.5031    0.0000 O   0  0
    2.5955    2.7031    0.0000 C   0  0
    0.0000    1.5000    0.0000 C   0  0
   -1.2990    0.7500    0.0000 C   0  0
   -2.6003    1.4977    0.0000 O   0  0
   -3.6387    0.8962    0.0000 C   0  0
   -1.2990   -0.7500    0.0000 C   0  0
    0.0000   -1.5000    0.0000 C   0  0
    4.9336   -3.1588    0.0000 O   0  0
    7.7815  -10.5187    0.0000 C   0  0
    7.7794  -12.0195    0.0000 C   0  0
    9.0776  -12.7726    0.0000 C   0  0
    9.0777  -14.2726    0.0000 C   0  0
    7.7795  -15.0258    0.0000 O   0  0
    7.7812  -16.2258    0.0000 C   0  0
   10.3767  -15.0227    0.0000 C   0  0
   11.6758  -14.2727    0.0000 C   0  0
   12.9770  -15.0205    0.0000 O   0  0
   14.0154  -14.4190    0.0000 C   0  0
   11.6758  -12.7727    0.0000 C   0  0
   10.3768  -12.0227    0.0000 C   0  0
  1  2  2  0
  2  3  1  0
  3  4  1  0
  4  5  1  0
  5  6  1  0
  6  7  1  0
  7  8  1  0
  8  9  2  0
  9 10  1  0
 10 11  2  0
 11 12  1  0
 12 13  1  0
 11 14  1  0
 14 15  2  0
 15 16  1  0
 16 17  1  0
 15 18  1  0
 18 19  2  0
 10 19  1  0
  7 20  2  0
  2 21  1  0
 21 22  2  0
 22 23  1  0
 23 24  2  0
 24 25  1  0
 25 26  1  0
 24 27  1  0
 27 28  2  0
 28 29  1  0
 29 30  1  0
 28 31  1  0
 31 32  2  0
 23 32  1  0
M  END