
          11280714452D 1   1.00000     0.00000     0

 28 30  0     0  0            999 V2000
    7.2667   -3.3000    0.0000 C   0  0  0  0  0  0           0  0  0
    7.2667   -2.4750    0.0000 C   0  0  0  0  0  0           0  0  0
    7.9792   -2.0542    0.0000 C   0  0  0  0  0  0           0  0  0
    7.9792   -1.2292    0.0000 C   0  0  0  0  0  0           0  0  0
    6.5542   -3.7125    0.0000 C   0  0  0  0  0  0           0  0  0
    5.8417   -3.3000    0.0000 C   0  0  0  0  0  0           0  0  0
    7.9792   -3.7125    0.0000 C   0  0  0  0  0  0           0  0  0
    5.1250   -3.7125    0.0000 C   0  0  0  0  0  0           0  0  0
    7.2625   -0.8167    0.0000 O   0  0  0  0  0  0           0  0  0
    8.7000   -2.4667    0.0000 C   0  0  0  0  0  0           0  0  0
    6.5542   -4.5375    0.0000 O   0  0  0  0  0  0           0  0  0
    8.7000   -3.3000    0.0000 C   0  0  0  0  0  0           0  0  0
    2.2750   -3.7125    0.0000 O   0  0  0  0  0  0           0  0  0
    4.4125   -3.3000    0.0000 C   0  0  0  0  0  0           0  0  0
    8.6917   -0.8167    0.0000 O   0  0  0  0  0  0           0  0  0
    2.9917   -3.3000    0.0000 C   0  0  0  0  0  0           0  0  0
    3.7042   -3.7042    0.0000 C   0  0  0  0  0  0           0  0  0
    1.5625   -3.3042    0.0000 C   0  0  0  0  0  0           0  0  0
    7.9792   -4.5375    0.0000 O   0  0  0  0  0  0           0  0  0
    0.8500   -3.7167    0.0000 C   0  0  0  0  0  0           0  0  0
    3.7042   -2.0542    0.0000 C   0  0  0  0  0  0           0  0  0
    4.4167   -2.4667    0.0000 C   0  0  0  0  0  0           0  0  0
    2.9917   -2.4750    0.0000 C   0  0  0  0  0  0           0  0  0
    0.1292   -3.3042    0.0000 C   0  0  0  0  0  0           0  0  0
    0.8542   -4.5375    0.0000 C   0  0  0  0  0  0           0  0  0
    0.1417   -4.9542    0.0000 C   0  0  0  0  0  0           0  0  0
   -0.5833   -3.7167    0.0000 C   0  0  0  0  0  0           0  0  0
   -0.5833   -4.5417    0.0000 C   0  0  0  0  0  0           0  0  0
  2  1  2  0     0  0
  3  2  1  0     0  0
  4  3  1  0     0  0
  5  1  1  0     0  0
  6  5  1  0     0  0
  7  1  1  0     0  0
  8  6  2  0     0  0
  9  4  2  0     0  0
 10 12  1  0     0  0
 11  5  2  0     0  0
 12  7  2  0     0  0
 13 16  1  0     0  0
 14  8  1  0     0  0
 15  4  1  0     0  0
 16 17  2  0     0  0
 17 14  1  0     0  0
 18 13  1  0     0  0
 19  7  1  0     0  0
 20 18  1  0     0  0
 21 22  1  0     0  0
 22 14  2  0     0  0
 23 21  2  0     0  0
 24 20  2  0     0  0
 25 20  1  0     0  0
 26 25  2  0     0  0
 27 24  1  0     0  0
 28 26  1  0     0  0
 10  3  2  0     0  0
 23 16  1  0     0  0
 28 27  2  0     0  0
M  END