
  SciTegic10041313212D

 26 28  0  0  0  0            999 V2000
   13.0426   -2.2008    0.0000 C   0  0
   13.7550   -2.6176    0.0000 C   0  0
   14.4686   -2.2051    0.0000 C   0  0
   14.4683   -1.3792    0.0000 C   0  0
   13.7484   -0.9676    0.0000 C   0  0
   13.0377   -1.3824    0.0000 C   0  0
   12.3211   -0.9736    0.0000 O   0  0
   11.6088   -1.3900    0.0000 C   0  0
   10.8933   -0.9793    0.0000 C   0  0
   10.1815   -1.3949    0.0000 C   0  0
   10.1854   -2.2208    0.0000 C   0  0
   10.9070   -2.6293    0.0000 C   0  0
   11.6159   -2.2113    0.0000 C   0  0
    9.4736   -2.6380    0.0000 O   0  0
   15.1833   -2.6172    0.0000 C   0  0
   15.8975   -2.2045    0.0000 C   0  0
   16.6508   -2.5345    0.0000 C   0  0
   17.2025   -1.9213    0.0000 N   0  0
   16.7897   -1.2069    0.0000 C   0  0
   15.9828   -1.3788    0.0000 N   0  0
   17.1249   -0.4530    0.0000 O   0  0
   16.8248   -3.3410    0.0000 O   0  0
   13.7448   -0.1426    0.0000 I   0  0
   12.3281   -2.6133    0.0000 I   0  0
    9.4650   -0.9858    0.0000 O   0  0
    8.7526   -1.4018    0.0000 C   0  0
 12 13  2  0
 13  8  1  0
  1  2  2  0
 11 14  1  0
  6  7  1  0
  3 15  1  0
  3  4  2  0
 16 15  1  0
 16 17  1  0
  7  8  1  0
  8  9  2  0
  4  5  1  0
 17 18  1  0
 18 19  1  0
 19 20  1  0
 20 16  1  0
  9 10  1  0
 19 21  2  0
  2  3  1  0
 17 22  2  0
 10 11  2  0
  5 23  1  0
  5  6  2  0
  1 24  1  0
 11 12  1  0
 10 25  1  0
  6  1  1  0
 25 26  1  0
M  END