
          08180812472D 1   1.00000     0.00000     0

 33 36  0     0  0            999 V2000
    5.8444   -5.2166    0.0000 C   0  0  0  0  0  0           0  0  0
    5.8432   -6.0440    0.0000 C   0  0  0  0  0  0           0  0  0
    6.5581   -6.4569    0.0000 C   0  0  0  0  0  0           0  0  0
    7.2745   -6.0435    0.0000 C   0  0  0  0  0  0           0  0  0
    7.2716   -5.2130    0.0000 C   0  0  0  0  0  0           0  0  0
    6.5563   -4.8039    0.0000 C   0  0  0  0  0  0           0  0  0
    7.9846   -4.7978    0.0000 N   0  0  0  0  0  0           0  0  0
    7.9896   -6.4549    0.0000 C   0  0  0  0  0  0           0  0  0
    7.9814   -3.9728    0.0000 C   0  0  0  0  0  0           0  0  0
    8.6944   -3.5576    0.0000 O   0  0  0  0  0  0           0  0  0
    7.2654   -3.5630    0.0000 C   0  0  0  0  0  0           0  0  0
    7.2623   -2.7380    0.0000 N   0  0  3  0  0  0           0  0  0
    7.9240   -2.2527    0.0000 C   0  0  0  0  0  0           0  0  0
    7.6661   -1.4691    0.0000 C   0  0  0  0  0  0           0  0  0
    6.8411   -1.4722    0.0000 S   0  0  0  0  0  0           0  0  0
    6.5892   -2.2578    0.0000 C   0  0  0  0  0  0           0  0  0
    5.8062   -2.5176    0.0000 O   0  0  0  0  0  0           0  0  0
    8.7097   -2.5045    0.0000 O   0  0  0  0  0  0           0  0  0
    8.1485   -0.7998    0.0000 C   0  0  0  0  0  0           0  0  0
    7.8101   -0.0474    0.0000 C   0  0  0  0  0  0           0  0  0
    8.2214    0.6654    0.0000 N   0  0  3  0  0  0           0  0  0
    7.6671    1.2765    0.0000 C   0  0  0  0  0  0           0  0  0
    6.9146    0.9380    0.0000 C   0  0  0  0  0  0           0  0  0
    7.0041    0.1179    0.0000 C   0  0  0  0  0  0           0  0  0
    9.0417    0.7533    0.0000 C   0  0  0  0  0  0           0  0  0
    9.5259    0.0850    0.0000 C   0  0  0  0  0  0           0  0  0
   10.3454    0.1725    0.0000 C   0  0  0  0  0  0           0  0  0
   10.6802    0.9275    0.0000 C   0  0  0  0  0  0           0  0  0
   10.1893    1.5958    0.0000 C   0  0  0  0  0  0           0  0  0
    9.3714    1.5050    0.0000 C   0  0  0  0  0  0           0  0  0
   10.5184    2.3527    0.0000 C   0  0  0  0  0  0           0  0  0
   11.3383    2.4435    0.0000 O   0  0  0  0  0  0           0  0  0
   10.0297    3.0174    0.0000 O   0  0  0  0  0  0           0  0  0
 16 12  1  0     0  0
  4  8  1  0     0  0
 16 17  2  0     0  0
 13 18  2  0     0  0
  7  9  1  0     0  0
 14 19  2  0     0  0
  4  5  1  0     0  0
 19 20  1  0     0  0
 20 21  1  0     0  0
  9 10  2  0     0  0
  2  3  1  0     0  0
  9 11  1  0     0  0
  5  6  2  0     0  0
 21 22  1  0     0  0
 22 23  2  0     0  0
 23 24  1  0     0  0
 24 20  2  0     0  0
 11 12  1  0     0  0
 21 25  1  0     0  0
 12 13  1  0     0  0
 25 26  2  0     0  0
  6  1  1  0     0  0
 26 27  1  0     0  0
  1  2  2  0     0  0
 27 28  2  0     0  0
  5  7  1  0     0  0
 28 29  1  0     0  0
  3  4  2  0     0  0
 29 30  2  0     0  0
 30 25  1  0     0  0
 13 14  1  0     0  0
 14 15  1  0     0  0
 15 16  1  0     0  0
 31 32  1  0     0  0
 31 33  2  0     0  0
 29 31  1  0     0  0
M  END