
  SciTegic04191613082D

182192  0  0  1  0            999 V2000
   14.3367  -14.3943    0.0000 N   0  0
   14.3627  -15.8941    0.0000 C   0  0
   15.3592  -15.9780    0.0000 O   0  0
   14.0863  -17.3684    0.0000 C   0  0
   14.4494  -16.8783    0.0000 C   0  0
   14.1994  -17.4320    0.0000 C   0  0
   13.5726  -18.7948    0.0000 C   0  0
   12.6993  -20.0144    0.0000 C   0  0
   13.5188  -18.7569    0.0000 C   0  0
   11.6110  -21.0467    0.0000 C   0  0
   12.3503  -21.9919    0.0000 O   0  0
   10.3470  -21.8543    0.0000 N   0  0
    8.9530  -22.4082    0.0000 C   0  0
    7.4794  -22.6882    0.0000 C   0  0  2  0  0  0
    5.9794  -22.6842    0.0000 N   0  0
    4.5072  -22.3965    0.0000 C   0  0
    4.1661  -23.5470    0.0000 O   0  0
    3.1162  -21.8353    0.0000 C   0  0  1  0  0  0
    2.6556  -22.7230    0.0000 C   0  0
    1.8564  -21.0211    0.0000 N   0  0
    0.7735  -19.9831    0.0000 C   0  0
   -0.1354  -20.7666    0.0000 O   0  0
   -0.0933  -18.7590    0.0000 C   0  0  1  0  0  0
   -0.7129  -17.3929    0.0000 N   0  0
   -1.0627  -15.9342    0.0000 C   0  0
   -1.1301  -14.4358    0.0000 C   0  0  1  0  0  0
   -0.9128  -12.9516    0.0000 N   0  0
   -0.4184  -11.5354    0.0000 C   0  0
    0.3350  -10.2383    0.0000 C   0  0  2  0  0  0
   -0.8967   -9.3600    0.0000 C   0  0
   -0.7539   -7.8660    0.0000 C   0  0
    0.6070   -7.2409    0.0000 C   0  0
    0.7372   -5.7336    0.0000 C   0  0
   -0.4850   -4.8690    0.0000 C   0  0
   -1.8450   -5.4952    0.0000 C   0  0
   -3.0672   -4.6306    0.0000 C   0  0
   -2.9293   -3.1399    0.0000 C   0  0
   -1.5692   -2.5138    0.0000 C   0  0
   -0.3470   -3.3783    0.0000 C   0  0
   -1.9829   -6.9859    0.0000 C   0  0
    1.3202   -9.1073    0.0000 N   0  0
    2.5017   -8.1831    0.0000 C   0  0
    1.8556   -7.1719    0.0000 O   0  0
    3.8368   -7.4993    0.0000 C   0  0  2  0  0  0
    5.2771   -7.0805    0.0000 N   0  0
    6.7707   -6.9418    0.0000 C   0  0
    8.2635   -7.0883    0.0000 C   0  0  2  0  0  0
    9.7017   -7.5147    0.0000 N   0  0
   11.0331   -8.2055    0.0000 C   0  0
   12.2097   -9.1358    0.0000 C   0  0  1  0  0  0
   13.1891  -10.2720    0.0000 N   0  0
   13.9357  -11.5730    0.0000 C   0  0
   14.4225  -12.9918    0.0000 C   0  0  2  0  0  0
   14.6321  -14.4771    0.0000 N   0  0
   14.5568  -15.9752    0.0000 C   0  0
   15.5463  -16.1201    0.0000 O   0  0
   15.8929  -12.6362    0.0000 C   0  0
   16.9285  -13.7225    0.0000 C   0  0
   18.3870  -13.3720    0.0000 C   0  0
   19.4198  -14.4598    0.0000 C   0  0
   18.9942  -15.8981    0.0000 C   0  0
   17.5357  -16.2487    0.0000 C   0  0
   17.1952  -17.3994    0.0000 F   0  0
   16.5029  -15.1609    0.0000 C   0  0
   14.8464  -11.1600    0.0000 O   0  0
   13.5656   -8.4650    0.0000 C   0  0
   13.6628   -6.9673    0.0000 C   0  0
   15.0063   -6.3002    0.0000 C   0  0
   15.1003   -4.8031    0.0000 C   0  0
   13.8509   -3.9732    0.0000 C   0  0
   12.5074   -4.6402    0.0000 C   0  0
   12.4133   -6.1373    0.0000 C   0  0
   13.9261   -2.7755    0.0000 F   0  0
   11.6845   -7.1977    0.0000 O   0  0
    8.5516   -5.6032    0.0000 C   0  0  2  0  0  0
    7.6455   -4.8166    0.0000 C   0  0
    9.6859   -5.2114    0.0000 O   0  0
    6.7739   -5.7418    0.0000 O   0  0
    5.6318   -5.6140    0.0000 C   0  0
    4.5489   -4.5761    0.0000 C   0  0
    3.1086   -4.9949    0.0000 C   0  0
    2.7511   -6.4517    0.0000 C   0  0
   -1.5087  -11.0340    0.0000 O   0  0
   -2.6411  -14.3627    0.0000 C   0  0
   -3.4542  -15.6242    0.0000 C   0  0
   -4.9533  -15.5518    0.0000 C   0  0
   -5.7663  -16.8133    0.0000 N   0  0
   -7.2654  -16.7409    0.0000 C   0  0
   -7.8142  -15.6737    0.0000 N   0  0
   -7.9155  -17.7495    0.0000 N   0  0
   -2.2509  -16.1019    0.0000 O   0  0
   -0.9607  -19.2567    0.0000 C   0  0
    5.9801  -22.6183    0.0000 C   0  0
    5.8111  -23.8064    0.0000 O   0  0
    4.5217  -22.2676    0.0000 N   0  0
    3.1637  -21.6305    0.0000 C   0  0  2  0  0  0
    1.9618  -20.7330    0.0000 C   0  0
    0.9652  -19.6120    0.0000 N   0  0
    0.2146  -18.3133    0.0000 C   0  0  1  0  0  0
   -1.2937  -18.4275    0.0000 C   0  0
   -1.9446  -19.7797    0.0000 C   0  0
   -3.4377  -19.8953    0.0000 C   0  0
   -4.0815  -21.2643    0.0000 C   0  0
   -3.2341  -22.4984    0.0000 C   0  0
   -3.8793  -23.8493    0.0000 C   0  0
   -3.0319  -25.0834    0.0000 C   0  0
   -1.5391  -24.9666    0.0000 C   0  0
   -0.8939  -23.6157    0.0000 C   0  0
   -1.7413  -22.3817    0.0000 C   0  0
   -1.0961  -21.0308    0.0000 C   0  0
   -0.2592  -16.8900    0.0000 C   0  0
   -0.4368  -15.4006    0.0000 N   0  0
   -0.3109  -13.9059    0.0000 C   0  0  1  0  0  0
   -1.7981  -13.6300    0.0000 C   0  0
   -2.7533  -12.4724    0.0000 C   0  0
   -4.2336  -12.7198    0.0000 C   0  0
   -5.1888  -11.5622    0.0000 N   0  0
   -6.6690  -11.8097    0.0000 C   0  0
   -7.0891  -12.9337    0.0000 N   0  0
   -7.4328  -10.8841    0.0000 N   0  0
    0.1132  -12.4671    0.0000 C   0  0
    0.8183  -11.1432    0.0000 N   0  0
    1.7755   -9.9883    0.0000 C   0  0  1  0  0  0
    0.4086   -9.3407    0.0000 C   0  0
   -0.8266  -10.1933    0.0000 C   0  0
   -2.1829   -9.5508    0.0000 C   0  0
   -3.4180  -10.4034    0.0000 N   0  0
   -4.7744   -9.7609    0.0000 C   0  0
   -4.8714   -8.5649    0.0000 N   0  0
   -5.7619  -10.4427    0.0000 N   0  0
    2.9456   -9.0497    0.0000 C   0  0
    2.4020   -8.2103    0.0000 O   0  0
    4.2806   -8.3658    0.0000 N   0  0
    5.7260   -7.9647    0.0000 C   0  0  1  0  0  0
    4.9740   -6.6524    0.0000 C   0  0
    6.1262   -5.6907    0.0000 C   0  0
    5.8705   -4.2118    0.0000 C   0  0
    7.0227   -3.2501    0.0000 N   0  0
    6.7669   -1.7713    0.0000 C   0  0
    7.6882   -1.0024    0.0000 N   0  0
    5.6405   -1.3575    0.0000 N   0  0
    7.2226   -7.8628    0.0000 C   0  0
    8.7090   -8.0642    0.0000 N   0  0
   10.1244   -8.5607    0.0000 C   0  0  1  0  0  0
   10.7643   -7.1901    0.0000 C   0  0
    9.9047   -5.9598    0.0000 C   0  0
   10.5396   -4.5999    0.0000 C   0  0
    9.6800   -3.3696    0.0000 N   0  0
   10.3149   -2.0096    0.0000 C   0  0
   11.5104   -1.9059    0.0000 N   0  0
    9.6276   -1.0259    0.0000 N   0  0
   11.4110   -9.3320    0.0000 C   0  0
   12.1289   -8.3704    0.0000 O   0  0
   12.5159  -10.3464    0.0000 N   0  0
   13.3940  -11.5625    0.0000 C   0  0  2  0  0  0
   14.3680  -10.4053    0.0000 C   0  0
   13.9589   -9.2771    0.0000 O   0  0
   15.8458  -10.6672    0.0000 N   0  0
   16.8122   -9.5189    0.0000 C   0  0  2  0  0  0
   16.3035   -8.1069    0.0000 C   0  0
   17.0772   -7.1897    0.0000 O   0  0
   15.1223   -7.8951    0.0000 O   0  0
   18.2900   -9.7808    0.0000 C   0  0
   19.2565   -8.6326    0.0000 C   0  0
   20.7343   -8.8945    0.0000 C   0  0
   21.7007   -7.7462    0.0000 C   0  0
   22.8823   -7.9556    0.0000 N   0  0
   14.0094  -12.9305    0.0000 C   0  0
    7.2625   -6.6635    0.0000 O   0  0
   -0.9976  -12.0131    0.0000 O   0  0
   -1.4303  -17.1519    0.0000 O   0  0
    1.1503  -21.6169    0.0000 O   0  0
    1.9910  -22.5858    0.0000 C   0  0
    2.2293  -24.0676    0.0000 C   0  0
    1.0677  -25.0167    0.0000 C   0  0
    1.3088  -26.4972    0.0000 C   0  0
    2.7115  -27.0287    0.0000 C   0  0
    3.8731  -26.0796    0.0000 C   0  0
    3.6320  -24.5991    0.0000 C   0  0
    9.1184   -6.5695    0.0000 H   0  0
    2.8476   -7.3527    0.0000 H   0  0
    6.4797  -22.6636    0.0000 H   0  0
  2  1  1  0
  2  3  2  0
  4  2  1  0
  5  4  1  0
  6  5  2  0
  7  6  1  0
  8  7  2  0
  9  8  1  0
  4  9  2  0
  8 10  1  0
 10 11  2  0
 10 12  1  0
 13 12  1  0
 14 13  1  0
 15 14  1  0
 16 15  1  0
 16 17  2  0
 18 16  1  0
 18 19  1  1
 20 18  1  0
 21 20  1  0
 21 22  2  0
 23 21  1  0
 24 23  1  0
 25 24  1  0
 26 25  1  0
 27 26  1  0
 28 27  1  0
 29 28  1  0
 29 30  1  6
 30 31  1  0
 32 31  1  0
 33 32  2  0
 34 33  1  0
 34 35  1  0
 35 36  2  0
 36 37  1  0
 37 38  2  0
 38 39  1  0
 39 34  2  0
 40 35  1  0
 31 40  2  0
 29 41  1  0
 41 42  1  0
 42 43  2  0
 44 42  1  0
 44 45  1  0
 45 46  1  0
 46 47  1  0
 47 48  1  0
 48 49  1  0
 49 50  1  0
 50 51  1  0
 51 52  1  0
 53 52  1  0
 54 53  1  0
 54 55  1  0
 55  6  1  0
 55 56  2  0
 53 57  1  1
 57 58  1  0
 59 58  1  0
 60 59  2  0
 61 60  1  0
 62 61  2  0
 62 63  1  0
 64 62  1  0
 58 64  2  0
 52 65  2  0
 50 66  1  6
 66 67  1  0
 67 68  2  0
 68 69  1  0
 69 70  2  0
 70 71  1  0
 71 72  2  0
 72 67  1  0
 70 73  1  0
 49 74  2  0
 47 75  1  0
 75 76  1  6
 75 77  1  0
 46 78  2  0
 79 45  1  0
 80 79  1  0
 81 80  1  0
 82 81  1  0
 44 82  1  0
 28 83  2  0
 26 84  1  6
 84 85  1  0
 85 86  1  0
 86 87  1  0
 87 88  1  0
 88 89  1  0
 88 90  2  0
 25 91  2  0
 23 92  1  6
 14 93  1  0
 93 94  2  0
 93 95  1  0
 95 96  1  0
 96 97  1  0
 97 98  1  0
 98 99  1  0
 99100  1  1
100101  1  0
102101  1  0
103102  2  0
104103  1  0
105104  2  0
106105  1  0
107106  2  0
108107  1  0
109108  2  0
110109  1  0
101110  2  0
104109  1  0
 99111  1  0
111112  1  0
112113  1  0
113114  1  1
114115  1  0
115116  1  0
116117  1  0
117118  1  0
118119  1  0
118120  2  0
113121  1  0
121122  1  0
122123  1  0
123124  1  1
124125  1  0
125126  1  0
126127  1  0
127128  1  0
128129  1  0
128130  2  0
123131  1  0
131132  2  0
131133  1  0
134133  1  0
134135  1  1
135136  1  0
136137  1  0
137138  1  0
138139  1  0
139140  2  0
139141  1  0
142134  1  0
143142  1  0
144143  1  0
144145  1  1
145146  1  0
146147  1  0
147148  1  0
148149  1  0
149150  1  0
149151  2  0
152144  1  0
152153  2  0
154152  1  0
155154  1  0
155156  1  6
156157  2  0
156158  1  0
159158  1  6
159160  1  0
160161  2  0
160162  1  0
159163  1  0
163164  1  0
164165  1  0
165166  1  0
166167  1  0
155168  1  0
  1168  1  0
142169  2  0
121170  2  0
111171  2  0
 97172  2  0
 96173  1  1
173174  1  0
175174  1  0
176175  2  0
177176  1  0
178177  2  0
179178  1  0
174179  2  0
 47180  1  6
 44181  1  6
 14182  1  1
M  END