
  SciTegic          2D

 35 38  0  0  0  0            999 V2000
    0.0000    0.0000    0.0000 Cl  0  0
   12.8507    0.9010    0.0000 C   0  0
   12.0302    0.9872    0.0000 N   0  0
   11.6946    1.7409    0.0000 C   0  0
   11.5453    0.3198    0.0000 C   0  0
   10.7248    0.4060    0.0000 C   0  0
   10.2399   -0.2615    0.0000 O   0  0
    9.4194   -0.1752    0.0000 C   0  0
    8.9345   -0.8427    0.0000 C   0  0
    8.1140   -0.7564    0.0000 C   0  0
    7.7784   -0.0027    0.0000 C   0  0
    8.2634    0.6647    0.0000 C   0  0
    9.0838    0.5785    0.0000 C   0  0
    6.9580    0.0835    0.0000 C   0  0
    6.4059   -0.5296    0.0000 C   0  0
    5.6522   -0.1940    0.0000 C   0  0
    5.7385    0.6264    0.0000 C   0  0
    6.5455    0.7980    0.0000 O   0  0
    5.1254    1.1785    0.0000 C   0  0
    4.3408    0.9235    0.0000 C   0  0
    3.7277    1.4756    0.0000 C   0  0
    3.8992    2.2825    0.0000 N   0  0
    4.6838    2.5375    0.0000 C   0  0
    5.2969    1.9854    0.0000 C   0  0
    4.9378   -0.6065    0.0000 C   0  0
    4.9378   -1.4315    0.0000 C   0  0
    4.2233   -1.8440    0.0000 C   0  0
    3.5088   -1.4315    0.0000 C   0  0
    2.7242   -1.6865    0.0000 C   0  0
    2.2393   -1.0190    0.0000 C   0  0
    2.7242   -0.3516    0.0000 C   0  0
    3.5088   -0.6065    0.0000 C   0  0
    4.2233   -0.1940    0.0000 C   0  0
    2.4693   -2.4711    0.0000 N   0  0
    3.0213   -3.0842    0.0000 O   0  0
  2  3  1  0
  3  4  1  0
  3  5  1  0
  5  6  1  0
  6  7  1  0
  7  8  1  0
  8  9  2  0
  9 10  1  0
 10 11  2  0
 11 12  1  0
 12 13  2  0
  8 13  1  0
 11 14  1  0
 14 15  2  0
 15 16  1  0
 16 17  2  0
 17 18  1  0
 14 18  1  0
 17 19  1  0
 19 20  2  0
 20 21  1  0
 21 22  2  0
 22 23  1  0
 23 24  2  0
 19 24  1  0
 16 25  1  0
 25 26  2  0
 26 27  1  0
 27 28  2  0
 28 29  1  0
 29 30  1  0
 30 31  1  0
 31 32  1  0
 28 32  1  0
 32 33  2  0
 25 33  1  0
 29 34  2  3
 34 35  1  0
M  END