
  SciTegic01181116592D

 30 32  0  0  0  0            999 V2000
    7.7460   -9.8597    0.0000 C   0  0
    7.0318  -10.2680    0.0000 C   0  0
    7.0317  -11.0993    0.0000 C   0  0
    7.7436  -11.5083    0.0000 C   0  0
    8.4613  -11.0966    0.0000 C   0  0
    8.4621  -10.2708    0.0000 C   0  0
    7.7448  -12.3321    0.0000 S   0  0
    6.9218  -12.3326    0.0000 O   0  0
    8.5691  -12.3315    0.0000 O   0  0
    7.7449  -13.1569    0.0000 N   0  0
    7.7444   -9.0360    0.0000 C   0  0
    7.0332   -7.7931    0.0000 N   0  0
    4.8953   -6.5526    0.0000 N   0  0
    4.8942   -7.3829    0.0000 C   0  0
    5.6121   -7.7951    0.0000 N   0  0
    6.3233   -7.3825    0.0000 C   0  0
    6.3205   -6.5531    0.0000 C   0  0
    5.6103   -6.1446    0.0000 C   0  0
    5.6119   -5.3209    0.0000 N   0  0
    4.8973   -4.9069    0.0000 C   0  0
    4.8991   -4.0789    0.0000 C   0  0
    5.6131   -3.6657    0.0000 C   0  0
    5.6152   -2.8384    0.0000 C   0  0
    4.9000   -2.4278    0.0000 C   0  0
    4.1855   -2.8380    0.0000 C   0  0
    4.1870   -3.6680    0.0000 C   0  0
    7.0406   -6.1301    0.0000 N   0  3
    7.0271   -5.3010    0.0000 O   0  0
    7.7661   -6.5380    0.0000 O   0  5
    7.0344   -8.6210    0.0000 C   0  0
 15 16  2  0
  7  8  2  0
 16 17  1  0
 17 18  2  0
 18 13  1  0
 16 12  1  0
  7  9  2  0
 18 19  1  0
  4  5  1  0
 19 20  1  0
  7 10  1  0
 20 21  1  0
  2  3  1  0
 21 22  2  0
  1 11  1  0
 22 23  1  0
  5  6  2  0
 23 24  2  0
  6  1  1  0
 24 25  1  0
  1  2  2  0
 25 26  2  0
 26 21  1  0
 13 14  2  0
 17 27  1  0
  4  7  1  0
 14 15  1  0
 27 28  2  0
 27 29  1  0
  3  4  2  0
 12 30  1  0
 30 11  1  0
M  CHG  2  27   1  29  -1
M  END