
          08180812482D 1   1.00000     0.00000     0

 41 44  0     0  0            999 V2000
   -4.2681   -0.7250    0.0000 C   0  0  0  0  0  0           0  0  0
   -4.2693   -1.5523    0.0000 C   0  0  0  0  0  0           0  0  0
   -3.5544   -1.9652    0.0000 C   0  0  0  0  0  0           0  0  0
   -3.5562   -0.3122    0.0000 C   0  0  0  0  0  0           0  0  0
   -2.8360   -1.5494    0.0000 C   0  0  0  0  0  0           0  0  0
   -2.8409   -0.7213    0.0000 C   0  0  0  0  0  0           0  0  0
   -2.1938   -0.1954    0.0000 N   0  0  3  0  0  0           0  0  0
   -2.1798   -2.0639    0.0000 N   0  0  3  0  0  0           0  0  0
   -1.3816   -0.3697    0.0000 C   0  0  0  0  0  0           0  0  0
   -1.3691   -1.8709    0.0000 C   0  0  0  0  0  0           0  0  0
   -1.0168   -1.1161    0.0000 N   0  0  3  0  0  0           0  0  0
   -0.8479   -2.5103    0.0000 O   0  0  0  0  0  0           0  0  0
   -0.8733    0.2801    0.0000 O   0  0  0  0  0  0           0  0  0
   -2.3863    0.6068    0.0000 C   0  0  0  0  0  0           0  0  0
   -1.7878    1.1746    0.0000 C   0  0  0  0  0  0           0  0  0
   -0.9968    0.9403    0.0000 O   0  0  0  0  0  0           0  0  0
   -0.1918   -1.1088    0.0000 C   0  0  0  0  0  0           0  0  0
    0.2143   -0.3906    0.0000 C   0  0  0  0  0  0           0  0  0
    1.0392   -0.3833    0.0000 N   0  0  0  0  0  0           0  0  0
   -0.2046    0.3201    0.0000 O   0  0  0  0  0  0           0  0  0
    1.4453    0.3349    0.0000 C   0  0  0  0  0  0           0  0  0
    2.2688    0.3399    0.0000 C   0  0  0  0  0  0           0  0  0
    2.6748    1.0572    0.0000 C   0  0  0  0  0  0           0  0  0
    2.2559    1.7689    0.0000 C   0  0  0  0  0  0           0  0  0
    1.4267    1.7589    0.0000 C   0  0  0  0  0  0           0  0  0
    1.0244    1.0411    0.0000 C   0  0  0  0  0  0           0  0  0
   -2.3556   -2.8700    0.0000 C   0  0  3  0  0  0           0  0  0
   -1.9803    1.9769    0.0000 C   0  0  3  0  0  0           0  0  0
   -2.2000    2.7792    0.0000 C   0  0  0  0  0  0           0  0  0
   -1.1812    2.1821    0.0000 C   0  0  0  0  0  0           0  0  0
   -2.7776    1.7648    0.0000 C   0  0  0  0  0  0           0  0  0
   -3.1392   -3.1196    0.0000 C   0  0  0  0  0  0           0  0  0
   -3.3161   -3.9217    0.0000 C   0  0  0  0  0  0           0  0  0
   -2.7086   -4.4803    0.0000 C   0  0  0  0  0  0           0  0  0
   -1.9211   -4.2312    0.0000 C   0  0  0  0  0  0           0  0  0
   -1.7412   -3.4233    0.0000 C   0  0  0  0  0  0           0  0  0
    3.4998    1.0642    0.0000 C   0  0  0  0  0  0           0  0  0
    3.9183    0.3532    0.0000 C   0  0  0  0  0  0           0  0  0
    4.7433    0.3602    0.0000 C   0  0  0  0  0  0           0  0  0
    5.1618   -0.3508    0.0000 O   0  0  0  0  0  0           0  0  0
    5.1497    1.0781    0.0000 O   0  0  0  0  0  0           0  0  0
 18 20  2  0     0  0
  8 10  1  0     0  0
 19 21  1  0     0  0
 21 22  2  0     0  0
  9 11  1  0     0  0
 22 23  1  0     0  0
 10 11  1  0     0  0
 23 24  2  0     0  0
  2  3  1  0     0  0
 24 25  1  0     0  0
 10 12  2  0     0  0
 25 26  2  0     0  0
 26 21  1  0     0  0
  5  6  1  0     0  0
  8 27  1  0     0  0
  9 13  2  0     0  0
 15 28  1  0     0  0
  3  5  2  0     0  0
 28 29  1  0     0  0
  7 14  1  0     0  0
 28 30  1  0     0  0
  6  7  1  0     0  0
 28 31  1  0     0  0
 27 32  1  0     0  0
 14 15  1  0     0  0
  1  2  2  0     0  0
 15 16  2  0     0  0
  5  8  1  0     0  0
 11 17  1  0     0  0
 27 36  1  0     0  0
 32 33  1  0     0  0
 33 34  1  0     0  0
 34 35  1  0     0  0
 35 36  1  0     0  0
  6  4  2  0     0  0
 23 37  1  0     0  0
 17 18  1  0     0  0
 37 38  1  0     0  0
  7  9  1  0     0  0
 38 39  1  0     0  0
 18 19  1  0     0  0
 39 40  1  0     0  0
  4  1  1  0     0  0
 39 41  2  0     0  0
M  END