
          11280715082D 1   1.00000     0.00000     0

 32 36  0     0  0            999 V2000
    7.2042   -4.1667    0.0000 S   0  0  3  0  0  0           0  0  0
    6.8500   -3.6875    0.0000 N   0  0  3  0  0  0           0  0  0
    7.2000   -3.1917    0.0000 C   0  0  0  0  0  0           0  0  0
    7.7750   -3.3792    0.0000 C   0  0  0  0  0  0           0  0  0
    7.7750   -3.9750    0.0000 C   0  0  0  0  0  0           0  0  0
    2.3375   -2.1125    0.0000 C   0  0  0  0  0  0           0  0  0
    3.2417   -2.6375    0.0000 N   0  0  3  0  0  0           0  0  0
    2.6375   -2.6292    0.0000 C   0  0  0  0  0  0           0  0  0
    7.5417   -4.7292    0.0000 O   0  0  0  0  0  0           0  0  0
    6.9042   -4.6917    0.0000 O   0  0  0  0  0  0           0  0  0
    4.4417   -2.6417    0.0000 N   0  0  3  0  0  0           0  0  0
    6.7667   -2.7667    0.0000 O   0  0  0  0  0  0           0  0  0
    1.7292   -2.1167    0.0000 C   0  0  0  0  0  0           0  0  0
    2.6292   -1.5875    0.0000 O   0  0  0  0  0  0           0  0  0
    3.5417   -2.1125    0.0000 C   0  0  0  0  0  0           0  0  0
    3.5417   -3.1625    0.0000 C   0  0  0  0  0  0           0  0  0
    1.4250   -1.6000    0.0000 O   0  0  0  0  0  0           0  0  0
    6.2417   -3.6875    0.0000 C   0  0  0  0  0  0           0  0  0
    4.1417   -2.1167    0.0000 C   0  0  0  0  0  0           0  0  0
    4.1417   -3.1625    0.0000 C   0  0  0  0  0  0           0  0  0
    8.2875   -3.0792    0.0000 C   0  0  0  0  0  0           0  0  0
    8.2917   -4.2667    0.0000 C   0  0  0  0  0  0           0  0  0
    2.3375   -3.1542    0.0000 C   0  0  0  0  0  0           0  0  0
    5.0417   -2.6417    0.0000 C   0  0  0  0  0  0           0  0  0
    1.7292   -3.1542    0.0000 C   0  0  0  0  0  0           0  0  0
    1.4292   -2.6375    0.0000 C   0  0  0  0  0  0           0  0  0
    2.3292   -1.0667    0.0000 C   0  0  0  0  0  0           0  0  0
    1.7250   -1.0667    0.0000 C   0  0  0  0  0  0           0  0  0
    5.9500   -3.1667    0.0000 C   0  0  0  0  0  0           0  0  0
    5.3417   -3.1667    0.0000 C   0  0  0  0  0  0           0  0  0
    8.8042   -3.3750    0.0000 C   0  0  0  0  0  0           0  0  0
    8.8125   -3.9750    0.0000 C   0  0  0  0  0  0           0  0  0
  2  1  1  0     0  0
  3  2  1  0     0  0
  4  5  2  0     0  0
  5  1  1  0     0  0
  6  8  2  0     0  0
  7 16  1  0     0  0
  8  7  1  0     0  0
  9  1  2  0     0  0
 10  1  2  0     0  0
 11 24  1  0     0  0
 12  3  2  0     0  0
 13  6  1  0     0  0
 14  6  1  0     0  0
 15 19  1  0     0  0
 16 20  1  0     0  0
 17 13  1  0     0  0
 18  2  1  0     0  0
 19 11  1  0     0  0
 20 11  1  0     0  0
 21  4  1  0     0  0
 22  5  1  0     0  0
 23  8  1  0     0  0
 24 30  1  0     0  0
 25 23  2  0     0  0
 26 25  1  0     0  0
 27 14  1  0     0  0
 28 27  1  0     0  0
 29 18  1  0     0  0
 30 29  1  0     0  0
 31 32  1  0     0  0
 32 22  2  0     0  0
  3  4  1  0     0  0
 31 21  2  0     0  0
  7 15  1  0     0  0
 26 13  2  0     0  0
 17 28  1  0     0  0
M  END