
  SciTegic12171312592D

 24 25  0  0  0  0            999 V2000
   25.5711  -27.2715    0.0000 C   0  0
   25.5711  -28.0870    0.0000 C   0  0
   26.2791  -28.4989    0.0000 C   0  0
   26.9871  -28.0870    0.0000 C   0  0
   26.9871  -27.2715    0.0000 C   0  0
   26.2791  -26.8596    0.0000 C   0  0
   27.6991  -28.4989    0.0000 C   0  0
   28.4071  -28.0870    0.0000 N   0  0
   28.4071  -27.2715    0.0000 C   0  0
   27.6991  -26.8596    0.0000 C   0  0
   27.6991  -29.3182    0.0000 Cl  0  0
   27.6991  -26.0403    0.0000 O   0  0
   29.1147  -26.8598    0.0000 C   0  0
   29.1147  -26.0405    0.0000 O   0  0
   29.8264  -27.2715    0.0000 N   0  0
   30.5340  -26.8598    0.0000 C   0  0  1  0  0  0
   31.2416  -27.2715    0.0000 C   0  0
   30.5339  -26.0406    0.0000 C   0  0
   31.9492  -26.8598    0.0000 O   0  0
   31.2416  -28.0866    0.0000 O   0  0
   31.2417  -25.6319    0.0000 C   0  0
   31.2418  -24.8148    0.0000 C   0  0
   31.9495  -24.4062    0.0000 O   0  0
   30.5341  -24.4061    0.0000 O   0  0
  1  2  2  0
  2  3  1  0
  3  4  2  0
  4  5  1  0
  5  6  2  0
  6  1  1  0
  4  7  1  0
  7  8  2  0
  8  9  1  0
  9 10  2  0
 10  5  1  0
  7 11  1  0
 10 12  1  0
  9 13  1  0
 13 14  2  0
 13 15  1  0
 15 16  1  0
 16 17  1  0
 16 18  1  6
 17 19  1  0
 17 20  2  0
 18 21  1  0
 21 22  1  0
 22 23  1  0
 22 24  2  0
M  END