
  SciTegic03291108512D

 12 13  0  0  0  0            999 V2000
   -2.3066   -0.0038    0.0000 S   0  0
    1.9314   -0.8288    0.0000 S   0  0
    0.5025    1.6462    0.0000 O   0  0
   -0.9966    0.6637    0.0000 N   0  0
   -0.9966   -0.6712    0.0000 N   0  0
    0.5025   -0.8288    0.0000 N   0  0
    1.2169    0.4087    0.0000 N   0  0
   -0.2120    0.4087    0.0000 C   0  0
   -0.2120   -0.4163    0.0000 C   0  0
    0.5025    0.8212    0.0000 C   0  0
   -1.4816   -0.0038    0.0000 C   0  0
    1.2169   -0.4163    0.0000 C   0  0
  1 11  1  0
  2 12  1  0
  3 10  1  0
  4  8  1  0
  4 11  2  0
  5  9  2  0
  5 11  1  0
  6  9  1  0
  6 12  2  0
  7 10  1  0
  7 12  1  0
  8  9  1  0
  8 10  2  0
M  END