
          11280714522D 1   1.00000     0.00000     0

 19 19  0     0  0            999 V2000
    5.9542   -1.9375    0.0000 C   0  0  0  0  0  0           0  0  0
    1.6667   -1.9542    0.0000 O   0  0  0  0  0  0           0  0  0
    0.9542   -2.3667    0.0000 C   0  0  0  0  0  0           0  0  0
    5.9542   -1.1125    0.0000 O   0  0  0  0  0  0           0  0  0
    0.9542   -3.2000    0.0000 C   0  0  0  0  0  0           0  0  0
    4.5292   -1.9417    0.0000 N   0  0  0  0  0  0           0  0  0
    2.3792   -2.3625    0.0000 C   0  0  0  0  0  0           0  0  0
    3.1000   -1.9500    0.0000 C   0  0  3  0  0  0           0  0  0
    6.6667   -2.3417    0.0000 O   0  0  0  0  0  0           0  0  0
    5.2417   -2.3542    0.0000 C   0  0  0  0  0  0           0  0  0
    3.0917   -1.1250    0.0000 O   0  0  0  0  0  0           0  0  0
    3.8167   -2.3542    0.0000 C   0  0  0  0  0  0           0  0  0
    0.2417   -1.9542    0.0000 C   0  0  0  0  0  0           0  0  0
    1.6750   -3.6125    0.0000 C   0  0  0  0  0  0           0  0  0
    0.2417   -3.6125    0.0000 C   0  0  0  0  0  0           0  0  0
    6.6750   -3.1667    0.0000 C   0  0  0  0  0  0           0  0  0
    7.3917   -3.5792    0.0000 C   0  0  0  0  0  0           0  0  0
   -0.4708   -3.2000    0.0000 C   0  0  0  0  0  0           0  0  0
   -0.4708   -2.3750    0.0000 C   0  0  0  0  0  0           0  0  0
  2  7  1  0     0  0
  3  2  1  0     0  0
  4  1  2  0     0  0
  5  3  1  0     0  0
  6 10  1  0     0  0
  7  8  1  0     0  0
  8 12  1  0     0  0
  9  1  1  0     0  0
 10  1  1  0     0  0
 11  8  1  0     0  0
 12  6  1  0     0  0
 13  3  2  0     0  0
 14  5  1  0     0  0
 15  5  2  0     0  0
 16  9  1  0     0  0
 17 16  1  0     0  0
 18 19  2  0     0  0
 19 13  1  0     0  0
 15 18  1  0     0  0
M  END