
  SciTegic10301317112D

 36 36  0  0  0  0            999 V2000
    2.3292   -3.2792    0.0000 S   0  0
    5.6250   -3.2667    0.0000 C   0  0
   11.8917  -10.9125    0.0000 C   0  0
    3.1542   -3.2792    0.0000 C   0  0
   13.1917   -7.3625    0.0000 C   0  0
   11.9667   -6.6250    0.0000 N   0  0
   11.1417   -6.6292    0.0000 C   0  0
    6.0417   -3.9792    0.0000 N   0  0
    2.3292   -4.1042    0.0000 O   0  0
    2.3292   -2.4542    0.0000 O   0  0
    7.2792   -4.6792    0.0000 C   0  0
    9.4167   -5.2542    0.0000 C   0  0
   12.3667   -7.3500    0.0000 C   0  0  1  0  0  0
   12.2917  -11.6292    0.0000 N   0  0
    4.8000   -3.2667    0.0000 C   0  0
    1.5042   -3.2750    0.0000 N   0  0
    9.9000   -5.9250    0.0000 N   0  0
    8.1042   -4.6792    0.0000 N   0  0
    6.0292   -2.5500    0.0000 O   0  0
   13.6167   -6.6542    0.0000 O   0  0
   10.7375   -7.3500    0.0000 O   0  0
    6.8750   -5.4000    0.0000 O   0  0
    9.7500   -4.5042    0.0000 O   0  0
    3.5542   -2.5667    0.0000 C   0  0
    3.5667   -3.9917    0.0000 C   0  0
    4.3917   -3.9875    0.0000 C   0  0
    4.3792   -2.5542    0.0000 C   0  0
   12.3167  -10.2042    0.0000 N   0  0
    6.8667   -3.9667    0.0000 C   0  0
   11.0667  -10.9000    0.0000 N   0  0
   10.7250   -5.9167    0.0000 C   0  0
    8.5917   -5.3417    0.0000 C   0  0
   13.5917   -8.0792    0.0000 O   0  0
   11.9417   -8.0542    0.0000 C   0  0
   11.9167   -9.4792    0.0000 C   0  0
   12.3417   -8.7750    0.0000 C   0  0
  2 15  1  0
  3 28  1  0
  4  1  1  0
  5 13  1  0
  6  7  1  0
  7 31  1  0
  8  2  1  0
  9  1  2  0
 10  1  2  0
 11 29  1  0
 12 32  1  0
 13  6  1  0
 14  3  2  0
 15 26  2  0
 16  1  1  0
 17 12  1  0
 18 11  1  0
 19  2  2  0
 20  5  2  0
 21  7  2  0
 22 11  2  0
 23 12  2  0
 24  4  1  0
 25  4  2  0
 26 25  1  0
 27 24  2  0
 28 35  1  0
 29  8  1  0
 30  3  1  0
 31 17  1  0
 32 18  1  0
 33  5  1  0
 13 34  1  6
 35 36  1  0
 36 34  1  0
 27 15  1  0
M  END