
  SciTegic06051313552D

 38 42  0  0  0  0            999 V2000
   12.4092   -3.6608    0.0000 C   0  0
   12.4080   -4.4804    0.0000 C   0  0
   13.1161   -4.8893    0.0000 C   0  0
   13.1143   -3.2520    0.0000 C   0  0
   14.6067   -3.4011    0.0000 C   0  0
   13.8229   -3.6572    0.0000 C   0  0
   13.8254   -4.4825    0.0000 C   0  0
   14.6118   -4.7338    0.0000 N   0  0
   15.0925   -4.0629    0.0000 N   0  0
   14.8687   -5.5095    0.0000 C   0  0
   14.4504   -6.2106    0.0000 C   0  0
   13.6356   -6.1960    0.0000 C   0  0
   13.2166   -6.8968    0.0000 C   0  0
   13.6148   -7.6114    0.0000 C   0  0
   14.4361   -7.6209    0.0000 C   0  0
   14.8514   -6.9196    0.0000 C   0  0
   14.8367   -8.3332    0.0000 C   0  0
   14.4202   -9.0363    0.0000 N   0  0
   14.8208   -9.7485    0.0000 C   0  0
   15.0283   -2.7011    0.0000 N   0  0
   15.8454   -2.7163    0.0000 S   0  0
   16.3320   -3.3727    0.0000 C   0  0
   15.8179   -1.8926    0.0000 O   0  0
   16.6268   -2.4732    0.0000 O   0  0
   16.0870   -4.1543    0.0000 C   0  0
   16.7532   -4.6291    0.0000 C   0  0
   17.4099   -4.1408    0.0000 C   0  0
   17.1473   -3.3660    0.0000 S   0  0
   18.1901   -4.3841    0.0000 Cl  0  0
   13.1076   -2.4389    0.0000 O   0  0
   12.3966   -2.0361    0.0000 C   0  0
   15.6380   -9.7577    0.0000 O   0  0
   14.4043  -10.4516    0.0000 C   0  0  1  0  0  0
   13.5878  -10.4402    0.0000 C   0  0
   13.1714  -11.1392    0.0000 O   0  0
   13.5685  -11.8538    0.0000 C   0  0
   14.3866  -11.8650    0.0000 C   0  0
   14.8076  -11.1615    0.0000 N   0  0
  1  2  2  0
  2  3  1  0
  3  7  2  0
  6  4  2  0
  4  1  1  0
  6  7  1  0
  5  6  1  0
  7  8  1  0
  8  9  1  0
  9  5  2  0
  8 10  1  0
 10 11  1  0
 11 12  2  0
 12 13  1  0
 13 14  2  0
 14 15  1  0
 15 16  2  0
 16 11  1  0
 15 17  1  0
 17 18  1  0
 18 19  1  0
  5 20  1  0
 20 21  1  0
 21 22  1  0
 21 23  2  0
 21 24  2  0
 25 26  1  0
 22 25  2  0
 26 27  2  0
 27 28  1  0
 28 22  1  0
 27 29  1  0
  4 30  1  0
 30 31  1  0
 19 32  2  0
 33 19  1  6
 33 34  1  0
 33 38  1  0
 34 35  1  0
 35 36  1  0
 36 37  1  0
 37 38  1  0
M  END