
  SciTegic06051313522D

 24 26  0  0  0  0            999 V2000
   12.5882   -1.5692    0.0000 S   0  0
   13.3017   -1.9836    0.0000 N   0  0
   13.2999   -2.8077    0.0000 C   0  0
   14.0166   -1.5739    0.0000 C   0  0
   14.7300   -1.9884    0.0000 C   0  0
   15.4450   -1.5787    0.0000 C   0  0
   15.4488   -0.7510    0.0000 C   0  0
   14.7355   -0.3366    0.0000 C   0  0
   14.0183   -0.7499    0.0000 N   0  0
   14.7283   -2.8124    0.0000 C   0  0
   14.0198   -3.2339    0.0000 N   0  0
   14.7183   -5.3089    0.0000 C   0  0
   14.7289   -4.4813    0.0000 C   0  0
   14.0190   -4.0610    0.0000 C   0  0
   13.2985   -4.4684    0.0000 C   0  0
   13.2900   -5.2924    0.0000 C   0  0
   14.0000   -5.7127    0.0000 N   0  0
   15.4991   -5.5708    0.0000 N   0  0
   15.5140   -4.2326    0.0000 C   0  0
   15.9918   -4.9083    0.0000 C   0  0
   11.8727   -1.9798    0.0000 C   0  0
   11.9996   -0.9791    0.0000 O   0  0
   12.9954   -0.8500    0.0000 O   0  0
   12.5880   -4.0491    0.0000 C   0  0
  1  2  1  0
  2  3  1  0
  4  5  1  0
  5  6  2  0
  6  7  1  0
  7  8  2  0
  8  9  1  0
  4  9  2  0
 12 13  1  0
 13 14  2  0
 14 15  1  0
 15 16  2  0
 16 17  1  0
 12 17  2  0
 19 20  2  0
 18 20  1  0
 12 18  1  0
 13 19  1  0
 11 14  1  0
 10 11  1  0
  5 10  1  0
  2  4  1  0
  1 21  1  0
  1 22  2  0
  1 23  2  0
 15 24  1  0
M  END