
          11280715312D 1   1.00000     0.00000     0

 15 16  0     0  0            999 V2000
    0.2417   -0.6500    0.0000 C   0  0  0  0  0  0           0  0  0
   -0.4708   -1.0625    0.0000 C   0  0  0  0  0  0           0  0  0
    2.3917   -1.8750    0.0000 N   0  0  0  0  0  0           0  0  0
    0.2375    0.1750    0.0000 O   0  0  0  0  0  0           0  0  0
    0.9625   -1.0625    0.0000 C   0  0  3  0  0  0           0  0  0
   -0.4708   -1.8875    0.0000 C   0  0  0  0  0  0           0  0  0
   -1.1833   -0.6500    0.0000 C   0  0  0  0  0  0           0  0  0
   -1.8958   -1.8875    0.0000 C   0  0  0  0  0  0           0  0  0
   -1.1875   -2.3042    0.0000 C   0  0  0  0  0  0           0  0  0
   -1.8958   -1.0625    0.0000 C   0  0  0  0  0  0           0  0  0
   -2.6125   -2.3000    0.0000 F   0  0  0  0  0  0           0  0  0
    2.3917   -1.0542    0.0000 C   0  0  0  0  0  0           0  0  0
    1.6792   -2.2917    0.0000 C   0  0  0  0  0  0           0  0  0
    0.9625   -1.8875    0.0000 C   0  0  0  0  0  0           0  0  0
    1.6667   -0.6417    0.0000 C   0  0  0  0  0  0           0  0  0
  2  1  1  0     0  0
  3 12  1  0     0  0
  4  1  2  0     0  0
  5  1  1  0     0  0
  6  2  1  0     0  0
  7  2  2  0     0  0
  8 10  2  0     0  0
  9  6  2  0     0  0
 10  7  1  0     0  0
 11  8  1  0     0  0
 12 15  1  0     0  0
 13 14  1  0     0  0
 14  5  1  0     0  0
 15  5  1  0     0  0
 13  3  1  0     0  0
  9  8  1  0     0  0
M  END