
  Mrv0541 04051115152D          

 26 29  0  0  0  0            999 V2000
   -0.2610   -3.2689    0.0000 O   0  0  0  0  0  0  0  0  0  0  0  0
    0.3468    0.7667    0.0000 N   0  0  0  0  0  0  0  0  0  0  0  0
   -0.3677    1.1792    0.0000 N   0  0  0  0  0  0  0  0  0  0  0  0
   -0.3677    2.0042    0.0000 C   0  0  0  0  0  0  0  0  0  0  0  0
    0.3468    2.4167    0.0000 C   0  0  0  0  0  0  0  0  0  0  0  0
    1.0613    2.0042    0.0000 C   0  0  0  0  0  0  0  0  0  0  0  0
    1.0613    1.1792    0.0000 C   0  0  0  0  0  0  0  0  0  0  0  0
   -1.1523    0.9242    0.0000 C   0  0  0  0  0  0  0  0  0  0  0  0
   -1.6372    1.5917    0.0000 N   0  0  0  0  0  0  0  0  0  0  0  0
   -1.1523    2.2591    0.0000 N   0  0  0  0  0  0  0  0  0  0  0  0
    1.7758    0.7667    0.0000 C   0  0  0  0  0  0  0  0  0  0  0  0
   -1.4072    0.1396    0.0000 C   0  0  0  0  0  0  0  0  0  0  0  0
   -0.8552   -0.4735    0.0000 C   0  0  0  0  0  0  0  0  0  0  0  0
   -1.1101   -1.2581    0.0000 C   0  0  0  0  0  0  0  0  0  0  0  0
   -1.9171   -1.4296    0.0000 C   0  0  0  0  0  0  0  0  0  0  0  0
   -2.4691   -0.8165    0.0000 C   0  0  0  0  0  0  0  0  0  0  0  0
   -2.2142   -0.0319    0.0000 C   0  0  0  0  0  0  0  0  0  0  0  0
    2.4902    1.1792    0.0000 C   0  0  0  0  0  0  0  0  0  0  0  0
    3.2047    0.7667    0.0000 C   0  0  0  0  0  0  0  0  0  0  0  0
    3.2047   -0.0583    0.0000 C   0  0  0  0  0  0  0  0  0  0  0  0
    2.4902   -0.4708    0.0000 C   0  0  0  0  0  0  0  0  0  0  0  0
    1.7758   -0.0583    0.0000 C   0  0  0  0  0  0  0  0  0  0  0  0
   -0.5581   -1.8712    0.0000 N   0  0  0  0  0  0  0  0  0  0  0  0
    0.2489   -1.6997    0.0000 C   0  0  0  0  0  0  0  0  0  0  0  0
   -0.8130   -2.6558    0.0000 C   0  0  0  0  0  0  0  0  0  0  0  0
   -1.6200   -2.8273    0.0000 C   0  0  0  0  0  0  0  0  0  0  0  0
 25  1  2  0  0  0  0
  2  3  1  0  0  0  0
  7  2  2  0  0  0  0
  4  3  1  0  0  0  0
  8  3  1  0  0  0  0
  4  5  1  0  0  0  0
  4 10  2  0  0  0  0
  5  6  2  0  0  0  0
  6  7  1  0  0  0  0
 11  7  1  0  0  0  0
  8  9  2  0  0  0  0
 12  8  1  0  0  0  0
  9 10  1  0  0  0  0
 11 18  2  0  0  0  0
 11 22  1  0  0  0  0
 12 13  2  0  0  0  0
 12 17  1  0  0  0  0
 13 14  1  0  0  0  0
 14 15  2  0  0  0  0
 14 23  1  0  0  0  0
 15 16  1  0  0  0  0
 16 17  2  0  0  0  0
 18 19  1  0  0  0  0
 19 20  2  0  0  0  0
 20 21  1  0  0  0  0
 21 22  2  0  0  0  0
 24 23  1  0  0  0  0
 25 23  1  0  0  0  0
 25 26  1  0  0  0  0
M  END