
  SciTegic05071317032D

 29 27  0  0  0  0            999 V2000
    8.1757  -14.4910    0.0000 N   0  0
    8.8916  -14.9040    0.0000 C   0  0
    9.6023  -14.4923    0.0000 C   0  0
    9.6035  -13.6670    0.0000 N   0  0
    8.8876  -13.2550    0.0000 C   0  0
    8.1706  -13.6683    0.0000 C   0  0
   10.3180  -13.2545    0.0000 C   0  0
   11.0324  -13.6670    0.0000 C   0  0
    0.3236  -14.9289    0.0000 C   0  0
    0.3224  -15.7564    0.0000 C   0  0
    1.0372  -16.1692    0.0000 C   0  0
    1.7537  -15.7559    0.0000 C   0  0
    1.7508  -14.9253    0.0000 C   0  0
    1.0354  -14.5162    0.0000 C   0  0
    2.4637  -14.5102    0.0000 O   0  0
    3.1797  -14.9200    0.0000 C   0  0
    3.8926  -14.5047    0.0000 C   0  0
    4.6087  -14.9146    0.0000 C   0  0
    5.3215  -14.4994    0.0000 C   0  0
    6.0376  -14.9092    0.0000 C   0  0
    6.7504  -14.4940    0.0000 C   0  0
    7.4665  -14.9038    0.0000 C   0  0
   11.0324  -14.4920    0.0000 C   0  0
   11.7469  -14.9045    0.0000 C   0  0
   12.4613  -14.4920    0.0000 C   0  0
   12.4613  -13.6670    0.0000 N   0  0
    7.0484  -16.4915    0.0000 Cl  0  0
    8.8688  -16.2938    0.0000 Cl  0  0
    8.3089  -17.5312    0.0000 Cl  0  0
  1  2  1  0
  1  6  1  0
  2  3  1  0
  3  4  1  0
  4  5  1  0
  5  6  1  0
  4  7  1  0
  7  8  1  0
  9 10  2  0
 10 11  1  0
 11 12  2  0
 12 13  1  0
 13 14  2  0
 14  9  1  0
 13 15  1  0
 15 16  1  0
 16 17  1  0
 17 18  1  0
 18 19  1  0
 19 20  1  0
 20 21  1  0
 21 22  1  0
 22  1  1  0
  8 23  1  0
 23 24  1  0
 24 25  1  0
 25 26  1  0
M  END