
          11280715132D 1   1.00000     0.00000     0

 43 47  0     1  0            999 V2000
   -0.1333   -3.7000    0.0000 C   0  0  2  0  0  0           0  0  0
    0.1500   -0.4375    0.0000 C   0  0  0  0  0  0           0  0  0
   -0.1583   -1.8292    0.0000 N   0  0  3  0  0  0           0  0  0
    0.2750   -4.4125    0.0000 C   0  0  1  0  0  0           0  0  0
   -0.7958   -3.1875    0.0000 C   0  0  0  0  0  0           0  0  0
    1.2542    0.7833    0.0000 C   0  0  0  0  0  0           0  0  0
    0.4417    0.9583    0.0000 C   0  0  0  0  0  0           0  0  0
    1.5042   -0.0042    0.0000 C   0  0  0  0  0  0           0  0  0
   -0.1083    0.3458    0.0000 C   0  0  0  0  0  0           0  0  0
    0.9542   -0.6125    0.0000 C   0  0  0  0  0  0           0  0  0
   -0.7958   -2.3542    0.0000 C   0  0  0  0  0  0           0  0  0
    0.0667   -5.9167    0.0000 C   0  0  0  0  0  0           0  0  0
    0.6750   -3.5042    0.0000 N   0  0  0  0  0  0           0  0  0
   -0.4083   -1.0417    0.0000 C   0  0  0  0  0  0           0  0  0
    0.6542   -2.0125    0.0000 C   0  0  0  0  0  0           0  0  0
    1.0667   -4.6250    0.0000 C   0  0  0  0  0  0           0  0  0
   -0.1458   -5.1250    0.0000 O   0  0  0  0  0  0           0  0  0
   -0.5208   -6.5000    0.0000 N   0  0  0  0  0  0           0  0  0
    0.8542   -6.1292    0.0000 N   0  0  0  0  0  0           0  0  0
    1.0292   -2.7542    0.0000 C   0  0  0  0  0  0           0  0  0
   -0.7250   -4.2792    0.0000 C   0  0  0  0  0  0           0  0  0
    1.0750   -6.9167    0.0000 C   0  0  0  0  0  0           0  0  0
   -0.3083   -7.2917    0.0000 C   0  0  0  0  0  0           0  0  0
    0.4917   -7.5042    0.0000 C   0  0  0  0  0  0           0  0  0
    1.2042   -1.6167    0.0000 O   0  0  0  0  0  0           0  0  0
    1.2792   -5.4167    0.0000 O   0  0  0  0  0  0           0  0  0
    1.8042    1.3958    0.0000 F   0  0  0  0  0  0           0  0  0
    2.3125   -0.1792    0.0000 F   0  0  0  0  0  0           0  0  0
    0.1875    1.7458    0.0000 F   0  0  0  0  0  0           0  0  0
   -0.9125    0.5208    0.0000 F   0  0  0  0  0  0           0  0  0
    1.0167   -1.0250    0.0000 F   0  0  0  0  0  0           0  0  0
    1.8625   -4.4042    0.0000 O   0  0  0  0  0  0           0  0  0
   -1.5083   -3.6000    0.0000 C   0  0  0  0  0  0           0  0  0
   -1.5083   -1.9417    0.0000 C   0  0  0  0  0  0           0  0  0
   -1.5208   -4.0542    0.0000 C   0  0  0  0  0  0           0  0  0
   -0.5125   -5.0792    0.0000 C   0  0  0  0  0  0           0  0  0
    1.8667   -7.1292    0.0000 C   0  0  0  0  0  0           0  0  0
   -0.8875   -7.8792    0.0000 C   0  0  0  0  0  0           0  0  0
   -2.2208   -3.1875    0.0000 C   0  0  0  0  0  0           0  0  0
   -2.2208   -2.3625    0.0000 C   0  0  0  0  0  0           0  0  0
   -1.1083   -5.6542    0.0000 C   0  0  0  0  0  0           0  0  0
   -2.1083   -4.6292    0.0000 C   0  0  0  0  0  0           0  0  0
   -1.9083   -5.4292    0.0000 C   0  0  0  0  0  0           0  0  0
  2 14  1  0     0  0
  3 11  1  0     0  0
  4  1  1  0     0  0
  5  1  1  0     0  0
  6  8  2  0     0  0
  7  9  2  0     0  0
  8 10  1  0     0  0
  9  2  1  0     0  0
 10  2  2  0     0  0
 11  5  1  0     0  0
 12 17  1  0     0  0
 13  1  1  0     0  0
 14  3  1  0     0  0
 15 20  1  0     0  0
 16  4  1  0     0  0
  4 17  1  1     0  0
 18 12  2  0     0  0
 19 12  1  0     0  0
 20 13  1  0     0  0
  1 21  1  1     0  0
 22 19  2  0     0  0
 23 18  1  0     0  0
 24 22  1  0     0  0
 25 15  2  0     0  0
 26 16  2  0     0  0
 27  6  1  0     0  0
 28  8  1  0     0  0
 29  7  1  0     0  0
 30  9  1  0     0  0
 31 10  1  0     0  0
 32 16  1  0     0  0
 33  5  2  0     0  0
 34 11  2  0     0  0
 35 21  2  0     0  0
 36 21  1  0     0  0
 37 22  1  0     0  0
 38 23  1  0     0  0
 39 33  1  0     0  0
 40 39  2  0     0  0
 41 36  2  0     0  0
 42 35  1  0     0  0
 43 41  1  0     0  0
  3 15  1  0     0  0
 42 43  2  0     0  0
 34 40  1  0     0  0
 23 24  2  0     0  0
  7  6  1  0     0  0
M  END