
          11280715472D 1   1.00000     0.00000     0

 23 25  0     0  0            999 V2000
    1.7375    2.4375    0.0000 N   0  0  3  0  0  0           0  0  0
   -1.1208   -2.5042    0.0000 N   0  0  3  0  0  0           0  0  0
    1.0167    2.8500    0.0000 C   0  0  0  0  0  0           0  0  0
    1.7375    1.6125    0.0000 C   0  0  0  0  0  0           0  0  0
    0.3042    2.4375    0.0000 C   0  0  0  0  0  0           0  0  0
    1.0167    1.2000    0.0000 C   0  0  0  0  0  0           0  0  0
   -0.4000   -2.1000    0.0000 C   0  0  0  0  0  0           0  0  0
   -0.4083    1.2083    0.0000 O   0  0  0  0  0  0           0  0  0
    2.4417    2.8500    0.0000 C   0  0  3  0  0  0           0  0  0
    0.3042    1.6208    0.0000 C   0  0  3  0  0  0           0  0  0
   -0.4000    0.3833    0.0000 C   0  0  0  0  0  0           0  0  0
   -0.4000   -1.2750    0.0000 C   0  0  0  0  0  0           0  0  0
   -1.1208   -0.0292    0.0000 C   0  0  0  0  0  0           0  0  0
    0.3042   -0.0292    0.0000 C   0  0  0  0  0  0           0  0  0
    0.3042   -0.8625    0.0000 C   0  0  0  0  0  0           0  0  0
   -1.1208   -0.8625    0.0000 C   0  0  0  0  0  0           0  0  0
   -1.1208   -3.3375    0.0000 C   0  0  0  0  0  0           0  0  0
   -1.8333   -2.0917    0.0000 C   0  0  0  0  0  0           0  0  0
    2.4417    3.6750    0.0000 C   0  0  0  0  0  0           0  0  0
    3.1667    2.4333    0.0000 C   0  0  0  0  0  0           0  0  0
   -1.8458   -3.7500    0.0000 C   0  0  0  0  0  0           0  0  0
   -2.5583   -2.5042    0.0000 C   0  0  0  0  0  0           0  0  0
   -2.5583   -3.3292    0.0000 C   0  0  0  0  0  0           0  0  0
  2  7  1  0     0  0
  3  1  1  0     0  0
  4  1  1  0     0  0
  5  3  1  0     0  0
  6  4  1  0     0  0
  7 12  1  0     0  0
  8 10  1  0     0  0
  9  1  1  0     0  0
 10  6  1  0     0  0
 11  8  1  0     0  0
 12 15  2  0     0  0
 13 11  1  0     0  0
 14 11  2  0     0  0
 15 14  1  0     0  0
 16 13  2  0     0  0
 17  2  1  0     0  0
 18  2  1  0     0  0
 19  9  1  0     0  0
 20  9  1  0     0  0
 21 17  1  0     0  0
 22 18  1  0     0  0
 23 22  1  0     0  0
  5 10  1  0     0  0
 12 16  1  0     0  0
 23 21  1  0     0  0
M  END