
  SciTegic02271514372D

 90 92  0  0  0  0            999 V2000
   -9.9186    2.2352    0.0000 C   0  0
   -9.5061    1.5207    0.0000 C   0  0
   -9.9186    0.8062    0.0000 C   0  0  2  0  0  0
   -9.5061    0.0918    0.0000 N   0  0
   -8.6811    0.0918    0.0000 C   0  0
   -8.2686   -0.6227    0.0000 N   0  0
   -7.4436   -0.6227    0.0000 C   0  0  1  0  0  0
   -7.0311   -1.3372    0.0000 C   0  0
   -6.2061   -1.3372    0.0000 C   0  0
   -5.7936   -0.6227    0.0000 C   0  0
   -4.9686   -0.6227    0.0000 C   0  0
   -4.5561   -1.3372    0.0000 N   0  0
   -3.7311   -1.3372    0.0000 C   0  0
   -3.3186   -2.0517    0.0000 C   0  0
   -2.4936   -2.0517    0.0000 C   0  0
   -2.0811   -2.7661    0.0000 C   0  0
   -1.2561   -2.7661    0.0000 O   0  0
   -0.8436   -3.4806    0.0000 C   0  0
   -0.0186   -3.4806    0.0000 C   0  0
    0.3939   -4.1951    0.0000 O   0  0
    1.2189   -4.1951    0.0000 C   0  0
    1.6314   -4.9095    0.0000 C   0  0
    2.4564   -4.9095    0.0000 O   0  0
    2.8689   -5.6240    0.0000 C   0  0
    3.6939   -5.6240    0.0000 C   0  0
    4.1064   -6.3385    0.0000 O   0  0
    4.9314   -6.3385    0.0000 C   0  0
    5.3439   -7.0530    0.0000 C   0  0
    6.1689   -7.0530    0.0000 O   0  0
    6.5814   -7.7674    0.0000 C   0  0
    7.4064   -7.7674    0.0000 C   0  0
    7.8189   -8.4819    0.0000 O   0  0
    8.6439   -8.4819    0.0000 C   0  0
    9.0564   -9.1964    0.0000 C   0  0
    9.8814   -9.1964    0.0000 O   0  0
   10.2939   -9.9108    0.0000 C   0  0
   11.1189   -9.9108    0.0000 C   0  0
   11.5314  -10.6253    0.0000 O   0  0
   12.3564  -10.6253    0.0000 C   0  0
   12.7689  -11.3398    0.0000 C   0  0
   13.5939  -11.3398    0.0000 O   0  0
   14.0064  -12.0543    0.0000 C   0  0
   14.8314  -12.0543    0.0000 C   0  0
   15.2439  -12.7687    0.0000 O   0  0
   16.0689  -12.7687    0.0000 C   0  0
   16.4814  -13.4832    0.0000 C   0  0
   17.3064  -13.4832    0.0000 O   0  0
   17.7189  -14.1977    0.0000 C   0  0
   18.5439  -14.1977    0.0000 C   0  0
   18.9564  -14.9121    0.0000 O   0  0
   19.7814  -14.9121    0.0000 C   0  0
   20.1939  -15.6266    0.0000 C   0  0
   21.0189  -15.6266    0.0000 N   0  0
   21.4314  -14.9121    0.0000 C   0  0
   22.2552  -14.9553    0.0000 C   0  0
   22.7046  -14.2634    0.0000 C   0  0
   23.5284  -14.3066    0.0000 C   0  0
   23.9778  -13.6147    0.0000 C   0  0
   24.8016  -13.6579    0.0000 C   0  0
   -9.5061    2.9496    0.0000 C   0  0
   -8.6811    2.9496    0.0000 O   0  0
   -9.9186    3.6641    0.0000 O   0  0
  -10.7436    0.8062    0.0000 C   0  0
  -11.1561    0.0918    0.0000 O   0  0
  -11.1561    1.5207    0.0000 O   0  0
   -7.0311    0.0918    0.0000 C   0  0
   -6.2061    0.0918    0.0000 O   0  0
   -7.4436    0.8062    0.0000 O   0  0
   27.4079  -12.8529    0.0000 C   0  0
   27.1122  -12.0827    0.0000 N   0  0
   26.2883  -12.1259    0.0000 C   0  0  1  0  0  0
   26.0748  -12.9228    0.0000 C   0  0  1  0  0  0
   26.7667  -13.3721    0.0000 N   0  0
   25.5964  -11.6766    0.0000 C   0  0
   25.2510  -12.9660    0.0000 C   0  0  2  0  0  0
   24.9553  -12.1958    0.0000 S   0  0
   28.2048  -13.0664    0.0000 O   0  0
   21.0189  -14.1977    0.0000 O   0  0
   -3.3186   -0.6227    0.0000 O   0  0
   -8.2686    0.8062    0.0000 O   0  0
   -4.9686   -2.0517    0.0000 C   0  0
   -4.5561   -2.7661    0.0000 C   0  0
   -4.9686   -3.4806    0.0000 C   0  0
   -4.5561   -4.1951    0.0000 C   0  0
   -3.7311   -4.1951    0.0000 C   0  0
   -3.3186   -3.4806    0.0000 C   0  0
   -3.7311   -2.7661    0.0000 C   0  0
   -3.3186   -4.9095    0.0000 Br  0  0
   25.8613  -13.7197    0.0000 H   0  0
   26.5019  -11.3290    0.0000 H   0  0
  1  2  1  0
  2  3  1  0
  3  4  1  6
  4  5  1  0
  5  6  1  0
  7  6  1  6
  7  8  1  0
  8  9  1  0
  9 10  1  0
 10 11  1  0
 11 12  1  0
 12 13  1  0
 13 14  1  0
 14 15  1  0
 15 16  1  0
 16 17  1  0
 17 18  1  0
 18 19  1  0
 19 20  1  0
 20 21  1  0
 21 22  1  0
 22 23  1  0
 23 24  1  0
 24 25  1  0
 25 26  1  0
 26 27  1  0
 27 28  1  0
 28 29  1  0
 29 30  1  0
 30 31  1  0
 31 32  1  0
 32 33  1  0
 33 34  1  0
 34 35  1  0
 35 36  1  0
 36 37  1  0
 37 38  1  0
 38 39  1  0
 39 40  1  0
 40 41  1  0
 41 42  1  0
 42 43  1  0
 43 44  1  0
 44 45  1  0
 45 46  1  0
 46 47  1  0
 47 48  1  0
 48 49  1  0
 49 50  1  0
 50 51  1  0
 51 52  1  0
 52 53  1  0
 53 54  1  0
 54 55  1  0
 55 56  1  0
 56 57  1  0
 57 58  1  0
 58 59  1  0
 60 61  2  0
 60 62  1  0
  1 60  1  0
 63 64  2  0
 63 65  1  0
  3 63  1  0
 66 67  2  0
 66 68  1  0
  7 66  1  0
 69 70  1  0
 70 71  1  0
 71 72  1  0
 72 73  1  0
 69 73  1  0
 75 76  1  0
 74 76  1  0
 71 74  1  0
 72 75  1  0
 69 77  2  0
 75 59  1  1
 54 78  2  0
 13 79  2  0
  5 80  2  0
 81 82  1  0
 82 83  1  0
 83 84  2  0
 84 85  1  0
 85 86  2  0
 86 87  1  0
 82 87  2  0
 85 88  1  0
 12 81  1  0
 72 89  1  6
 71 90  1  6
M  END