
  SciTegic09291413392D

 30 31  0  0  0  0            999 V2000
    7.7373  -21.1872    0.0000 O   0  0
    7.0655  -21.6727    0.0000 C   0  0
    7.3207  -22.4622    0.0000 C   0  0
    8.1498  -22.4622    0.0000 C   0  0
    8.4067  -21.6739    0.0000 C   0  0
    9.1914  -21.4194    0.0000 O   0  0
    8.6345  -23.1298    0.0000 C   0  0
    6.6457  -20.9538    0.0000 C   0  0
    6.6409  -22.3795    0.0000 C   0  0
    5.8161  -22.3653    0.0000 O   0  0
    5.8207  -20.9561    0.0000 O   0  0
    5.4064  -20.2427    0.0000 C   0  0
    4.5814  -20.2448    0.0000 C   0  0
    5.8170  -19.5272    0.0000 O   0  0
    8.2091  -23.8369    0.0000 C   0  0
    7.3836  -23.8204    0.0000 C   0  0
    6.9584  -24.5265    0.0000 C   0  0
    7.3579  -25.2492    0.0000 C   0  0
    8.1871  -25.2616    0.0000 C   0  0
    8.6086  -24.5549    0.0000 C   0  0
    4.1670  -19.5315    0.0000 C   0  0
    3.3420  -19.5336    0.0000 C   0  0
    4.5777  -18.8159    0.0000 C   0  0
    2.9277  -18.8203    0.0000 C   0  0
    2.9314  -20.2492    0.0000 C   0  0
    5.4026  -18.8137    0.0000 C   0  0
    4.1632  -18.1026    0.0000 C   0  0
    6.9335  -25.9567    0.0000 C   0  0
    6.1086  -25.9430    0.0000 O   0  0
    7.3340  -26.6780    0.0000 O   0  0
  2  3  1  0
  1  2  1  0
  3  4  1  0
  4  5  1  0
  5  1  1  0
  5  6  2  0
  4  7  2  0
  2  8  1  0
  2  9  1  0
  9 10  1  0
  8 11  1  0
 11 12  1  0
 12 13  1  0
 12 14  2  0
  7 15  1  0
 15 16  2  0
 16 17  1  0
 17 18  2  0
 18 19  1  0
 19 20  2  0
 20 15  1  0
 13 21  1  0
 21 22  1  0
 21 23  1  0
 22 24  1  0
 22 25  1  0
 23 26  1  0
 23 27  1  0
 18 28  1  0
 28 29  2  0
 28 30  1  0
M  END