
  Mrv0541 04051115152D          

 22 23  0  0  0  0            999 V2000
    0.8324   -3.1560    0.0000 N   0  0  0  0  0  0  0  0  0  0  0  0
    1.5469   -2.7435    0.0000 C   0  0  0  0  0  0  0  0  0  0  0  0
    1.5469   -1.9185    0.0000 N   0  0  0  0  0  0  0  0  0  0  0  0
    0.8324   -1.5060    0.0000 C   0  0  0  0  0  0  0  0  0  0  0  0
    0.1179   -1.9185    0.0000 C   0  0  0  0  0  0  0  0  0  0  0  0
    0.1179   -2.7435    0.0000 C   0  0  0  0  0  0  0  0  0  0  0  0
    0.8324   -0.6810    0.0000 N   0  0  0  0  0  0  0  0  0  0  0  0
    0.1179    0.5565    0.0000 C   0  0  0  0  0  0  0  0  0  0  0  0
   -0.5965    0.9690    0.0000 C   0  0  0  0  0  0  0  0  0  0  0  0
   -0.5965    1.7940    0.0000 C   0  0  0  0  0  0  0  0  0  0  0  0
    0.1179    2.2065    0.0000 C   0  0  0  0  0  0  0  0  0  0  0  0
    0.8324    1.7940    0.0000 C   0  0  0  0  0  0  0  0  0  0  0  0
    0.8324    0.9690    0.0000 C   0  0  0  0  0  0  0  0  0  0  0  0
    0.1179    3.0315    0.0000 S   0  0  0  0  0  0  0  0  0  0  0  0
    0.1179    3.8565    0.0000 O   0  0  0  0  0  0  0  0  0  0  0  0
    0.9429    3.0315    0.0000 O   0  0  0  0  0  0  0  0  0  0  0  0
   -0.7071    3.0315    0.0000 N   0  0  0  0  0  0  0  0  0  0  0  0
   -0.5965   -1.5060    0.0000 N   0  3  0  0  0  0  0  0  0  0  0  0
   -1.3110   -1.9185    0.0000 O   0  5  0  0  0  0  0  0  0  0  0  0
   -0.5965   -0.6810    0.0000 O   0  0  0  0  0  0  0  0  0  0  0  0
   -0.5965   -3.1560    0.0000 O   0  0  0  0  0  0  0  0  0  0  0  0
    0.1179   -0.2685    0.0000 C   0  0  0  0  0  0  0  0  0  0  0  0
  2  1  1  0  0  0  0
  6  1  1  0  0  0  0
  2  3  2  0  0  0  0
  4  3  1  0  0  0  0
  4  5  2  0  0  0  0
  4  7  1  0  0  0  0
  5  6  1  0  0  0  0
  5 18  1  0  0  0  0
  6 21  2  0  0  0  0
 22  7  1  0  0  0  0
  8  9  2  0  0  0  0
 13  8  1  0  0  0  0
 22  8  1  0  0  0  0
 10  9  1  0  0  0  0
 10 11  2  0  0  0  0
 11 12  1  0  0  0  0
 11 14  1  0  0  0  0
 12 13  2  0  0  0  0
 15 14  2  0  0  0  0
 16 14  2  0  0  0  0
 17 14  1  0  0  0  0
 18 19  1  0  0  0  0
 18 20  2  0  0  0  0
M  CHG  2  18   1  19  -1
M  END