
  SciTegic01161211252D

 31 35  0  0  0  0            999 V2000
   -2.2224   -0.8505    0.0000 C   0  0
   -1.5119   -1.2698    0.0000 C   0  0
   -0.7935   -0.8641    0.0000 C   0  0
   -0.0830   -1.2834    0.0000 C   0  0
   -0.0909   -2.1083    0.0000 C   0  0
   -0.8092   -2.5140    0.0000 C   0  0
   -1.5197   -2.0947    0.0000 C   0  0
   -2.2145   -0.0255    0.0000 O   0  0
   -2.9408   -1.2561    0.0000 N   0  0
    0.6196   -2.5276    0.0000 C   0  0
    2.0721   -0.0663    0.0000 C   0  0
    2.0642   -0.8913    0.0000 C   0  0
    1.3459   -1.2970    0.0000 C   0  0
    0.6354   -0.8777    0.0000 C   0  0
    0.6432   -0.0527    0.0000 C   0  0
    1.3616    0.3530    0.0000 N   0  0
    3.3376   -0.4909    0.0000 N   0  0
    2.8591    0.1811    0.0000 N   0  0
    2.8464   -1.1537    0.0000 C   0  0
   -0.0673    0.3666    0.0000 O   0  0
    1.3694    1.1779    0.0000 C   0  0
    3.1215    0.9633    0.0000 C   0  0
    3.9301    1.1271    0.0000 C   0  0
    4.1925    1.9093    0.0000 C   0  0
    3.6463    2.5276    0.0000 C   0  0
    2.8377    2.3638    0.0000 C   0  0
    2.5753    1.5816    0.0000 C   0  0
    4.4762    0.5088    0.0000 F   0  0
   -3.6513   -0.8369    0.0000 C   0  0
   -4.4762   -0.8290    0.0000 C   0  0
   -4.0570   -0.1185    0.0000 C   0  0
  1  2  1  0
  2  3  1  0
  3  4  2  0
  4  5  1  0
  5  6  2  0
  6  7  1  0
  2  7  2  0
  1  8  2  0
  1  9  1  0
  5 10  1  0
 11 12  2  0
 12 13  1  0
 13 14  2  0
 14 15  1  0
 15 16  1  0
 11 16  1  0
 17 18  1  0
 17 19  2  0
 11 18  1  0
 12 19  1  0
 15 20  2  0
 16 21  1  0
 22 23  1  0
 23 24  2  0
 24 25  1  0
 25 26  2  0
 26 27  1  0
 22 27  2  0
 23 28  1  0
 18 22  1  0
  4 14  1  0
 29 30  1  0
 30 31  1  0
 29 31  1  0
  9 29  1  0
M  END