
          11280715062D 1   1.00000     0.00000     0

 32 36  0     0  0            999 V2000
   10.2292   -5.0917    0.0000 C   0  0  0  0  0  0           0  0  0
   10.2417   -4.2750    0.0000 C   0  0  0  0  0  0           0  0  0
    9.5292   -3.8542    0.0000 C   0  0  0  0  0  0           0  0  0
   11.0125   -5.3542    0.0000 N   0  0  0  0  0  0           0  0  0
   11.5000   -4.6917    0.0000 N   0  0  0  0  0  0           0  0  0
    9.5167   -5.5042    0.0000 O   0  0  0  0  0  0           0  0  0
    8.8167   -4.2667    0.0000 C   0  0  0  0  0  0           0  0  0
    8.8125   -5.0875    0.0000 C   0  0  0  0  0  0           0  0  0
   11.0167   -4.0292    0.0000 N   0  0  0  0  0  0           0  0  0
    2.4417   -6.5250    0.0000 N   0  0  3  0  0  0           0  0  0
    8.1000   -5.5000    0.0000 C   0  0  0  0  0  0           0  0  0
    8.1000   -3.8500    0.0000 C   0  0  0  0  0  0           0  0  0
    4.0917   -6.5250    0.0000 N   0  0  3  0  0  0           0  0  0
    9.5375   -3.0292    0.0000 O   0  0  0  0  0  0           0  0  0
    1.6167   -6.5250    0.0000 C   0  0  0  0  0  0           0  0  0
    7.3875   -5.0792    0.0000 C   0  0  0  0  0  0           0  0  0
    2.8625   -7.2375    0.0000 C   0  0  0  0  0  0           0  0  0
    2.8625   -5.8042    0.0000 C   0  0  0  0  0  0           0  0  0
    3.6875   -5.8042    0.0000 C   0  0  0  0  0  0           0  0  0
    3.6875   -7.2375    0.0000 C   0  0  0  0  0  0           0  0  0
    7.3875   -4.2542    0.0000 C   0  0  0  0  0  0           0  0  0
    1.2042   -5.8125    0.0000 C   0  0  0  0  0  0           0  0  0
    0.3792   -4.3792    0.0000 C   0  0  0  0  0  0           0  0  0
   -0.0333   -3.6667    0.0000 Cl  0  0  0  0  0  0           0  0  0
   -0.0333   -5.1042    0.0000 C   0  0  0  0  0  0           0  0  0
    1.2042   -4.3792    0.0000 C   0  0  0  0  0  0           0  0  0
    0.3875   -5.8167    0.0000 C   0  0  0  0  0  0           0  0  0
    1.6167   -5.1000    0.0000 C   0  0  0  0  0  0           0  0  0
    4.9167   -6.5250    0.0000 C   0  0  0  0  0  0           0  0  0
    5.3292   -5.8125    0.0000 C   0  0  0  0  0  0           0  0  0
    6.5667   -5.0917    0.0000 O   0  0  0  0  0  0           0  0  0
    6.1542   -5.8125    0.0000 C   0  0  0  0  0  0           0  0  0
  2  1  1  0     0  0
  3  2  2  0     0  0
  4  1  2  0     0  0
  5  4  1  0     0  0
  6  1  1  0     0  0
  7  8  2  0     0  0
  8  6  1  0     0  0
  9  2  1  0     0  0
 10 17  1  0     0  0
 11  8  1  0     0  0
 12  7  1  0     0  0
 13 29  1  0     0  0
 14  3  1  0     0  0
 15 10  1  0     0  0
 16 11  2  0     0  0
 17 20  1  0     0  0
 18 19  1  0     0  0
 19 13  1  0     0  0
 20 13  1  0     0  0
 21 16  1  0     0  0
 22 15  1  0     0  0
 23 26  2  0     0  0
 24 23  1  0     0  0
 25 27  2  0     0  0
 26 28  1  0     0  0
 27 22  1  0     0  0
 28 22  2  0     0  0
 29 30  1  0     0  0
 30 32  1  0     0  0
 31 16  1  0     0  0
 32 31  1  0     0  0
  5  9  2  0     0  0
  3  7  1  0     0  0
 21 12  2  0     0  0
 18 10  1  0     0  0
 25 23  1  0     0  0
M  END