
  SciTegic05061409282D

 32 36  0  0  0  0            999 V2000
   11.4114  -16.1358    0.0000 N   0  0
   10.7035  -16.5465    0.0000 C   0  0
   10.7058  -17.3636    0.0000 C   0  0
   11.4161  -17.7702    0.0000 C   0  0
   12.1199  -17.3596    0.0000 C   0  0
   12.8302  -17.7661    0.0000 C   0  0
   13.5339  -17.3555    0.0000 N   0  0
   13.5316  -16.5383    0.0000 C   0  0
   12.8254  -16.1317    0.0000 C   0  0
   12.1175  -16.5424    0.0000 C   0  0
   12.8231  -15.3145    0.0000 C   0  0
   13.5269  -14.9039    0.0000 C   0  0
   14.2371  -15.3105    0.0000 C   0  0
   14.2395  -16.1277    0.0000 C   0  0
   13.5245  -14.0867    0.0000 C   0  0
   14.2324  -13.6761    0.0000 N   0  0
   12.8325  -18.5833    0.0000 C   0  0
   12.1246  -18.9939    0.0000 C   0  0
   12.1270  -19.8111    0.0000 C   0  0
   12.8372  -20.2177    0.0000 C   0  0
   13.5410  -19.8070    0.0000 C   0  0
   13.5386  -18.9899    0.0000 C   0  0
   12.8396  -21.0349    0.0000 Cl  0  0
   11.4090  -15.3186    0.0000 C   0  0
   10.6988  -14.9121    0.0000 C   0  0
   10.6964  -14.0949    0.0000 C   0  0
    9.9861  -13.6883    0.0000 C   0  0
    9.2782  -14.0990    0.0000 C   0  0
    9.2806  -14.9162    0.0000 C   0  0
    9.9909  -15.3227    0.0000 C   0  0
   14.2301  -12.8589    0.0000 C   0  0
   14.9380  -12.4483    0.0000 C   0  0
  1  2  1  0
  2  3  1  0
  3  4  1  0
  4  5  1  0
  5  6  1  0
  6  7  2  0
  7  8  1  0
  8  9  1  0
  9 10  1  0
  1 10  1  0
  5 10  2  0
 11 12  1  0
 12 13  2  0
 13 14  1  0
  8 14  2  0
  9 11  2  0
 15 16  1  0
 12 15  1  0
 17 18  1  0
 18 19  2  0
 19 20  1  0
 20 21  2  0
 21 22  1  0
 17 22  2  0
 20 23  1  0
  6 17  1  0
 24 25  1  0
 25 26  1  0
 26 27  2  0
 27 28  1  0
 28 29  2  0
 29 30  1  0
 25 30  2  0
  1 24  1  0
 31 32  1  0
 16 31  1  0
M  END