
          11280714522D 1   1.00000     0.00000     0

 35 38  0     0  0            999 V2000
    1.1167   -1.5792    0.0000 C   0  0  0  0  0  0           0  0  0
    1.7792   -1.1042    0.0000 N   0  0  0  0  0  0           0  0  0
    0.8500   -0.9042    0.0000 C   0  0  3  0  0  0           0  0  0
    2.4417   -1.5792    0.0000 C   0  0  0  0  0  0           0  0  0
    1.0000   -0.2167    0.0000 C   0  0  3  0  0  0           0  0  0
   -0.4583   -0.9917    0.0000 C   0  0  3  0  0  0           0  0  0
   -0.1208   -1.7792    0.0000 O   0  0  0  0  0  0           0  0  0
    1.3667   -2.3667    0.0000 O   0  0  0  0  0  0           0  0  0
    0.2167   -0.4417    0.0000 C   0  0  3  0  0  0           0  0  0
    2.1917   -2.3667    0.0000 C   0  0  0  0  0  0           0  0  0
    1.4792   -0.6917    0.0000 C   0  0  0  0  0  0           0  0  0
    3.1167   -1.3042    0.0000 C   0  0  0  0  0  0           0  0  0
    7.3250   -2.2250    0.0000 C   0  0  3  0  0  0           0  0  0
    1.9500   -0.2167    0.0000 C   0  0  0  0  0  0           0  0  0
   -0.3833    1.2583    0.0000 C   0  0  0  0  0  0           0  0  0
   -0.7333   -0.4542    0.0000 C   0  0  0  0  0  0           0  0  0
   -0.2583    0.0333    0.0000 C   0  0  0  0  0  0           0  0  0
    1.5167    0.4833    0.0000 C   0  0  0  0  0  0           0  0  0
    3.2042   -0.5542    0.0000 O   0  0  0  0  0  0           0  0  0
   -1.1833    1.0458    0.0000 O   0  0  0  0  0  0           0  0  0
    3.7667   -1.7167    0.0000 N   0  0  0  0  0  0           0  0  0
    0.9292    1.0708    0.0000 C   0  0  0  0  0  0           0  0  0
    7.5375   -1.4250    0.0000 F   0  0  0  0  0  0           0  0  0
    8.0375   -2.6375    0.0000 F   0  0  0  0  0  0           0  0  0
    7.3167   -3.0500    0.0000 F   0  0  0  0  0  0           0  0  0
    0.2125    0.6625    0.0000 C   0  0  0  0  0  0           0  0  0
   -0.1625    2.0583    0.0000 O   0  0  0  0  0  0           0  0  0
    6.5292   -2.4417    0.0000 C   0  0  0  0  0  0           0  0  0
    2.7792   -0.1917    0.0000 C   0  0  0  0  0  0           0  0  0
    1.9167    1.2208    0.0000 C   0  0  0  0  0  0           0  0  0
    4.5625   -1.5000    0.0000 C   0  0  0  0  0  0           0  0  0
    5.9417   -1.8625    0.0000 C   0  0  0  0  0  0           0  0  0
    5.1417   -2.0792    0.0000 C   0  0  0  0  0  0           0  0  0
    3.1750    0.5333    0.0000 C   0  0  0  0  0  0           0  0  0
    2.7417    1.2333    0.0000 C   0  0  0  0  0  0           0  0  0
  2  1  2  0     0  0
  3  1  1  0     0  0
  4  2  1  0     0  0
  5  3  1  0     0  0
  6  3  1  0     0  0
  7  6  1  0     0  0
  8  1  1  0     0  0
  9  5  1  0     0  0
 10  8  1  0     0  0
 11  5  1  0     0  0
 12  4  1  0     0  0
 13 28  1  0     0  0
 14 11  1  0     0  0
 15 26  1  0     0  0
 16  6  1  0     0  0
 17 16  1  0     0  0
 18 14  2  0     0  0
 19 12  2  0     0  0
 20 15  2  0     0  0
 21 12  1  0     0  0
 22 18  1  0     0  0
 23 13  1  0     0  0
 24 13  1  0     0  0
 25 13  1  0     0  0
 26 22  1  0     0  0
 27 15  1  0     0  0
 28 32  1  0     0  0
 29 14  1  0     0  0
 30 18  1  0     0  0
 31 21  1  0     0  0
 32 33  1  0     0  0
 33 31  1  0     0  0
 34 29  2  0     0  0
 35 34  1  0     0  0
 10  4  2  0     0  0
  9  7  1  0     0  0
  9 17  1  0     0  0
 35 30  2  0     0  0
M  END