
  SciTegic04021211102D

 23 25  0  0  0  0            999 V2000
    0.1527   -6.9166    0.0000 N   0  0
    0.1516   -7.7440    0.0000 C   0  0
    0.8664   -8.1569    0.0000 N   0  0
    0.8646   -6.5039    0.0000 C   0  0
    1.5800   -6.9130    0.0000 C   0  0
    1.5802   -7.7394    0.0000 C   0  0
    2.3663   -7.9946    0.0000 N   0  0
    2.8520   -7.3258    0.0000 C   0  0
    2.3659   -6.6574    0.0000 N   0  0
    0.8621   -5.6789    0.0000 N   0  0
    1.5754   -5.2642    0.0000 C   0  0
    2.2889   -5.6770    0.0000 C   0  0
    3.0017   -5.2631    0.0000 C   0  0
    2.9997   -4.4372    0.0000 C   0  0
    2.2789   -4.0270    0.0000 C   0  0
    1.5691   -4.4433    0.0000 C   0  0
   -0.5632   -8.1559    0.0000 N   0  0
    2.2736   -3.2020    0.0000 O   0  0
    3.7123   -4.0216    0.0000 O   0  0
    3.7172   -5.6738    0.0000 O   0  0
    2.9853   -2.7849    0.0000 C   0  0
    3.7088   -3.1966    0.0000 C   0  0
    3.7192   -6.4988    0.0000 C   0  0
 10 11  1  0
 11 12  2  0
  2  3  1  0
 12 13  1  0
  3  6  2  0
 13 14  2  0
  1  2  2  0
 14 15  1  0
  5  4  2  0
 15 16  2  0
 16 11  1  0
  6  7  1  0
  2 17  1  0
  7  8  1  0
 15 18  1  0
  8  9  2  0
 14 19  1  0
  9  5  1  0
 13 20  1  0
  4  1  1  0
 18 21  1  0
  4 10  1  0
 19 22  1  0
  5  6  1  0
 20 23  1  0
M  END