
  SciTegic11201309402D

 30 32  0  0  1  0            999 V2000
    4.2167   -3.3792    0.0000 C   0  0
    3.5042   -2.9667    0.0000 N   0  0
    8.5000   -3.3917    0.0000 C   0  0
    7.7875   -2.9792    0.0000 C   0  0  2  0  0  0
    6.3542   -2.9750    0.0000 C   0  0
    7.0667   -3.3917    0.0000 N   0  0
    4.9292   -2.9667    0.0000 C   0  0  1  0  0  0
    9.2167   -2.9875    0.0000 C   0  0
    5.6417   -3.3792    0.0000 C   0  0
    7.7917   -2.1542    0.0000 C   0  0
    4.2250   -4.2042    0.0000 O   0  0
    2.7917   -3.3792    0.0000 C   0  0
   -0.0708   -4.1917    0.0000 N   0  0
    6.3625   -2.1500    0.0000 O   0  0
    8.5125   -0.9167    0.0000 N   0  0
    9.2167   -2.1625    0.0000 O   0  0
    9.9292   -3.4000    0.0000 O   0  0
    2.0792   -2.9667    0.0000 C   0  0
    3.5042   -2.1417    0.0000 C   0  0
    8.5042   -1.7417    0.0000 C   0  0
    4.9375   -2.1417    0.0000 C   0  0
    4.2167   -1.7292    0.0000 C   0  0
    1.3625   -3.3792    0.0000 C   0  0
   -0.0625   -3.3667    0.0000 C   0  0
    0.6500   -4.6125    0.0000 C   0  0
    7.0792   -1.7417    0.0000 C   0  0
    7.8000   -0.5042    0.0000 C   0  0
    0.6500   -2.9625    0.0000 C   0  0
    1.3667   -4.1917    0.0000 C   0  0
    7.0792   -0.9167    0.0000 C   0  0
  2  1  1  0
  4  3  1  6
  4  6  1  0
  5  9  1  0
  6  5  1  0
  7  1  1  0
  8  3  1  0
  7  9  1  6
  4 10  1  0
 11  1  2  0
 12  2  1  0
 13 25  1  0
 14  5  2  0
 15 20  1  0
 16  8  2  0
 17  8  1  0
 18 12  1  0
 19  2  1  0
 20 10  2  0
  7 21  1  0
 22 21  1  0
 23 18  1  0
 24 28  1  0
 25 29  1  0
 26 10  1  0
 27 30  1  0
 28 23  1  0
 29 23  1  0
 30 26  2  0
 19 22  1  0
 24 13  1  0
 27 15  2  0
M  END