
  SciTegic12231509382D

 16 16  0  0  0  0            999 V2000
    3.9667   -6.0042    0.0000 C   0  0
    3.3542   -5.6417    0.0000 C   0  0
    4.5917   -5.6542    0.0000 C   0  0
    3.3667   -4.9417    0.0000 C   0  0
    6.4167   -6.0292    0.0000 N   0  0
    4.5917   -4.9542    0.0000 C   0  0
    7.0417   -5.6875    0.0000 C   0  0
    5.8042   -5.6667    0.0000 C   0  0
    3.9750   -4.5917    0.0000 C   0  0
    5.2000   -6.0167    0.0000 C   0  0
    2.7250   -5.9792    0.0000 O   0  0
    2.7500   -4.5750    0.0000 O   0  0
    5.1917   -6.7292    0.0000 O   0  0
    6.6792   -5.0542    0.0000 C   0  0
    7.3875   -6.3042    0.0000 C   0  0
    7.6667   -5.3292    0.0000 C   0  0
  2  1  1  0
  3  1  2  0
  4  2  2  0
  5  8  1  0
  6  3  1  0
  7  5  1  0
  8 10  1  0
  9  6  2  0
 10  3  1  0
 11  2  1  0
 12  4  1  0
 13 10  1  0
 14  7  1  0
 15  7  1  0
 16  7  1  0
  4  9  1  0
M  END