
  SciTegic02271514512D

 28 31  0  0  0  0            999 V2000
    5.8765   -1.8546    0.0000 N   0  0
    4.0554   -3.0214    0.0000 C   0  0
    4.8501   -2.8300    0.0000 N   0  0
    5.0817   -2.0460    0.0000 C   0  0
    4.5186   -1.4534    0.0000 C   0  0
    3.7239   -1.6448    0.0000 C   0  0
    3.4922   -2.4288    0.0000 N   0  0
    4.7502   -0.6694    0.0000 F   0  0
    3.0754   -4.8959    0.0000 C   0  0
    3.0534   -4.0788    0.0000 C   0  0
    2.3347   -3.6892    0.0000 C   0  0
    1.6380   -4.1168    0.0000 C   0  0
    1.6600   -4.9340    0.0000 C   0  0
    2.3787   -5.3236    0.0000 N   0  0
    3.8593   -5.1276    0.0000 N   0  0
    3.8238   -3.8053    0.0000 C   0  0
    4.3219   -4.4535    0.0000 C   0  0
    0.9193   -3.7273    0.0000 Cl  0  0
    6.4394   -2.4469    0.0000 C   0  0  1  0  0  0
    6.2059   -3.2269    0.0000 C   0  0
    6.7649   -3.8180    0.0000 C   0  0
    7.5607   -3.6307    0.0000 C   0  0
    7.7944   -2.8466    0.0000 N   0  0
    7.2323   -2.2499    0.0000 C   0  0
    8.5895   -2.6580    0.0000 C   0  0
    9.1505   -3.2523    0.0000 C   0  0
    9.9456   -3.0637    0.0000 N   0  0
    8.9163   -4.0352    0.0000 O   0  0
  2  3  1  0
  3  4  2  0
  4  5  1  0
  5  6  2  0
  6  7  1  0
  2  7  2  0
  5  8  1  0
  9 10  1  0
 10 11  2  0
 11 12  1  0
 12 13  2  0
 13 14  1  0
  9 14  2  0
 16 17  2  0
 15 17  1  0
  9 15  1  0
 10 16  1  0
 12 18  1  0
  2 16  1  0
  1  4  1  0
 19  1  1  6
 19 20  1  0
 19 24  1  0
 20 21  1  0
 21 22  1  0
 22 23  1  0
 23 24  1  0
 23 25  1  0
 25 26  1  0
 26 27  1  0
 26 28  2  0
M  END