
  Mrv0541 05221410072D          

 61 68  0  0  0  0            999 V2000
   17.4829  -14.7961    0.0000 C   0  0  1  0  0  0  0  0  0  0  0  0
   17.4829  -13.9583    0.0000 C   0  0  1  0  0  0  0  0  0  0  0  0
   16.1086  -14.7755    0.0000 C   0  0  2  0  0  0  0  0  0  0  0  0
   15.4193  -15.2047    0.0000 C   0  0  2  0  0  0  0  0  0  0  0  0
   16.7937  -15.2047    0.0000 C   0  0  1  0  0  0  0  0  0  0  0  0
   18.2424  -13.7065    0.0000 C   0  0  1  0  0  0  0  0  0  0  0  0
   16.7937  -13.5373    0.0000 C   0  0  1  0  0  0  0  0  0  0  0  0
   18.6468  -12.9760    0.0000 C   0  0  0  0  0  0  0  0  0  0  0  0
   11.2467  -15.1676    0.0000 C   0  0  1  0  0  0  0  0  0  0  0  0
    8.4567  -15.9476    0.0000 C   0  0  1  0  0  0  0  0  0  0  0  0
    9.8558  -15.1428    0.0000 C   0  0  2  0  0  0  0  0  0  0  0  0
    7.0699  -15.9270    0.0000 C   0  0  2  0  0  0  0  0  0  0  0  0
   16.1003  -13.9459    0.0000 C   0  0  0  0  0  0  0  0  0  0  0  0
   12.6293  -16.0219    0.0000 C   0  0  2  0  0  0  0  0  0  0  0  0
    9.1624  -14.7218    0.0000 O   0  0  0  0  0  0  0  0  0  0  0  0
   12.6334  -15.1841    0.0000 O   0  0  0  0  0  0  0  0  0  0  0  0
    7.0823  -15.0933    0.0000 O   0  0  0  0  0  0  0  0  0  0  0  0
    9.8434  -15.9765    0.0000 C   0  0  0  0  0  0  0  0  0  0  0  0
   11.9277  -16.4222    0.0000 C   0  0  0  0  0  0  0  0  0  0  0  0
    6.3642  -16.3314    0.0000 C   0  0  0  0  0  0  0  0  0  0  0  0
   19.4516  -12.9760    0.0000 C   0  0  0  0  0  0  0  0  0  0  0  0
   15.4152  -16.0343    0.0000 C   0  0  1  0  0  0  0  0  0  0  0  0
   11.2426  -16.0013    0.0000 C   0  0  2  0  0  0  0  0  0  0  0  0
    9.1377  -16.3851    0.0000 C   0  0  2  0  0  0  0  0  0  0  0  0
    5.6956  -15.0685    0.0000 C   0  0  1  0  0  0  0  0  0  0  0  0
   18.2424  -15.0685    0.0000 C   0  0  0  0  0  0  0  0  0  0  0  0
    8.4815  -15.1180    0.0000 C   0  0  2  0  0  0  0  0  0  0  0  0
   11.9525  -14.7590    0.0000 C   0  0  2  0  0  0  0  0  0  0  0  0
    5.6832  -15.8981    0.0000 C   0  0  1  0  0  0  0  0  0  0  0  0
   19.6993  -12.1753    0.0000 C   0  0  0  0  0  0  0  0  0  0  0  0
    6.4013  -14.6640    0.0000 C   0  0  1  0  0  0  0  0  0  0  0  0
   10.5616  -14.7342    0.0000 O   0  0  0  0  0  0  0  0  0  0  0  0
    7.7509  -16.3562    0.0000 O   0  0  0  0  0  0  0  0  0  0  0  0
   19.0554  -11.6883    0.0000 O   0  0  0  0  0  0  0  0  0  0  0  0
   18.7211  -14.3793    0.0000 C   0  0  0  0  0  0  0  0  0  0  0  0
   14.7260  -14.7961    0.0000 C   0  0  0  0  0  0  0  0  0  0  0  0
   16.7937  -16.0467    0.0000 C   0  0  0  0  0  0  0  0  0  0  0  0
   18.4116  -12.1753    0.0000 C   0  0  0  0  0  0  0  0  0  0  0  0
   13.3144  -16.4429    0.0000 O   0  0  0  0  0  0  0  0  0  0  0  0
   14.7218  -16.4553    0.0000 C   0  0  0  0  0  0  0  0  0  0  0  0
   16.1003  -16.4553    0.0000 C   0  0  0  0  0  0  0  0  0  0  0  0
   17.4829  -15.6298    0.0000 O   0  0  0  0  0  0  0  0  0  0  0  0
   20.4669  -11.9236    0.0000 O   0  0  0  0  0  0  0  0  0  0  0  0
   14.0161  -16.0343    0.0000 C   0  0  2  0  0  0  0  0  0  0  0  0
   17.4829  -13.1287    0.0000 C   0  0  0  0  0  0  0  0  0  0  0  0
   16.7937  -12.7077    0.0000 O   0  0  0  0  0  0  0  0  0  0  0  0
   14.0285  -15.2047    0.0000 C   0  0  0  0  0  0  0  0  0  0  0  0
    4.9774  -14.6269    0.0000 O   0  0  0  0  0  0  0  0  0  0  0  0
   10.5368  -16.4057    0.0000 O   0  0  0  0  0  0  0  0  0  0  0  0
    9.1253  -17.2147    0.0000 O   0  0  0  0  0  0  0  0  0  0  0  0
    4.9444  -16.2860    0.0000 O   0  0  0  0  0  0  0  0  0  0  0  0
   15.4152  -14.3669    0.0000 C   0  0  0  0  0  0  0  0  0  0  0  0
   11.9607  -13.9211    0.0000 C   0  0  0  0  0  0  0  0  0  0  0  0
    7.7551  -14.6971    0.0000 C   0  0  0  0  0  0  0  0  0  0  0  0
    6.4137  -13.8303    0.0000 C   0  0  0  0  0  0  0  0  0  0  0  0
   16.1003  -15.6174    0.0000 H   0  0  0  0  0  0  0  0  0  0  0  0
   15.4069  -16.8680    0.0000 H   0  0  0  0  0  0  0  0  0  0  0  0
    7.0699  -16.7524    0.0000 H   0  0  0  0  0  0  0  0  0  0  0  0
   16.7896  -14.3669    0.0000 H   0  0  0  0  0  0  0  0  0  0  0  0
   12.6293  -16.8391    0.0000 H   0  0  0  0  0  0  0  0  0  0  0  0
   11.2467  -14.3504    0.0000 H   0  0  0  0  0  0  0  0  0  0  0  0
  2  1  1  0  0  0  0
  3  5  1  0  0  0  0
  4  3  1  0  0  0  0
  5  1  1  0  0  0  0
  6  2  1  0  0  0  0
  7  2  1  0  0  0  0
  6  8  1  1  0  0  0
  9 23  1  0  0  0  0
 10 24  1  0  0  0  0
 11 32  1  1  0  0  0
 12 33  1  0  0  0  0
 13  3  1  0  0  0  0
 14 39  1  0  0  0  0
 15 11  1  0  0  0  0
 16 14  1  0  0  0  0
 17 12  1  0  0  0  0
 18 11  1  0  0  0  0
 19 14  1  0  0  0  0
 20 12  1  0  0  0  0
 21  8  2  0  0  0  0
 22 41  1  0  0  0  0
 23 19  1  0  0  0  0
 24 18  1  0  0  0  0
 25 29  1  0  0  0  0
 26  1  1  0  0  0  0
 27 15  1  0  0  0  0
 28 16  1  0  0  0  0
 29 20  1  0  0  0  0
 30 21  1  0  0  0  0
 31 17  1  0  0  0  0
 32  9  1  0  0  0  0
 10 33  1  6  0  0  0
 34 38  1  0  0  0  0
 35 26  1  0  0  0  0
 36  4  1  0  0  0  0
 37  5  1  0  0  0  0
 38  8  1  0  0  0  0
 44 39  1  1  0  0  0
 40 22  1  0  0  0  0
 41 37  1  0  0  0  0
  1 42  1  1  0  0  0
 43 30  2  0  0  0  0
 44 40  1  0  0  0  0
  2 45  1  1  0  0  0
  7 46  1  1  0  0  0
 47 36  1  0  0  0  0
 25 48  1  6  0  0  0
 23 49  1  6  0  0  0
 24 50  1  6  0  0  0
 29 51  1  6  0  0  0
  4 52  1  1  0  0  0
 28 53  1  1  0  0  0
 27 54  1  1  0  0  0
 31 55  1  1  0  0  0
  3 56  1  6  0  0  0
 22 57  1  1  0  0  0
 12 58  1  6  0  0  0
  5 59  1  1  0  0  0
 14 60  1  6  0  0  0
  9 61  1  1  0  0  0
 35  6  1  0  0  0  0
 13  7  1  0  0  0  0
  4 22  1  0  0  0  0
 44 47  1  0  0  0  0
 30 34  1  0  0  0  0
 28  9  1  0  0  0  0
 27 10  1  0  0  0  0
 31 25  1  0  0  0  0
M  END