
  SciTegic01161211242D

 25 28  0  0  0  0            999 V2000
    3.1809   -6.9927    0.0000 C   0  0
    3.1797   -7.8188    0.0000 C   0  0
    3.8934   -8.2310    0.0000 C   0  0
    3.8916   -6.5807    0.0000 C   0  0
    4.6058   -6.9891    0.0000 C   0  0
    4.6092   -7.8209    0.0000 C   0  0
    5.3272   -8.2315    0.0000 C   0  0
    6.0464   -7.8150    0.0000 C   0  0
    5.3204   -6.5680    0.0000 C   0  0  1  0  0  0
    6.0435   -6.9851    0.0000 C   0  0  2  0  0  0
    6.6637   -6.4263    0.0000 N   0  0
    6.3239   -5.6638    0.0000 C   0  0
    5.4937   -5.7514    0.0000 C   0  0
    7.4880   -6.4198    0.0000 C   0  0  1  0  0  0
    7.8950   -5.7038    0.0000 C   0  0
    4.6008   -6.1525    0.0000 H   0  0
    6.8347   -7.1966    0.0000 H   0  0
    3.8892   -5.7570    0.0000 O   0  0
    3.1746   -5.3473    0.0000 C   0  0
    8.7192   -5.7005    0.0000 C   0  0
    9.1261   -4.9853    0.0000 C   0  0
    8.7094   -4.2737    0.0000 C   0  0
    7.8815   -4.2820    0.0000 C   0  0
    7.4783   -4.9979    0.0000 C   0  0
    7.9051   -7.1301    0.0000 C   0  0
 10 11  1  0
 11 12  1  0
 12 13  1  0
 13  9  1  0
  3  6  2  0
 11 14  1  0
  1  2  2  0
 14 15  1  0
  5  9  1  0
  9 16  1  1
  6  7  1  0
 10 17  1  1
  7  8  1  0
  4 18  1  0
  8 10  1  0
 18 19  1  0
  9 10  1  0
 15 20  2  0
  5  4  2  0
 20 21  1  0
  4  1  1  0
 21 22  2  0
  5  6  1  0
 22 23  1  0
 23 24  2  0
 24 15  1  0
  2  3  1  0
 14 25  1  1
M  END