
  SciTegic01091216402D

 24 27  0  0  0  0            999 V2000
    7.7120   -9.5553    0.0000 C   0  0
    7.7108  -10.3828    0.0000 C   0  0
    8.4257  -10.7957    0.0000 C   0  0
    9.1423  -10.3823    0.0000 C   0  0
    9.1394   -9.5517    0.0000 C   0  0
    8.4239   -9.1425    0.0000 C   0  0
    9.8575  -10.7937    0.0000 O   0  0
    6.9973   -9.1429    0.0000 N   0  0
    6.9971   -8.3178    0.0000 C   0  0
    7.6640   -7.8328    0.0000 N   0  0
    7.4089   -7.0483    0.0000 C   0  0
    6.5839   -7.0481    0.0000 C   0  0
    6.3291   -7.8332    0.0000 S   0  0
    7.8937   -6.3806    0.0000 O   0  0
    6.0297   -6.4367    0.0000 C   0  0
    5.2232   -6.6109    0.0000 C   0  0
    4.0711   -7.2841    0.0000 N   0  0
    4.8920   -7.3675    0.0000 C   0  0
    3.8969   -6.4776    0.0000 C   0  0
    4.6072   -6.0645    0.0000 C   0  0
    4.6036   -5.2448    0.0000 C   0  0
    3.8905   -4.8371    0.0000 C   0  0
    3.1796   -5.2551    0.0000 C   0  0
    3.1867   -6.0735    0.0000 C   0  0
 10 11  1  0
 11 12  1  0
 12 13  1  0
 13  9  1  0
  1  2  2  0
 11 14  2  0
  4  7  1  0
 12 15  2  0
  3  4  2  0
 15 16  1  0
 16 20  1  0
  1  8  1  0
 19 17  1  0
 17 18  1  0
 18 16  2  0
  8  9  2  0
  9 10  1  0
 19 20  2  0
  4  5  1  0
 20 21  1  0
  2  3  1  0
 21 22  2  0
  5  6  2  0
 22 23  1  0
  6  1  1  0
 23 24  2  0
 24 19  1  0
M  END