
  SciTegic09291413392D

 44 45  0  0  0  0            999 V2000
   20.3646   -9.6796    0.0000 C   0  0
   19.9509  -10.3935    0.0000 C   0  0
   20.3623  -11.1086    0.0000 O   0  0
   19.1260  -10.3921    0.0000 O   0  0
   19.9487  -11.8224    0.0000 C   0  0
   20.3600  -12.5375    0.0000 C   0  0
   19.1237  -11.8210    0.0000 C   0  0
   19.5437  -12.5345    0.0000 C   0  0
   21.1896   -9.6810    0.0000 C   0  0
   21.6009  -10.3961    0.0000 O   0  0
   21.6032   -8.9672    0.0000 O   0  0
   22.4259  -10.3974    0.0000 C   0  0
   22.8373  -11.1125    0.0000 C   0  0
   22.8395   -9.6836    0.0000 C   0  0
   23.2511  -10.3805    0.0000 C   0  0
   19.5164   -4.8874    0.0000 O   0  0
   18.8445   -5.3729    0.0000 C   0  0
   19.0998   -6.1625    0.0000 C   0  0
   19.9289   -6.1625    0.0000 C   0  0
   20.1857   -5.3742    0.0000 C   0  0
   20.9704   -5.1197    0.0000 O   0  0
   20.4136   -6.8301    0.0000 C   0  0
   18.4248   -4.6541    0.0000 C   0  0
   18.4199   -6.0798    0.0000 C   0  0
   17.5950   -6.0654    0.0000 O   0  0
   17.5998   -4.6563    0.0000 O   0  0
   17.1855   -3.9429    0.0000 C   0  0
   16.3605   -3.9451    0.0000 C   0  0
   17.5960   -3.2274    0.0000 O   0  0
   19.9881   -7.5371    0.0000 C   0  0
   19.1625   -7.5207    0.0000 C   0  0
   18.7373   -8.2268    0.0000 C   0  0
   19.1369   -8.9495    0.0000 C   0  0
   19.9661   -8.9618    0.0000 C   0  0
   20.3876   -8.2551    0.0000 C   0  0
   15.9460   -3.2318    0.0000 C   0  0
   15.1210   -3.2339    0.0000 C   0  0
   16.3566   -2.5162    0.0000 C   0  0
   15.9423   -1.8028    0.0000 C   0  0
   16.3529   -1.0873    0.0000 C   0  0
   15.1173   -1.8050    0.0000 C   0  0
   14.7105   -3.9494    0.0000 C   0  0
   13.8855   -3.9517    0.0000 C   0  0
   15.1248   -4.6628    0.0000 C   0  0
  1  2  1  0
  2  3  1  0
  2  4  2  0
  3  5  1  0
  5  6  1  0
  5  7  1  0
  5  8  1  0
  1  9  1  0
  9 10  1  0
  9 11  2  0
 10 12  1  0
 12 13  1  0
 12 14  1  0
 12 15  1  0
 17 18  1  0
 16 17  1  0
 18 19  1  0
 19 20  1  0
 20 16  1  0
 20 21  2  0
 19 22  2  0
 17 23  1  0
 17 24  1  0
 24 25  1  0
 23 26  1  0
 26 27  1  0
 27 28  1  0
 27 29  2  0
 22 30  1  0
 30 31  2  0
 31 32  1  0
 32 33  2  0
 33 34  1  0
 34 35  2  0
 35 30  1  0
 28 36  1  0
 36 37  1  0
 36 38  1  0
 38 39  1  0
 39 40  1  0
 39 41  1  0
 37 42  1  0
 42 43  1  0
 42 44  1  0
 34  1  1  0
M  END