
          11280715192D 1   1.00000     0.00000     0

  9  9  0     0  0            999 V2000
    2.5333   -3.1208    0.0000 S   0  0  0  0  0  0           0  0  0
    1.9583   -3.5375    0.0000 C   0  0  0  0  0  0           0  0  0
    1.3917   -3.1208    0.0000 N   0  0  0  0  0  0           0  0  0
    2.3125   -2.4500    0.0000 C   0  0  0  0  0  0           0  0  0
    1.6125   -2.4500    0.0000 C   0  0  0  0  0  0           0  0  0
    1.9542   -4.2458    0.0000 N   0  0  0  0  0  0           0  0  0
    2.7333   -1.8750    0.0000 C   0  0  0  0  0  0           0  0  0
    2.8625   -0.6500    0.0000 N   0  0  0  0  0  0           0  0  0
    2.4417   -1.2250    0.0000 C   0  0  0  0  0  0           0  0  0
  2  1  1  0     0  0
  3  2  2  0     0  0
  4  1  1  0     0  0
  5  4  2  0     0  0
  6  2  1  0     0  0
  7  4  1  0     0  0
  8  9  1  0     0  0
  9  7  1  0     0  0
  3  5  1  0     0  0
M  END