
  SciTegic05061116452D

 43 44  0  0  0  0            999 V2000
    4.4294   -0.7625    0.0000 C   0  0
    5.1352   -0.3353    0.0000 N   0  0
    3.7066   -0.3648    0.0000 O   0  0
    5.1182    0.4895    0.0000 C   0  0
    5.8240    0.9167    0.0000 C   0  0
    4.3954    0.8872    0.0000 C   0  0
    6.5469    0.5140    0.0000 C   0  0
    7.2522    0.9404    0.0000 C   0  0
    7.2356    1.7662    0.0000 C   0  0
    6.5078    2.1636    0.0000 C   0  0
    5.8054    1.7348    0.0000 C   0  0
    4.3833    1.7101    0.0000 C   0  0
    3.6613    2.1077    0.0000 C   0  0
    2.9545    1.6805    0.0000 C   0  0
    2.9743    0.8514    0.0000 C   0  0
    3.6968    0.4576    0.0000 C   0  0
    4.4464   -1.5873    0.0000 C   0  0
   -0.5375   -2.0292    0.0000 N   0  0
    0.1770   -1.6167    0.0000 C   0  0  2  0  0  0
    0.8914   -2.0292    0.0000 C   0  0
    0.1770   -0.7917    0.0000 C   0  0
    0.8914   -2.8542    0.0000 O   0  0
    1.6059   -1.6167    0.0000 N   0  0
    2.3204   -2.0292    0.0000 C   0  0  2  0  0  0
    3.0349   -1.6167    0.0000 C   0  0
    2.3204   -2.8542    0.0000 C   0  0
    1.6059   -3.2667    0.0000 C   0  0
    3.0349   -3.2667    0.0000 C   0  0
    3.0349   -0.7917    0.0000 O   0  0
    3.7499   -2.0283    0.0000 N   0  0
    3.7833   -2.8474    0.0000 C   0  0
    4.5119   -3.2319    0.0000 C   0  0
    5.2085   -2.7909    0.0000 N   0  0
    5.1764   -1.9655    0.0000 C   0  0
    5.9388   -3.1747    0.0000 C   0  0
    6.6363   -2.7340    0.0000 C   0  0
    8.5045   -1.0625    0.0000 C   0  0
    9.3295   -1.0625    0.0000 C   0  0
    8.0920   -0.3480    0.0000 O   0  0
    8.0920   -1.7770    0.0000 O   0  0
    9.7420   -1.7770    0.0000 F   0  0
    9.7420   -0.3480    0.0000 F   0  0
   10.1545   -1.0625    0.0000 F   0  0
  8  9  2  0
  4  5  1  0
 18 19  1  0
  9 10  1  0
 19 20  1  0
  1  3  2  0
 19 21  1  1
 10 11  2  0
 20 22  2  0
 11  5  1  0
 20 23  1  0
  4  6  1  0
 23 24  1  0
  6 12  2  0
 24 25  1  0
  1  2  1  0
 24 26  1  6
 12 13  1  0
 26 27  1  0
  5  7  2  0
 26 28  1  0
 25 30  1  0
 13 14  2  0
 25 29  2  0
 17 30  1  0
  2  4  1  0
 14 15  1  0
  7  8  1  0
 15 16  2  0
 16  6  1  0
 17 34  1  0
 30 31  1  0
 31 32  1  0
 32 33  1  0
 33 34  1  0
 33 35  1  0
  1 17  1  0
 35 36  1  0
 37 40  1  0
 37 39  2  0
 37 38  1  0
 38 41  1  0
 38 42  1  0
 38 43  1  0
M  END