
  SciTegic09261414532D

 38 41  0  0  0  0            999 V2000
    7.6192   -6.1403    0.0000 C   0  0
    6.1906   -6.1403    0.0000 C   0  0  1  0  0  0
    6.1906   -6.9645    0.0000 C   0  0  1  0  0  0
    8.3440   -4.9104    0.0000 C   0  0  1  0  0  0
    6.9069   -5.7240    0.0000 C   0  0
    8.3355   -5.7325    0.0000 C   0  0  1  0  0  0
    7.6276   -6.9645    0.0000 C   0  0  2  0  0  0
    6.9069   -7.3808    0.0000 C   0  0
    9.1239   -4.6610    0.0000 C   0  0  2  0  0  0
    5.4783   -7.3808    0.0000 C   0  0
    7.6276   -4.4920    0.0000 C   0  0
    6.9069   -4.8998    0.0000 C   0  0
    9.1217   -5.9882    0.0000 C   0  0  2  0  0  0
    5.4783   -5.7240    0.0000 C   0  0
   10.4000   -4.0030    0.0000 C   0  0
   10.7805   -4.7430    0.0000 C   0  0
    9.6015   -5.3266    0.0000 C   0  0
    4.7661   -6.9645    0.0000 C   0  0
    9.5760   -3.9646    0.0000 C   0  0
   11.6025   -4.7810    0.0000 C   0  0
    4.7661   -6.1403    0.0000 C   0  0
    6.1884   -5.3119    0.0000 C   0  0
    8.3355   -4.0861    0.0000 C   0  0
   11.9840   -5.5170    0.0000 C   0  0
    9.1919   -3.2301    0.0000 C   0  0
   11.5299   -6.2181    0.0000 C   0  0
   12.8070   -5.5594    0.0000 C   0  0
    8.3355   -6.5609    0.0000 C   0  0
   11.9074   -6.9540    0.0000 O   0  0
   10.7036   -6.1728    0.0000 O   0  0
    4.0464   -7.3802    0.0000 O   0  0
    6.1776   -7.7928    0.0000 H   0  0
    5.0789   -8.1060    0.0000 C   0  0
    5.8074   -8.1400    0.0000 C   0  0
    6.1915   -4.4809    0.0000 O   0  0
   10.3345   -5.4356    0.0000 O   0  0
    8.3448   -7.3775    0.0000 O   0  0
    9.3759   -6.7758    0.0000 O   0  0
  2  5  1  0
  3  8  1  0
  4  6  1  0
  5  1  2  0
  6  1  1  0
  7  1  1  0
  8  7  1  0
  9  4  1  0
 10  3  1  0
  4 11  1  0
 12  5  1  0
  6 13  1  0
 14  2  1  0
 19 15  2  0
 16 15  1  0
 13 17  1  0
 18 10  1  0
  9 19  1  1
 20 16  1  0
 21 14  1  0
  2 22  1  1
  4 23  1  1
 24 20  1  0
 19 25  1  0
 26 24  1  0
 24 27  2  0
  6 28  1  6
 11 12  1  0
  2  3  1  0
  9 17  1  0
 21 18  1  0
 26 29  2  0
 26 30  1  0
 18 31  2  0
  3 32  1  6
 10 33  1  0
 10 34  1  0
 12 35  2  0
 16 36  2  0
  7 37  1  1
 13 38  1  6
M  END