
  SciTegic12231509382D

 39 42  0  0  0  0            999 V2000
    5.1708   -4.5083    0.0000 C   0  0
    4.5542   -4.1542    0.0000 N   0  0
    3.9417   -4.5125    0.0000 S   0  0
    5.7750   -4.1500    0.0000 C   0  0
    5.1708   -5.2167    0.0000 N   0  0
    5.7750   -5.5667    0.0000 C   0  0
    6.3875   -5.2167    0.0000 N   0  0
    6.3875   -4.5083    0.0000 C   0  0
    5.7750   -3.4417    0.0000 O   0  0
    5.7750   -6.2750    0.0000 C   0  0
    3.2542   -4.6958    0.0000 C   0  0
    3.9417   -5.2208    0.0000 O   0  0
    3.7583   -3.8250    0.0000 O   0  0
    6.3958   -3.0875    0.0000 C   0  0
    6.4000   -6.6292    0.0000 N   0  0
    5.1750   -6.6292    0.0000 N   0  0
    1.1958   -5.2417    0.0000 C   0  0
    1.8792   -5.0583    0.0000 C   0  0
    6.3875   -2.3833    0.0000 C   0  0
    2.7583   -4.1875    0.0000 C   0  0
    3.0708   -5.3708    0.0000 C   0  0
    2.3833   -5.5542    0.0000 C   0  0
    2.0708   -4.3708    0.0000 C   0  0
    7.0083   -4.1542    0.0000 O   0  0
    5.7750   -2.0333    0.0000 O   0  0
    5.7875   -7.6917    0.0000 C   0  0
    5.1708   -7.3375    0.0000 C   0  0
    6.4000   -7.3375    0.0000 C   0  0
    8.8458   -4.5125    0.0000 O   0  0
    7.0083   -3.4458    0.0000 C   0  0
    0.6917   -4.7375    0.0000 C   0  0
    1.0125   -5.9208    0.0000 C   0  0
    1.2000   -4.5333    0.0000 C   0  0
    7.0000   -2.0292    0.0000 C   0  0
    7.6208   -4.5125    0.0000 C   0  0
    8.2333   -4.1583    0.0000 C   0  0
    5.1667   -2.3875    0.0000 C   0  0
    7.6208   -3.0917    0.0000 C   0  0
    7.6208   -2.3792    0.0000 C   0  0
  2  1  1  0
  3  2  1  0
  4  1  2  0
  5  1  1  0
  6  5  2  0
  7  6  1  0
  8  4  1  0
  9  4  1  0
 10  6  1  0
 11  3  1  0
 12  3  2  0
 13  3  2  0
 14  9  1  0
 15 10  1  0
 16 10  2  0
 17 18  1  0
 18 22  1  0
 19 14  1  0
 20 11  2  0
 21 11  1  0
 22 21  2  0
 23 20  1  0
 24  8  1  0
 25 19  1  0
 26 27  2  0
 27 16  1  0
 28 15  2  0
 29 36  1  0
 30 14  2  0
 31 17  1  0
 32 17  1  0
 33 17  1  0
 34 19  2  0
 35 24  1  0
 36 35  1  0
 37 25  1  0
 38 30  1  0
 39 38  2  0
  8  7  2  0
 26 28  1  0
 23 18  2  0
 39 34  1  0
M  END