
  SciTegic09291413392D

 33 32  0  0  0  0            999 V2000
    9.1890   -4.5821    0.0000 Br  0  5
   13.8899   -7.2441    0.0000 Br  0  5
    7.7409   -6.5184    0.0000 C   0  0
    7.0318   -6.1098    0.0000 C   0  0
    7.0318   -5.2968    0.0000 C   0  0
    7.7409   -4.8923    0.0000 C   0  0
    8.4458   -5.2968    0.0000 C   0  0
    8.4458   -6.1098    0.0000 N   0  3
    5.6260   -6.1098    0.0000 C   0  0
    4.9252   -6.5184    0.0000 C   0  0
    5.6260   -5.2968    0.0000 O   0  0
    6.3310   -6.5184    0.0000 N   0  0
    4.2205   -6.1098    0.0000 N   0  0
    9.1744   -6.5304    0.0000 C   0  0
    9.8821   -6.1217    0.0000 C   0  0
   10.5899   -6.5302    0.0000 C   0  0
   11.2975   -6.1215    0.0000 C   0  0
   14.1415   -5.2933    0.0000 C   0  0
   14.8424   -4.8889    0.0000 C   0  0
   15.5473   -5.2933    0.0000 C   0  0
   15.5473   -6.1064    0.0000 C   0  0
   14.8424   -6.5150    0.0000 C   0  0
   14.1415   -6.1064    0.0000 N   0  3
   15.5473   -3.6672    0.0000 C   0  0
   15.5473   -2.8541    0.0000 C   0  0
   16.2564   -4.0758    0.0000 O   0  0
   14.8424   -4.0758    0.0000 N   0  0
   16.2564   -2.4497    0.0000 N   0  0
   13.4124   -6.5260    0.0000 C   0  0
   12.0025   -6.5260    0.0000 C   0  0
   12.7116   -6.1215    0.0000 C   0  0
    4.2220   -5.2926    0.0000 O   0  0
   16.9620   -2.8620    0.0000 O   0  0
  3  4  1  0
  4  5  2  0
  5  6  1  0
  6  7  2  0
  7  8  1  0
  3  8  2  0
  9 10  1  0
  9 11  2  0
  9 12  1  0
 10 13  2  0
  4 12  1  0
  8 14  1  0
 14 15  1  0
 15 16  1  0
 16 17  1  0
 18 19  1  0
 19 20  2  0
 20 21  1  0
 21 22  2  0
 22 23  1  0
 18 23  2  0
 24 25  1  0
 24 26  2  0
 24 27  1  0
 25 28  2  0
 19 27  1  0
 23 29  1  0
 17 30  1  0
 30 31  1  0
 31 29  1  0
 13 32  1  0
 28 33  1  0
M  CHG  4   1  -1   2  -1   8   1  23   1
M  END