
          11280715102D 1   1.00000     0.00000     0

 40 43  0     1  0            999 V2000
   12.3542   -5.5292    0.0000 S   0  0  3  0  0  0           0  0  0
    7.2875   -3.8667    0.0000 C   0  0  0  0  0  0           0  0  0
    6.8042   -4.5375    0.0000 N   0  0  3  0  0  0           0  0  0
    8.0667   -4.1167    0.0000 C   0  0  0  0  0  0           0  0  0
   12.3750   -6.9500    0.0000 C   0  0  0  0  0  0           0  0  0
   11.9500   -6.2417    0.0000 C   0  0  0  0  0  0           0  0  0
   12.7667   -4.8167    0.0000 N   0  0  0  0  0  0           0  0  0
   12.3625   -4.1042    0.0000 C   0  0  2  0  0  0           0  0  0
    8.0750   -4.9417    0.0000 C   0  0  0  0  0  0           0  0  0
    8.7875   -3.7042    0.0000 C   0  0  0  0  0  0           0  0  0
   13.2000   -6.9292    0.0000 C   0  0  0  0  0  0           0  0  0
   10.2167   -3.7000    0.0000 C   0  0  0  0  0  0           0  0  0
    7.2917   -5.2042    0.0000 C   0  0  0  0  0  0           0  0  0
   13.0750   -3.6875    0.0000 C   0  0  0  0  0  0           0  0  0
    9.5042   -4.1167    0.0000 C   0  0  0  0  0  0           0  0  0
   13.1500   -5.7417    0.0000 O   0  0  0  0  0  0           0  0  0
   11.5542   -5.3125    0.0000 O   0  0  0  0  0  0           0  0  0
   10.9292   -4.1042    0.0000 N   0  0  0  0  0  0           0  0  0
    7.0292   -3.0875    0.0000 O   0  0  0  0  0  0           0  0  0
   11.6417   -3.6917    0.0000 C   0  0  0  0  0  0           0  0  0
    6.0917   -4.1250    0.0000 C   0  0  0  0  0  0           0  0  0
    3.2375   -3.2917    0.0000 N   0  0  0  0  0  0           0  0  0
    8.7875   -5.3542    0.0000 C   0  0  0  0  0  0           0  0  0
   13.6000   -6.2125    0.0000 O   0  0  0  0  0  0           0  0  0
   10.2042   -2.8750    0.0000 O   0  0  0  0  0  0           0  0  0
   13.0667   -2.8625    0.0000 O   0  0  0  0  0  0           0  0  0
    9.5042   -4.9417    0.0000 C   0  0  0  0  0  0           0  0  0
   13.6250   -7.6417    0.0000 O   0  0  0  0  0  0           0  0  0
   13.7917   -4.1000    0.0000 O   0  0  0  0  0  0           0  0  0
   11.9750   -7.6667    0.0000 C   0  0  0  0  0  0           0  0  0
    5.3750   -4.5375    0.0000 C   0  0  0  0  0  0           0  0  0
   11.1292   -6.2500    0.0000 C   0  0  0  0  0  0           0  0  0
    4.6625   -4.1250    0.0000 C   0  0  3  0  0  0           0  0  0
    3.9542   -2.8875    0.0000 C   0  0  0  0  0  0           0  0  0
    3.2375   -4.1250    0.0000 C   0  0  0  0  0  0           0  0  0
    4.6667   -3.3042    0.0000 C   0  0  0  0  0  0           0  0  0
    3.9500   -4.5417    0.0000 C   0  0  0  0  0  0           0  0  0
   11.1417   -7.6792    0.0000 C   0  0  0  0  0  0           0  0  0
   10.7250   -6.9667    0.0000 C   0  0  0  0  0  0           0  0  0
   11.9417   -4.8167    0.0000 H   0  0  0  0  0  0           0  0  0
  2  4  1  0     0  0
  3  2  1  0     0  0
  4 10  1  0     0  0
  5  6  1  0     0  0
  6  1  1  0     0  0
  7  1  1  0     0  0
  8  7  1  1     0  0
  9 23  1  0     0  0
 10 15  2  0     0  0
 11  5  1  0     0  0
 12 18  1  0     0  0
 13  9  1  0     0  0
 14  8  1  0     0  0
 15 12  1  0     0  0
 16  1  2  0     0  0
 17  1  2  0     0  0
 18 20  1  0     0  0
 19  2  2  0     0  0
 20  8  1  0     0  0
 21  3  1  0     0  0
 22 35  1  0     0  0
 23 27  2  0     0  0
 24 11  2  0     0  0
 25 12  2  0     0  0
 26 14  2  0     0  0
 27 15  1  0     0  0
 28 11  1  0     0  0
 29 14  1  0     0  0
 30  5  2  0     0  0
 31 21  1  0     0  0
 32  6  2  0     0  0
 33 31  1  0     0  0
 34 36  1  0     0  0
 35 37  1  0     0  0
 36 33  1  0     0  0
 37 33  1  0     0  0
 38 39  2  0     0  0
 39 32  1  0     0  0
  8 40  1  6     0  0
 30 38  1  0     0  0
  4  9  2  0     0  0
  3 13  1  0     0  0
 34 22  1  0     0  0
M  END