
  CDK    9/16/09,9:59

 19 20  0  0  0  0  0  0  0  0999 V2000
    2.9593  -17.7347    0.0000 C   0  0  0  0  0  0  0  0  0  0  0  0
    4.2039  -17.0285    0.0000 C   0  0  0  0  0  0  0  0  0  0  0  0
    3.7588  -16.3310    0.0000 C   0  0  0  0  0  0  0  0  0  0  0  0
    2.5173  -17.0400    0.0000 C   0  0  0  0  0  0  0  0  0  0  0  0
    1.6923  -17.0358    0.0000 C   0  0  0  0  0  0  0  0  0  0  0  0
    4.1751  -15.6193    0.0000 C   0  0  0  0  0  0  0  0  0  0  0  0
    3.6970  -14.9500    0.0000 C   0  0  0  0  0  0  0  0  0  0  0  0
    4.9652  -14.5427    0.0000 C   0  0  0  0  0  0  0  0  0  0  0  0
    4.9612  -15.3688    0.0000 C   0  0  0  0  0  0  0  0  0  0  0  0
    5.6739  -15.7842    0.0000 N   0  0  0  0  0  0  0  0  0  0  0  0
    6.3906  -15.3735    0.0000 C   0  0  0  0  0  0  0  0  0  0  0  0
    5.6820  -14.1321    0.0000 C   0  0  0  0  0  0  0  0  0  0  0  0
    5.6840  -13.3096    0.0000 O   0  0  0  0  0  0  0  0  0  0  0  0
    2.9338  -16.3279    0.0000 N   0  0  0  0  0  0  0  0  0  0  0  0
    2.5823  -18.4641    0.0000 O   0  0  0  0  0  0  0  0  0  0  0  0
    5.0281  -16.9889    0.0000 O   0  0  0  0  0  0  0  0  0  0  0  0
    1.2472  -16.3355    0.0000 O   0  0  0  0  0  0  0  0  0  0  0  0
    4.1822  -14.2828    0.0000 N   0  0  0  0  0  0  0  0  0  0  0  0
    6.3942  -14.5485    0.0000 N   0  0  0  0  0  0  0  0  0  0  0  0
  4  5  1  0  0  0  0 
  3  6  1  1  0  0  0 
  6  9  1  0  0  0  0 
  7  6  2  0  0  0  0 
  8  9  2  0  0  0  0 
  9 10  1  0  0  0  0 
 10 11  2  0  0  0  0 
 12  8  1  0  0  0  0 
 12 13  2  0  0  0  0 
  2  3  1  0  0  0  0 
  4  1  1  0  0  0  0 
  2 16  1  0  0  0  0 
  5 17  1  0  0  0  0 
  1 15  1  0  0  0  0 
  8 18  1  0  0  0  0 
 18  7  1  0  0  0  0 
  3 14  1  0  0  0  0 
 14  4  1  0  0  0  0 
 11 19  1  0  0  0  0 
 19 12  1  0  0  0  0 
M  END