
          03140815512D 1   1.00000     0.00000     0

 19 20  0     0  0            999 V2000
   -0.9208  -20.3167    0.0000 N   0  0  3  0  0  0           0  0  0
   -0.9208  -21.1417    0.0000 C   0  0  0  0  0  0           0  0  0
   -0.2088  -21.5500    0.0000 C   0  0  0  0  0  0           0  0  0
    0.5032  -21.1417    0.0000 O   0  0  0  0  0  0           0  0  0
    0.5032  -20.3167    0.0000 C   0  0  0  0  0  0           0  0  0
   -0.2088  -19.9000    0.0000 C   0  0  0  0  0  0           0  0  0
   -1.6365  -19.9063    0.0000 C   0  0  0  0  0  0           0  0  0
   -1.6389  -19.0813    0.0000 O   0  0  0  0  0  0           0  0  0
   -2.3498  -20.3209    0.0000 C   0  0  0  0  0  0           0  0  0
   -3.0654  -19.9104    0.0000 O   0  0  0  0  0  0           0  0  0
   -3.7787  -20.3250    0.0000 C   0  0  0  0  0  0           0  0  0
   -4.4937  -19.9113    0.0000 C   0  0  0  0  0  0           0  0  0
   -5.2064  -20.3252    0.0000 C   0  0  0  0  0  0           0  0  0
   -5.2045  -21.1511    0.0000 C   0  0  0  0  0  0           0  0  0
   -4.4838  -21.5613    0.0000 C   0  0  0  0  0  0           0  0  0
   -3.7739  -21.1451    0.0000 C   0  0  0  0  0  0           0  0  0
   -4.4784  -22.3863    0.0000 Cl  0  0  0  0  0  0           0  0  0
   -5.9172  -21.5666    0.0000 Cl  0  0  0  0  0  0           0  0  0
   -4.4943  -19.0863    0.0000 Cl  0  0  0  0  0  0           0  0  0
  2  3  1  0     0  0
  9 10  1  0     0  0
  3  4  1  0     0  0
 10 11  1  0     0  0
  4  5  1  0     0  0
 11 12  2  0     0  0
  5  6  1  0     0  0
 12 13  1  0     0  0
 13 14  2  0     0  0
  1  7  1  0     0  0
 14 15  1  0     0  0
  1  2  1  0     0  0
 15 16  2  0     0  0
 16 11  1  0     0  0
  7  8  2  0     0  0
 15 17  1  0     0  0
  1  6  1  0     0  0
 14 18  1  0     0  0
  7  9  1  0     0  0
 12 19  1  0     0  0
M  END