
  SciTegic04091414152D

 11 11  0  0  0  0            999 V2000
    3.2792   -6.3251    0.0000 C   0  0
    3.2792   -7.1501    0.0000 C   0  0
    3.9913   -7.5585    0.0000 C   0  0
    4.7033   -7.1501    0.0000 C   0  0
    4.7033   -6.3251    0.0000 C   0  0
    3.9913   -5.9085    0.0000 N   0  0
    5.4190   -5.9147    0.0000 O   0  0
    2.5635   -5.9147    0.0000 O   0  0
    2.5653   -7.5637    0.0000 C   0  0
    1.8547   -7.9767    0.0000 N   0  0
    3.9913   -8.3836    0.0000 C   0  0
  1  2  1  0
  1  6  1  0
  2  3  2  0
  3  4  1  0
  4  5  2  0
  5  6  1  0
  5  7  1  0
  1  8  2  0
  2  9  1  0
  9 10  3  0
  3 11  1  0
M  END