
          11280715222D 1   1.00000     0.00000     0

 33 36  0     1  0            999 V2000
    0.6667    0.3958    0.0000 S   0  0  3  0  0  0           0  0  0
    1.4917    0.4083    0.0000 N   0  0  3  0  0  0           0  0  0
    0.2500    1.1000    0.0000 C   0  0  0  0  0  0           0  0  0
    2.7417   -0.3000    0.0000 C   0  0  2  0  0  0           0  0  0
    1.9167   -0.3000    0.0000 C   0  0  0  0  0  0           0  0  0
    1.9125    1.1208    0.0000 C   0  0  0  0  0  0           0  0  0
    3.3250   -0.8792    0.0000 C   0  0  0  0  0  0           0  0  0
    2.7292    1.1250    0.0000 C   0  0  1  0  0  0           0  0  0
   -0.5750    1.0875    0.0000 C   0  0  0  0  0  0           0  0  0
    1.0375   -0.3417    0.0000 O   0  0  0  0  0  0           0  0  0
   -0.0708    0.0250    0.0000 O   0  0  0  0  0  0           0  0  0
    6.8667    2.2583    0.0000 C   0  0  0  0  0  0           0  0  0
    3.1167   -1.6750    0.0000 C   0  0  0  0  0  0           0  0  0
    6.6125    3.1583    0.0000 O   0  0  0  0  0  0           0  0  0
    4.0292    1.0833    0.0000 C   0  0  0  0  0  0           0  0  0
   -0.9958    1.7875    0.0000 C   0  0  0  0  0  0           0  0  0
    4.9667    1.0833    0.0000 C   0  0  0  0  0  0           0  0  0
    7.7667    2.0333    0.0000 O   0  0  0  0  0  0           0  0  0
    0.6542    1.8208    0.0000 C   0  0  0  0  0  0           0  0  0
    3.4375    1.5250    0.0000 C   0  0  0  0  0  0           0  0  0
    2.3167   -1.8917    0.0000 O   0  0  0  0  0  0           0  0  0
    4.1167   -0.6542    0.0000 C   0  0  0  0  0  0           0  0  0
   -0.9708    0.3708    0.0000 C   0  0  0  0  0  0           0  0  0
    0.2292    2.5333    0.0000 C   0  0  0  0  0  0           0  0  0
    6.2167    1.5958    0.0000 C   0  0  0  0  0  0           0  0  0
    5.4125    1.5833    0.0000 C   0  0  0  0  0  0           0  0  0
   -0.5958    2.5208    0.0000 C   0  0  0  0  0  0           0  0  0
    3.7042   -2.2542    0.0000 C   0  0  0  0  0  0           0  0  0
   -1.8125    1.7750    0.0000 C   0  0  0  0  0  0           0  0  0
    4.7042   -1.2375    0.0000 C   0  0  0  0  0  0           0  0  0
   -1.7833    0.3583    0.0000 C   0  0  0  0  0  0           0  0  0
    4.4917   -2.0375    0.0000 C   0  0  0  0  0  0           0  0  0
   -2.2083    1.0583    0.0000 C   0  0  0  0  0  0           0  0  0
  2  1  1  0     0  0
  3  1  1  0     0  0
  4  5  1  0     0  0
  5  2  1  0     0  0
  6  2  1  0     0  0
  4  7  1  1     0  0
  8  6  1  0     0  0
  9  3  1  0     0  0
 10  1  2  0     0  0
 11  1  2  0     0  0
 12 25  1  0     0  0
 13  7  2  0     0  0
 14 12  2  0     0  0
 15 20  1  0     0  0
 16  9  1  0     0  0
 17 15  2  0     0  0
 18 12  1  0     0  0
 19  3  2  0     0  0
  8 20  1  1     0  0
 21 13  1  0     0  0
 22  7  1  0     0  0
 23  9  2  0     0  0
 24 19  1  0     0  0
 25 26  1  0     0  0
 26 17  1  0     0  0
 27 24  2  0     0  0
 28 13  1  0     0  0
 29 16  2  0     0  0
 30 22  2  0     0  0
 31 23  1  0     0  0
 32 30  1  0     0  0
 33 31  2  0     0  0
  4  8  1  0     0  0
 27 16  1  0     0  0
 29 33  1  0     0  0
 28 32  2  0     0  0
M  END