
  SciTegic12171312552D

 35 40  0  0  0  0            999 V2000
    4.1115  -26.7221    0.0000 C   0  0
    5.1652  -27.1870    0.0000 O   0  0
    4.1081  -25.8951    0.0000 C   0  0
    4.6975  -25.3112    0.0000 N   0  0
    4.3243  -24.5703    0.0000 N   0  0
    3.5036  -24.6965    0.0000 N   0  0
    3.3707  -25.5150    0.0000 C   0  0
    3.0891  -23.9813    0.0000 C   0  0
    2.2625  -23.9828    0.0000 C   0  0
    0.6135  -23.9833    0.0000 C   0  0
    1.0325  -24.7008    0.0000 C   0  0
    1.8570  -24.6962    0.0000 C   0  0
    1.0264  -23.2662    0.0000 C   0  0
    1.8514  -23.2663    0.0000 C   0  0
    2.2623  -22.5531    0.0000 C   0  0
    1.8493  -21.8391    0.0000 C   0  0
    1.0210  -21.8430    0.0000 C   0  0
    0.6140  -22.5568    0.0000 C   0  0
    6.1084  -26.7221    0.0000 C   0  0
    5.5266  -25.3111    0.0000 N   0  0
    6.1084  -25.8918    0.0000 C   0  0
    6.8405  -25.5179    0.0000 C   0  0
    6.7122  -24.7053    0.0000 N   0  0
    5.8991  -24.5783    0.0000 N   0  0
    7.1127  -23.9823    0.0000 C   0  0
    7.9393  -23.9677    0.0000 C   0  0
    8.3626  -24.6750    0.0000 C   0  0
    9.1883  -24.6608    0.0000 C   0  0
    9.5897  -23.9372    0.0000 C   0  0
    8.3351  -23.2441    0.0000 C   0  0
    9.1555  -23.2290    0.0000 C   0  0
    9.5508  -22.5120    0.0000 C   0  0
    9.1268  -21.8097    0.0000 C   0  0
    8.3033  -21.8289    0.0000 C   0  0
    7.9117  -22.5464    0.0000 C   0  0
  1  3  1  0
  1  2  1  0
  3  4  1  0
  4  5  2  0
  5  6  1  0
  6  7  1  0
  7  3  2  0
  6  8  1  0
  8  9  1  0
  9 14  2  0
 13 10  2  0
 10 11  1  0
 11 12  2  0
 12  9  1  0
 13 14  1  0
 14 15  1  0
 15 16  2  0
 16 17  1  0
 17 18  2  0
 18 13  1  0
  2 19  1  0
 19 21  1  0
 20 21  1  0
 21 22  2  0
 22 23  1  0
 23 24  1  0
 24 20  2  0
 23 25  1  0
 25 26  1  0
 26 27  2  0
 27 28  1  0
 28 29  2  0
 29 31  1  0
 30 26  1  0
 30 31  1  0
 31 32  2  0
 32 33  1  0
 33 34  2  0
 34 35  1  0
 35 30  2  0
M  END