
  SciTegic01161211222D

 32 34  0  0  0  0            999 V2000
   -4.6875    0.5333    0.0000 O   0  0
   -4.6875   -0.2917    0.0000 C   0  0
   -3.9755   -0.7000    0.0000 C   0  0
   -3.2635   -0.2917    0.0000 N   0  0
   -3.2635    0.5333    0.0000 C   0  0
   -3.9755    0.9500    0.0000 C   0  0
   -2.5496   -0.7052    0.0000 C   0  0
   -2.5508   -1.5302    0.0000 O   0  0
   -1.8345   -0.2937    0.0000 N   0  0
   -1.1207   -0.7073    0.0000 C   0  0  2  0  0  0
   -0.4056   -0.2958    0.0000 C   0  0
   -1.1218   -1.5323    0.0000 C   0  0
   -1.5417   -2.2417    0.0000 C   0  0
   -2.3669   -2.2308    0.0000 C   0  0
   -2.7865   -2.9361    0.0000 C   0  0
   -2.3856   -3.6567    0.0000 C   0  0
   -1.5604   -3.6676    0.0000 C   0  0
   -1.1361   -2.9578    0.0000 C   0  0
    0.3083   -0.7094    0.0000 N   0  0
   -0.4044    0.5292    0.0000 O   0  0
    1.0234   -0.2979    0.0000 C   0  0  2  0  0  0
    1.7372   -0.7114    0.0000 C   0  0
    1.0246    0.5271    0.0000 C   0  0
    0.3107    0.9406    0.0000 O   0  0
    0.3119    1.7656    0.0000 C   0  0
   -0.4020    2.1792    0.0000 C   0  0
   -0.3958    3.0094    0.0000 C   0  0
   -1.1089    3.4188    0.0000 C   0  0
   -1.8249    3.0114    0.0000 C   0  0
   -1.8235    2.1821    0.0000 C   0  0
   -1.1099    1.7724    0.0000 C   0  0
    2.4458   -1.1208    0.0000 N   0  0
  1  6  1  0
 13 18  1  0
 14 15  1  0
 15 16  1  0
 16 17  1  0
 17 18  1  0
  7  9  1  0
 11 19  1  0
  2  3  1  0
 11 20  2  0
  9 10  1  0
 19 21  1  0
  3  4  1  0
 21 22  1  0
 10 11  1  0
 21 23  1  1
  4  5  1  0
 23 24  1  0
 10 12  1  6
 24 25  1  0
  5  6  1  0
 25 26  1  0
 12 13  1  0
 26 27  2  0
 13 14  1  0
 27 28  1  0
 28 29  2  0
  4  7  1  0
 29 30  1  0
  1  2  1  0
 30 31  2  0
 31 26  1  0
  7  8  2  0
 22 32  3  0
M  END