
  Mrv0541 04051115152D          

 10 11  0  0  0  0            999 V2000
    1.8135    0.7410    0.0000 O   0  0  0  0  0  0  0  0  0  0  0  0
    1.0990    0.3285    0.0000 C   0  0  0  0  0  0  0  0  0  0  0  0
    1.0990   -0.4965    0.0000 C   0  0  0  0  0  0  0  0  0  0  0  0
    0.3845   -0.9090    0.0000 C   0  0  0  0  0  0  0  0  0  0  0  0
   -0.3299   -0.4965    0.0000 C   0  0  0  0  0  0  0  0  0  0  0  0
   -1.1146   -0.7514    0.0000 N   0  0  0  0  0  0  0  0  0  0  0  0
    0.3845    0.7410    0.0000 C   0  0  0  0  0  0  0  0  0  0  0  0
   -0.3299    0.3285    0.0000 C   0  0  0  0  0  0  0  0  0  0  0  0
   -1.1146    0.5834    0.0000 C   0  0  0  0  0  0  0  0  0  0  0  0
   -1.5995   -0.0840    0.0000 C   0  0  0  0  0  0  0  0  0  0  0  0
  2  1  1  0  0  0  0
  2  3  2  0  0  0  0
  7  2  1  0  0  0  0
  3  4  1  0  0  0  0
  4  5  2  0  0  0  0
  5  6  1  0  0  0  0
  5  8  1  0  0  0  0
 10  6  1  0  0  0  0
  7  8  2  0  0  0  0
  9  8  1  0  0  0  0
 10  9  2  0  0  0  0
M  END