
  SciTegic04201616412D

 23 24  0  0  0  0            999 V2000
    0.7442   -1.6517    0.0000 C   0  0
    0.1203   -3.0186    0.0000 C   0  0
    0.9888   -4.2426    0.0000 C   0  0
    0.3638   -5.6071    0.0000 C   0  0
    2.1835   -4.1302    0.0000 C   0  0
   -1.1303   -5.7491    0.0000 C   0  0
   -1.7553   -7.1136    0.0000 C   0  0
   -3.2494   -7.2555    0.0000 C   0  0
   -3.8744   -8.6200    0.0000 C   0  0
   -3.9447   -6.2775    0.0000 C   0  0
   -5.3685   -8.7620    0.0000 C   0  0
   -6.0637   -7.7839    0.0000 O   0  0
   -5.8682   -9.8530    0.0000 O   0  0
    2.2325   -1.4158    0.0000 C   0  0
    2.9404    0.0000    0.0000 C   0  0
    0.7805    1.6880    0.0000 C   0  0
    2.2507    1.3976    0.0000 C   0  0
    0.0000   -0.7623    0.0000 C   0  0
    0.0000    0.7623    0.0000 C   0  0
   -1.4884    1.5247    0.0000 C   0  0
   -2.8315    0.7623    0.0000 C   0  0
   -2.8315   -0.7623    0.0000 C   0  0
   -1.4884   -1.5247    0.0000 C   0  0
  1  2  2  0
  2  3  1  0
  3  4  2  0
  3  5  1  0
  4  6  1  0
  6  7  2  0
  7  8  1  0
  8  9  2  0
  8 10  1  0
  9 11  1  0
 11 12  1  0
 11 13  2  0
  1 14  1  0
 14 15  1  0
  1 18  1  0
 19 16  1  0
 16 17  1  0
 17 15  1  0
 18 19  2  0
 19 20  1  0
 20 21  2  0
 21 22  1  0
 22 23  2  0
 23 18  1  0
M  END