
  SciTegic03251510122D

 46 49  0  0  1  0            999 V2000
    4.1470   -8.1099    0.0000 O   0  0  0  0  0  0  0  0  0  0  0  0
    1.2941   -4.0516    0.0000 O   0  0  0  0  0  0  0  0  0  0  0  0
   -2.6158   -7.1901    0.0000 O   0  0  0  0  0  0  0  0  0  0  0  0
    9.0826   -9.4710    0.0000 O   0  0  0  0  0  0  0  0  0  0  0  0
   11.6854   -8.2771    0.0000 O   0  0  0  0  0  0  0  0  0  0  0  0
   -1.3088   -5.2455    0.0000 N   0  0  0  0  0  0  0  0  0  0  0  0
    2.5894   -6.0047    0.0000 N   0  0  0  0  0  0  0  0  0  0  0  0
    7.7872   -7.5179    0.0000 N   0  0  0  0  0  0  0  0  0  0  0  0
   -3.9068   -5.2348    0.0000 N   0  0  0  0  0  0  0  0  0  0  0  0
    5.1873   -7.5117    0.0000 C   0  0  2  0  0  0  0  0  0  0  0  0
   -0.0105   -5.9986    0.0000 C   0  0  2  0  0  0  0  0  0  0  0  0
    6.4855   -8.2648    0.0000 C   0  0  2  0  0  0  0  0  0  0  0  0
    3.8912   -5.2578    0.0000 C   0  0  2  0  0  0  0  0  0  0  0  0
    1.2912   -5.2516    0.0000 C   0  0  0  0  0  0  0  0  0  0  0  0
    5.1894   -6.0109    0.0000 C   0  0  0  0  0  0  0  0  0  0  0  0
   -0.0172   -7.4994    0.0000 C   0  0  0  0  0  0  0  0  0  0  0  0
    6.4788   -9.7656    0.0000 C   0  0  0  0  0  0  0  0  0  0  0  0
    3.8978   -3.7570    0.0000 C   0  0  0  0  0  0  0  0  0  0  0  0
   -2.6109   -5.9901    0.0000 C   0  0  0  0  0  0  0  0  0  0  0  0
   -1.3026   -3.7455    0.0000 C   0  0  0  0  0  0  0  0  0  0  0  0
    5.1762  -10.5111    0.0000 C   0  0  0  0  0  0  0  0  0  0  0  0
    5.2004   -3.0115    0.0000 C   0  0  0  0  0  0  0  0  0  0  0  0
    9.0854   -8.2710    0.0000 C   0  0  0  0  0  0  0  0  0  0  0  0
   -2.5985   -2.9901    0.0000 C   0  0  0  0  0  0  0  0  0  0  0  0
   -1.0587   -8.0954    0.0000 C   0  0  0  0  0  0  0  0  0  0  0  0
    1.0196   -8.1036    0.0000 C   0  0  0  0  0  0  0  0  0  0  0  0
   -3.9006   -3.7348    0.0000 C   0  0  0  0  0  0  0  0  0  0  0  0
    5.1674  -12.0111    0.0000 C   0  0  0  0  0  0  0  0  0  0  0  0
    3.8815   -9.7536    0.0000 C   0  0  0  0  0  0  0  0  0  0  0  0
   10.3872   -7.5241    0.0000 C   0  0  0  0  0  0  0  0  0  0  0  0
    5.2093   -1.5115    0.0000 C   0  0  0  0  0  0  0  0  0  0  0  0
    6.4952   -3.7691    0.0000 C   0  0  0  0  0  0  0  0  0  0  0  0
   12.9872   -7.5302    0.0000 C   0  0  0  0  0  0  0  0  0  0  0  0
    3.8640  -12.7535    0.0000 C   0  0  0  0  0  0  0  0  0  0  0  0
    2.5781  -10.4960    0.0000 C   0  0  0  0  0  0  0  0  0  0  0  0
    6.5127   -0.7691    0.0000 C   0  0  0  0  0  0  0  0  0  0  0  0
    7.7986   -3.0266    0.0000 C   0  0  0  0  0  0  0  0  0  0  0  0
    2.5694  -11.9959    0.0000 C   0  0  0  0  0  0  0  0  0  0  0  0
   14.2858   -8.2810    0.0000 C   0  0  0  0  0  0  0  0  0  0  0  0
   12.9882   -6.0302    0.0000 C   0  0  0  0  0  0  0  0  0  0  0  0
    7.8073   -1.5267    0.0000 C   0  0  0  0  0  0  0  0  0  0  0  0
   15.5853   -7.5319    0.0000 C   0  0  0  0  0  0  0  0  0  0  0  0
   14.2878   -5.2810    0.0000 C   0  0  0  0  0  0  0  0  0  0  0  0
   15.5863   -6.0319    0.0000 C   0  0  0  0  0  0  0  0  0  0  0  0
   14.2851   -9.4810    0.0000 C   0  0  0  0  0  0  0  0  0  0  0  0
   11.9494   -5.4295    0.0000 C   0  0  0  0  0  0  0  0  0  0  0  0
 10  1  1  1  0  0  0
 14  2  2  0  0  0  0
 19  3  2  0  0  0  0
 23  4  2  0  0  0  0
 30  5  1  0  0  0  0
  5 33  1  0  0  0  0
 11  6  1  6  0  0  0
 19  6  1  0  0  0  0
  6 20  1  0  0  0  0
 13  7  1  1  0  0  0
  7 14  1  0  0  0  0
 12  8  1  1  0  0  0
  8 23  1  0  0  0  0
  9 19  1  0  0  0  0
 27  9  1  0  0  0  0
 10 12  1  0  0  0  0
 10 15  1  0  0  0  0
 14 11  1  0  0  0  0
 11 16  1  0  0  0  0
 12 17  1  0  0  0  0
 15 13  1  0  0  0  0
 13 18  1  0  0  0  0
 16 25  1  0  0  0  0
 16 26  1  0  0  0  0
 17 21  1  0  0  0  0
 18 22  1  0  0  0  0
 20 24  1  0  0  0  0
 28 21  2  0  0  0  0
 21 29  1  0  0  0  0
 31 22  2  0  0  0  0
 22 32  1  0  0  0  0
 23 30  1  0  0  0  0
 24 27  1  0  0  0  0
 34 28  1  0  0  0  0
 29 35  2  0  0  0  0
 36 31  1  0  0  0  0
 32 37  2  0  0  0  0
 39 33  1  0  0  0  0
 33 40  2  0  0  0  0
 38 34  2  0  0  0  0
 35 38  1  0  0  0  0
 41 36  2  0  0  0  0
 37 41  1  0  0  0  0
 42 39  2  0  0  0  0
 39 45  1  0  0  0  0
 40 43  1  0  0  0  0
 40 46  1  0  0  0  0
 44 42  1  0  0  0  0
 43 44  2  0  0  0  0
M  END