
          03140815512D 1   1.00000     0.00000     0

 28 32  0     0  0            999 V2000
   -5.6244  -16.6639    0.0000 C   0  0  0  0  0  0           0  0  0
   -4.9831  -15.9802    0.0000 C   0  0  3  0  0  0           0  0  0
   -4.8199  -16.4388    0.0000 C   0  0  3  0  0  0           0  0  0
   -4.2717  -16.2428    0.0000 C   0  0  0  0  0  0           0  0  0
   -4.0672  -16.7417    0.0000 C   0  0  0  0  0  0           0  0  0
   -3.5238  -16.0573    0.0000 C   0  0  3  0  0  0           0  0  0
   -4.8267  -15.5905    0.0000 C   0  0  0  0  0  0           0  0  0
   -4.2660  -14.9283    0.0000 C   0  0  3  0  0  0           0  0  0
   -4.9876  -15.1847    0.0000 C   0  0  0  0  0  0           0  0  0
   -3.5180  -15.2383    0.0000 C   0  0  0  0  0  0           0  0  0
   -4.2712  -14.1012    0.0000 C   0  0  0  0  0  0           0  0  0
   -3.5593  -13.6842    0.0000 N   0  0  0  0  0  0           0  0  0
   -2.8421  -14.0922    0.0000 C   0  0  0  0  0  0           0  0  0
   -2.1303  -13.6751    0.0000 C   0  0  0  0  0  0           0  0  0
   -2.8369  -14.9172    0.0000 O   0  0  0  0  0  0           0  0  0
   -1.4158  -14.0837    0.0000 C   0  0  0  0  0  0           0  0  0
   -0.7044  -13.6674    0.0000 C   0  0  0  0  0  0           0  0  0
   -0.7092  -12.8415    0.0000 C   0  0  0  0  0  0           0  0  0
   -1.4313  -12.4337    0.0000 C   0  0  0  0  0  0           0  0  0
   -2.1398  -12.8523    0.0000 C   0  0  0  0  0  0           0  0  0
   -1.4117  -14.9088    0.0000 Cl  0  0  0  0  0  0           0  0  0
   -1.4394  -11.6086    0.0000 C   0  0  0  0  0  0           0  0  0
   -0.7291  -11.1891    0.0000 C   0  0  3  0  0  0           0  0  0
   -0.0073  -11.5989    0.0000 C   0  0  0  0  0  0           0  0  0
    0.7011  -11.1829    0.0000 C   0  0  0  0  0  0           0  0  0
    0.6972  -10.3574    0.0000 N   0  0  0  0  0  0           0  0  0
   -0.0213   -9.9498    0.0000 C   0  0  0  0  0  0           0  0  0
   -0.7359  -10.3675    0.0000 C   0  0  0  0  0  0           0  0  0
 12 13  1  0     0  0
  2  4  1  0     0  0
 13 14  1  0     0  0
  3  5  1  0     0  0
 13 15  2  0     0  0
  4  6  1  0     0  0
 14 16  2  0     0  0
  5  6  1  0     0  0
 16 17  1  0     0  0
  7  8  1  0     0  0
 17 18  2  0     0  0
  3  7  1  0     0  0
 18 19  1  0     0  0
  2  9  1  0     0  0
 19 20  2  0     0  0
 20 14  1  0     0  0
  6 10  1  0     0  0
 16 21  1  0     0  0
 10  8  1  0     0  0
 19 22  1  0     0  0
  8  9  1  0     0  0
 22 23  1  0     0  0
 23 24  1  0     0  0
  8 11  1  0     0  0
  1  2  1  0     0  0
 11 12  1  0     0  0
  1  3  1  0     0  0
 23 28  1  0     0  0
 24 25  1  0     0  0
 25 26  1  0     0  0
 26 27  1  0     0  0
 27 28  1  0     0  0
M  END