
          02060813482D 1   1.00000     0.00000     0

 44 47  0     1  0            999 V2000
   -2.9517   -7.9843    0.0000 N   0  0  0  0  0  0           0  0  0
   -2.2372   -7.5718    0.0000 C   0  0  2  0  0  0           0  0  0
   -1.5228   -7.9843    0.0000 C   0  0  0  0  0  0           0  0  0
   -2.2372   -6.7468    0.0000 C   0  0  0  0  0  0           0  0  0
   -2.9517   -6.3343    0.0000 C   0  0  0  0  0  0           0  0  0
   -2.9489   -5.5083    0.0000 C   0  0  0  0  0  0           0  0  0
   -3.6626   -5.0958    0.0000 C   0  0  0  0  0  0           0  0  0
   -4.3781   -5.5084    0.0000 C   0  0  0  0  0  0           0  0  0
   -4.3755   -6.3377    0.0000 C   0  0  0  0  0  0           0  0  0
   -3.6612   -6.7463    0.0000 C   0  0  0  0  0  0           0  0  0
   -3.6586   -7.5714    0.0000 C   0  0  0  0  0  0           0  0  0
   -2.2337   -5.0971    0.0000 C   0  0  0  0  0  0           0  0  0
   -5.0931   -5.0967    0.0000 O   0  0  0  0  0  0           0  0  0
   -1.5228   -8.8093    0.0000 O   0  0  0  0  0  0           0  0  0
   -0.8083   -7.5718    0.0000 N   0  0  3  0  0  0           0  0  0
   -0.0994   -7.9868    0.0000 C   0  0  1  0  0  0           0  0  0
    0.6129   -7.5778    0.0000 C   0  0  0  0  0  0           0  0  0
   -0.8157   -6.7484    0.0000 C   0  0  0  0  0  0           0  0  0
   -0.0971   -6.3378    0.0000 C   0  0  0  0  0  0           0  0  0
    0.6143   -6.7521    0.0000 C   0  0  0  0  0  0           0  0  0
    1.3265   -6.3433    0.0000 C   0  0  0  0  0  0           0  0  0
    1.3288   -5.5204    0.0000 C   0  0  0  0  0  0           0  0  0
    0.6128   -5.1079    0.0000 C   0  0  0  0  0  0           0  0  0
   -0.0967   -5.5190    0.0000 C   0  0  0  0  0  0           0  0  0
   -0.1029   -8.8119    0.0000 C   0  0  0  0  0  0           0  0  0
   -0.8191   -9.2213    0.0000 O   0  0  0  0  0  0           0  0  0
    0.6099   -9.2273    0.0000 N   0  0  0  0  0  0           0  0  0
   -0.1054   -7.1593    0.0000 H   0  0  0  0  0  0           0  0  0
    1.3261   -8.8179    0.0000 C   0  0  0  0  0  0           0  0  0
    2.0388   -9.2334    0.0000 C   0  0  0  0  0  0           0  0  0
    2.7550   -8.8238    0.0000 C   0  0  0  0  0  0           0  0  0
    3.4678   -9.2394    0.0000 C   0  0  0  0  0  0           0  0  0
    4.1841   -8.8299    0.0000 C   0  0  1  0  0  0           0  0  0
    4.8968   -9.2454    0.0000 C   0  0  0  0  0  0           0  0  0
    4.1875   -8.0049    0.0000 N   0  0  0  0  0  0           0  0  0
    4.8932  -10.0704    0.0000 O   0  0  0  0  0  0           0  0  0
    5.6130   -8.8359    0.0000 N   0  0  0  0  0  0           0  0  0
    6.3257   -9.2514    0.0000 C   0  0  0  0  0  0           0  0  0
    7.0419   -8.8420    0.0000 C   0  0  0  0  0  0           0  0  0
    7.7530   -9.2615    0.0000 C   0  0  0  0  0  0           0  0  0
    8.4688   -8.8528    0.0000 C   0  0  0  0  0  0           0  0  0
    8.4726   -8.0269    0.0000 C   0  0  0  0  0  0           0  0  0
    7.7548   -7.6115    0.0000 C   0  0  0  0  0  0           0  0  0
    7.0421   -8.0227    0.0000 C   0  0  0  0  0  0           0  0  0
  2  3  1  0     0  0
 21 22  2  0     0  0
 10 11  1  0     0  0
 22 23  1  0     0  0
  5  6  2  0     0  0
 23 24  2  0     0  0
 24 19  1  0     0  0
  6 12  1  0     0  0
 16 25  1  0     0  0
  1  2  1  0     0  0
 25 26  2  0     0  0
  8 13  1  0     0  0
 25 27  1  0     0  0
  6  7  1  0     0  0
 16 28  1  6     0  0
  3 14  2  0     0  0
 27 29  1  0     0  0
  2  4  1  1     0  0
 29 30  1  0     0  0
  3 15  1  0     0  0
 30 31  1  0     0  0
 15 16  1  0     0  0
 31 32  1  0     0  0
  7  8  2  0     0  0
 32 33  1  0     0  0
 33 34  1  0     0  0
  8  9  1  0     0  0
 33 35  1  6     0  0
 15 18  1  0     0  0
 34 36  2  0     0  0
 16 17  1  0     0  0
 34 37  1  0     0  0
 17 20  1  0     0  0
 37 38  1  0     0  0
 19 18  1  0     0  0
 38 39  1  0     0  0
  4  5  1  0     0  0
 39 40  2  0     0  0
  9 10  2  0     0  0
 40 41  1  0     0  0
 19 20  2  0     0  0
 41 42  2  0     0  0
 10  5  1  0     0  0
 42 43  1  0     0  0
 20 21  1  0     0  0
 43 44  2  0     0  0
 44 39  1  0     0  0
M  END