
          11280715142D 1   1.00000     0.00000     0

 35 37  0     1  0            999 V2000
   -1.6625   -1.7500    0.0000 C   0  0  0  0  0  0           0  0  0
   -1.6625   -0.9292    0.0000 C   0  0  0  0  0  0           0  0  0
   -2.3750   -2.1667    0.0000 C   0  0  0  0  0  0           0  0  0
   -0.9500   -0.5167    0.0000 C   0  0  0  0  0  0           0  0  0
   -0.9458   -2.1625    0.0000 C   0  0  0  0  0  0           0  0  0
   -0.2375   -0.9292    0.0000 C   0  0  1  0  0  0           0  0  0
   -3.0958   -1.7542    0.0000 C   0  0  0  0  0  0           0  0  0
    0.4792   -0.5167    0.0000 N   0  0  3  0  0  0           0  0  0
   -2.3833   -0.5167    0.0000 C   0  0  0  0  0  0           0  0  0
   -0.2333   -1.7417    0.0000 C   0  0  0  0  0  0           0  0  0
   -3.0958   -0.9292    0.0000 C   0  0  0  0  0  0           0  0  0
    9.0542    0.3125    0.0000 C   0  0  0  0  0  0           0  0  0
    9.0500   -0.5125    0.0000 C   0  0  0  0  0  0           0  0  0
   -2.3708   -2.9917    0.0000 O   0  0  0  0  0  0           0  0  0
    6.1917   -0.4792    0.0000 N   0  0  0  0  0  0           0  0  0
   -3.8083   -2.1667    0.0000 O   0  0  0  0  0  0           0  0  0
    8.3417    0.7250    0.0000 O   0  0  0  0  0  0           0  0  0
    8.3292   -0.9167    0.0000 O   0  0  0  0  0  0           0  0  0
    0.4792    0.3125    0.0000 C   0  0  0  0  0  0           0  0  0
    1.1917   -0.9250    0.0000 C   0  0  0  0  0  0           0  0  0
    9.7750    0.7208    0.0000 C   0  0  0  0  0  0           0  0  0
    9.7542   -0.9292    0.0000 C   0  0  0  0  0  0           0  0  0
    6.9042   -0.9042    0.0000 C   0  0  0  0  0  0           0  0  0
    5.4792   -0.9042    0.0000 C   0  0  0  0  0  0           0  0  0
    7.6250   -0.5000    0.0000 C   0  0  0  0  0  0           0  0  0
    8.3542    1.5500    0.0000 C   0  0  0  0  0  0           0  0  0
    1.1917    0.7250    0.0000 C   0  0  0  0  0  0           0  0  0
    1.9042   -0.5167    0.0000 C   0  0  0  0  0  0           0  0  0
    4.7625   -0.4917    0.0000 C   0  0  0  0  0  0           0  0  0
    2.6167   -0.9167    0.0000 C   0  0  0  0  0  0           0  0  0
    3.3292   -0.5000    0.0000 C   0  0  0  0  0  0           0  0  0
    4.0500   -0.9125    0.0000 C   0  0  0  0  0  0           0  0  0
    1.9042    0.3083    0.0000 C   0  0  0  0  0  0           0  0  0
   10.4792    0.2958    0.0000 C   0  0  0  0  0  0           0  0  0
   10.4750   -0.5292    0.0000 C   0  0  0  0  0  0           0  0  0
  2  1  1  0     0  0
  3  1  2  0     0  0
  4  2  1  0     0  0
  5  1  1  0     0  0
  6 10  1  0     0  0
  7  3  1  0     0  0
  6  8  1  1     0  0
  9  2  2  0     0  0
 10  5  1  0     0  0
 11  7  2  0     0  0
 12 13  2  0     0  0
 13 18  1  0     0  0
 14  3  1  0     0  0
 15 24  1  0     0  0
 16  7  1  0     0  0
 17 12  1  0     0  0
 18 25  1  0     0  0
 19  8  1  0     0  0
 20  8  1  0     0  0
 21 12  1  0     0  0
 22 13  1  0     0  0
 23 15  1  0     0  0
 24 29  1  0     0  0
 25 23  1  0     0  0
 26 17  1  0     0  0
 27 19  1  0     0  0
 28 20  1  0     0  0
 29 32  1  0     0  0
 30 28  1  0     0  0
 31 30  1  0     0  0
 32 31  1  0     0  0
 33 27  1  0     0  0
 34 35  1  0     0  0
 35 22  2  0     0  0
  4  6  1  0     0  0
  9 11  1  0     0  0
 21 34  2  0     0  0
M  END