
  SciTegic06051315212D

 39 44  0  0  0  0            999 V2000
    3.6677   -5.0187    0.0000 C   0  0
    3.6665   -5.8382    0.0000 C   0  0
    4.3746   -6.2472    0.0000 C   0  0
    4.3728   -4.6098    0.0000 C   0  0
    5.0814   -5.0151    0.0000 C   0  0
    5.0848   -5.8403    0.0000 C   0  0
    5.7972   -6.2477    0.0000 C   0  0  1  0  0  0
    6.5107   -5.8344    0.0000 C   0  0
    6.5074   -5.0092    0.0000 C   0  0  2  0  0  0
    5.7904   -4.5973    0.0000 O   0  0
    7.2127   -4.5988    0.0000 C   0  0
    7.9220   -5.0069    0.0000 C   0  0
    8.6280   -4.5968    0.0000 C   0  0
    8.6259   -3.7787    0.0000 C   0  0
    7.9119   -3.3725    0.0000 C   0  0
    7.2089   -3.7849    0.0000 C   0  0
    5.8011   -7.0615    0.0000 C   0  0
    5.0929   -7.4714    0.0000 C   0  0
    5.0948   -8.2878    0.0000 C   0  0
    5.8041   -8.6953    0.0000 C   0  0
    6.5077   -7.4653    0.0000 C   0  0
    6.5128   -8.2836    0.0000 C   0  0
    7.2200   -8.6862    0.0000 C   0  0
    7.9268   -8.2749    0.0000 C   0  0  1  0  0  0
    7.9218   -7.4566    0.0000 C   0  0  2  0  0  0
    7.2099   -7.0495    0.0000 O   0  0
    8.6365   -8.6801    0.0000 O   0  0
    8.6231   -7.0452    0.0000 C   0  0
    9.3332   -7.4518    0.0000 C   0  0
   10.0383   -7.0403    0.0000 C   0  0
   10.0345   -6.2222    0.0000 C   0  0
    9.3197   -5.8175    0.0000 C   0  0
    8.6175   -6.2314    0.0000 C   0  0
   10.7395   -5.8091    0.0000 O   0  0
    5.8061   -9.5125    0.0000 O   0  0
    4.3845   -7.0640    0.0000 O   0  0
    5.0765   -6.6531    0.0000 O   0  0
    2.9599   -4.6102    0.0000 O   0  0
    9.3318   -3.3670    0.0000 O   0  0
  1  2  2  0
  2  3  1  0
  3  6  2  0
  5  4  2  0
  4  1  1  0
  5  6  1  0
  5 10  1  0
  6  7  1  0
  7  8  1  0
  8  9  1  0
  9 10  1  0
 11 12  2  0
 12 13  1  0
 13 14  2  0
 14 15  1  0
 15 16  2  0
 16 11  1  0
  9 11  1  6
 17 18  2  0
 18 19  1  0
 19 20  2  0
 20 22  1  0
 21 17  1  0
  7 17  1  1
 21 22  2  0
 21 26  1  0
 22 23  1  0
 23 24  1  0
 24 25  1  0
 25 26  1  0
 24 27  1  1
 28 29  2  0
 29 30  1  0
 30 31  2  0
 31 32  1  0
 32 33  2  0
 33 28  1  0
 25 28  1  6
 31 34  1  0
 20 35  1  0
 18 36  1  0
  3 37  1  0
  1 38  1  0
 14 39  1  0
M  END