
          11280714512D 1   1.00000     0.00000     0

 17 19  0     0  0            999 V2000
    5.6042   -5.8167    0.0000 O   0  0  0  0  0  0           0  0  0
    5.6042   -7.0292    0.0000 O   0  0  0  0  0  0           0  0  0
    5.0792   -6.1167    0.0000 C   0  0  0  0  0  0           0  0  0
    6.1167   -6.1167    0.0000 C   0  0  3  0  0  0           0  0  0
    7.1542   -6.1167    0.0000 N   0  0  3  0  0  0           0  0  0
    5.0792   -6.7250    0.0000 C   0  0  0  0  0  0           0  0  0
    6.6417   -5.8167    0.0000 C   0  0  0  0  0  0           0  0  0
    6.1167   -6.7250    0.0000 C   0  0  0  0  0  0           0  0  0
    7.1542   -6.7250    0.0000 C   0  0  0  0  0  0           0  0  0
    7.6792   -5.8167    0.0000 C   0  0  0  0  0  0           0  0  0
    4.5625   -5.8167    0.0000 C   0  0  0  0  0  0           0  0  0
    4.5625   -7.0292    0.0000 C   0  0  0  0  0  0           0  0  0
    8.2000   -6.1167    0.0000 C   0  0  0  0  0  0           0  0  0
    7.6792   -7.0292    0.0000 C   0  0  0  0  0  0           0  0  0
    4.0417   -6.1167    0.0000 C   0  0  0  0  0  0           0  0  0
    4.0417   -6.7250    0.0000 C   0  0  0  0  0  0           0  0  0
    8.2000   -6.7250    0.0000 C   0  0  0  0  0  0           0  0  0
  2  8  1  0     0  0
  3  1  1  0     0  0
  4  1  1  0     0  0
  5  7  1  0     0  0
  6  3  2  0     0  0
  7  4  1  0     0  0
  8  4  1  0     0  0
  9  5  1  0     0  0
 10  5  1  0     0  0
 11  3  1  0     0  0
 12  6  1  0     0  0
 13 10  1  0     0  0
 14  9  1  0     0  0
 15 11  2  0     0  0
 16 15  1  0     0  0
 17 13  1  0     0  0
  2  6  1  0     0  0
 12 16  2  0     0  0
 14 17  1  0     0  0
M  END