
  CDK    9/16/09,9:41

 86 86  0  0  0  0  0  0  0  0999 V2000
   -4.0569   -6.1235    0.0000 N   0  0  0  0  0  0  0  0  0  0  0  0
   -3.3483   -6.5350    0.0000 C   0  0  0  0  0  0  0  0  0  0  0  0
   -2.6300   -5.3013    0.0000 O   0  0  0  0  0  0  0  0  0  0  0  0
   -2.6305   -6.1262    0.0000 C   0  0  0  0  0  0  0  0  0  0  0  0
   -3.3515   -7.3632    0.0000 C   0  0  0  0  0  0  0  0  0  0  0  0
   -2.6314   -7.7814    0.0000 C   0  0  0  0  0  0  0  0  0  0  0  0
   -2.6349   -8.6021    0.0000 C   0  0  0  0  0  0  0  0  0  0  0  0
   -1.9126   -9.0217    0.0000 C   0  0  0  0  0  0  0  0  0  0  0  0
   -1.9172   -6.5406    0.0000 N   0  0  0  0  0  0  0  0  0  0  0  0
   -1.2009   -6.1260    0.0000 C   0  0  0  0  0  0  0  0  0  0  0  0
   -0.4948   -7.3552    0.0000 O   0  0  0  0  0  0  0  0  0  0  0  0
   -0.4924   -6.5376    0.0000 C   0  0  0  0  0  0  0  0  0  0  0  0
   -1.1977   -5.2979    0.0000 C   0  0  0  0  0  0  0  0  0  0  0  0
    0.2290   -6.1246    0.0000 N   0  0  0  0  0  0  0  0  0  0  0  0
    0.9368   -6.5357    0.0000 C   0  0  0  0  0  0  0  0  0  0  0  0
    1.6608   -5.2890    0.0000 O   0  0  0  0  0  0  0  0  0  0  0  0
    1.6564   -6.1202    0.0000 C   0  0  0  0  0  0  0  0  0  0  0  0
    0.9318   -7.3552    0.0000 C   0  0  0  0  0  0  0  0  0  0  0  0
    0.2248   -7.7617    0.0000 C   0  0  0  0  0  0  0  0  0  0  0  0
    3.0850   -6.1353    0.0000 C   0  0  0  0  0  0  0  0  0  0  0  0
    3.7875   -7.3653    0.0000 O   0  0  0  0  0  0  0  0  0  0  0  0
    3.7925   -6.5463    0.0000 C   0  0  0  0  0  0  0  0  0  0  0  0
    5.2184   -6.5429    0.0000 C   0  0  0  0  0  0  0  0  0  0  0  0
    5.9408   -5.2993    0.0000 O   0  0  0  0  0  0  0  0  0  0  0  0
    5.9400   -6.1329    0.0000 C   0  0  0  0  0  0  0  0  0  0  0  0
    6.6439   -6.5417    0.0000 N   0  0  0  0  0  0  0  0  0  0  0  0
    7.3676   -6.1281    0.0000 C   0  0  0  0  0  0  0  0  0  0  0  0
    8.0722   -7.3544    0.0000 O   0  0  0  0  0  0  0  0  0  0  0  0
    8.0750   -6.5390    0.0000 C   0  0  0  0  0  0  0  0  0  0  0  0
    7.3684   -5.2945    0.0000 C   0  0  0  0  0  0  0  0  0  0  0  0
    6.6491   -4.8767    0.0000 C   0  0  0  0  0  0  0  0  0  0  0  0
    6.6541   -4.0579    0.0000 C   0  0  0  0  0  0  0  0  0  0  0  0
    5.9348   -3.6401    0.0000 C   0  0  0  0  0  0  0  0  0  0  0  0
    9.5029   -6.5409    0.0000 C   0  0  0  0  0  0  0  0  0  0  0  0
   10.2274   -5.2937    0.0000 O   0  0  0  0  0  0  0  0  0  0  0  0
    9.5036   -7.3584    0.0000 C   0  0  0  0  0  0  0  0  0  0  0  0
   10.2266   -6.1273    0.0000 C   0  0  0  0  0  0  0  0  0  0  0  0
   10.9340   -6.5382    0.0000 N   0  0  0  0  0  0  0  0  0  0  0  0
   11.6958   -6.2605    0.0000 C   0  0  0  0  0  0  0  0  0  0  0  0
   11.0304   -5.0201    0.0000 O   0  0  0  0  0  0  0  0  0  0  0  0
   11.7419   -5.4358    0.0000 C   0  0  0  0  0  0  0  0  0  0  0  0
   12.3826   -6.7244    0.0000 C   0  0  0  0  0  0  0  0  0  0  0  0
   11.1016   -7.4145    0.0000 C   0  0  0  0  0  0  0  0  0  0  0  0
   11.9933   -7.5358    0.0000 C   0  0  0  0  0  0  0  0  0  0  0  0
   10.3175   -1.3101    0.0000 C   0  0  0  0  0  0  0  0  0  0  0  0
   12.4572   -4.1941    0.0000 C   0  0  0  0  0  0  0  0  0  0  0  0
   13.8862   -4.1985    0.0000 O   0  0  0  0  0  0  0  0  0  0  0  0
   13.1729   -3.7865    0.0000 C   0  0  0  0  0  0  0  0  0  0  0  0
   11.7458   -3.7784    0.0000 C   0  0  0  0  0  0  0  0  0  0  0  0
   11.7500   -2.9551    0.0000 C   0  0  0  0  0  0  0  0  0  0  0  0
   11.0348   -2.5376    0.0000 C   0  0  0  0  0  0  0  0  0  0  0  0
   13.8993   -2.5644    0.0000 C   0  0  0  0  0  0  0  0  0  0  0  0
   13.1883   -1.3236    0.0000 O   0  0  0  0  0  0  0  0  0  0  0  0
   13.9054   -1.7374    0.0000 C   0  0  0  0  0  0  0  0  0  0  0  0
   14.6108   -2.9801    0.0000 C   0  0  0  0  0  0  0  0  0  0  0  0
   15.3283   -2.5688    0.0000 C   0  0  0  0  0  0  0  0  0  0  0  0
   16.0397   -2.9845    0.0000 C   0  0  0  0  0  0  0  0  0  0  0  0
   16.7554   -2.5770    0.0000 C   0  0  0  0  0  0  0  0  0  0  0  0
   14.6278   -0.4960    0.0000 C   0  0  0  0  0  0  0  0  0  0  0  0
   15.3495    0.7386    0.0000 O   0  0  0  0  0  0  0  0  0  0  0  0
   15.3453   -0.0847    0.0000 C   0  0  0  0  0  0  0  0  0  0  0  0
   13.9163   -0.0803    0.0000 C   0  0  0  0  0  0  0  0  0  0  0  0
   13.9206    0.7430    0.0000 C   0  0  0  0  0  0  0  0  0  0  0  0
   13.2054    1.1606    0.0000 C   0  0  0  0  0  0  0  0  0  0  0  0
   13.2114    1.9876    0.0000 O   0  0  0  0  0  0  0  0  0  0  0  0
   10.9776   -5.8442    0.0000 H   0  0  0  0  0  0  0  0  0  0  0  0
    6.6459   -2.4019    0.0000 C   0  0  0  0  0  0  0  0  0  0  0  0
    6.6451   -1.5769    0.0000 O   0  0  0  0  0  0  0  0  0  0  0  0
    7.3607   -2.8138    0.0000 C   0  0  0  0  0  0  0  0  0  0  0  0
    7.3615   -3.6388    0.0000 O   0  0  0  0  0  0  0  0  0  0  0  0
   -1.9193   -9.8320    0.0000 N   0  0  0  0  0  0  0  0  0  0  0  0
   -0.5004   -4.8918    0.0000 O   0  0  0  0  0  0  0  0  0  0  0  0
    1.6485   -7.7741    0.0000 O   0  0  0  0  0  0  0  0  0  0  0  0
    2.3663   -6.5405    0.0000 N   0  0  0  0  0  0  0  0  0  0  0  0
    4.5045   -6.1295    0.0000 N   0  0  0  0  0  0  0  0  0  0  0  0
    5.9318   -2.8151    0.0000 N   0  0  0  0  0  0  0  0  0  0  0  0
    8.7895   -6.1265    0.0000 N   0  0  0  0  0  0  0  0  0  0  0  0
   11.0376   -1.7126    0.0000 N   0  0  0  0  0  0  0  0  0  0  0  0
    9.5933   -1.7032    0.0000 N   0  0  0  0  0  0  0  0  0  0  0  0
   10.3113   -0.4668    0.0000 N   0  0  0  0  0  0  0  0  0  0  0  0
   12.4540   -5.0191    0.0000 N   0  0  0  0  0  0  0  0  0  0  0  0
   13.1762   -2.9615    0.0000 N   0  0  0  0  0  0  0  0  0  0  0  0
   17.4642   -2.9874    0.0000 N   0  0  0  0  0  0  0  0  0  0  0  0
   14.6176   -1.3210    0.0000 N   0  0  0  0  0  0  0  0  0  0  0  0
   12.4897    0.7530    0.0000 N   0  0  0  0  0  0  0  0  0  0  0  0
   16.0568   -0.5004    0.0000 O   0  0  0  0  0  0  0  0  0  0  0  0
 10 12  1  0  0  0  0 
 12 11  2  0  0  0  0 
 10 13  1  0  0  0  0 
 15 14  1  6  0  0  0 
 15 17  1  0  0  0  0 
 17 16  2  0  0  0  0 
 15 18  1  0  0  0  0 
 18 19  1  0  0  0  0 
 20 22  1  0  0  0  0 
 22 21  2  0  0  0  0 
 23 25  1  0  0  0  0 
 25 24  2  0  0  0  0 
 27 26  1  1  0  0  0 
 27 29  1  0  0  0  0 
 29 28  2  0  0  0  0 
 27 30  1  0  0  0  0 
 30 31  1  0  0  0  0 
 31 32  1  0  0  0  0 
 32 33  1  0  0  0  0 
 34 37  1  0  0  0  0 
 37 35  2  0  0  0  0 
 34 36  1  6  0  0  0 
 38 39  1  0  0  0  0 
 39 41  1  0  0  0  0 
 41 40  2  0  0  0  0 
 39 42  1  0  0  0  0 
 43 44  1  0  0  0  0 
 44 42  1  0  0  0  0 
 43 38  1  0  0  0  0 
 46 48  1  0  0  0  0 
 48 47  2  0  0  0  0 
 46 49  1  1  0  0  0 
 49 50  1  0  0  0  0 
 50 51  1  0  0  0  0 
 52 54  1  0  0  0  0 
 54 53  2  0  0  0  0 
 52 55  1  6  0  0  0 
 55 56  1  0  0  0  0 
 56 57  1  0  0  0  0 
 57 58  1  0  0  0  0 
 59 61  1  0  0  0  0 
 61 60  2  0  0  0  0 
 59 62  1  1  0  0  0 
 62 63  1  0  0  0  0 
 63 64  1  0  0  0  0 
 64 65  2  0  0  0  0 
 39 66  1  1  0  0  0 
  4  9  1  0  0  0  0 
 12 14  1  0  0  0  0 
 67 68  2  0  0  0  0 
 67 69  1  0  0  0  0 
 69 70  1  0  0  0  0 
 25 26  1  0  0  0  0 
 37 38  1  0  0  0  0 
  2  1  1  6  0  0  0 
  2  4  1  0  0  0  0 
  4  3  2  0  0  0  0 
  2  5  1  0  0  0  0 
  5  6  1  0  0  0  0 
  6  7  1  0  0  0  0 
  7  8  1  0  0  0  0 
 10  9  1  1  0  0  0 
 78 45  1  0  0  0  0 
 51 78  1  0  0  0  0 
 74 20  1  0  0  0  0 
 17 74  1  0  0  0  0 
 45 79  1  0  0  0  0 
 13 72  1  0  0  0  0 
 45 80  2  0  0  0  0 
 75 23  1  0  0  0  0 
 22 75  1  0  0  0  0 
 81 46  1  0  0  0  0 
 41 81  1  0  0  0  0 
  8 71  1  0  0  0  0 
 82 52  1  0  0  0  0 
 48 82  1  0  0  0  0 
 33 76  1  0  0  0  0 
 76 67  1  0  0  0  0 
 58 83  1  0  0  0  0 
 18 73  1  6  0  0  0 
 84 59  1  0  0  0  0 
 54 84  1  0  0  0  0 
 77 34  1  0  0  0  0 
 29 77  1  0  0  0  0 
 64 85  1  0  0  0  0 
 61 86  1  0  0  0  0 
M  END