
          11280715072D 1   1.00000     0.00000     0

 16 17  0     0  0            999 V2000
    0.4542   -6.1292    0.0000 C   0  0  0  0  0  0           0  0  0
    0.8292   -6.7417    0.0000 N   0  0  3  0  0  0           0  0  0
   -0.2625   -6.1417    0.0000 N   0  0  3  0  0  0           0  0  0
    1.9292   -7.3417    0.0000 C   0  0  0  0  0  0           0  0  0
    2.3000   -7.9625    0.0000 C   0  0  0  0  0  0           0  0  0
    3.4000   -8.5625    0.0000 N   0  0  3  0  0  0           0  0  0
    0.8042   -5.5000    0.0000 O   0  0  0  0  0  0           0  0  0
   -0.2375   -7.3917    0.0000 C   0  0  0  0  0  0           0  0  0
    0.4792   -7.3750    0.0000 C   0  0  0  0  0  0           0  0  0
    1.5542   -6.7292    0.0000 C   0  0  0  0  0  0           0  0  0
    2.6750   -8.5792    0.0000 C   0  0  0  0  0  0           0  0  0
   -0.8583   -5.5750    0.0000 C   0  0  0  0  0  0           0  0  0
    3.8417   -9.1292    0.0000 C   0  0  0  0  0  0           0  0  0
    3.8125   -7.9625    0.0000 C   0  0  0  0  0  0           0  0  0
    4.5042   -8.1667    0.0000 C   0  0  0  0  0  0           0  0  0
    4.5250   -8.8917    0.0000 C   0  0  0  0  0  0           0  0  0
  2  1  1  0     0  0
  3  1  1  0     0  0
  4 10  1  0     0  0
  5  4  3  0     0  0
  6 11  1  0     0  0
  7  1  2  0     0  0
  8  3  1  0     0  0
  9  2  1  0     0  0
 10  2  1  0     0  0
 11  5  1  0     0  0
 12  3  1  0     0  0
 13  6  1  0     0  0
 14  6  1  0     0  0
 15 14  1  0     0  0
 16 13  1  0     0  0
  9  8  1  0     0  0
 15 16  1  0     0  0
M  END