
          11280715492D 1   1.00000     0.00000     0

 24 26  0     0  0            999 V2000
    0.9115  -12.4906    0.0000 S   0  0  3  0  0  0           0  0  0
    1.6297  -12.0785    0.0000 C   0  0  0  0  0  0           0  0  0
   -2.6542  -10.4250    0.0000 C   0  0  3  0  0  0           0  0  0
   -2.6542  -11.2500    0.0000 C   0  0  0  0  0  0           0  0  0
   -1.9421  -11.6583    0.0000 C   0  0  0  0  0  0           0  0  0
   -1.2301  -11.2500    0.0000 N   0  0  3  0  0  0           0  0  0
   -1.2301  -10.4250    0.0000 C   0  0  0  0  0  0           0  0  0
   -1.9421  -10.0083    0.0000 C   0  0  0  0  0  0           0  0  0
   -3.3698  -10.0146    0.0000 C   0  0  0  0  0  0           0  0  0
   -4.0831  -10.4292    0.0000 C   0  0  0  0  0  0           0  0  0
   -4.8375  -10.0960    0.0000 C   0  0  0  0  0  0           0  0  0
   -5.3877  -10.7107    0.0000 N   0  0  0  0  0  0           0  0  0
   -4.9731  -11.4240    0.0000 C   0  0  0  0  0  0           0  0  0
   -4.1667  -11.2500    0.0000 N   0  0  0  0  0  0           0  0  0
   -0.5163  -11.6635    0.0000 C   0  0  0  0  0  0           0  0  0
   -0.5175  -12.4885    0.0000 C   0  0  0  0  0  0           0  0  0
    0.1964  -12.9021    0.0000 C   0  0  0  0  0  0           0  0  0
    2.3397  -12.4968    0.0000 C   0  0  0  0  0  0           0  0  0
    3.0563  -12.0896    0.0000 C   0  0  0  0  0  0           0  0  0
    3.0621  -11.2637    0.0000 C   0  0  0  0  0  0           0  0  0
    2.3453  -10.8467    0.0000 C   0  0  0  0  0  0           0  0  0
    1.6316  -11.2563    0.0000 C   0  0  0  0  0  0           0  0  0
    0.5005  -11.7753    0.0000 O   0  0  0  0  0  0           0  0  0
    1.3198  -13.2075    0.0000 O   0  0  0  0  0  0           0  0  0
  5  6  1  0     0  0
 11 12  1  0     0  0
 12 13  1  0     0  0
 13 14  2  0     0  0
 14 10  1  0     0  0
  6  7  1  0     0  0
  6 15  1  0     0  0
  7  8  1  0     0  0
 15 16  1  0     0  0
 16 17  1  0     0  0
 17  1  1  0     0  0
  3  9  1  0     0  0
  2 18  2  0     0  0
  1  2  1  0     0  0
 18 19  1  0     0  0
  9 10  1  0     0  0
 19 20  2  0     0  0
 10 11  2  0     0  0
 20 21  1  0     0  0
  3  4  1  0     0  0
 21 22  2  0     0  0
 22  2  1  0     0  0
  3  8  1  0     0  0
  1 23  2  0     0  0
  4  5  1  0     0  0
  1 24  2  0     0  0
M  END