
          11280715502D 1   1.00000     0.00000     0

 45 49  0     1  0            999 V2000
    3.3264   -2.7780    0.0000 N   0  0  3  0  0  0           0  0  0
    2.6317   -3.2181    0.0000 C   0  0  0  0  0  0           0  0  0
    2.6662   -4.0388    0.0000 C   0  0  0  0  0  0           0  0  0
    3.3966   -4.4231    0.0000 O   0  0  0  0  0  0           0  0  0
    4.0939   -3.9805    0.0000 C   0  0  0  0  0  0           0  0  0
    4.0609   -3.1535    0.0000 C   0  0  0  0  0  0           0  0  0
    2.6542    0.9375    0.0000 C   0  0  0  0  0  0           0  0  0
    3.3643    0.5177    0.0000 N   0  0  0  0  0  0           0  0  0
    3.3558   -0.3073    0.0000 O   0  0  0  0  0  0           0  0  0
    4.0660   -0.7272    0.0000 C   0  0  0  0  0  0           0  0  0
    4.0575   -1.5521    0.0000 C   0  0  0  0  0  0           0  0  0
   -3.0556    1.7459    0.0000 C   0  0  0  0  0  0           0  0  0
   -3.0568    0.9185    0.0000 C   0  0  0  0  0  0           0  0  0
   -2.3419    0.5056    0.0000 C   0  0  0  0  0  0           0  0  0
   -1.6255    0.9190    0.0000 C   0  0  0  0  0  0           0  0  0
   -1.6284    1.7495    0.0000 C   0  0  0  0  0  0           0  0  0
   -2.3437    2.1586    0.0000 C   0  0  0  0  0  0           0  0  0
   -0.9154    2.1647    0.0000 C   0  0  0  0  0  0           0  0  0
   -0.1994    1.7549    0.0000 N   0  0  3  0  0  0           0  0  0
   -0.9186    2.9897    0.0000 O   0  0  0  0  0  0           0  0  0
   -0.1989    0.9281    0.0000 C   0  0  1  0  0  0           0  0  0
    0.5130    0.5184    0.0000 C   0  0  0  0  0  0           0  0  0
    1.2283    0.9301    0.0000 N   0  0  3  0  0  0           0  0  0
    1.2272    1.7561    0.0000 C   0  0  0  0  0  0           0  0  0
    0.5107    2.1703    0.0000 C   0  0  0  0  0  0           0  0  0
   -0.9130    0.5149    0.0000 C   0  0  0  0  0  0           0  0  0
   -0.9208   -0.3083    0.0000 C   0  0  0  0  0  0           0  0  0
   -1.5888   -0.7896    0.0000 C   0  0  0  0  0  0           0  0  0
   -1.3418   -1.5750    0.0000 N   0  0  0  0  0  0           0  0  0
   -0.2568   -0.8023    0.0000 C   0  0  0  0  0  0           0  0  0
   -0.5188   -1.5813    0.0000 C   0  0  0  0  0  0           0  0  0
    0.0244   -2.1957    0.0000 C   0  0  0  0  0  0           0  0  0
    0.8297   -2.0322    0.0000 C   0  0  0  0  0  0           0  0  0
    1.0889   -1.2489    0.0000 C   0  0  0  0  0  0           0  0  0
    0.5440   -0.6379    0.0000 C   0  0  0  0  0  0           0  0  0
   -2.3500   -0.3167    0.0000 C   0  0  3  0  0  0           0  0  0
   -1.5250   -0.3167    0.0000 F   0  0  0  0  0  0           0  0  0
   -2.3542   -1.1417    0.0000 F   0  0  0  0  0  0           0  0  0
   -3.1750   -0.3125    0.0000 F   0  0  0  0  0  0           0  0  0
   -3.7702    2.1582    0.0000 C   0  0  3  0  0  0           0  0  0
   -4.1875    1.4458    0.0000 F   0  0  0  0  0  0           0  0  0
   -3.3625    2.8750    0.0000 F   0  0  0  0  0  0           0  0  0
   -4.4875    2.5708    0.0000 F   0  0  0  0  0  0           0  0  0
    1.9428    0.5176    0.0000 C   0  0  0  0  0  0           0  0  0
    3.3388   -1.9572    0.0000 C   0  0  0  0  0  0           0  0  0
 12 13  2  0     0  0
 19 25  1  0     0  0
 21 22  1  0     0  0
 22 23  1  0     0  0
 23 24  1  0     0  0
 24 25  1  0     0  0
  1  2  1  0     0  0
 21 26  1  1     0  0
 13 14  1  0     0  0
 26 27  1  0     0  0
 27 28  2  0     0  0
 14 15  2  0     0  0
 28 29  1  0     0  0
 29 31  1  0     0  0
 30 27  1  0     0  0
  7  8  2  0     0  0
 15 16  1  0     0  0
 30 31  2  0     0  0
  1  6  1  0     0  0
 31 32  1  0     0  0
 16 17  2  0     0  0
 32 33  2  0     0  0
 17 12  1  0     0  0
 33 34  1  0     0  0
  8  9  1  0     0  0
 34 35  2  0     0  0
 35 30  1  0     0  0
 16 18  1  0     0  0
 14 36  1  0     0  0
  2  3  1  0     0  0
 36 37  1  0     0  0
 18 19  1  0     0  0
 36 38  1  0     0  0
  9 10  1  0     0  0
 36 39  1  0     0  0
 18 20  2  0     0  0
 12 40  1  0     0  0
 19 21  1  0     0  0
 40 41  1  0     0  0
  3  4  1  0     0  0
 40 42  1  0     0  0
 10 11  1  0     0  0
 40 43  1  0     0  0
  4  5  1  0     0  0
 23 44  1  0     0  0
 44  7  1  0     0  0
  5  6  1  0     0  0
 11 45  1  0     0  0
 45  1  1  0     0  0
M  END