
          11280715572D 1   1.00000     0.00000     0

 78 83  0     1  0            999 V2000
    8.5292   -3.5292    0.0000 N   0  0  3  0  0  0           0  0  0
    8.0167   -3.2292    0.0000 C   0  0  0  0  0  0           0  0  0
    1.7667   -3.2667    0.0000 C   0  0  0  0  0  0           0  0  0
    3.3375   -3.5542    0.0000 C   0  0  0  0  0  0           0  0  0
    4.8917   -3.2417    0.0000 C   0  0  0  0  0  0           0  0  0
    6.4542   -3.5292    0.0000 C   0  0  0  0  0  0           0  0  0
    9.0917   -3.7500    0.0000 C   0  0  3  0  0  0           0  0  0
    1.2542   -3.5792    0.0000 C   0  0  1  0  0  0           0  0  0
    2.2917   -3.5667    0.0000 N   0  0  0  0  0  0           0  0  0
    5.4167   -3.5417    0.0000 N   0  0  0  0  0  0           0  0  0
    3.8542   -3.2542    0.0000 N   0  0  0  0  0  0           0  0  0
    6.9750   -3.2250    0.0000 N   0  0  0  0  0  0           0  0  0
    2.8042   -3.2625    0.0000 C   0  0  1  0  0  0           0  0  0
    4.3792   -3.5500    0.0000 C   0  0  2  0  0  0           0  0  0
    5.9375   -3.2375    0.0000 C   0  0  1  0  0  0           0  0  0
    0.7292   -3.2792    0.0000 N   0  0  0  0  0  0           0  0  0
    0.2042   -3.5792    0.0000 C   0  0  0  0  0  0           0  0  0
    9.2500   -4.3292    0.0000 C   0  0  0  0  0  0           0  0  0
    7.5000   -3.5292    0.0000 C   0  0  1  0  0  0           0  0  0
    8.5042   -5.9417    0.0000 C   0  0  0  0  0  0           0  0  0
   -0.8333   -3.5917    0.0000 C   0  0  0  0  0  0           0  0  0
   -0.3125   -3.2875    0.0000 C   0  0  0  0  0  0           0  0  0
   -1.3500   -3.2917    0.0000 C   0  0  0  0  0  0           0  0  0
    7.9875   -6.2375    0.0000 N   0  0  0  0  0  0           0  0  0
    8.0250   -2.6292    0.0000 O   0  0  0  0  0  0           0  0  0
    1.7667   -2.6667    0.0000 O   0  0  0  0  0  0           0  0  0
    4.8917   -2.6417    0.0000 O   0  0  0  0  0  0           0  0  0
    6.4667   -4.1292    0.0000 O   0  0  0  0  0  0           0  0  0
    3.3417   -4.1542    0.0000 O   0  0  0  0  0  0           0  0  0
    2.8042   -2.6542    0.0000 C   0  0  0  0  0  0           0  0  0
    4.3792   -4.1500    0.0000 C   0  0  0  0  0  0           0  0  0
    8.8167   -4.7542    0.0000 O   0  0  0  0  0  0           0  0  0
    0.2167   -4.1875    0.0000 O   0  0  0  0  0  0           0  0  0
    5.9292   -2.6375    0.0000 C   0  0  0  0  0  0           0  0  0
    8.5167   -5.3417    0.0000 N   0  0  0  0  0  0           0  0  0
    9.8292   -4.4875    0.0000 N   0  0  0  0  0  0           0  0  0
    9.0250   -6.2500    0.0000 N   0  0  0  0  0  0           0  0  0
    8.5667   -2.9292    0.0000 C   0  0  0  0  0  0           0  0  0
   -1.8708   -3.5917    0.0000 C   0  0  0  0  0  0           0  0  0
    3.3250   -2.3542    0.0000 C   0  0  0  0  0  0           0  0  0
    4.3625   -1.7417    0.0000 C   0  0  0  0  0  0           0  0  0
    1.7792   -4.4667    0.0000 O   0  0  0  0  0  0           0  0  0
    1.2542   -4.1750    0.0000 C   0  0  0  0  0  0           0  0  0
    4.9042   -4.4417    0.0000 C   0  0  0  0  0  0           0  0  0
    3.3167   -1.7542    0.0000 C   0  0  0  0  0  0           0  0  0
    3.8500   -2.6500    0.0000 C   0  0  0  0  0  0           0  0  0
    3.8417   -1.4500    0.0000 C   0  0  0  0  0  0           0  0  0
    4.3667   -2.3417    0.0000 C   0  0  0  0  0  0           0  0  0
    9.4750   -3.2875    0.0000 C   0  0  0  0  0  0           0  0  0
    4.8792   -1.4417    0.0000 O   0  0  0  0  0  0           0  0  0
   -0.8250   -4.1875    0.0000 C   0  0  0  0  0  0           0  0  0
    2.3042   -5.3667    0.0000 C   0  0  0  0  0  0           0  0  0
    9.1500   -2.7792    0.0000 C   0  0  0  0  0  0           0  0  0
    7.4917   -4.1292    0.0000 C   0  0  0  0  0  0           0  0  0
   -1.3458   -4.4875    0.0000 C   0  0  0  0  0  0           0  0  0
    6.4417   -2.3292    0.0000 C   0  0  3  0  0  0           0  0  0
   -1.3583   -2.6917    0.0000 C   0  0  0  0  0  0           0  0  0
    1.7792   -5.0667    0.0000 C   0  0  0  0  0  0           0  0  0
   -1.8708   -4.1917    0.0000 C   0  0  0  0  0  0           0  0  0
    9.9792   -5.0667    0.0000 C   0  0  0  0  0  0           0  0  0
    8.0000   -5.0417    0.0000 C   0  0  0  0  0  0           0  0  0
   -2.3833   -3.2917    0.0000 C   0  0  0  0  0  0           0  0  0
    4.9042   -5.0417    0.0000 C   0  0  0  0  0  0           0  0  0
    5.4125   -4.1417    0.0000 C   0  0  0  0  0  0           0  0  0
    2.3042   -5.9667    0.0000 C   0  0  0  0  0  0           0  0  0
    2.8167   -5.0667    0.0000 C   0  0  0  0  0  0           0  0  0
    8.0042   -4.4417    0.0000 C   0  0  0  0  0  0           0  0  0
    6.9667   -2.6250    0.0000 C   0  0  0  0  0  0           0  0  0
    6.4417   -1.7292    0.0000 C   0  0  0  0  0  0           0  0  0
   10.5542   -5.2250    0.0000 C   0  0  0  0  0  0           0  0  0
   -1.8708   -2.3917    0.0000 C   0  0  0  0  0  0           0  0  0
   -2.3958   -2.7000    0.0000 C   0  0  0  0  0  0           0  0  0
    3.3375   -5.3625    0.0000 C   0  0  0  0  0  0           0  0  0
    5.9292   -4.4292    0.0000 C   0  0  0  0  0  0           0  0  0
    2.8250   -6.2667    0.0000 C   0  0  0  0  0  0           0  0  0
    5.4250   -5.3292    0.0000 C   0  0  0  0  0  0           0  0  0
    5.9417   -5.0292    0.0000 C   0  0  0  0  0  0           0  0  0
    3.3417   -5.9667    0.0000 C   0  0  0  0  0  0           0  0  0
  2  1  1  0     0  0
  3  9  1  0     0  0
  4 11  1  0     0  0
  5 10  1  0     0  0
  6 12  1  0     0  0
  7  1  1  0     0  0
  8  3  1  0     0  0
  9 13  1  0     0  0
 10 15  1  0     0  0
 11 14  1  0     0  0
 12 19  1  0     0  0
 13  4  1  0     0  0
 14  5  1  0     0  0
 15  6  1  0     0  0
 16  8  1  0     0  0
 17 16  1  0     0  0
 18  7  1  0     0  0
 19  2  1  0     0  0
 20 35  2  0     0  0
 21 22  1  0     0  0
 22 17  1  0     0  0
 23 21  2  0     0  0
 24 20  1  0     0  0
 25  2  2  0     0  0
 26  3  2  0     0  0
 27  5  2  0     0  0
 28  6  2  0     0  0
 29  4  2  0     0  0
 13 30  1  1     0  0
 14 31  1  1     0  0
 32 18  2  0     0  0
 33 17  2  0     0  0
 15 34  1  1     0  0
 35 61  1  0     0  0
 36 18  1  0     0  0
 37 20  1  0     0  0
 38  1  1  0     0  0
 39 23  1  0     0  0
 40 30  1  0     0  0
 41 48  2  0     0  0
 42 43  1  0     0  0
  8 43  1  6     0  0
 44 31  1  0     0  0
 45 40  1  0     0  0
 46 40  2  0     0  0
 47 45  2  0     0  0
 48 46  1  0     0  0
 49  7  1  0     0  0
 50 41  1  0     0  0
 51 21  1  0     0  0
 52 58  1  0     0  0
 53 38  1  0     0  0
 19 54  1  6     0  0
 55 51  2  0     0  0
 56 34  1  0     0  0
 57 23  1  0     0  0
 58 42  1  0     0  0
 59 55  1  0     0  0
 60 36  1  0     0  0
 61 67  1  0     0  0
 62 39  1  0     0  0
 63 44  2  0     0  0
 64 44  1  0     0  0
 65 52  2  0     0  0
 66 52  1  0     0  0
 67 54  1  0     0  0
 68 56  1  0     0  0
 69 56  1  0     0  0
 70 60  1  0     0  0
 71 57  2  0     0  0
 72 71  1  0     0  0
 73 66  2  0     0  0
 74 64  2  0     0  0
 75 65  1  0     0  0
 76 63  1  0     0  0
 77 74  1  0     0  0
 78 73  1  0     0  0
 53 49  1  0     0  0
 77 76  2  0     0  0
 47 41  1  0     0  0
 75 78  2  0     0  0
 39 59  2  0     0  0
 72 62  2  0     0  0
M  END