
  SciTegic12161615362D

 93 97  0  0  0  0            999 V2000
   22.2059   37.3708    0.0000 C   0  0
   20.8977   36.6352    0.0000 C   0  0
   20.8797   35.1345    0.0000 N   0  0
   19.8655   37.2472    0.0000 O   0  0
   19.5716   34.3988    0.0000 C   0  0  2  0  0  0
   19.5536   32.8981    0.0000 C   0  0
   20.5858   32.2860    0.0000 O   0  0
   18.2454   32.1625    0.0000 N   0  0
   18.2274   30.6618    0.0000 C   0  0  2  0  0  0
   16.9193   29.9261    0.0000 C   0  0
   15.8871   30.5382    0.0000 O   0  0
   16.9013   28.4254    0.0000 N   0  0
   15.5931   27.6898    0.0000 C   0  0  2  0  0  0
   15.5751   26.1891    0.0000 C   0  0
   16.6073   25.5770    0.0000 O   0  0
   14.2670   25.4535    0.0000 N   0  0
   14.2490   23.9527    0.0000 C   0  0  2  0  0  0
   12.9408   23.2171    0.0000 C   0  0
   11.9087   23.8292    0.0000 O   0  0
   12.9229   21.7164    0.0000 N   0  0
   18.2791   35.1617    0.0000 C   0  0
   14.3006   28.4527    0.0000 C   0  0
   11.6147   20.9808    0.0000 C   0  0  2  0  0  0
   11.5967   19.4801    0.0000 C   0  0
   10.2885   18.7444    0.0000 N   0  0
   12.6289   18.8680    0.0000 O   0  0
   10.3222   21.7436    0.0000 C   0  0
   19.5168   29.8936    0.0000 C   0  0
   15.5383   23.1846    0.0000 C   0  0
   16.9717   34.4246    0.0000 C   0  0
   15.6788   35.1852    0.0000 C   0  0
   14.3736   34.4459    0.0000 C   0  0
   14.3613   32.9459    0.0000 C   0  0
   15.6542   32.1853    0.0000 C   0  0
   16.9593   32.9246    0.0000 C   0  0
   12.9933   27.7156    0.0000 C   0  0
   11.7003   28.4762    0.0000 C   0  0
   10.3952   27.7368    0.0000 C   0  0
   10.3829   26.2369    0.0000 C   0  0
   11.6757   25.4763    0.0000 C   0  0
   12.9809   26.2156    0.0000 C   0  0
    9.3388   25.6454    0.0000 O   0  0
   15.5187   21.6839    0.0000 C   0  0
   16.8081   20.9157    0.0000 C   0  0
   16.7884   19.4150    0.0000 C   0  0
   18.0778   18.6468    0.0000 N   0  3
   18.0621   17.4470    0.0000 C   0  0
   19.1090   18.0331    0.0000 C   0  0
   19.1249   19.2329    0.0000 C   0  0
    9.2769   21.1543    0.0000 O   0  0
   22.2260   38.8707    0.0000 C   0  0
   23.5350   39.6033    0.0000 C   0  0
   24.8239   38.8359    0.0000 C   0  0
   24.8038   37.3361    0.0000 C   0  0
   23.4949   36.6035    0.0000 C   0  0
   25.8711   39.4220    0.0000 Br  0  0
   10.2706   17.2437    0.0000 C   0  0  2  0  0  0
    8.9624   16.5081    0.0000 C   0  0
    7.9302   17.1202    0.0000 O   0  0
    8.9444   15.0074    0.0000 N   0  0
    7.6362   14.2718    0.0000 C   0  0  2  0  0  0
    6.3437   15.0346    0.0000 C   0  0
    6.3556   16.2346    0.0000 N   0  0
    5.2984   14.4453    0.0000 O   0  0
   11.5599   16.4755    0.0000 C   0  0
    7.6183   12.7710    0.0000 C   0  0
    6.3101   12.0354    0.0000 C   0  0
    6.2921   10.5347    0.0000 C   0  0
    4.9839    9.7991    0.0000 C   0  0
    4.9660    8.2984    0.0000 N   0  0
    3.6578    7.5627    0.0000 C   0  0
    2.6256    8.1748    0.0000 O   0  0
   11.5403   14.9749    0.0000 C   0  0
   12.8296   14.2067    0.0000 C   0  0
   13.8768   14.7927    0.0000 O   0  0
   12.8139   13.0068    0.0000 O   0  0
    3.6398    6.0620    0.0000 C   0  0
    2.3316    5.3264    0.0000 C   0  0
    2.3137    3.8257    0.0000 C   0  0
    1.0055    3.0900    0.0000 C   0  0
    0.9876    1.5922    0.0000 C   0  0  2  0  0  0
    2.1968    0.6852    0.0000 S   0  0
    1.7333   -0.7256    0.0000 C   0  0
   -0.2419    0.7054    0.0000 C   0  0  2  0  0  0
    0.2217   -0.7054    0.0000 C   0  0  1  0  0  0
   -0.9876   -1.5720    0.0000 N   0  0
   -2.1968   -0.7054    0.0000 C   0  0
   -1.7333    0.7457    0.0000 N   0  0
   -3.3360   -1.0828    0.0000 O   0  0
   19.5011   28.6937    0.0000 C   0  0
   20.5640   30.4796    0.0000 C   0  0
   -0.5364    1.6611    0.0000 H   0  0
    0.5213   -1.6595    0.0000 H   0  0
  1  2  1  0
  2  3  1  0
  2  4  2  0
  3  5  1  0
  5  6  1  0
  6  7  2  0
  6  8  1  0
  8  9  1  0
  9 10  1  0
 10 11  2  0
 10 12  1  0
 12 13  1  0
 13 14  1  0
 14 15  2  0
 14 16  1  0
 16 17  1  0
 17 18  1  0
 18 19  2  0
 18 20  1  0
  5 21  1  6
 13 22  1  6
 20 23  1  0
 23 24  1  0
 24 25  1  0
 24 26  2  0
 23 27  1  6
  9 28  1  1
 17 29  1  1
 21 30  1  0
 30 31  2  0
 31 32  1  0
 32 33  2  0
 33 34  1  0
 34 35  2  0
 35 30  1  0
 22 36  1  0
 36 37  2  0
 37 38  1  0
 38 39  2  0
 39 40  1  0
 40 41  2  0
 41 36  1  0
 39 42  1  0
 29 43  1  0
 43 44  1  0
 44 45  1  0
 45 46  1  0
 46 47  1  0
 46 48  1  0
 46 49  1  0
 27 50  1  0
  1 51  2  0
 51 52  1  0
 52 53  2  0
 53 54  1  0
 54 55  2  0
 55  1  1  0
 53 56  1  0
 25 57  1  0
 57 58  1  0
 58 59  2  0
 58 60  1  0
 60 61  1  0
 61 62  1  0
 62 63  1  0
 62 64  2  0
 57 65  1  1
 61 66  1  1
 66 67  1  0
 67 68  1  0
 68 69  1  0
 69 70  1  0
 70 71  1  0
 71 72  2  0
 65 73  1  0
 73 74  1  0
 74 75  1  0
 74 76  2  0
 71 77  1  0
 77 78  1  0
 78 79  1  0
 79 80  1  0
 81 80  1  6
 81 82  1  0
 82 83  1  0
 83 85  1  0
 84 81  1  0
 84 85  1  0
 85 86  1  0
 86 87  1  0
 87 88  1  0
 88 84  1  0
 87 89  2  0
 28 90  1  0
 28 91  1  0
 84 92  1  1
 85 93  1  1
M  CHG  1  46   1
M  END