
  SciTegic10011413212D

 26 29  0  0  0  0            999 V2000
    3.3705   -4.8783    0.0000 C   0  0
    3.3694   -5.6979    0.0000 C   0  0
    4.0774   -6.1068    0.0000 C   0  0
    4.0756   -4.4695    0.0000 C   0  0
    4.7843   -4.8747    0.0000 C   0  0
    4.7850   -5.6938    0.0000 C   0  0
    5.4936   -6.1008    0.0000 C   0  0
    6.2018   -5.6900    0.0000 C   0  0
    6.1971   -4.8679    0.0000 C   0  0
    5.4880   -4.4645    0.0000 C   0  0
    5.4836   -3.6473    0.0000 C   0  0
    6.1892   -3.2350    0.0000 N   0  0
    4.7738   -3.2425    0.0000 C   0  0
    4.7749   -2.4268    0.0000 C   0  0
    4.0659   -2.0221    0.0000 C   0  0
    3.3594   -2.4345    0.0000 C   0  0
    3.3663   -3.2559    0.0000 C   0  0
    4.0759   -3.6569    0.0000 C   0  0
    6.1848   -2.4178    0.0000 C   0  0
    6.8941   -2.0084    0.0000 C   0  0
    6.8918   -1.1948    0.0000 C   0  0
    6.1837   -0.7905    0.0000 C   0  0
    5.4764   -1.1972    0.0000 C   0  0
    5.4771   -2.0170    0.0000 C   0  0
    2.6490   -2.0306    0.0000 Cl  0  0
    6.9023   -4.4550    0.0000 O   0  0
  1  2  2  0
  2  3  1  0
  3  6  2  0
  5  4  2  0
  4  1  1  0
  5  6  1  0
  6  7  1  0
  7  8  2  0
  8  9  1  0
  9 10  2  0
 10  5  1  0
 10 11  1  0
 11 12  1  0
 11 13  1  0
 13 14  2  0
 14 15  1  0
 15 16  2  0
 16 17  1  0
 17 18  2  0
 18 13  1  0
 12 19  1  0
 19 20  1  0
 19 24  1  0
 20 21  1  0
 21 22  1  0
 22 23  1  0
 23 24  1  0
 16 25  1  0
  9 26  1  0
M  END