
          11280715082D 1   1.00000     0.00000     0

 35 38  0     1  0            999 V2000
   11.1292   -1.8792    0.0000 S   0  0  3  0  0  0           0  0  0
    7.6292   -0.8625    0.0000 C   0  0  0  0  0  0           0  0  0
    7.6292   -0.2625    0.0000 C   0  0  0  0  0  0           0  0  0
    8.5542   -0.5667    0.0000 C   0  0  0  0  0  0           0  0  0
    8.2042   -0.0792    0.0000 S   0  0  0  0  0  0           0  0  0
    8.2000   -1.0500    0.0000 C   0  0  0  0  0  0           0  0  0
   11.1375   -1.2792    0.0000 N   0  0  0  0  0  0           0  0  0
    7.0542   -1.0417    0.0000 S   0  0  0  0  0  0           0  0  0
    7.0625   -0.0750    0.0000 C   0  0  0  0  0  0           0  0  0
   10.7167   -0.8542    0.0000 C   0  0  2  0  0  0           0  0  0
    9.1542   -0.5667    0.0000 C   0  0  0  0  0  0           0  0  0
    6.7042   -0.5625    0.0000 C   0  0  0  0  0  0           0  0  0
   11.2292   -0.5542    0.0000 C   0  0  0  0  0  0           0  0  0
    9.6750   -0.8625    0.0000 N   0  0  0  0  0  0           0  0  0
   11.7292   -1.8792    0.0000 O   0  0  0  0  0  0           0  0  0
   10.5292   -1.8792    0.0000 O   0  0  0  0  0  0           0  0  0
   11.1292   -2.4792    0.0000 C   0  0  0  0  0  0           0  0  0
   10.1917   -0.5625    0.0000 C   0  0  0  0  0  0           0  0  0
    4.0042   -1.0625    0.0000 N   0  0  0  0  0  0           0  0  0
    9.3042    0.0125    0.0000 O   0  0  0  0  0  0           0  0  0
   11.2292    0.0458    0.0000 O   0  0  0  0  0  0           0  0  0
    6.1042   -0.5542    0.0000 C   0  0  0  0  0  0           0  0  0
   11.7542   -0.8542    0.0000 O   0  0  0  0  0  0           0  0  0
    5.8042   -1.0792    0.0000 C   0  0  0  0  0  0           0  0  0
    5.2042   -1.0792    0.0000 C   0  0  3  0  0  0           0  0  0
    4.3042   -1.5875    0.0000 C   0  0  0  0  0  0           0  0  0
    4.3167   -0.5500    0.0000 C   0  0  0  0  0  0           0  0  0
   10.6042   -2.7667    0.0000 C   0  0  0  0  0  0           0  0  0
   11.6417   -2.7792    0.0000 C   0  0  0  0  0  0           0  0  0
    4.9042   -1.5917    0.0000 C   0  0  0  0  0  0           0  0  0
    4.9167   -0.5542    0.0000 C   0  0  0  0  0  0           0  0  0
   11.6417   -3.3750    0.0000 C   0  0  0  0  0  0           0  0  0
   10.6000   -3.3667    0.0000 C   0  0  0  0  0  0           0  0  0
   11.1167   -3.6750    0.0000 C   0  0  0  0  0  0           0  0  0
   10.4125   -1.3750    0.0000 H   0  0  0  0  0  0           0  0  0
  2  6  1  0     0  0
  3  5  1  0     0  0
  4 11  1  0     0  0
  5  4  1  0     0  0
  6  4  2  0     0  0
  7  1  1  0     0  0
  8  2  1  0     0  0
  9  3  1  0     0  0
 10  7  1  1     0  0
 11 14  1  0     0  0
 12  8  1  0     0  0
 13 10  1  0     0  0
 14 18  1  0     0  0
 15  1  2  0     0  0
 16  1  2  0     0  0
 17  1  1  0     0  0
 18 10  1  0     0  0
 19 27  1  0     0  0
 20 11  2  0     0  0
 21 13  2  0     0  0
 22 12  1  0     0  0
 23 13  1  0     0  0
 24 22  1  0     0  0
 25 24  1  0     0  0
 26 30  1  0     0  0
 27 31  1  0     0  0
 28 17  2  0     0  0
 29 17  1  0     0  0
 30 25  1  0     0  0
 31 25  1  0     0  0
 32 29  2  0     0  0
 33 28  1  0     0  0
 34 32  1  0     0  0
 10 35  1  6     0  0
 33 34  2  0     0  0
  3  2  2  0     0  0
  9 12  2  0     0  0
 26 19  1  0     0  0
M  END