
  SciTegic12171312552D

 70 77  0  0  0  0            999 V2000
   33.4289  -16.4290    0.0000 F   0  0
   32.6330  -16.6457    0.0000 B   0  5
   33.2186  -17.2266    0.0000 F   0  0
   24.0597  -12.6460    0.0000 N   0  0
   24.0578  -13.4740    0.0000 C   0  0
   24.7711  -13.8874    0.0000 N   0  0
   24.7698  -12.2329    0.0000 C   0  0
   25.4847  -12.6444    0.0000 C   0  0
   25.4921  -13.4674    0.0000 C   0  0
   26.2769  -13.7183    0.0000 N   0  0
   26.7612  -13.0473    0.0000 C   0  0
   26.2693  -12.3840    0.0000 N   0  0
   23.3420  -13.8865    0.0000 O   0  0
   24.7698  -11.4080    0.0000 O   0  0
   27.5862  -13.0473    0.0000 C   0  0
   28.0000  -13.7582    0.0000 C   0  0
   28.8238  -13.7514    0.0000 C   0  0
   29.2353  -13.0307    0.0000 C   0  0
   28.8139  -12.3195    0.0000 C   0  0
   27.9922  -12.3275    0.0000 C   0  0
   30.0603  -13.0307    0.0000 O   0  0
   23.3439  -12.2335    0.0000 C   0  0
   22.6321  -12.6460    0.0000 C   0  0
   21.9163  -12.2336    0.0000 C   0  0
   24.7711  -14.7124    0.0000 C   0  0
   24.0600  -15.1246    0.0000 C   0  0
   24.0600  -15.9499    0.0000 C   0  0
   30.4747  -12.3156    0.0000 C   0  0
   31.2978  -12.3156    0.0000 C   0  0
   31.7108  -11.5989    0.0000 N   0  0
   31.7098  -13.0306    0.0000 O   0  0
   32.5353  -11.5989    0.0000 C   0  0
   32.9479  -10.8870    0.0000 C   0  0
   33.7728  -10.8870    0.0000 N   0  0
   34.1853  -10.1711    0.0000 C   0  0
   35.0102  -10.1711    0.0000 C   0  0
   33.7728   -9.4552    0.0000 O   0  0
   35.4227  -10.8869    0.0000 C   0  0
   36.2477  -10.8869    0.0000 C   0  0
   36.6602  -11.5987    0.0000 C   0  0
   37.4852  -11.5987    0.0000 C   0  0
   37.8977  -12.3145    0.0000 N   0  0
   37.4852  -13.0303    0.0000 C   0  0
   36.6602  -13.0303    0.0000 O   0  0
   37.8977  -13.7420    0.0000 C   0  0
   37.4852  -14.4579    0.0000 O   0  0
   36.6602  -14.4579    0.0000 C   0  0
   36.2477  -13.7420    0.0000 C   0  0
   35.4227  -13.7420    0.0000 C   0  0
   35.0102  -14.4579    0.0000 C   0  0
   35.4227  -15.1738    0.0000 C   0  0
   36.2477  -15.1738    0.0000 C   0  0
   34.1853  -14.4579    0.0000 C   0  0
   33.7728  -15.1738    0.0000 C   0  0
   32.9478  -15.1738    0.0000 C   0  0
   32.4630  -14.5041    0.0000 C   0  0
   31.6784  -14.7613    0.0000 C   0  0
   31.6784  -15.5863    0.0000 C   0  0
   32.4630  -15.8392    0.0000 N   0  3
   31.0661  -16.1352    0.0000 C   0  0
   31.2344  -16.9453    0.0000 C   0  0
   32.0190  -17.1983    0.0000 N   0  0
   30.7538  -17.6108    0.0000 C   0  0
   31.2344  -18.2803    0.0000 C   0  0
   32.0190  -18.0233    0.0000 C   0  0
   32.6887  -18.5080    0.0000 C   0  0
   32.6887  -19.3330    0.0000 C   0  0
   33.4733  -19.5901    0.0000 C   0  0
   33.9580  -18.9205    0.0000 C   0  0
   33.4733  -18.2551    0.0000 S   0  0
  2  1  1  0
  3  2  1  0
  4  5  1  0
  5  6  1  0
  6  9  1  0
  8  7  1  0
  7  4  1  0
  8  9  2  0
  9 10  1  0
 10 11  2  0
 11 12  1  0
 12  8  1  0
  5 13  2  0
  7 14  2  0
 15 16  2  0
 16 17  1  0
 17 18  2  0
 18 19  1  0
 19 20  2  0
 20 15  1  0
 11 15  1  0
 18 21  1  0
  4 22  1  0
 22 23  1  0
 23 24  1  0
  6 25  1  0
 25 26  1  0
 26 27  1  0
 21 28  1  0
 28 29  1  0
 29 30  1  0
 29 31  2  0
 30 32  1  0
 32 33  1  0
 33 34  1  0
 34 35  1  0
 35 36  1  0
 35 37  2  0
 36 38  1  0
 38 39  1  0
 39 40  1  0
 40 41  1  0
 41 42  1  0
 42 43  1  0
 43 44  2  0
 43 45  1  0
 45 46  1  0
 46 47  1  0
 47 48  2  0
 48 49  1  0
 49 50  2  0
 50 51  1  0
 51 52  2  0
 52 47  1  0
 50 53  1  0
 53 54  2  0
 54 55  1  0
 55 56  1  0
 56 57  2  0
 57 58  1  0
 58 59  1  0
 59 55  2  0
 58 60  2  0
 60 61  1  0
 61 62  1  0
 62  2  1  0
  2 59  1  0
 61 63  2  0
 63 64  1  0
 64 65  2  0
 65 62  1  0
 65 66  1  0
 66 67  2  0
 67 68  1  0
 68 69  2  0
 69 70  1  0
 70 66  1  0
M  CHG  2   2  -1  59   1
M  END