
  SciTegic11201309402D

 29 29  0  0  0  0            999 V2000
    0.4750   -2.0167    0.0000 S   0  0
    3.7667   -2.0042    0.0000 C   0  0
    8.8667   -4.6542    0.0000 C   0  0  1  0  0  0
    9.2875   -5.3667    0.0000 C   0  0
    8.0417   -4.6625    0.0000 N   0  0
    1.3000   -2.0167    0.0000 C   0  0
    7.5542   -3.9917    0.0000 C   0  0
    4.1792   -2.7167    0.0000 N   0  0
    0.4667   -2.8417    0.0000 O   0  0
    0.4750   -1.1917    0.0000 O   0  0
    5.4250   -3.4167    0.0000 C   0  0
    2.9417   -2.0042    0.0000 C   0  0
   -0.3500   -2.0125    0.0000 N   0  0
    6.2500   -3.4167    0.0000 N   0  0
    4.1750   -1.2875    0.0000 O   0  0
    8.8792   -6.0792    0.0000 O   0  0
    7.8917   -3.2417    0.0000 O   0  0
    5.0167   -4.1292    0.0000 O   0  0
    1.7000   -1.3042    0.0000 C   0  0
    1.7125   -2.7292    0.0000 C   0  0
    2.5292   -2.7250    0.0000 C   0  0
    2.5167   -1.2917    0.0000 C   0  0
    5.0042   -2.7042    0.0000 C   0  0
    6.7375   -4.0792    0.0000 C   0  0
    9.2792   -3.9375    0.0000 C   0  0  2  0  0  0
   10.1125   -5.3625    0.0000 O   0  0
    8.8625   -3.2250    0.0000 C   0  0
   10.1042   -3.9292    0.0000 C   0  0
    9.2667   -2.5042    0.0000 C   0  0
  2 12  1  0
  3  5  1  1
  4  3  1  0
  5  7  1  0
  6  1  1  0
  7 24  1  0
  8  2  1  0
  9  1  2  0
 10  1  2  0
 11 23  1  0
 12 21  2  0
 13  1  1  0
 14 11  1  0
 15  2  2  0
 16  4  2  0
 17  7  2  0
 18 11  2  0
 19  6  1  0
 20  6  2  0
 21 20  1  0
 22 19  2  0
 23  8  1  0
 24 14  1  0
  3 25  1  0
 26  4  1  0
 27 25  1  0
 25 28  1  6
 29 27  1  0
 12 22  1  0
M  END