
          05270816392D 1   1.00000     0.00000     0

 34 39  0     1  0            999 V2000
    8.5739   -4.5420    0.0000 C   0  0  0  0  0  0           0  0  0
    8.5726   -5.3651    0.0000 C   0  0  0  0  0  0           0  0  0
    9.9972   -4.5381    0.0000 C   0  0  0  0  0  0           0  0  0
    9.2882   -4.1293    0.0000 C   0  0  0  0  0  0           0  0  0
   10.0004   -5.3646    0.0000 C   0  0  0  0  0  0           0  0  0
    9.2889   -5.7791    0.0000 C   0  0  0  0  0  0           0  0  0
    9.2876   -6.6012    0.0000 C   0  0  0  0  0  0           0  0  0
   10.0006   -7.0151    0.0000 C   0  0  0  0  0  0           0  0  0
    7.9567   -5.9171    0.0000 N   0  0  0  0  0  0           0  0  0
    8.5031   -6.8558    0.0000 C   0  0  0  0  0  0           0  0  0
   10.7150   -5.7768    0.0000 C   0  0  2  0  0  0           0  0  0
   10.7159   -6.6046    0.0000 C   0  0  2  0  0  0           0  0  0
   11.4293   -7.0155    0.0000 N   0  0  3  0  0  0           0  0  0
   12.1464   -6.6031    0.0000 C   0  0  0  0  0  0           0  0  0
   12.1455   -5.7752    0.0000 C   0  0  1  0  0  0           0  0  0
   11.4275   -5.3598    0.0000 C   0  0  0  0  0  0           0  0  0
   10.7067   -7.4250    0.0000 H   0  0  0  0  0  0           0  0  0
   10.7067   -4.9500    0.0000 H   0  0  0  0  0  0           0  0  0
   11.4289   -7.8405    0.0000 C   0  0  0  0  0  0           0  0  0
   12.8599   -5.3627    0.0000 C   0  0  0  0  0  0           0  0  0
   12.8599   -4.5377    0.0000 O   0  0  0  0  0  0           0  0  0
   13.5745   -5.7752    0.0000 N   0  0  3  0  0  0           0  0  0
   13.5693   -6.6055    0.0000 C   0  0  0  0  0  0           0  0  0
   14.2797   -7.0179    0.0000 C   0  0  0  0  0  0           0  0  0
   14.9966   -6.6089    0.0000 N   0  0  3  0  0  0           0  0  0
   14.9986   -5.7829    0.0000 C   0  0  0  0  0  0           0  0  0
   14.2837   -5.3660    0.0000 C   0  0  0  0  0  0           0  0  0
   15.7095   -7.0241    0.0000 C   0  0  0  0  0  0           0  0  0
   15.7015   -7.8480    0.0000 C   0  0  0  0  0  0           0  0  0
   16.4136   -8.2631    0.0000 C   0  0  0  0  0  0           0  0  0
   17.1306   -7.8532    0.0000 C   0  0  0  0  0  0           0  0  0
   17.1310   -7.0240    0.0000 C   0  0  0  0  0  0           0  0  0
   16.4183   -6.6126    0.0000 N   0  0  0  0  0  0           0  0  0
    8.2087   -7.6264    0.0000 I   0  0  0  0  0  0           0  0  0
 14 15  1  0     0  0
 15 16  1  0     0  0
  6  7  1  0     0  0
 12 17  1  1     0  0
  7  8  1  0     0  0
 11 18  1  6     0  0
  8 12  1  0     0  0
 13 19  1  0     0  0
  3  4  2  0     0  0
 15 20  1  1     0  0
  2  9  1  0     0  0
 20 21  2  0     0  0
  4  1  1  0     0  0
 20 22  1  0     0  0
 22 23  1  0     0  0
  7 10  2  0     0  0
  9 10  1  0     0  0
 11 12  1  0     0  0
  5  6  2  0     0  0
  2  6  1  0     0  0
 22 27  1  0     0  0
 23 24  1  0     0  0
 24 25  1  0     0  0
 25 26  1  0     0  0
 26 27  1  0     0  0
 25 28  1  0     0  0
  5  3  1  0     0  0
 28 29  2  0     0  0
  1  2  2  0     0  0
 29 30  1  0     0  0
  5 11  1  0     0  0
 30 31  2  0     0  0
 11 16  1  0     0  0
 31 32  1  0     0  0
 12 13  1  0     0  0
 32 33  2  0     0  0
 33 28  1  0     0  0
 13 14  1  0     0  0
 10 34  1  0     0  0
M  END