
  CDK    9/16/09,9:59

 17 18  0  0  0  0  0  0  0  0999 V2000
   15.7060  -24.3518    0.0000 C   0  0  0  0  0  0  0  0  0  0  0  0
   16.5316  -24.3484    0.0000 C   0  0  0  0  0  0  0  0  0  0  0  0
   15.2997  -22.2119    0.0000 C   0  0  0  0  0  0  0  0  0  0  0  0
   15.7115  -22.9268    0.0000 N   0  0  0  0  0  0  0  0  0  0  0  0
   15.2965  -23.6362    0.0000 C   0  0  0  0  0  0  0  0  0  0  0  0
   15.2919  -25.0635    0.0000 O   0  0  0  0  0  0  0  0  0  0  0  0
   16.9419  -23.6372    0.0000 O   0  0  0  0  0  0  0  0  0  0  0  0
   15.7166  -21.4935    0.0000 C   0  0  0  0  0  0  0  0  0  0  0  0
   15.7178  -20.1602    0.0000 N   0  0  0  0  0  0  0  0  0  0  0  0
   15.2362  -20.8320    0.0000 C   0  0  0  0  0  0  0  0  0  0  0  0
   16.5030  -20.4161    0.0000 C   0  0  0  0  0  0  0  0  0  0  0  0
   16.5009  -21.2399    0.0000 C   0  0  0  0  0  0  0  0  0  0  0  0
   17.2165  -21.6561    0.0000 N   0  0  0  0  0  0  0  0  0  0  0  0
   17.9345  -21.2410    0.0000 C   0  0  0  0  0  0  0  0  0  0  0  0
   17.9325  -20.4140    0.0000 N   0  0  0  0  0  0  0  0  0  0  0  0
   17.2165  -20.0016    0.0000 C   0  0  0  0  0  0  0  0  0  0  0  0
   17.2150  -19.1757    0.0000 O   0  0  0  0  0  0  0  0  0  0  0  0
  4  5  1  0  0  0  0 
  5  1  1  0  0  0  0 
 11  9  1  0  0  0  0 
  9 10  1  0  0  0  0 
 10  8  2  0  0  0  0 
  1  2  1  0  0  0  0 
  1  6  1  6  0  0  0 
 11 12  2  0  0  0  0 
 12 13  1  0  0  0  0 
  2  7  1  0  0  0  0 
 13 14  2  0  0  0  0 
  3  4  1  0  0  0  0 
 14 15  1  0  0  0  0 
  3  8  1  0  0  0  0 
 15 16  1  0  0  0  0 
 16 11  1  0  0  0  0 
  8 12  1  0  0  0  0 
 16 17  2  0  0  0  0 
M  END