
  SciTegic04091416462D

 16 17  0  0  0  0            999 V2000
   13.5414   -4.0835    0.0000 C   0  0
   12.7712   -3.8014    0.0000 C   0  0
    9.3201   -2.4729    0.0000 C   0  0
   10.7423   -2.4725    0.0000 C   0  0
   12.8053   -2.9814    0.0000 C   0  0
   12.1650   -1.6499    0.0000 O   0  0
    9.3212   -1.6502    0.0000 C   0  0
   13.5913   -2.7576    0.0000 N   0  0
   10.7395   -1.6465    0.0000 C   0  0
   11.4571   -2.8837    0.0000 N   0  0
   10.0304   -2.8856    0.0000 C   0  0
   10.0287   -1.2417    0.0000 N   0  0
   14.0477   -3.4385    0.0000 C   0  0
   13.8753   -1.9876    0.0000 C   0  0
   12.1657   -2.4707    0.0000 C   0  0
   14.8643   -3.4692    0.0000 C   0  0
  7  3  2  0
 15  6  2  0
  9 12  2  0
  3 11  1  0
  8 14  1  0
  4 10  1  0
 13  8  1  0
 15  5  1  0
  4  9  1  0
 11  4  2  0
  1 13  2  0
 10 15  1  0
 12  7  1  0
  2  1  1  0
  5  2  2  0
  8  5  1  0
 13 16  1  0
M  END