
  SciTegic06271217572D

 22 23  0  0  0  0            999 V2000
   23.5347  -16.3742    0.0000 S   0  0
   23.1085  -17.0806    0.0000 O   0  0
   23.9334  -17.0964    0.0000 O   0  0
   22.8282  -15.9481    0.0000 N   0  0
   24.2527  -15.1333    0.0000 C   0  0
   24.2516  -15.9607    0.0000 C   0  0
   24.9664  -16.3735    0.0000 C   0  0
   25.6828  -15.9602    0.0000 C   0  0
   25.6800  -15.1297    0.0000 C   0  0
   24.9646  -14.7205    0.0000 C   0  0
   26.3929  -14.7186    0.0000 C   0  0
   27.1089  -15.1284    0.0000 C   0  0
   26.3898  -13.8936    0.0000 O   0  0
   27.8218  -14.7133    0.0000 S   0  0
   28.5378  -15.1231    0.0000 C   0  0
   28.5378  -15.9469    0.0000 N   0  0
   29.2530  -16.3566    0.0000 C   0  0
   29.9669  -15.9414    0.0000 C   0  0
   29.9611  -15.1121    0.0000 C   0  0
   29.2454  -14.7062    0.0000 N   0  0
   30.6726  -14.6944    0.0000 C   0  0
   29.2557  -17.1816    0.0000 C   0  0
  9 11  1  0
 11 12  1  0
  6  7  1  0
 11 13  2  0
  1  4  1  0
 12 14  1  0
  7  8  2  0
 14 15  1  0
  2  1  2  0
 15 16  2  0
  8  9  1  0
 16 17  1  0
  1  3  2  0
 17 18  2  0
  9 10  2  0
 18 19  1  0
 10  5  1  0
 19 20  2  0
 20 15  1  0
  6  1  1  0
 19 21  1  0
  5  6  2  0
 17 22  1  0
M  END