
          11280714522D 1   1.00000     0.00000     0

 56 61  0     1  0            999 V2000
    4.3292    0.1083    0.0000 N   0  0  0  0  0  0           0  0  0
    4.6875    0.8583    0.0000 C   0  0  2  0  0  0           0  0  0
    3.5125    1.7958    0.0000 N   0  0  3  0  0  0           0  0  0
    4.3250    1.6125    0.0000 C   0  0  0  0  0  0           0  0  0
    3.5167   -0.0792    0.0000 C   0  0  0  0  0  0           0  0  0
    2.8625    0.4375    0.0000 C   0  0  0  0  0  0           0  0  0
    5.5125    0.8625    0.0000 N   0  0  0  0  0  0           0  0  0
    2.8625    1.2708    0.0000 C   0  0  0  0  0  0           0  0  0
    5.9250    0.1500    0.0000 C   0  0  0  0  0  0           0  0  0
    6.7500    0.1500    0.0000 N   0  0  0  0  0  0           0  0  0
    5.3792  -13.4042    0.0000 N   0  0  3  0  0  0           0  0  0
    5.9292   -2.7042    0.0000 C   0  0  0  0  0  0           0  0  0
    4.8375    2.2583    0.0000 O   0  0  0  0  0  0           0  0  0
    5.5125   -6.2667    0.0000 C   0  0  0  0  0  0           0  0  0
    3.3292   -0.8875    0.0000 C   0  0  0  0  0  0           0  0  0
    5.5167   -0.5667    0.0000 O   0  0  0  0  0  0           0  0  0
    7.1667   -0.5625    0.0000 C   0  0  0  0  0  0           0  0  0
    5.5167   -1.9917    0.0000 O   0  0  0  0  0  0           0  0  0
    4.6917   -6.2500    0.0000 O   0  0  0  0  0  0           0  0  0
    5.8042  -12.6917    0.0000 C   0  0  0  0  0  0           0  0  0
    5.4042  -11.9750    0.0000 C   0  0  0  0  0  0           0  0  0
    7.1667   -1.9875    0.0000 C   0  0  0  0  0  0           0  0  0
    6.7542   -2.7042    0.0000 C   0  0  0  0  0  0           0  0  0
    5.5167   -3.4167    0.0000 N   0  0  0  0  0  0           0  0  0
    5.9125   -6.9917    0.0000 N   0  0  0  0  0  0           0  0  0
    6.7542   -1.2750    0.0000 C   0  0  0  0  0  0           0  0  0
    3.3250    2.5958    0.0000 C   0  0  0  0  0  0           0  0  0
    5.8292  -11.2667    0.0000 C   0  0  0  0  0  0           0  0  0
    2.1417    0.0250    0.0000 C   0  0  0  0  0  0           0  0  0
    5.4292  -10.5542    0.0000 C   0  0  0  0  0  0           0  0  0
    2.1417    1.6833    0.0000 C   0  0  0  0  0  0           0  0  0
    5.8792   -8.4167    0.0000 C   0  0  0  0  0  0           0  0  0
    5.8542   -9.8500    0.0000 O   0  0  0  0  0  0           0  0  0
    4.5542  -13.3875    0.0000 C   0  0  0  0  0  0           0  0  0
    5.7792  -14.1167    0.0000 C   0  0  0  0  0  0           0  0  0
    8.4042   -1.2667    0.0000 C   0  0  0  0  0  0           0  0  0
    4.1750  -11.2375    0.0000 C   0  0  0  0  0  0           0  0  0
    5.9292   -5.5542    0.0000 C   0  0  0  0  0  0           0  0  0
    5.4792   -7.6917    0.0000 C   0  0  0  0  0  0           0  0  0
    7.9875   -0.5542    0.0000 C   0  0  0  0  0  0           0  0  0
    4.5750  -11.9625    0.0000 C   0  0  0  0  0  0           0  0  0
    7.9917   -1.9875    0.0000 C   0  0  0  0  0  0           0  0  0
    3.9375   -1.4417    0.0000 C   0  0  0  0  0  0           0  0  0
    2.5417   -1.1292    0.0000 C   0  0  0  0  0  0           0  0  0
    5.4542   -9.1250    0.0000 C   0  0  0  0  0  0           0  0  0
    5.9292   -4.1292    0.0000 C   0  0  0  0  0  0           0  0  0
    4.6042  -10.5292    0.0000 C   0  0  0  0  0  0           0  0  0
    5.5167   -4.8500    0.0000 C   0  0  0  0  0  0           0  0  0
    1.4292    0.4375    0.0000 C   0  0  0  0  0  0           0  0  0
    1.4292    1.2708    0.0000 C   0  0  0  0  0  0           0  0  0
    4.1292  -14.0875    0.0000 C   0  0  0  0  0  0           0  0  0
    5.3500  -14.8292    0.0000 C   0  0  0  0  0  0           0  0  0
    2.3625   -1.9292    0.0000 C   0  0  0  0  0  0           0  0  0
    3.7542   -2.2417    0.0000 C   0  0  0  0  0  0           0  0  0
    4.5250  -14.8125    0.0000 C   0  0  0  0  0  0           0  0  0
    2.9667   -2.4917    0.0000 C   0  0  0  0  0  0           0  0  0
  2  1  1  0     0  0
  3  4  1  0     0  0
  4  2  1  0     0  0
  5  1  2  0     0  0
  6  5  1  0     0  0
  2  7  1  6     0  0
  8  6  1  0     0  0
  9  7  1  0     0  0
 10  9  1  0     0  0
 11 20  1  0     0  0
 12 23  1  0     0  0
 13  4  2  0     0  0
 14 38  1  0     0  0
 15  5  1  0     0  0
 16  9  2  0     0  0
 17 10  1  0     0  0
 18 12  2  0     0  0
 19 14  2  0     0  0
 20 21  1  0     0  0
 21 28  2  0     0  0
 22 26  1  0     0  0
 23 22  1  0     0  0
 24 12  1  0     0  0
 25 14  1  0     0  0
 26 17  2  0     0  0
 27  3  1  0     0  0
 28 30  1  0     0  0
 29  6  2  0     0  0
 30 33  1  0     0  0
 31  8  2  0     0  0
 32 39  1  0     0  0
 33 45  1  0     0  0
 34 11  1  0     0  0
 35 11  1  0     0  0
 36 40  2  0     0  0
 37 47  1  0     0  0
 38 48  1  0     0  0
 39 25  1  0     0  0
 40 17  1  0     0  0
 41 37  2  0     0  0
 42 36  1  0     0  0
 43 15  1  0     0  0
 44 15  2  0     0  0
 45 32  1  0     0  0
 46 24  1  0     0  0
 47 30  2  0     0  0
 48 46  1  0     0  0
 49 29  1  0     0  0
 50 49  2  0     0  0
 51 34  1  0     0  0
 52 35  1  0     0  0
 53 44  1  0     0  0
 54 43  2  0     0  0
 55 52  1  0     0  0
 56 53  2  0     0  0
  8  3  1  0     0  0
 56 54  1  0     0  0
 31 50  1  0     0  0
 22 42  2  0     0  0
 41 21  1  0     0  0
 55 51  1  0     0  0
M  END