
  SciTegic01061111512D

 20 21  0  0  0  0            999 V2000
    8.0599    2.1809    0.0000 C   0  0  2  0  0  0
    8.0599    1.3558    0.0000 C   0  0  1  0  0  0
    8.7684    0.9495    0.0000 C   0  0  1  0  0  0
    9.4810    1.3558    0.0000 C   0  0  2  0  0  0
    9.4810    2.1809    0.0000 C   0  0  1  0  0  0
    8.7684    2.5996    0.0000 O   0  0
   10.1973    2.5933    0.0000 S   0  0
   10.9112    2.1767    0.0000 C   0  0
   10.1955    0.9443    0.0000 O   0  0
    8.7684    0.1244    0.0000 N   0  0
    8.1076   -0.3599    0.0000 N   0  0
    8.3612   -1.1448    0.0000 N   0  0
    9.1864   -1.1448    0.0000 C   0  0
    9.4399   -0.3599    0.0000 C   0  0
    7.3455    0.9443    0.0000 O   0  0
    7.3437    2.5933    0.0000 C   0  0
    7.3412    3.4184    0.0000 O   0  0
    9.6731   -1.8130    0.0000 C   0  0
   10.4936   -1.7271    0.0000 C   0  0
   10.9762   -2.3912    0.0000 C   0  0
  3 10  1  1
 10 11  1  0
  3  4  1  0
  4  5  1  0
  5  6  1  0
 11 12  2  0
 12 13  1  0
 13 14  2  0
 14 10  1  0
  5  7  1  1
  2 15  1  1
  1  2  1  0
  1 16  1  1
  7  8  1  0
 16 17  1  0
  1  6  1  0
 13 18  1  0
  4  9  1  6
 18 19  1  0
  2  3  1  0
 19 20  1  0
M  END