
  SciTegic06051315212D

 32 37  0  0  0  0            999 V2000
    5.7965   -7.4122    0.0000 C   0  0
    8.2891   -6.6343    0.0000 C   0  0
    5.7963   -8.2296    0.0000 N   0  0
    5.7948   -5.7745    0.0000 C   0  0
    6.5053   -7.0026    0.0000 N   0  0
    6.4002   -4.4821    0.0000 C   0  0
    7.1224   -4.8593    0.0000 C   0  0
    8.3946   -5.2241    0.0000 C   0  0
    7.9347   -5.9018    0.0000 C   0  0
    5.7095   -4.9176    0.0000 C   0  0
    7.8903   -4.5804    0.0000 N   0  0
    7.1501   -5.6771    0.0000 N   0  0
    6.3694   -3.6641    0.0000 C   0  0
    9.2047   -5.2820    0.0000 C   0  0
    9.5617   -6.0117    0.0000 C   0  0
    4.9877   -4.5409    0.0000 C   0  0
    6.5024   -6.1798    0.0000 C   0  0
    5.0895   -7.0031    0.0000 N   0  0
    5.0906   -6.1835    0.0000 C   0  0
    9.1033   -6.6944    0.0000 C   0  0
    5.0885   -8.6380    0.0000 C   0  0
    4.3867   -8.2256    0.0000 C   0  0
    3.6811   -8.6305    0.0000 C   0  0
    3.6766   -9.4480    0.0000 O   0  0
    4.3841   -9.8590    0.0000 C   0  0
    5.0960   -9.4524    0.0000 C   0  0
    4.9523   -3.7220    0.0000 C   0  0
    5.6463   -3.2844    0.0000 C   0  0
    5.6134   -2.4664    0.0000 C   0  0
    4.8872   -2.0851    0.0000 C   0  0
    4.1926   -2.5278    0.0000 C   0  0
    4.2290   -3.3443    0.0000 C   0  0
  8  9  2  0
  2 20  2  0
  7  6  1  0
 11  7  2  0
  4 19  1  0
  1  3  1  0
  7 12  1  0
 15 14  2  0
 20 15  1  0
  1  5  2  0
 19 18  2  0
  5 17  1  0
 16 10  2  0
 18  1  1  0
  6 13  2  0
 10  6  1  0
 14  8  1  0
  8 11  1  0
 27 16  1  0
 17  4  2  0
  9  2  1  0
 12  9  1  0
 17 12  1  0
 13 28  1  0
  3 21  1  0
 21 22  1  0
 21 26  1  0
 22 23  1  0
 23 24  1  0
 24 25  1  0
 25 26  1  0
 27 28  1  0
 28 29  2  0
 29 30  1  0
 30 31  2  0
 31 32  1  0
 32 27  2  0
M  END