
  SciTegic10311217562D

 44 40  0  0  0  0            999 V2000
   -2.8125   -1.1833    0.0000 Na  0  3
    7.8617   -3.5334    0.0000 C   0  0
    7.8593   -4.3584    0.0000 C   0  0
    8.5726   -4.7730    0.0000 O   0  5
    7.1436   -4.7688    0.0000 O   0  0
    0.7292   -1.0416    0.0000 C   0  0  2  0  0  0
    0.7292   -1.8666    0.0000 C   0  0  1  0  0  0
    1.4412   -2.2750    0.0000 C   0  0  2  0  0  0
    2.1532   -1.8666    0.0000 O   0  0
    2.1532   -1.0416    0.0000 C   0  0  1  0  0  0
    1.4412   -0.6250    0.0000 C   0  0  1  0  0  0
    2.8689   -0.6312    0.0000 C   0  0
    0.0135   -0.6312    0.0000 O   0  0
    0.0153   -2.2802    0.0000 O   0  0
    1.4412    0.2000    0.0000 O   0  0
    1.4412   -3.1000    0.0000 O   0  0
    3.5822   -1.0458    0.0000 N   0  0
    2.1557   -3.5125    0.0000 C   0  0
    4.2978   -0.6354    0.0000 C   0  0
    5.0111   -1.0500    0.0000 C   0  0
    4.3003    0.1896    0.0000 O   0  0
    5.7268   -0.6396    0.0000 N   0  0
    6.4400   -1.0542    0.0000 C   0  0
    7.1557   -0.6438    0.0000 O   0  0
    0.7267    0.6125    0.0000 S   0  0
    0.0123    0.2000    0.0000 O   0  5
    0.3084    1.3292    0.0000 O   0  0
    1.1334    1.3292    0.0000 O   0  0
   -0.6997   -1.0458    0.0000 S   0  0
   -1.4154   -0.6354    0.0000 O   0  5
   -1.1166   -1.7583    0.0000 O   0  0
   -0.2916   -1.7583    0.0000 O   0  0
    0.0165   -3.1052    0.0000 S   0  0
   -0.6973   -3.5187    0.0000 O   0  5
    0.8375   -3.1041    0.0000 O   0  0
    0.4209   -3.8166    0.0000 O   0  0
    5.7280    0.1831    0.0000 C   0  0
    6.4376   -1.8792    0.0000 C   0  0
    6.4431    0.5945    0.0000 C   0  0
    7.1509   -2.2938    0.0000 C   0  0
    7.1485   -3.1188    0.0000 C   0  0
   -1.3458    1.0333    0.0000 Na  0  3
    9.4292   -4.1792    0.0000 Na  0  3
   -1.4708   -4.5250    0.0000 Na  0  3
  3  4  1  0
 22 23  1  0
 10 12  1  1
 23 24  2  0
  2  3  1  0
 15 25  1  0
  6 13  1  1
 25 26  1  0
  3  5  2  0
  7 14  1  1
 25 27  2  0
 25 28  2  0
 11 15  1  6
 13 29  1  0
 29 30  1  0
  8 16  1  6
 29 31  2  0
  6  7  1  0
 29 32  2  0
 12 17  1  0
  6 11  1  0
 14 33  1  0
 16 18  1  0
 33 34  1  0
  7  8  1  0
 33 35  2  0
 17 19  1  0
 33 36  2  0
  8  9  1  0
 19 20  1  0
 22 37  1  0
  9 10  1  0
 23 38  1  0
 19 21  2  0
 37 39  1  0
 10 11  1  0
 38 40  1  0
 20 22  1  0
 40 41  1  0
 41  2  1  0
M  CHG  8   1   1   4  -1  26  -1  30  -1  34  -1  42   1  43   1  44   1
M  END