
  SciTegic06051315212D

 38 42  0  0  0  0            999 V2000
   20.2336   -5.6563    0.0000 O   0  0
   21.6249   -4.7663    0.0000 O   0  0
   23.0918   -5.5267    0.0000 O   0  0
   23.1652   -7.1738    0.0000 O   0  0
   21.0049   -6.8619    0.0000 O   0  0
   22.5632   -8.3088    0.0000 O   0  0
   20.9653   -6.0378    0.0000 C   0  0  2  0  0  0
   21.6610   -5.5928    0.0000 C   0  0  1  0  0  0
   22.3962   -5.9718    0.0000 C   0  0  2  0  0  0
   22.4322   -6.7981    0.0000 C   0  0  1  0  0  0
   21.7365   -7.2432    0.0000 C   0  0  1  0  0  0
   21.7739   -8.0639    0.0000 C   0  0
   20.2177   -4.8332    0.0000 C   0  0  2  0  0  0
   20.9202   -4.4120    0.0000 O   0  0
   20.9043   -3.5888    0.0000 C   0  0
   20.1858   -3.1868    0.0000 C   0  0
   19.4994   -4.4395    0.0000 C   0  0  1  0  0  0
   19.4787   -3.6119    0.0000 C   0  0  2  0  0  0
   18.6853   -3.3756    0.0000 C   0  0  1  0  0  0
   18.7186   -4.7147    0.0000 C   0  0  2  0  0  0
   18.2122   -4.0544    0.0000 C   0  0  1  0  0  0
   17.8935   -4.8231    0.0000 O   0  0
   19.1748   -5.4001    0.0000 C   0  0
   18.8094   -6.1379    0.0000 O   0  0
   19.4548   -2.7850    0.0000 H   0  0
   19.5111   -5.2627    0.0000 H   0  0
   18.4135   -2.5985    0.0000 O   0  0
   17.6134   -3.4778    0.0000 H   0  0
   20.2579   -6.4585    0.0000 H   0  0
   18.9507   -1.9745    0.0000 C   0  0
   18.6789   -1.1974    0.0000 O   0  0
   19.7575   -2.1254    0.0000 C   0  0
   20.0283   -2.9040    0.0000 C   0  0
   20.8364   -3.0575    0.0000 C   0  0
   21.3745   -2.4332    0.0000 C   0  0
   21.0989   -1.6529    0.0000 C   0  0
   20.2915   -1.5031    0.0000 C   0  0
   22.1836   -2.5854    0.0000 O   0  0
  6 12  1  0
 11  5  1  0
  5  7  1  0
  7  8  1  0
  8  9  1  0
  9 10  1  0
 10 11  1  0
 11 12  1  1
  7  1  1  0
  8  2  1  6
  9  3  1  1
 10  4  1  6
 18 16  1  0
 17 13  1  0
 13 14  1  0
 14 15  1  0
 15 16  2  0
 17 18  1  0
 18 19  1  0
 19 21  1  0
 20 17  1  0
 21 20  1  0
 22 21  1  0
 20 22  1  0
 20 23  1  6
 23 24  1  0
 18 25  1  1
 17 26  1  1
 19 27  1  1
 21 28  1  6
 13  1  1  1
  7 29  1  6
 27 30  1  0
 30 31  2  0
 32 33  2  0
 33 34  1  0
 34 35  2  0
 35 36  1  0
 36 37  2  0
 37 32  1  0
 30 32  1  0
 35 38  1  0
M  END