
  SciTegic03291108482D

 34 37  0  0  0  0            999 V2000
   -3.0823   -0.8858    0.0000 S   0  0
   -4.6472   -2.3379    0.0000 O   0  0
   -3.7498    0.4241    0.0000 O   0  0
   -4.7603    0.7281    0.0000 O   0  0
   -0.7682   -6.3897    0.0000 O   0  0
    0.1879   -5.3278    0.0000 O   0  0
   -4.4172   -0.8858    0.0000 N   0  0
   -1.4798   -2.8647    0.0000 N   0  0
   -6.1580    0.4310    0.0000 N   0  0
   -3.3373   -1.6704    0.0000 C   0  0
   -4.1623   -1.6704    0.0000 C   0  0
   -3.7498   -0.4009    0.0000 C   0  0
   -2.0319   -2.2516    0.0000 C   0  0
   -2.8523   -2.3379    0.0000 C   0  0
   -1.6514   -3.6717    0.0000 C   0  0
   -5.2018   -0.6309    0.0000 C   0  0
   -1.6194   -1.5372    0.0000 C   0  0
   -0.7262   -2.5292    0.0000 C   0  0
   -5.3734    0.1761    0.0000 C   0  0
   -1.0383   -4.2237    0.0000 C   0  0
   -0.8124   -1.7087    0.0000 C   0  0
   -2.4360   -3.9267    0.0000 C   0  0
   -1.2098   -5.0307    0.0000 C   0  0
   -6.3295    1.2380    0.0000 C   0  0
   -2.6075   -4.7336    0.0000 C   0  0
   -1.9944   -5.2857    0.0000 C   0  0
   -0.5967   -5.5827    0.0000 C   0  0
   -7.1141    1.4929    0.0000 C   0  0
   -7.2856    2.2999    0.0000 C   0  0
   -5.7164    1.7900    0.0000 C   0  0
   -6.6726    2.8519    0.0000 C   0  0
   -5.8879    2.5970    0.0000 C   0  0
   -8.0703    2.5549    0.0000 C   0  0
   -6.8441    3.6589    0.0000 C   0  0
  1 10  1  0
  1 12  1  0
  2 11  2  0
  3 12  2  0
  4 19  2  0
  5 27  2  0
  6 27  1  0
  7 11  1  0
  7 12  1  0
  7 16  1  0
  8 13  1  0
  8 15  1  0
  8 18  1  0
  9 19  1  0
  9 24  1  0
 10 11  1  0
 10 14  2  0
 13 14  1  0
 13 17  2  0
 15 20  1  0
 15 22  2  0
 16 19  1  0
 17 21  1  0
 18 21  2  0
 20 23  2  0
 22 25  1  0
 23 26  1  0
 23 27  1  0
 24 28  1  0
 24 30  2  0
 25 26  2  0
 28 29  2  0
 29 31  1  0
 29 33  1  0
 30 32  1  0
 31 32  2  0
 31 34  1  0
M  END