
          11280715372D 1   1.00000     0.00000     0

 37 38  0     1  0            999 V2000
    2.6167   -2.8792    0.0000 P   0  0  3  0  0  0           0  0  0
    5.7625   -5.0792    0.0000 C   0  0  0  0  0  0           0  0  0
    6.1125   -4.6000    0.0000 N   0  0  0  0  0  0           0  0  0
    7.0750   -4.1875    0.0000 C   0  0  0  0  0  0           0  0  0
    5.1625   -5.0042    0.0000 C   0  0  1  0  0  0           0  0  0
    6.7167   -4.6667    0.0000 C   0  0  2  0  0  0           0  0  0
    4.8042   -5.4917    0.0000 N   0  0  0  0  0  0           0  0  0
    7.6750   -4.2542    0.0000 N   0  0  0  0  0  0           0  0  0
    4.2000   -5.4250    0.0000 C   0  0  0  0  0  0           0  0  0
    3.2125   -2.7667    0.0000 O   0  0  0  0  0  0           0  0  0
    2.5042   -2.2875    0.0000 O   0  0  0  0  0  0           0  0  0
    6.0042   -5.6375    0.0000 O   0  0  0  0  0  0           0  0  0
    4.9167   -4.4417    0.0000 C   0  0  0  0  0  0           0  0  0
    6.8292   -3.6292    0.0000 O   0  0  0  0  0  0           0  0  0
    6.9625   -5.2167    0.0000 C   0  0  0  0  0  0           0  0  0
    3.9625   -4.8750    0.0000 O   0  0  0  0  0  0           0  0  0
    2.0250   -2.9917    0.0000 O   0  0  0  0  0  0           0  0  0
    2.7292   -3.4792    0.0000 O   0  0  0  0  0  0           0  0  0
    3.6125   -3.2292    0.0000 C   0  0  0  0  0  0           0  0  0
    4.4000   -4.1417    0.0000 C   0  0  0  0  0  0           0  0  0
    8.0292   -3.7667    0.0000 C   0  0  0  0  0  0           0  0  0
    9.1125   -3.4875    0.0000 C   0  0  0  0  0  0           0  0  0
    8.6250   -3.8417    0.0000 C   0  0  0  0  0  0           0  0  0
    9.6625   -3.7292    0.0000 C   0  0  0  0  0  0           0  0  0
    4.5875   -3.5792    0.0000 C   0  0  0  0  0  0           0  0  0
    3.8000   -4.2542    0.0000 C   0  0  0  0  0  0           0  0  0
    4.2000   -3.1167    0.0000 C   0  0  0  0  0  0           0  0  0
    3.4125   -3.8042    0.0000 C   0  0  0  0  0  0           0  0  0
   10.1417   -3.3792    0.0000 O   0  0  0  0  0  0           0  0  0
    9.2375   -4.6792    0.0000 C   0  0  0  0  0  0           0  0  0
    7.3292   -5.6917    0.0000 C   0  0  3  0  0  0           0  0  0
    3.8500   -5.9042    0.0000 C   0  0  0  0  0  0           0  0  0
    8.6917   -4.4417    0.0000 C   0  0  0  0  0  0           0  0  0
    9.7250   -4.3292    0.0000 C   0  0  0  0  0  0           0  0  0
   10.7000   -3.6292    0.0000 C   0  0  0  0  0  0           0  0  0
    7.1125   -6.2417    0.0000 C   0  0  0  0  0  0           0  0  0
    7.9250   -5.7542    0.0000 C   0  0  0  0  0  0           0  0  0
  2  5  1  0     0  0
  3  2  1  0     0  0
  4  6  1  0     0  0
  5 13  1  1     0  0
  6  3  1  0     0  0
  7  5  1  0     0  0
  8  4  1  0     0  0
  9  7  1  0     0  0
 10  1  1  0     0  0
 11  1  2  0     0  0
 12  2  2  0     0  0
 13 20  1  0     0  0
 14  4  2  0     0  0
  6 15  1  6     0  0
 16  9  2  0     0  0
 17  1  1  0     0  0
 18  1  1  0     0  0
 19 10  1  0     0  0
 20 26  2  0     0  0
 21  8  1  0     0  0
 22 23  2  0     0  0
 23 21  1  0     0  0
 24 22  1  0     0  0
 25 27  2  0     0  0
 26 28  1  0     0  0
 27 19  1  0     0  0
 28 19  2  0     0  0
 29 24  1  0     0  0
 30 33  2  0     0  0
 31 15  1  0     0  0
 32  9  1  0     0  0
 33 23  1  0     0  0
 34 30  1  0     0  0
 35 29  1  0     0  0
 36 31  1  0     0  0
 37 31  1  0     0  0
 20 25  1  0     0  0
 34 24  2  0     0  0
M  END