
  SciTegic06051313522D

 31 34  0  0  0  0            999 V2000
    2.7777   -8.3551    0.0000 C   0  0
    2.7765   -9.1824    0.0000 C   0  0
    3.4913   -9.5953    0.0000 C   0  0
    4.2078   -9.1820    0.0000 C   0  0
    4.2049   -8.3514    0.0000 C   0  0
    3.4895   -7.9423    0.0000 C   0  0
    4.9178   -7.9362    0.0000 C   0  0
    5.6338   -8.3460    0.0000 C   0  0
    5.6336   -9.1687    0.0000 C   0  0
    6.3488   -9.5784    0.0000 C   0  0
    7.0627   -9.1632    0.0000 C   0  0
    7.0569   -8.3339    0.0000 C   0  0
    6.3411   -7.9279    0.0000 N   0  0
    4.9229   -9.5933    0.0000 O   0  0
    4.9242  -10.4183    0.0000 C   0  0
    5.6393  -10.8297    0.0000 C   0  0
    5.6359  -11.6520    0.0000 C   0  0
    6.3502  -12.0633    0.0000 C   0  0
    7.0650  -11.6497    0.0000 C   0  0
    7.0611  -10.8204    0.0000 C   0  0
    6.3462  -10.4128    0.0000 C   0  0
    4.9209  -12.0635    0.0000 F   0  0
    7.7807  -12.0601    0.0000 Cl  0  0
    2.0631   -7.9427    0.0000 Cl  0  0
    7.7705   -7.9156    0.0000 C   0  0
    8.4880   -8.3228    0.0000 N   0  0
    7.7645   -7.0906    0.0000 O   0  0
    8.4940   -9.1478    0.0000 C   0  0
    7.9138   -9.7327    0.0000 C   0  0
    8.5014  -10.3118    0.0000 C   0  0
    9.0805   -9.7242    0.0000 C   0  0
  1  2  2  0
  2  3  1  0
  3  4  2  0
  4  5  1  0
  5  6  2  0
  6  1  1  0
  5  7  1  0
  7  8  1  0
  8  9  2  0
  9 10  1  0
 10 11  2  0
 11 12  1  0
 12 13  2  0
 13  8  1  0
  4 14  1  0
 14 15  1  0
 15 16  1  0
 16 17  2  0
 17 18  1  0
 18 19  2  0
 19 20  1  0
 20 21  2  0
 21 16  1  0
 17 22  1  0
 19 23  1  0
  1 24  1  0
 25 26  1  0
 25 27  2  0
 12 25  1  0
 26 28  1  0
 28 29  1  0
 29 30  1  0
 30 31  1  0
 31 28  1  0
M  END