
  Mrv0541 04051115152D          

 17 18  0  0  0  0            999 V2000
    1.4729   -4.2774    0.0000 O   0  0  0  0  0  0  0  0  0  0  0  0
    1.4729   -3.4524    0.0000 C   0  0  0  0  0  0  0  0  0  0  0  0
    2.1874   -3.0399    0.0000 C   0  0  0  0  0  0  0  0  0  0  0  0
    2.1874   -2.2149    0.0000 C   0  0  0  0  0  0  0  0  0  0  0  0
    0.7585   -3.0399    0.0000 C   0  0  0  0  0  0  0  0  0  0  0  0
    0.7585   -2.2149    0.0000 C   0  0  0  0  0  0  0  0  0  0  0  0
    1.4729   -1.8024    0.0000 C   0  0  0  0  0  0  0  0  0  0  0  0
    1.4729   -0.9774    0.0000 C   0  0  0  0  0  0  0  0  0  0  0  0
    2.2979   -0.9774    0.0000 C   0  0  0  0  0  0  0  0  0  0  0  0
    0.6479   -0.9774    0.0000 C   0  0  0  0  0  0  0  0  0  0  0  0
    1.4729   -0.1524    0.0000 C   0  0  0  0  0  0  0  0  0  0  0  0
    0.7585    0.2601    0.0000 C   0  0  0  0  0  0  0  0  0  0  0  0
    0.7585    1.0851    0.0000 C   0  0  0  0  0  0  0  0  0  0  0  0
    2.1874    0.2601    0.0000 C   0  0  0  0  0  0  0  0  0  0  0  0
    2.1874    1.0851    0.0000 C   0  0  0  0  0  0  0  0  0  0  0  0
    1.4729    1.4976    0.0000 C   0  0  0  0  0  0  0  0  0  0  0  0
    1.4729    2.3226    0.0000 O   0  0  0  0  0  0  0  0  0  0  0  0
  2  1  1  0  0  0  0
  3  2  1  0  0  0  0
  2  5  2  0  0  0  0
  4  3  2  0  0  0  0
  4  7  1  0  0  0  0
  5  6  1  0  0  0  0
  6  7  2  0  0  0  0
  8  7  1  0  0  0  0
 11  8  1  0  0  0  0
  8  9  1  0  0  0  0
  8 10  1  0  0  0  0
 11 12  2  0  0  0  0
 11 14  1  0  0  0  0
 12 13  1  0  0  0  0
 16 13  2  0  0  0  0
 14 15  2  0  0  0  0
 15 16  1  0  0  0  0
 16 17  1  0  0  0  0
M  END