
          11280715012D 1   1.00000     0.00000     0

 29 30  0     0  0            999 V2000
   -0.5375   -5.6875    0.0000 C   0  0  0  0  0  0           0  0  0
    0.1750   -5.2750    0.0000 C   0  0  0  0  0  0           0  0  0
    5.1542   -6.4917    0.0000 C   0  0  0  0  0  0           0  0  0
   -0.5375   -6.5125    0.0000 C   0  0  0  0  0  0           0  0  0
   -1.2500   -5.2667    0.0000 C   0  0  3  0  0  0           0  0  0
    5.1625   -5.6667    0.0000 C   0  0  0  0  0  0           0  0  0
    0.8875   -5.6792    0.0000 C   0  0  0  0  0  0           0  0  0
    5.8875   -6.8792    0.0000 N   0  0  0  0  0  0           0  0  0
    3.0250   -5.2667    0.0000 C   0  0  0  0  0  0           0  0  0
    4.4500   -5.2625    0.0000 C   0  0  0  0  0  0           0  0  0
    1.6000   -5.2667    0.0000 C   0  0  0  0  0  0           0  0  0
    3.7375   -5.6750    0.0000 C   0  0  0  0  0  0           0  0  0
    2.3125   -5.6792    0.0000 C   0  0  0  0  0  0           0  0  0
    4.4625   -6.9375    0.0000 O   0  0  0  0  0  0           0  0  0
    6.5792   -6.4375    0.0000 C   0  0  0  0  0  0           0  0  0
    7.9750   -5.5625    0.0000 C   0  0  0  0  0  0           0  0  0
    7.3042   -6.8250    0.0000 C   0  0  0  0  0  0           0  0  0
    6.5417   -5.6167    0.0000 C   0  0  0  0  0  0           0  0  0
    7.2417   -5.1792    0.0000 C   0  0  0  0  0  0           0  0  0
    8.0042   -6.3875    0.0000 C   0  0  0  0  0  0           0  0  0
    8.6667   -5.1167    0.0000 O   0  0  0  0  0  0           0  0  0
   -1.2500   -6.9167    0.0000 C   0  0  0  0  0  0           0  0  0
   -1.9708   -5.6875    0.0000 C   0  0  0  0  0  0           0  0  0
    0.1792   -6.9250    0.0000 C   0  0  0  0  0  0           0  0  0
   -0.6708   -4.6792    0.0000 C   0  0  0  0  0  0           0  0  0
   -1.8458   -4.6792    0.0000 C   0  0  0  0  0  0           0  0  0
   -1.9708   -6.5125    0.0000 C   0  0  0  0  0  0           0  0  0
    4.4417   -4.4375    0.0000 C   0  0  0  0  0  0           0  0  0
    1.5917   -4.4417    0.0000 C   0  0  0  0  0  0           0  0  0
  2  1  1  0     0  0
  3  6  1  0     0  0
  4  1  2  0     0  0
  5  1  1  0     0  0
  6 10  2  0     0  0
  7  2  2  0     0  0
  8  3  1  0     0  0
  9 13  1  0     0  0
 10 12  1  0     0  0
 11  7  1  0     0  0
 12  9  2  0     0  0
 13 11  2  0     0  0
 14  3  2  0     0  0
 15  8  1  0     0  0
 16 19  1  0     0  0
 17 15  2  0     0  0
 18 15  1  0     0  0
 19 18  2  0     0  0
 20 17  1  0     0  0
 21 16  1  0     0  0
 22  4  1  0     0  0
 23  5  1  0     0  0
 24  4  1  0     0  0
 25  5  1  0     0  0
 26  5  1  0     0  0
 27 23  1  0     0  0
 28 10  1  0     0  0
 29 11  1  0     0  0
 27 22  1  0     0  0
 20 16  2  0     0  0
M  END