
  SciTegic11201309402D

 74 78  0  0  1  0            999 V2000
   -3.9167   -2.9958    0.0000 N   0  0
   -2.6125    0.7500    0.0000 N   0  0
   -3.9125   -1.4958    0.0000 C   0  0
   -2.6125   -0.7458    0.0000 C   0  0  1  0  0  0
   -2.7208   -3.8333    0.0000 C   0  0  1  0  0  0
   -3.9125    1.5042    0.0000 C   0  0
   -3.9083    3.0042    0.0000 C   0  0  1  0  0  0
   -1.3000    1.5000    0.0000 C   0  0
   -5.1292   -3.8500    0.0000 C   0  0  2  0  0  0
   -3.1750   -5.2667    0.0000 C   0  0
   -1.3000   -1.4958    0.0000 C   0  0
  -20.7917    9.7917    0.0000 C   0  0
   -9.0917   10.5167    0.0000 C   0  0
  -19.4917   10.5375    0.0000 N   0  0
   -1.3042   -3.3417    0.0000 C   0  0
   -7.7917    9.7625    0.0000 C   0  0
   -5.2083    3.7583    0.0000 N   0  0
   -4.6667   -5.2708    0.0000 C   0  0  2  0  0  0
  -28.5917    9.8083    0.0000 C   0  0
  -20.8167    3.7958    0.0000 C   0  0
  -10.3917    9.7708    0.0000 N   0  0
  -16.8917   10.5333    0.0000 C   0  0
    0.0000    0.7500    0.0000 C   0  0
    0.0000   -0.7458    0.0000 C   0  0
   -5.2042    5.2542    0.0000 C   0  0
  -11.6917   10.5208    0.0000 C   0  0
   -4.9542   -0.8917    0.0000 O   0  0
  -18.1917    9.7875    0.0000 C   0  0  2  0  0  0
  -21.8583    3.2000    0.0000 N   0  0
  -29.6292   10.4125    0.0000 N   0  0
   -4.9500    0.9042    0.0000 O   0  0
  -20.7958    8.5917    0.0000 O   0  0
   -6.5000    6.0083    0.0000 C   0  0
  -12.9917    9.7750    0.0000 C   0  0
   -1.0750   -2.1625    0.0000 O   0  0
   -6.7500   10.3625    0.0000 O   0  0
  -16.8875   11.7333    0.0000 O   0  0
   -4.1625    5.8542    0.0000 O   0  0
  -11.6875   11.7208    0.0000 O   0  0
   -7.7958    8.2625    0.0000 N   0  0
  -22.0917   10.5458    0.0000 C   0  0  2  0  0  0
  -15.5917    9.7792    0.0000 N   0  0
  -20.8083    5.2917    0.0000 N   0  0
  -27.2917   10.5542    0.0000 N   0  0
  -19.7792    3.1917    0.0000 N   0  0
  -28.5958    8.6083    0.0000 N   0  0
   -0.3958   -4.1292    0.0000 O   0  0
   -6.4958    7.5083    0.0000 C   0  0
  -14.2917   10.5292    0.0000 C   0  0
   -2.6083    3.7542    0.0000 C   0  0
  -22.0875   11.7458    0.0000 N   0  0
   -7.7375   11.1375    0.0000 C   0  0
  -10.4417   11.1458    0.0000 C   0  0
   -6.5917   -3.5208    0.0000 C   0  0
   -2.6083    4.9500    0.0000 O   0  0
   -5.6625   -6.4000    0.0000 C   0  0
    1.2958   -1.4958    0.0000 C   0  0
    1.2958    1.5000    0.0000 C   0  0
  -18.2000    8.2875    0.0000 C   0  0
  -25.9917    9.8042    0.0000 C   0  0
  -19.5083    6.0375    0.0000 C   0  0
  -23.3917    9.7958    0.0000 C   0  0
  -19.5000    7.5417    0.0000 C   0  0
  -24.6917   10.5500    0.0000 C   0  0
   -7.4000   12.6000    0.0000 C   0  0
  -10.7708   12.6083    0.0000 C   0  0
   -7.6042   -4.6542    0.0000 C   0  0
   -7.1417   -6.0750    0.0000 C   0  0
    2.5917    0.7500    0.0000 C   0  0
    2.5917   -0.7458    0.0000 C   0  0
   -9.8333   13.7792    0.0000 C   0  0
   -8.3333   13.7750    0.0000 C   0  0
   -4.2540   -6.1817    0.0000 H   0  0
   -5.3241   -2.8692    0.0000 H   0  0
  2  4  1  0
  3  1  1  0
  4  3  1  6
  5  1  1  0
  6  2  1  0
  7  6  1  0
  8  2  1  0
  9  1  1  0
 10  5  1  0
 11  4  1  0
 12 14  1  0
 13 16  1  0
 28 14  1  6
  5 15  1  6
 16 40  1  0
  7 17  1  1
 18  9  1  0
 19 44  2  0
 20 43  2  0
 21 13  1  0
 22 42  1  0
 23  8  1  0
 24 11  1  0
 25 17  1  0
 26 21  1  0
 27  3  2  0
 28 22  1  0
 29 20  1  0
 30 19  1  0
 31  6  2  0
 32 12  2  0
 33 25  1  0
 34 26  1  0
 35 15  2  0
 36 16  2  0
 37 22  2  0
 38 25  2  0
 39 26  2  0
 40 48  1  0
 41 12  1  0
 42 49  1  0
 43 61  1  0
 44 60  1  0
 45 20  1  0
 46 19  1  0
 47 15  1  0
 48 33  1  0
 49 34  1  0
 50  7  1  0
 41 51  1  1
 52 13  1  0
 53 13  1  0
  9 54  1  0
 55 50  1  0
 18 56  1  0
 57 24  2  0
 58 23  2  0
 59 28  1  0
 60 64  1  0
 61 63  1  0
 62 41  1  0
 63 59  1  0
 64 62  1  0
 65 52  1  0
 66 53  1  0
 67 54  1  0
 68 56  1  0
 69 58  1  0
 70 57  1  0
 71 66  1  0
 72 65  1  0
 10 18  1  0
 68 67  1  0
 23 24  1  0
 70 69  2  0
 71 72  1  0
 18 73  1  1
  9 74  1  1
M  END