
  SciTegic11081110012D

 28 31  0  0  0  0            999 V2000
   25.1303    0.8017    0.0000 N   0  0
   25.1291   -0.0255    0.0000 C   0  0
   25.8435   -0.4384    0.0000 N   0  0
   25.8419    1.2144    0.0000 C   0  0
   26.5566    0.8051    0.0000 C   0  0
   26.5567   -0.0210    0.0000 C   0  0
   27.3425   -0.2763    0.0000 N   0  0
   27.8280    0.3922    0.0000 C   0  0
   27.3423    1.0603    0.0000 N   0  0
   25.8395    2.0394    0.0000 N   0  0
   27.5974   -1.0609    0.0000 C   0  0  1  0  0  0
   27.1128   -1.7249    0.0000 C   0  0  1  0  0  0
   27.5978   -2.3923    0.0000 C   0  0  1  0  0  0
   28.3824   -2.1373    0.0000 C   0  0  2  0  0  0
   28.3823   -1.3123    0.0000 O   0  0
   29.0500   -2.6221    0.0000 C   0  0
   28.9638   -3.4426    0.0000 O   0  0
   26.2878   -1.7240    0.0000 O   0  0
   27.3429   -3.1769    0.0000 O   0  0
   29.6314   -3.9274    0.0000 C   0  0
   29.5452   -4.7479    0.0000 C   0  0
   28.7895   -5.0808    0.0000 C   0  0
   28.7031   -5.9005    0.0000 C   0  0
   29.3711   -6.3862    0.0000 C   0  0
   30.1275   -6.0463    0.0000 C   0  0
   30.2102   -5.2277    0.0000 C   0  0
   28.6530    0.3923    0.0000 N   0  0
   29.0656   -0.3221    0.0000 C   0  0
  1  2  2  0
 12 13  1  0
 13 14  1  0
 14 15  1  0
 15 11  1  0
  5  4  2  0
 14 16  1  6
  6  7  1  0
 16 17  1  0
  7  8  1  0
 12 18  1  1
  8  9  2  0
 13 19  1  1
  9  5  1  0
 17 20  1  0
  4  1  1  0
 20 21  1  0
  4 10  1  0
 21 22  2  0
  5  6  1  0
 22 23  1  0
 11  7  1  6
 23 24  2  0
 11 12  1  0
 24 25  1  0
 25 26  2  0
 26 21  1  0
  2  3  1  0
  8 27  1  0
  3  6  2  0
 27 28  1  0
M  END