
          11280714552D 1   1.00000     0.00000     0

 31 34  0     0  0            999 V2000
    2.1667   -2.9250    0.0000 S   0  0  0  0  0  0           0  0  0
    2.1667   -1.2667    0.0000 C   0  0  3  0  0  0           0  0  0
    1.4542   -1.6792    0.0000 C   0  0  0  0  0  0           0  0  0
    1.4542   -2.5042    0.0000 C   0  0  0  0  0  0           0  0  0
    7.1750   -2.5250    0.0000 C   0  0  0  0  0  0           0  0  0
    2.8875   -1.6792    0.0000 C   0  0  0  0  0  0           0  0  0
    2.8875   -2.5125    0.0000 C   0  0  3  0  0  0           0  0  0
    7.8792   -2.9417    0.0000 C   0  0  0  0  0  0           0  0  0
    7.1667   -1.7042    0.0000 C   0  0  0  0  0  0           0  0  0
    2.1667   -0.4417    0.0000 C   0  0  0  0  0  0           0  0  0
    6.4542   -2.9292    0.0000 O   0  0  0  0  0  0           0  0  0
    4.3167   -2.5167    0.0000 N   0  0  0  0  0  0           0  0  0
    7.8792   -3.7667    0.0000 O   0  0  0  0  0  0           0  0  0
    6.4542   -1.2917    0.0000 O   0  0  0  0  0  0           0  0  0
    0.7417   -1.2667    0.0000 C   0  0  0  0  0  0           0  0  0
    0.7417   -2.9250    0.0000 C   0  0  0  0  0  0           0  0  0
    3.6000   -2.9250    0.0000 C   0  0  0  0  0  0           0  0  0
    8.6042   -1.7042    0.0000 C   0  0  0  0  0  0           0  0  0
    8.6000   -2.5292    0.0000 C   0  0  0  0  0  0           0  0  0
    7.8792   -1.2917    0.0000 C   0  0  0  0  0  0           0  0  0
    2.8875   -0.0292    0.0000 C   0  0  0  0  0  0           0  0  0
    1.4542   -0.0292    0.0000 C   0  0  0  0  0  0           0  0  0
    5.0292   -2.9292    0.0000 C   0  0  0  0  0  0           0  0  0
    5.7417   -2.5167    0.0000 C   0  0  0  0  0  0           0  0  0
    7.1625   -4.1750    0.0000 C   0  0  0  0  0  0           0  0  0
    6.4542   -0.4667    0.0000 C   0  0  0  0  0  0           0  0  0
    0.0292   -1.6875    0.0000 C   0  0  0  0  0  0           0  0  0
    0.0292   -2.5125    0.0000 C   0  0  0  0  0  0           0  0  0
    1.4542    0.7875    0.0000 C   0  0  0  0  0  0           0  0  0
    2.8875    0.7958    0.0000 C   0  0  0  0  0  0           0  0  0
    2.1750    1.2083    0.0000 C   0  0  0  0  0  0           0  0  0
  2  6  1  0     0  0
  3  4  1  0     0  0
  4  1  1  0     0  0
  5 11  1  0     0  0
  6  7  1  0     0  0
  7  1  1  0     0  0
  8  5  2  0     0  0
  9  5  1  0     0  0
  2 10  1  0     0  0
 11 24  1  0     0  0
 12 17  1  0     0  0
 13  8  1  0     0  0
 14  9  1  0     0  0
 15  3  2  0     0  0
 16  4  2  0     0  0
  7 17  1  0     0  0
 18 20  1  0     0  0
 19  8  1  0     0  0
 20  9  2  0     0  0
 21 10  2  0     0  0
 22 10  1  0     0  0
 23 12  1  0     0  0
 24 23  1  0     0  0
 25 13  1  0     0  0
 26 14  1  0     0  0
 27 28  2  0     0  0
 28 16  1  0     0  0
 29 22  2  0     0  0
 30 21  1  0     0  0
 31 29  1  0     0  0
  2  3  1  0     0  0
 27 15  1  0     0  0
 31 30  2  0     0  0
 18 19  2  0     0  0
M  END