
          11280715122D 1   1.00000     0.00000     0

 28 30  0     0  0            999 V2000
    8.5667   -6.4667    0.0000 C   0  0  0  0  0  0           0  0  0
    7.8542   -6.0542    0.0000 C   0  0  0  0  0  0           0  0  0
    3.8042   -6.5667    0.0000 N   0  0  3  0  0  0           0  0  0
    8.5667   -7.2917    0.0000 C   0  0  0  0  0  0           0  0  0
    3.0917   -6.1542    0.0000 C   0  0  0  0  0  0           0  0  0
    5.1667   -7.4917    0.0000 N   0  0  3  0  0  0           0  0  0
    7.8542   -5.2292    0.0000 N   0  0  3  0  0  0           0  0  0
    3.0917   -5.3292    0.0000 C   0  0  0  0  0  0           0  0  0
    9.2792   -7.7042    0.0000 N   0  0  0  0  0  0           0  0  0
    7.1375   -6.4667    0.0000 O   0  0  0  0  0  0           0  0  0
    4.5500   -6.2042    0.0000 C   0  0  0  0  0  0           0  0  0
    3.7500   -7.3917    0.0000 C   0  0  0  0  0  0           0  0  0
    1.6625   -5.3292    0.0000 N   0  0  0  0  0  0           0  0  0
    7.8542   -7.7042    0.0000 N   0  0  0  0  0  0           0  0  0
    4.4292   -7.8500    0.0000 C   0  0  0  0  0  0           0  0  0
    5.2292   -6.6667    0.0000 C   0  0  0  0  0  0           0  0  0
    2.3750   -6.5667    0.0000 C   0  0  0  0  0  0           0  0  0
    9.2792   -6.0500    0.0000 C   0  0  0  0  0  0           0  0  0
    2.3750   -4.9167    0.0000 C   0  0  0  0  0  0           0  0  0
    5.8500   -7.9542    0.0000 C   0  0  0  0  0  0           0  0  0
    6.5625   -7.5417    0.0000 C   0  0  0  0  0  0           0  0  0
    1.6625   -6.1542    0.0000 C   0  0  0  0  0  0           0  0  0
    3.8042   -4.9125    0.0000 C   0  0  0  0  0  0           0  0  0
    9.9917   -7.2917    0.0000 C   0  0  0  0  0  0           0  0  0
    7.1417   -8.1250    0.0000 C   0  0  0  0  0  0           0  0  0
    8.5667   -4.8167    0.0000 C   0  0  0  0  0  0           0  0  0
    7.1375   -4.8167    0.0000 C   0  0  0  0  0  0           0  0  0
    9.9917   -6.4625    0.0000 C   0  0  0  0  0  0           0  0  0
  2  1  1  0     0  0
  3 11  1  0     0  0
  4  1  2  0     0  0
  5  3  1  0     0  0
  6 20  1  0     0  0
  7  2  1  0     0  0
  8  5  1  0     0  0
  9  4  1  0     0  0
 10  2  2  0     0  0
 11 16  1  0     0  0
 12 15  1  0     0  0
 13 22  2  0     0  0
 14  4  1  0     0  0
 15  6  1  0     0  0
 16  6  1  0     0  0
 17  5  2  0     0  0
 18  1  1  0     0  0
 19  8  2  0     0  0
 20 21  1  0     0  0
 21 25  1  0     0  0
 22 17  1  0     0  0
 23  8  1  0     0  0
 24 28  1  0     0  0
 25 14  1  0     0  0
 26  7  1  0     0  0
 27  7  1  0     0  0
 28 18  2  0     0  0
 24  9  2  0     0  0
 12  3  1  0     0  0
 13 19  1  0     0  0
M  END