
          11280714442D 1   1.00000     0.00000     0

 26 26  0     0  0            999 V2000
   10.1542   -5.1875    0.0000 S   0  0  3  0  0  0           0  0  0
    3.5417   -3.8542    0.0000 C   0  0  0  0  0  0           0  0  0
    4.3667   -3.8417    0.0000 C   0  0  0  0  0  0           0  0  0
    9.3292   -5.1875    0.0000 N   0  0  0  0  0  0           0  0  0
   10.9792   -5.1875    0.0000 N   0  0  3  0  0  0           0  0  0
   10.1542   -6.0125    0.0000 O   0  0  0  0  0  0           0  0  0
   10.1542   -4.3625    0.0000 O   0  0  0  0  0  0           0  0  0
    4.7917   -4.5417    0.0000 O   0  0  0  0  0  0           0  0  0
    3.1167   -3.1542    0.0000 C   0  0  0  0  0  0           0  0  0
    8.9167   -4.4750    0.0000 C   0  0  0  0  0  0           0  0  0
    8.0917   -4.4750    0.0000 C   0  0  3  0  0  0           0  0  0
    7.2667   -4.4917    0.0000 N   0  0  0  0  0  0           0  0  0
    4.7667   -3.1167    0.0000 O   0  0  0  0  0  0           0  0  0
    6.0500   -5.2292    0.0000 C   0  0  3  0  0  0           0  0  0
    5.6167   -4.5292    0.0000 C   0  0  0  0  0  0           0  0  0
    6.8750   -5.2167    0.0000 C   0  0  0  0  0  0           0  0  0
    3.5167   -2.4292    0.0000 F   0  0  0  0  0  0           0  0  0
    3.1500   -4.5792    0.0000 C   0  0  0  0  0  0           0  0  0
    5.6542   -5.9542    0.0000 O   0  0  0  0  0  0           0  0  0
   11.3875   -4.4750    0.0000 C   0  0  0  0  0  0           0  0  0
   11.3917   -5.9000    0.0000 C   0  0  0  0  0  0           0  0  0
    2.2917   -3.1667    0.0000 C   0  0  0  0  0  0           0  0  0
    8.5250   -5.1792    0.0000 C   0  0  0  0  0  0           0  0  0
    8.4917   -3.7500    0.0000 C   0  0  0  0  0  0           0  0  0
    2.3167   -4.6000    0.0000 C   0  0  0  0  0  0           0  0  0
    1.8917   -3.8917    0.0000 C   0  0  0  0  0  0           0  0  0
  2  3  1  0     0  0
  3  8  1  0     0  0
  4  1  1  0     0  0
  5  1  1  0     0  0
  6  1  2  0     0  0
  7  1  2  0     0  0
  8 15  1  0     0  0
  9  2  1  0     0  0
 10  4  1  0     0  0
 11 10  1  0     0  0
 12 11  1  0     0  0
 13  3  2  0     0  0
 14 16  1  0     0  0
 15 14  1  0     0  0
 16 12  1  0     0  0
 17  9  1  0     0  0
 18  2  2  0     0  0
 19 14  1  0     0  0
 20  5  1  0     0  0
 21  5  1  0     0  0
 22  9  2  0     0  0
 23 11  1  0     0  0
 24 11  1  0     0  0
 25 18  1  0     0  0
 26 25  2  0     0  0
 26 22  1  0     0  0
M  END