
  SciTegic10311217562D

 18 20  0  0  0  0            999 V2000
   -2.9037  -10.1039    0.0000 C   0  0
   -2.9048  -10.9295    0.0000 C   0  0
   -2.1915  -11.3415    0.0000 C   0  0
   -2.1933   -9.6919    0.0000 C   0  0
   -1.4794  -10.1002    0.0000 C   0  0
   -1.4745  -10.9296    0.0000 C   0  0
   -0.6844  -11.1812    0.0000 N   0  0
   -0.2008  -10.5073    0.0000 C   0  0
   -0.6923   -9.8394    0.0000 C   0  0
   -0.6985   -9.0145    0.0000 C   0  0
    0.0113   -8.5974    0.0000 N   0  0
   -1.4146   -8.6083    0.0000 S   0  0
    0.7252   -9.0031    0.0000 C   0  0
    1.4329   -8.5895    0.0000 C   0  0
    1.4308   -7.7659    0.0000 C   0  0
    0.7148   -7.3575    0.0000 C   0  0
    0.0009   -7.7728    0.0000 C   0  0
    2.1422   -7.3514    0.0000 O   0  0
  8  9  2  0
  9  5  1  0
  4  1  1  0
  9 10  1  0
  5  6  1  0
 10 11  1  0
 10 12  2  0
 11 13  1  0
  2  3  1  0
  3  6  2  0
  1  2  2  0
  5  4  2  0
  6  7  1  0
 11 17  1  0
 13 14  1  0
 14 15  1  0
 15 16  1  0
 16 17  1  0
  7  8  1  0
 15 18  1  0
M  END