
  SciTegic03291108552D

 10 11  0  0  0  0            999 V2000
    0.4840   -1.4902    0.0000 O   0  0
    0.4840   -0.1554    0.0000 O   0  0
    3.4120   -1.6478    0.0000 O   0  0
    1.2686   -1.2353    0.0000 C   0  0
    1.2686   -0.4103    0.0000 C   0  0
    1.9831   -1.6478    0.0000 C   0  0
    1.9831    0.0022    0.0000 C   0  0
    2.6976   -1.2353    0.0000 C   0  0
   -0.0009   -0.8228    0.0000 C   0  0
    2.6976   -0.4103    0.0000 C   0  0
  1  4  1  0
  1  9  1  0
  2  5  1  0
  2  9  1  0
  3  8  1  0
  4  5  2  0
  4  6  1  0
  5  7  1  0
  6  8  2  0
  7 10  2  0
  8 10  1  0
M  END