
          11280715502D 1   1.00000     0.00000     0

 33 36  0     0  0            999 V2000
   -0.2341   -5.3795    0.0000 N   0  0  0  0  0  0           0  0  0
    0.2495   -6.0391    0.0000 C   0  0  0  0  0  0           0  0  0
   -0.2350   -6.7105    0.0000 C   0  0  0  0  0  0           0  0  0
   -1.0184   -6.4554    0.0000 C   0  0  0  0  0  0           0  0  0
   -1.7293   -6.8676    0.0000 N   0  0  3  0  0  0           0  0  0
   -2.4473   -6.4574    0.0000 C   0  0  0  0  0  0           0  0  0
   -2.4461   -5.6309    0.0000 N   0  0  3  0  0  0           0  0  0
   -1.7310   -5.2187    0.0000 C   0  0  0  0  0  0           0  0  0
   -1.0171   -5.6331    0.0000 C   0  0  0  0  0  0           0  0  0
   -1.7286   -4.3943    0.0000 O   0  0  0  0  0  0           0  0  0
   -3.1667   -6.8673    0.0000 O   0  0  0  0  0  0           0  0  0
   -3.1678   -5.2095    0.0000 C   0  0  0  0  0  0           0  0  0
   -1.7293   -7.6920    0.0000 C   0  0  0  0  0  0           0  0  0
    1.0767   -5.9963    0.0000 C   0  0  0  0  0  0           0  0  0
    1.5230   -6.6968    0.0000 C   0  0  0  0  0  0           0  0  0
    2.3467   -6.6629    0.0000 C   0  0  0  0  0  0           0  0  0
    2.7250   -5.9334    0.0000 C   0  0  0  0  0  0           0  0  0
    2.2862   -5.2363    0.0000 C   0  0  0  0  0  0           0  0  0
    1.4597   -5.2695    0.0000 C   0  0  0  0  0  0           0  0  0
    3.5494   -5.9021    0.0000 O   0  0  0  0  0  0           0  0  0
    3.9384   -5.1725    0.0000 C   0  0  0  0  0  0           0  0  0
    4.7628   -5.1413    0.0000 C   0  0  0  0  0  0           0  0  0
    5.1477   -4.4117    0.0000 N   0  0  0  0  0  0           0  0  0
    5.1982   -5.8355    0.0000 O   0  0  0  0  0  0           0  0  0
    5.9712   -4.3800    0.0000 C   0  0  0  0  0  0           0  0  0
    6.4138   -5.0764    0.0000 C   0  0  0  0  0  0           0  0  0
    7.2416   -5.0455    0.0000 C   0  0  0  0  0  0           0  0  0
    7.6232   -4.3112    0.0000 C   0  0  0  0  0  0           0  0  0
    7.1834   -3.6146    0.0000 C   0  0  0  0  0  0           0  0  0
    6.3611   -3.6490    0.0000 C   0  0  0  0  0  0           0  0  0
    8.4469   -4.2765    0.0000 Br  0  0  0  0  0  0           0  0  0
    1.1415   -7.4276    0.0000 O   0  0  0  0  0  0           0  0  0
    0.3178   -7.4626    0.0000 C   0  0  0  0  0  0           0  0  0
  5  6  1  0     0  0
 16 17  1  0     0  0
  6  7  1  0     0  0
 17 18  2  0     0  0
  7  8  1  0     0  0
 18 19  1  0     0  0
 19 14  2  0     0  0
  2 14  1  0     0  0
  8  9  1  0     0  0
 17 20  1  0     0  0
  1  2  1  0     0  0
 20 21  1  0     0  0
  8 10  2  0     0  0
 21 22  1  0     0  0
  2  3  2  0     0  0
 22 23  1  0     0  0
  6 11  2  0     0  0
 22 24  2  0     0  0
  3  4  1  0     0  0
 23 25  1  0     0  0
  7 12  1  0     0  0
 25 26  2  0     0  0
  9  1  1  0     0  0
 26 27  1  0     0  0
  5 13  1  0     0  0
 27 28  2  0     0  0
 28 29  1  0     0  0
  4  9  2  0     0  0
 29 30  2  0     0  0
 30 25  1  0     0  0
 14 15  1  0     0  0
 28 31  1  0     0  0
  4  5  1  0     0  0
 15 32  1  0     0  0
 15 16  2  0     0  0
 32 33  1  0     0  0
M  END