
  SciTegic12231509382D

 17 18  0  0  0  0            999 V2000
    3.6153   -3.4945    0.0000 N   0  0
    2.3811   -2.9565    0.0000 N   0  0
    2.8064   -3.6779    0.0000 C   0  0
    3.6904   -2.6688    0.0000 C   0  0
    2.9273   -2.3393    0.0000 C   0  0
    9.4116   -3.4277    0.0000 C   0  0
    7.9813   -2.6188    0.0000 C   0  0
   10.1247   -3.8405    0.0000 I   0  0
    9.3991   -2.5937    0.0000 C   0  0
    8.7069   -3.8447    0.0000 C   0  0
    8.6860   -2.1934    0.0000 C   0  0
    7.9855   -3.4444    0.0000 C   0  0
    6.5469   -2.6313    0.0000 O   0  0
    4.3952   -2.2435    0.0000 C   0  0
    7.2599   -2.2142    0.0000 C   0  0
    5.8296   -2.2310    0.0000 C   0  0
    5.1207   -2.6521    0.0000 C   0  0
  2  3  1  0
  3  1  2  0
  4  1  1  0
  5  4  2  0
  6 10  2  0
  7 15  1  0
  8  6  1  0
  9 11  2  0
 10 12  1  0
 11  7  1  0
 12  7  2  0
 13 16  1  0
 14  4  1  0
 15 13  1  0
 16 17  1  0
 17 14  1  0
  2  5  1  0
  6  9  1  0
M  END