
          11280715062D 1   1.00000     0.00000     0

 21 22  0     0  0            999 V2000
    5.1250   -2.6542    0.0000 C   0  0  0  0  0  0           0  0  0
   -0.4708   -3.4667    0.0000 N   0  0  0  0  0  0           0  0  0
   -1.7875   -3.2417    0.0000 N   0  0  0  0  0  0           0  0  0
   -1.2125   -3.8375    0.0000 C   0  0  0  0  0  0           0  0  0
   -0.5875   -2.6542    0.0000 C   0  0  0  0  0  0           0  0  0
    5.8417   -2.2417    0.0000 N   0  0  0  0  0  0           0  0  0
    5.1250   -3.4792    0.0000 S   0  0  0  0  0  0           0  0  0
   -1.4000   -2.5167    0.0000 C   0  0  0  0  0  0           0  0  0
    4.4125   -2.2417    0.0000 N   0  0  0  0  0  0           0  0  0
    6.5542   -2.6542    0.0000 C   0  0  0  0  0  0           0  0  0
    0.1250   -2.2417    0.0000 C   0  0  0  0  0  0           0  0  0
    3.6917   -2.6542    0.0000 C   0  0  0  0  0  0           0  0  0
    6.5542   -3.4792    0.0000 C   0  0  0  0  0  0           0  0  0
    7.2667   -2.2417    0.0000 C   0  0  0  0  0  0           0  0  0
    0.8417   -2.6542    0.0000 C   0  0  0  0  0  0           0  0  0
    2.9792   -2.2417    0.0000 C   0  0  0  0  0  0           0  0  0
    2.2667   -2.6542    0.0000 C   0  0  0  0  0  0           0  0  0
    1.5542   -2.2417    0.0000 C   0  0  0  0  0  0           0  0  0
    7.9792   -2.6542    0.0000 C   0  0  0  0  0  0           0  0  0
    7.2667   -3.8917    0.0000 C   0  0  0  0  0  0           0  0  0
    7.9792   -3.4792    0.0000 C   0  0  0  0  0  0           0  0  0
  2  5  1  0     0  0
  3  8  1  0     0  0
  4  2  2  0     0  0
  5 11  1  0     0  0
  6  1  1  0     0  0
  7  1  2  0     0  0
  8  5  2  0     0  0
  9  1  1  0     0  0
 10  6  1  0     0  0
 11 15  1  0     0  0
 12  9  1  0     0  0
 13 10  2  0     0  0
 14 10  1  0     0  0
 15 18  1  0     0  0
 16 12  1  0     0  0
 17 16  1  0     0  0
 18 17  1  0     0  0
 19 14  2  0     0  0
 20 13  1  0     0  0
 21 19  1  0     0  0
 20 21  2  0     0  0
  3  4  1  0     0  0
M  END