
          11280715192D 1   1.00000     0.00000     0

 32 33  0     1  0            999 V2000
    2.0042   -1.5667    0.0000 C   0  0  0  0  0  0           0  0  0
    8.4417   -4.4625    0.0000 C   0  0  0  0  0  0           0  0  0
    7.7292   -4.0500    0.0000 C   0  0  0  0  0  0           0  0  0
    2.7250   -1.9792    0.0000 C   0  0  0  0  0  0           0  0  0
    2.0042   -0.7417    0.0000 C   0  0  0  0  0  0           0  0  0
    1.3000   -1.9792    0.0000 C   0  0  0  0  0  0           0  0  0
    8.4417   -5.2875    0.0000 C   0  0  0  0  0  0           0  0  0
    9.1542   -4.0500    0.0000 C   0  0  0  0  0  0           0  0  0
    3.4375   -3.2167    0.0000 C   0  0  0  0  0  0           0  0  0
    7.0167   -2.8125    0.0000 C   0  0  0  0  0  0           0  0  0
    2.7250   -2.8042    0.0000 C   0  0  1  0  0  0           0  0  0
    7.7292   -3.2250    0.0000 C   0  0  2  0  0  0           0  0  0
    0.5875   -1.5667    0.0000 C   0  0  0  0  0  0           0  0  0
    9.1542   -5.7000    0.0000 C   0  0  0  0  0  0           0  0  0
    9.8667   -4.4542    0.0000 C   0  0  0  0  0  0           0  0  0
    1.3000   -0.3292    0.0000 C   0  0  0  0  0  0           0  0  0
    0.5792   -0.7417    0.0000 C   0  0  0  0  0  0           0  0  0
    9.8667   -5.2875    0.0000 C   0  0  0  0  0  0           0  0  0
    7.0167   -1.9875    0.0000 O   0  0  0  0  0  0           0  0  0
    3.4375   -4.0417    0.0000 O   0  0  0  0  0  0           0  0  0
    4.1542   -2.8042    0.0000 N   0  0  0  0  0  0           0  0  0
    6.2917   -3.2167    0.0000 N   0  0  0  0  0  0           0  0  0
    8.4417   -2.8125    0.0000 N   0  0  0  0  0  0           0  0  0
    2.0042   -3.2167    0.0000 N   0  0  0  0  0  0           0  0  0
   -0.1333   -0.3292    0.0000 O   0  0  0  0  0  0           0  0  0
   10.5792   -5.6917    0.0000 O   0  0  0  0  0  0           0  0  0
    2.7292   -0.3292    0.0000 C   0  0  0  0  0  0           0  0  0
    1.3292   -2.6167    0.0000 C   0  0  0  0  0  0           0  0  0
    9.1667   -3.3042    0.0000 C   0  0  0  0  0  0           0  0  0
    7.7250   -5.6917    0.0000 C   0  0  0  0  0  0           0  0  0
    4.8667   -3.2167    0.0000 C   0  0  0  0  0  0           0  0  0
    5.5792   -2.8042    0.0000 C   0  0  0  0  0  0           0  0  0
  2  3  1  0     0  0
 12  3  1  6     0  0
  4  1  1  0     0  0
  5  1  2  0     0  0
  6  1  1  0     0  0
  7  2  2  0     0  0
  8  2  1  0     0  0
  9 11  1  0     0  0
 10 22  1  0     0  0
 11  4  1  1     0  0
 12 10  1  0     0  0
 13  6  2  0     0  0
 14  7  1  0     0  0
 15  8  2  0     0  0
 16  5  1  0     0  0
 17 13  1  0     0  0
 18 15  1  0     0  0
 19 10  2  0     0  0
 20  9  2  0     0  0
 21  9  1  0     0  0
 22 32  1  0     0  0
 23 12  1  0     0  0
 24 11  1  0     0  0
 25 17  1  0     0  0
 26 18  1  0     0  0
 27  5  1  0     0  0
 28  6  1  0     0  0
 29  8  1  0     0  0
 30  7  1  0     0  0
 31 21  1  0     0  0
 32 31  1  0     0  0
 16 17  2  0     0  0
 14 18  2  0     0  0
M  END