
  SciTegic05171617272D

 27 30  0  0  0  0            999 V2000
    0.0446    3.6095    0.0000 N   0  0
   -0.9971    3.0138    0.0000 C   0  0
   -2.0337    3.6184    0.0000 O   0  0
   -1.0028    1.5132    0.0000 C   0  0
   -2.3155    0.7475    0.0000 C   0  0
   -2.3155   -0.7475    0.0000 C   0  0
   -1.0028   -1.5132    0.0000 C   0  0
    0.2917   -0.7475    0.0000 C   0  0
    1.7138   -1.2033    0.0000 C   0  0
    2.5889    0.0182    0.0000 N   0  0
    4.0896    0.0290    0.0000 C   0  0
    4.9234    1.2700    0.0000 C   0  0
    6.4199    1.1671    0.0000 C   0  0
    7.0791   -0.1803    0.0000 N   0  0
    8.5761   -0.2862    0.0000 C   0  0
    9.2338   -1.6353    0.0000 C   0  0
   10.7299   -1.7434    0.0000 C   0  0
   11.3844   -3.0931    0.0000 C   0  0
   10.5428   -4.3347    0.0000 C   0  0
   11.0664   -5.4145    0.0000 F   0  0
    9.0467   -4.2267    0.0000 C   0  0
    8.3922   -2.8771    0.0000 C   0  0
    6.2418   -1.4248    0.0000 C   0  0
    4.7453   -1.3220    0.0000 C   0  0
    1.7138    1.2033    0.0000 C   0  0
    2.0825    2.3453    0.0000 O   0  0
    0.2917    0.7475    0.0000 C   0  0
  1  2  1  0
  2  3  2  0
  2  4  1  0
  4  5  2  0
  5  6  1  0
  6  7  2  0
  7  8  1  0
  8  9  1  0
  9 10  1  0
 10 11  1  0
 11 12  1  0
 12 13  1  0
 13 14  1  0
 14 15  1  0
 15 16  1  0
 16 17  2  0
 17 18  1  0
 18 19  2  0
 19 20  1  0
 19 21  1  0
 21 22  2  0
 16 22  1  0
 14 23  1  0
 23 24  1  0
 11 24  1  0
 10 25  1  0
 25 26  2  0
 25 27  1  0
  4 27  1  0
  8 27  2  0
M  END