
  SciTegic12231509382D

 18 19  0  0  0  0            999 V2000
   11.3385   -0.3083    0.0000 C   0  0
   11.3385   -1.1334    0.0000 C   0  0
   12.0506   -1.5418    0.0000 C   0  0
   12.0506    0.1083    0.0000 C   0  0
   12.7627   -0.3083    0.0000 C   0  0
   12.7611   -1.1316    0.0000 C   0  0
   13.4721   -1.5428    0.0000 C   0  0
   14.1852   -1.1319    0.0000 C   0  0
   14.1828   -0.3055    0.0000 C   0  0
   13.4712    0.1019    0.0000 C   0  0
   10.6228    0.1021    0.0000 N   0  0
   10.6204    0.9272    0.0000 C   0  0
    9.9046    1.3376    0.0000 C   0  0
    9.9022    2.1627    0.0000 C   0  0
    9.9095   -0.3125    0.0000 C   0  0
    9.1937    0.0979    0.0000 C   0  0
    8.4804   -0.3167    0.0000 C   0  0
   13.4692    0.9270    0.0000 O   0  0
  8  9  1  0
  5  4  1  0
  9 10  2  0
 10  5  1  0
  1 11  1  0
  1  2  1  0
 11 12  1  0
  5  6  2  0
 12 13  1  0
  1  4  1  0
 13 14  1  0
  6  7  1  0
 11 15  1  0
  2  3  1  0
 15 16  1  0
  7  8  2  0
 16 17  1  0
  3  6  1  0
 10 18  1  0
M  END