
          11280715012D 1   1.00000     0.00000     0

 30 33  0     0  0            999 V2000
    6.3542   -1.0167    0.0000 C   0  0  0  0  0  0           0  0  0
    6.8375   -1.6792    0.0000 N   0  0  3  0  0  0           0  0  0
    5.5417   -1.1000    0.0000 N   0  0  3  0  0  0           0  0  0
    5.6917   -2.5167    0.0000 N   0  0  0  0  0  0           0  0  0
    6.5042   -2.4292    0.0000 C   0  0  0  0  0  0           0  0  0
    5.2042   -1.8542    0.0000 C   0  0  0  0  0  0           0  0  0
   11.1000   -4.8167    0.0000 C   0  0  0  0  0  0           0  0  0
    9.3167   -3.0917    0.0000 N   0  0  3  0  0  0           0  0  0
    6.6042   -0.2292    0.0000 O   0  0  0  0  0  0           0  0  0
    7.0000   -3.0917    0.0000 O   0  0  0  0  0  0           0  0  0
   10.8917   -5.6167    0.0000 C   0  0  0  0  0  0           0  0  0
   10.5042   -4.2417    0.0000 C   0  0  3  0  0  0           0  0  0
    7.6625   -1.6750    0.0000 C   0  0  0  0  0  0           0  0  0
   11.7750   -4.6292    0.0000 O   0  0  0  0  0  0           0  0  0
    5.0542   -0.4375    0.0000 C   0  0  0  0  0  0           0  0  0
   10.1042   -5.8417    0.0000 C   0  0  0  0  0  0           0  0  0
   11.4917   -6.1875    0.0000 C   0  0  0  0  0  0           0  0  0
   10.7042   -3.4500    0.0000 C   0  0  0  0  0  0           0  0  0
    9.7125   -4.4750    0.0000 C   0  0  0  0  0  0           0  0  0
   10.1125   -2.8667    0.0000 C   0  0  0  0  0  0           0  0  0
    9.1167   -3.8917    0.0000 C   0  0  0  0  0  0           0  0  0
    8.0792   -2.3875    0.0000 C   0  0  0  0  0  0           0  0  0
   10.5000   -7.2167    0.0000 C   0  0  0  0  0  0           0  0  0
    4.3875   -1.9417    0.0000 C   0  0  0  0  0  0           0  0  0
   11.2917   -6.9875    0.0000 C   0  0  0  0  0  0           0  0  0
    9.9042   -6.6417    0.0000 C   0  0  0  0  0  0           0  0  0
    8.9042   -2.3792    0.0000 C   0  0  0  0  0  0           0  0  0
   10.2917   -8.0167    0.0000 F   0  0  0  0  0  0           0  0  0
    4.2375   -0.5167    0.0000 C   0  0  0  0  0  0           0  0  0
    3.9042   -1.2750    0.0000 C   0  0  0  0  0  0           0  0  0
  2  1  1  0     0  0
  3  1  1  0     0  0
  4  6  2  0     0  0
  5  2  1  0     0  0
  6  3  1  0     0  0
  7 12  1  0     0  0
  8 27  1  0     0  0
  9  1  2  0     0  0
 10  5  2  0     0  0
 11  7  1  0     0  0
 12 19  1  0     0  0
 13  2  1  0     0  0
 14  7  2  0     0  0
 15  3  1  0     0  0
 16 11  2  0     0  0
 17 11  1  0     0  0
 18 20  1  0     0  0
 19 21  1  0     0  0
 20  8  1  0     0  0
 21  8  1  0     0  0
 22 13  1  0     0  0
 23 25  1  0     0  0
 24  6  1  0     0  0
 25 17  2  0     0  0
 26 16  1  0     0  0
 27 22  1  0     0  0
 28 23  1  0     0  0
 29 15  1  0     0  0
 30 29  1  0     0  0
  4  5  1  0     0  0
 30 24  1  0     0  0
 18 12  1  0     0  0
 26 23  2  0     0  0
M  END