
          11280714572D 1   1.00000     0.00000     0

 30 31  0     0  0            999 V2000
    5.0042   -1.5000    0.0000 C   0  0  3  0  0  0           0  0  0
    5.5875   -1.6542    0.0000 N   0  0  0  0  0  0           0  0  0
    6.0042   -1.2292    0.0000 C   0  0  0  0  0  0           0  0  0
    3.0125   -1.7875    0.0000 C   0  0  3  0  0  0           0  0  0
    4.4292   -1.3417    0.0000 C   0  0  3  0  0  0           0  0  0
    2.8542   -0.9542    0.0000 N   0  0  0  0  0  0           0  0  0
    1.0542   -0.9167    0.0000 O   0  0  0  0  0  0           0  0  0
    0.4542   -0.9042    0.0000 C   0  0  0  0  0  0           0  0  0
    5.8542   -0.6417    0.0000 O   0  0  0  0  0  0           0  0  0
    0.1667   -0.3792    0.0000 C   0  0  0  0  0  0           0  0  0
    0.1917    0.6583    0.0000 C   0  0  0  0  0  0           0  0  0
    3.9375   -1.5042    0.0000 C   0  0  0  0  0  0           0  0  0
    4.1292   -1.8667    0.0000 C   0  0  0  0  0  0           0  0  0
   -0.4083    0.6708    0.0000 C   0  0  0  0  0  0           0  0  0
    1.9667   -0.4167    0.0000 C   0  0  3  0  0  0           0  0  0
    3.3042   -1.2667    0.0000 C   0  0  0  0  0  0           0  0  0
    3.4667   -1.6250    0.0000 C   0  0  0  0  0  0           0  0  0
    1.3667   -0.4042    0.0000 C   0  0  0  0  0  0           0  0  0
    2.2542   -0.9417    0.0000 C   0  0  0  0  0  0           0  0  0
    6.7417   -1.9625    0.0000 Br  0  0  0  0  0  0           0  0  0
    2.1500    0.1875    0.0000 O   0  0  0  0  0  0           0  0  0
    6.5875   -1.3792    0.0000 C   0  0  0  0  0  0           0  0  0
    0.4792    0.1333    0.0000 C   0  0  0  0  0  0           0  0  0
    5.4292   -1.0667    0.0000 C   0  0  0  0  0  0           0  0  0
    5.1667   -2.0750    0.0000 C   0  0  0  0  0  0           0  0  0
    2.7750   -2.1542    0.0000 C   0  0  0  0  0  0           0  0  0
    0.1417   -1.4250    0.0000 C   0  0  0  0  0  0           0  0  0
   -0.4250   -0.3667    0.0000 C   0  0  0  0  0  0           0  0  0
   -0.4583   -1.4042    0.0000 C   0  0  0  0  0  0           0  0  0
   -0.7458   -0.8792    0.0000 C   0  0  0  0  0  0           0  0  0
  2  1  1  0     0  0
  3  2  1  0     0  0
  4 17  1  0     0  0
  5  1  1  0     0  0
  6  4  1  0     0  0
  7 18  1  0     0  0
  8  7  1  0     0  0
  9  3  2  0     0  0
 10  8  2  0     0  0
 11 23  1  0     0  0
 12  5  1  0     0  0
 13  5  1  0     0  0
 14 11  2  0     0  0
 15 19  1  0     0  0
 16 12  1  0     0  0
 17 13  1  0     0  0
 18 15  1  0     0  0
 19  6  1  0     0  0
 20 22  1  0     0  0
 21 15  1  0     0  0
 22  3  1  0     0  0
 23 10  1  0     0  0
 24  1  1  0     0  0
 25  1  1  0     0  0
 26  4  1  0     0  0
 27  8  1  0     0  0
 28 10  1  0     0  0
 29 27  2  0     0  0
 30 29  1  0     0  0
 16  4  1  0     0  0
 28 30  2  0     0  0
M  END