
  CDK    9/16/09,9:48

 44 47  0  0  0  0  0  0  0  0999 V2000
   -0.1998  -24.1275    0.0000 C   0  0  0  0  0  0  0  0  0  0  0  0
   -0.2107  -22.4844    0.0000 C   0  0  0  0  0  0  0  0  0  0  0  0
   -0.9217  -22.9051    0.0000 C   0  0  0  0  0  0  0  0  0  0  0  0
   -0.9123  -23.7248    0.0000 C   0  0  0  0  0  0  0  0  0  0  0  0
    0.5047  -22.8908    0.0000 C   0  0  0  0  0  0  0  0  0  0  0  0
    0.5140  -23.7143    0.0000 C   0  0  0  0  0  0  0  0  0  0  0  0
    1.2278  -24.1159    0.0000 C   0  0  0  0  0  0  0  0  0  0  0  0
    1.9371  -23.6984    0.0000 C   0  0  0  0  0  0  0  0  0  0  0  0
    1.9278  -22.8748    0.0000 C   0  0  0  0  0  0  0  0  0  0  0  0
    1.2093  -22.4688    0.0000 N   0  0  0  0  0  0  0  0  0  0  0  0
    1.1990  -21.6429    0.0000 C   0  0  0  0  0  0  0  0  0  0  0  0
    1.9091  -21.2209    0.0000 O   0  0  0  0  0  0  0  0  0  0  0  0
    2.6389  -22.4546    0.0000 C   0  0  0  0  0  0  0  0  0  0  0  0
    3.3584  -22.8603    0.0000 C   0  0  0  0  0  0  0  0  0  0  0  0
    2.6563  -24.1043    0.0000 O   0  0  0  0  0  0  0  0  0  0  0  0
    3.3667  -23.6862    0.0000 O   0  0  0  0  0  0  0  0  0  0  0  0
    4.0695  -22.4400    0.0000 O   0  0  0  0  0  0  0  0  0  0  0  0
    1.2359  -24.9418    0.0000 N   0  0  0  0  0  0  0  0  0  0  0  0
    0.5247  -25.3617    0.0000 C   0  0  0  0  0  0  0  0  0  0  0  0
   -0.1947  -24.9558    0.0000 O   0  0  0  0  0  0  0  0  0  0  0  0
   -1.6233  -24.1450    0.0000 O   0  0  0  0  0  0  0  0  0  0  0  0
   -2.3429  -23.7394    0.0000 C   0  0  0  0  0  0  0  0  0  0  0  0
   -3.0539  -24.1598    0.0000 O   0  0  0  0  0  0  0  0  0  0  0  0
   -3.7733  -23.7541    0.0000 C   0  0  0  0  0  0  0  0  0  0  0  0
   -4.4844  -24.1744    0.0000 C   0  0  0  0  0  0  0  0  0  0  0  0
   -5.2039  -23.7688    0.0000 O   0  0  0  0  0  0  0  0  0  0  0  0
   -5.9149  -24.1891    0.0000 C   0  0  0  0  0  0  0  0  0  0  0  0
    0.4785  -21.2390    0.0000 O   0  0  0  0  0  0  0  0  0  0  0  0
   -0.2315  -21.6609    0.0000 C   0  0  0  0  0  0  0  0  0  0  0  0
   -0.9520  -21.2569    0.0000 C   0  0  0  0  0  0  0  0  0  0  0  0
   -0.9623  -20.4309    0.0000 Si  0  0  0  0  0  0  0  0  0  0  0  0
   -0.9683  -19.6029    0.0000 C   0  0  0  0  0  0  0  0  0  0  0  0
   -1.7883  -20.4391    0.0000 C   0  0  0  0  0  0  0  0  0  0  0  0
   -0.1364  -20.4251    0.0000 C   0  0  0  0  0  0  0  0  0  0  0  0
    0.5318  -26.1861    0.0000 C   0  0  0  0  0  0  0  0  0  0  0  0
   -0.1811  -26.6054    0.0000 C   0  0  0  0  0  0  0  0  0  0  0  0
    1.2601  -27.4130    0.0000 C   0  0  0  0  0  0  0  0  0  0  0  0
    1.2489  -26.5892    0.0000 C   0  0  0  0  0  0  0  0  0  0  0  0
    0.5466  -27.8374    0.0000 C   0  0  0  0  0  0  0  0  0  0  0  0
   -0.1704  -27.4281    0.0000 C   0  0  0  0  0  0  0  0  0  0  0  0
   -0.8811  -27.8444    0.0000 C   0  0  0  0  0  0  0  0  0  0  0  0
   -0.8762  -28.6697    0.0000 C   0  0  0  0  0  0  0  0  0  0  0  0
   -0.1545  -29.0769    0.0000 C   0  0  0  0  0  0  0  0  0  0  0  0
    0.5533  -28.6584    0.0000 C   0  0  0  0  0  0  0  0  0  0  0  0
  9 10  1  0  0  0  0 
 21 22  1  0  0  0  0 
  5  6  1  0  0  0  0 
 22 23  1  0  0  0  0 
 10 11  1  0  0  0  0 
 23 24  1  0  0  0  0 
  5  2  2  0  0  0  0 
 24 25  1  0  0  0  0 
 11 12  2  0  0  0  0 
 25 26  1  0  0  0  0 
  1  6  2  0  0  0  0 
 26 27  1  0  0  0  0 
  9 13  1  1  0  0  0 
 11 28  1  0  0  0  0 
  2  3  1  0  0  0  0 
 28 29  1  0  0  0  0 
 13 14  1  0  0  0  0 
 29 30  1  0  0  0  0 
 30 31  1  0  0  0  0 
  8 15  1  6  0  0  0 
 31 32  1  0  0  0  0 
  3  4  2  0  0  0  0 
 31 33  1  0  0  0  0 
 14 16  2  0  0  0  0 
 31 34  1  0  0  0  0 
  4  1  1  0  0  0  0 
 14 17  1  0  0  0  0 
 35 36  2  0  0  0  0 
 36 40  1  0  0  0  0 
  5 10  1  0  0  0  0 
 39 37  1  0  0  0  0 
  7 18  1  1  0  0  0 
 37 38  2  0  0  0  0 
 38 35  1  0  0  0  0 
 19 35  1  0  0  0  0 
  6  7  1  0  0  0  0 
 18 19  1  0  0  0  0 
 39 40  1  0  0  0  0 
  7  8  1  0  0  0  0 
 40 41  2  0  0  0  0 
 19 20  2  0  0  0  0 
 41 42  1  0  0  0  0 
  8  9  1  0  0  0  0 
 42 43  2  0  0  0  0 
  4 21  1  0  0  0  0 
 43 44  1  0  0  0  0 
 44 39  2  0  0  0  0 
M  END