
          11280715572D 1   1.00000     0.00000     0

 75 80  0     1  0            999 V2000
    8.8667   -3.6792    0.0000 N   0  0  3  0  0  0           0  0  0
    8.3542   -3.3792    0.0000 C   0  0  0  0  0  0           0  0  0
    2.1042   -3.4167    0.0000 C   0  0  0  0  0  0           0  0  0
    3.6750   -3.7042    0.0000 C   0  0  0  0  0  0           0  0  0
    5.2292   -3.3917    0.0000 C   0  0  0  0  0  0           0  0  0
    6.7917   -3.6792    0.0000 C   0  0  0  0  0  0           0  0  0
    9.4292   -3.8917    0.0000 C   0  0  3  0  0  0           0  0  0
    1.5917   -3.7250    0.0000 C   0  0  1  0  0  0           0  0  0
    2.6292   -3.7125    0.0000 N   0  0  0  0  0  0           0  0  0
    5.7542   -3.6875    0.0000 N   0  0  0  0  0  0           0  0  0
    4.1917   -3.4000    0.0000 N   0  0  0  0  0  0           0  0  0
    7.3125   -3.3667    0.0000 N   0  0  0  0  0  0           0  0  0
    4.7167   -3.6917    0.0000 C   0  0  2  0  0  0           0  0  0
    3.1417   -3.4042    0.0000 C   0  0  1  0  0  0           0  0  0
    6.2750   -3.3792    0.0000 C   0  0  1  0  0  0           0  0  0
    1.0667   -3.4250    0.0000 N   0  0  0  0  0  0           0  0  0
    0.5417   -3.7292    0.0000 C   0  0  0  0  0  0           0  0  0
    9.5875   -4.4792    0.0000 C   0  0  0  0  0  0           0  0  0
    7.8375   -3.6792    0.0000 C   0  0  1  0  0  0           0  0  0
    8.8417   -6.0917    0.0000 C   0  0  0  0  0  0           0  0  0
   -0.4958   -3.7375    0.0000 C   0  0  0  0  0  0           0  0  0
    0.0250   -3.4292    0.0000 C   0  0  0  0  0  0           0  0  0
   -1.0125   -3.4375    0.0000 C   0  0  0  0  0  0           0  0  0
    8.3250   -6.3792    0.0000 N   0  0  0  0  0  0           0  0  0
    8.3625   -2.7792    0.0000 O   0  0  0  0  0  0           0  0  0
    4.7167   -4.2917    0.0000 C   0  0  0  0  0  0           0  0  0
    2.1042   -2.8167    0.0000 O   0  0  0  0  0  0           0  0  0
    5.2292   -2.7917    0.0000 O   0  0  0  0  0  0           0  0  0
    6.8042   -4.2792    0.0000 O   0  0  0  0  0  0           0  0  0
    3.6792   -4.3042    0.0000 O   0  0  0  0  0  0           0  0  0
    5.7625   -5.4792    0.0000 C   0  0  0  0  0  0           0  0  0
    3.1417   -2.8042    0.0000 C   0  0  0  0  0  0           0  0  0
    5.2417   -4.5917    0.0000 C   0  0  0  0  0  0           0  0  0
    5.2417   -5.1875    0.0000 C   0  0  0  0  0  0           0  0  0
    9.1542   -4.9000    0.0000 O   0  0  0  0  0  0           0  0  0
    0.5542   -4.3292    0.0000 O   0  0  0  0  0  0           0  0  0
    6.2667   -2.7792    0.0000 C   0  0  0  0  0  0           0  0  0
    8.8542   -5.4917    0.0000 N   0  0  0  0  0  0           0  0  0
    6.2792   -5.1792    0.0000 C   0  0  0  0  0  0           0  0  0
   10.1667   -4.6292    0.0000 N   0  0  0  0  0  0           0  0  0
    9.3625   -6.3917    0.0000 N   0  0  0  0  0  0           0  0  0
    6.2667   -4.5792    0.0000 C   0  0  0  0  0  0           0  0  0
    8.9042   -3.0792    0.0000 C   0  0  0  0  0  0           0  0  0
   -1.5333   -3.7375    0.0000 C   0  0  0  0  0  0           0  0  0
    3.6625   -2.5000    0.0000 C   0  0  0  0  0  0           0  0  0
    5.7500   -4.2875    0.0000 C   0  0  0  0  0  0           0  0  0
    4.7000   -1.8917    0.0000 C   0  0  0  0  0  0           0  0  0
    1.5917   -4.3167    0.0000 C   0  0  0  0  0  0           0  0  0
    4.1875   -2.7917    0.0000 C   0  0  0  0  0  0           0  0  0
    3.6542   -1.9000    0.0000 C   0  0  0  0  0  0           0  0  0
    4.7042   -2.4917    0.0000 C   0  0  0  0  0  0           0  0  0
    4.1792   -1.5917    0.0000 C   0  0  0  0  0  0           0  0  0
    9.8125   -3.4292    0.0000 C   0  0  0  0  0  0           0  0  0
    5.2167   -1.5875    0.0000 O   0  0  0  0  0  0           0  0  0
   -0.4875   -4.3292    0.0000 C   0  0  0  0  0  0           0  0  0
    2.1167   -4.6167    0.0000 O   0  0  0  0  0  0           0  0  0
    9.4875   -2.9292    0.0000 C   0  0  0  0  0  0           0  0  0
    7.8292   -4.2792    0.0000 C   0  0  0  0  0  0           0  0  0
   -1.0083   -4.6292    0.0000 C   0  0  0  0  0  0           0  0  0
    6.7792   -2.4792    0.0000 C   0  0  3  0  0  0           0  0  0
   -1.0208   -2.8375    0.0000 C   0  0  0  0  0  0           0  0  0
    5.7667   -6.0750    0.0000 C   0  0  0  0  0  0           0  0  0
   -1.5333   -4.3375    0.0000 C   0  0  0  0  0  0           0  0  0
   10.3167   -5.2167    0.0000 C   0  0  0  0  0  0           0  0  0
    8.3375   -5.1875    0.0000 C   0  0  0  0  0  0           0  0  0
    6.7917   -5.4667    0.0000 C   0  0  0  0  0  0           0  0  0
   -2.0458   -3.4417    0.0000 C   0  0  0  0  0  0           0  0  0
    8.3417   -4.5875    0.0000 C   0  0  0  0  0  0           0  0  0
    6.7792   -1.8792    0.0000 C   0  0  0  0  0  0           0  0  0
    7.3042   -2.7667    0.0000 C   0  0  0  0  0  0           0  0  0
   10.8917   -5.3667    0.0000 C   0  0  0  0  0  0           0  0  0
   -1.5333   -2.5417    0.0000 C   0  0  0  0  0  0           0  0  0
    6.2875   -6.3667    0.0000 C   0  0  0  0  0  0           0  0  0
    6.8042   -6.0625    0.0000 C   0  0  0  0  0  0           0  0  0
   -2.0583   -2.8417    0.0000 C   0  0  0  0  0  0           0  0  0
  2  1  1  0     0  0
  3  9  1  0     0  0
  4 11  1  0     0  0
  5 10  1  0     0  0
  6 12  1  0     0  0
  7  1  1  0     0  0
  8  3  1  0     0  0
  9 14  1  0     0  0
 10 15  1  0     0  0
 11 13  1  0     0  0
 12 19  1  0     0  0
 13  5  1  0     0  0
 14  4  1  0     0  0
 15  6  1  0     0  0
 16  8  1  0     0  0
 17 16  1  0     0  0
 18  7  1  0     0  0
 19  2  1  0     0  0
 20 38  2  0     0  0
 21 22  1  0     0  0
 22 17  1  0     0  0
 23 21  2  0     0  0
 24 20  1  0     0  0
 25  2  2  0     0  0
 13 26  1  1     0  0
 27  3  2  0     0  0
 28  5  2  0     0  0
 29  6  2  0     0  0
 30  4  2  0     0  0
 31 34  1  0     0  0
 14 32  1  1     0  0
 33 26  1  0     0  0
 34 33  2  0     0  0
 35 18  2  0     0  0
 36 17  2  0     0  0
 15 37  1  1     0  0
 38 65  1  0     0  0
 39 42  1  0     0  0
 40 18  1  0     0  0
 41 20  1  0     0  0
 42 46  2  0     0  0
 43  1  1  0     0  0
 44 23  1  0     0  0
 45 32  1  0     0  0
 46 33  1  0     0  0
 47 52  1  0     0  0
  8 48  1  6     0  0
 49 45  2  0     0  0
 50 45  1  0     0  0
 51 49  1  0     0  0
 52 50  2  0     0  0
 53  7  1  0     0  0
 54 47  1  0     0  0
 55 21  1  0     0  0
 56 48  1  0     0  0
 57 43  1  0     0  0
 19 58  1  6     0  0
 59 55  2  0     0  0
 60 37  1  0     0  0
 61 23  1  0     0  0
 62 31  2  0     0  0
 63 59  1  0     0  0
 64 40  1  0     0  0
 65 68  1  0     0  0
 66 39  2  0     0  0
 67 44  1  0     0  0
 68 58  1  0     0  0
 69 60  1  0     0  0
 70 60  1  0     0  0
 71 64  1  0     0  0
 72 61  2  0     0  0
 73 62  1  0     0  0
 74 66  1  0     0  0
 75 72  1  0     0  0
 57 53  1  0     0  0
 39 31  1  0     0  0
 73 74  2  0     0  0
 47 51  2  0     0  0
 44 63  2  0     0  0
 75 67  2  0     0  0
M  END