
  SciTegic09291413392D

 25 27  0  0  0  0            999 V2000
   -1.4101  -16.1416    0.0000 C   0  0
   -1.4090  -16.9611    0.0000 C   0  0
   -0.7055  -17.3701    0.0000 C   0  0
   -0.7037  -15.7327    0.0000 C   0  0
    0.0091  -16.1380    0.0000 C   0  0
    0.0098  -16.9570    0.0000 C   0  0
    0.7184  -17.3640    0.0000 N   0  0
    1.4266  -16.9532    0.0000 C   0  0
    1.4219  -16.1311    0.0000 C   0  0
    0.7128  -15.7277    0.0000 C   0  0
    0.7079  -14.9156    0.0000 C   0  0
    1.4151  -14.5039    0.0000 C   0  0
    1.4111  -13.6874    0.0000 C   0  0
    0.7007  -13.2818    0.0000 C   0  0
   -0.0093  -13.6985    0.0000 C   0  0
    0.0003  -14.5136    0.0000 C   0  0
    2.1271  -15.7182    0.0000 C   0  0  1  0  0  0
    2.8373  -16.1225    0.0000 C   0  0
    2.8435  -16.9403    0.0000 O   0  0
    3.5437  -15.7102    0.0000 O   0  0
    2.1359  -17.3591    0.0000 C   0  0
   -2.1138  -15.7331    0.0000 Br  0  0
    0.6952  -12.4646    0.0000 Cl  0  0
    2.1221  -14.9010    0.0000 O   0  0
    2.8273  -14.4881    0.0000 C   0  0
  1  2  2  0
  2  3  1  0
  3  6  2  0
  5  4  2  0
  4  1  1  0
  5  6  1  0
  6  7  1  0
  7  8  2  0
  8  9  1  0
  9 10  2  0
 10  5  1  0
 11 12  2  0
 12 13  1  0
 13 14  2  0
 14 15  1  0
 15 16  2  0
 16 11  1  0
 10 11  1  0
  9 17  1  0
 17 18  1  0
 18 19  1  0
 18 20  2  0
  8 21  1  0
  1 22  1  0
 14 23  1  0
 17 24  1  6
 24 25  1  0
M  END