
          08180812472D 1   1.00000     0.00000     0

 27 30  0     1  0            999 V2000
   12.4463  -12.2059    0.0000 C   0  0  1  0  0  0           0  0  0
   12.4463  -11.3810    0.0000 C   0  0  0  0  0  0           0  0  0
   13.1611  -10.9708    0.0000 C   0  0  0  0  0  0           0  0  0
   13.1611  -12.6207    0.0000 C   0  0  0  0  0  0           0  0  0
   13.8758  -12.2059    0.0000 C   0  0  2  0  0  0           0  0  0
   14.5904  -12.6207    0.0000 C   0  0  0  0  0  0           0  0  0
   15.3052  -12.2059    0.0000 C   0  0  2  0  0  0           0  0  0
   15.3052  -11.3810    0.0000 C   0  0  1  0  0  0           0  0  0
   16.0199  -10.9708    0.0000 C   0  0  2  0  0  0           0  0  0
   16.8053  -11.2247    0.0000 C   0  0  0  0  0  0           0  0  0
   17.2854  -10.5560    0.0000 C   0  0  0  0  0  0           0  0  0
   16.8053   -9.8919    0.0000 C   0  0  1  0  0  0           0  0  0
   16.0199  -10.1458    0.0000 C   0  0  2  0  0  0           0  0  0
   16.0199   -9.3208    0.0000 C   0  0  0  0  0  0           0  0  0
   15.3052   -9.7310    0.0000 C   0  0  0  0  0  0           0  0  0
   14.5904  -10.1458    0.0000 C   0  0  0  0  0  0           0  0  0
   14.5904  -10.9708    0.0000 C   0  0  2  0  0  0           0  0  0
   13.8758  -11.3810    0.0000 C   0  0  1  0  0  0           0  0  0
   13.8758  -10.5560    0.0000 C   0  0  0  0  0  0           0  0  0
   11.7317  -12.6207    0.0000 O   0  0  0  0  0  0           0  0  0
   17.5522   -9.5420    0.0000 O   0  0  0  0  0  0           0  0  0
   16.6021   -9.0893    0.0000 C   0  0  0  0  0  0           0  0  0
   16.0199  -12.6207    0.0000 C   0  0  0  0  0  0           0  0  0
   13.8758  -13.0309    0.0000 H   0  0  0  0  0  0           0  0  0
   14.5904  -11.7957    0.0000 H   0  0  0  0  0  0           0  0  0
   15.3052  -10.5560    0.0000 H   0  0  0  0  0  0           0  0  0
   16.0199  -11.7957    0.0000 H   0  0  0  0  0  0           0  0  0
  1  2  1  0     0  0
  2  3  1  0     0  0
  1  4  1  0     0  0
  4  5  1  0     0  0
  5  6  1  0     0  0
  6  7  1  0     0  0
  7  8  1  0     0  0
  8  9  1  0     0  0
  9 10  1  0     0  0
 10 11  1  0     0  0
 11 12  1  0     0  0
 12 13  1  0     0  0
  9 13  1  0     0  0
 13 14  1  1     0  0
 13 15  1  0     0  0
 15 16  1  0     0  0
 16 17  1  0     0  0
  8 17  1  0     0  0
 17 18  1  0     0  0
  3 18  1  0     0  0
  5 18  1  0     0  0
 18 19  1  1     0  0
  1 20  1  1     0  0
 12 21  1  1     0  0
 12 22  1  0     0  0
  7 23  1  6     0  0
  5 24  1  6     0  0
 17 25  1  6     0  0
  8 26  1  1     0  0
  9 27  1  6     0  0
M  END