
          11280715502D 1   1.00000     0.00000     0

 18 18  0     0  0            999 V2000
   -4.0514   -5.6875    0.0000 C   0  0  0  0  0  0           0  0  0
   -4.0526   -6.5148    0.0000 C   0  0  0  0  0  0           0  0  0
   -3.3378   -6.9277    0.0000 C   0  0  0  0  0  0           0  0  0
   -2.6213   -6.5144    0.0000 C   0  0  0  0  0  0           0  0  0
   -2.6242   -5.6838    0.0000 C   0  0  0  0  0  0           0  0  0
   -3.3396   -5.2747    0.0000 C   0  0  0  0  0  0           0  0  0
   -3.3420   -4.4497    0.0000 O   0  0  0  0  0  0           0  0  0
   -2.6333   -4.0292    0.0000 C   0  0  0  0  0  0           0  0  0
   -1.9208   -4.4417    0.0000 C   0  0  0  0  0  0           0  0  0
   -1.2083   -4.0250    0.0000 C   0  0  0  0  0  0           0  0  0
   -0.4958   -4.4375    0.0000 N   0  0  3  0  0  0           0  0  0
   -0.4968   -5.2625    0.0000 C   0  0  0  0  0  0           0  0  0
    0.2191   -4.0259    0.0000 C   0  0  0  0  0  0           0  0  0
   -3.3380   -7.7527    0.0000 C   0  0  0  0  0  0           0  0  0
   -2.6292   -8.1625    0.0000 C   0  0  0  0  0  0           0  0  0
   -1.9167   -7.7458    0.0000 N   0  0  3  0  0  0           0  0  0
   -1.1999   -8.1544    0.0000 C   0  0  0  0  0  0           0  0  0
   -1.9213   -6.9208    0.0000 C   0  0  0  0  0  0           0  0  0
  8  9  1  0     0  0
  4  5  1  0     0  0
  9 10  1  0     0  0
  2  3  1  0     0  0
 10 11  1  0     0  0
  5  6  2  0     0  0
 11 12  1  0     0  0
  6  1  1  0     0  0
 11 13  1  0     0  0
  1  2  2  0     0  0
  3 14  1  0     0  0
  6  7  1  0     0  0
 14 15  1  0     0  0
  3  4  2  0     0  0
 15 16  1  0     0  0
  7  8  1  0     0  0
 16 17  1  0     0  0
 16 18  1  0     0  0
M  END