
  SciTegic04091414352D

 52 57  0  0  0  0            999 V2000
    9.4183  -16.6410    0.0000 Cl  0  5
    0.2875  -23.6696    0.0000 C   0  0
    0.2863  -24.4892    0.0000 C   0  0
    0.9944  -24.8981    0.0000 C   0  0
    0.9926  -23.2608    0.0000 C   0  0
    1.7012  -23.6660    0.0000 C   0  0
    1.7015  -24.4892    0.0000 C   0  0
    2.4844  -24.7434    0.0000 S   0  0
    2.9682  -24.0772    0.0000 C   0  0
    2.4840  -23.4115    0.0000 N   0  0
    3.7837  -24.0772    0.0000 C   0  0
    4.2643  -24.7381    0.0000 C   0  0
    5.0414  -24.4853    0.0000 N   0  0
    5.0411  -23.6681    0.0000 C   0  0
    4.2638  -23.4159    0.0000 S   0  0
    5.7020  -23.1874    0.0000 C   0  0
    4.0120  -25.5154    0.0000 O   0  0
    2.7363  -22.6342    0.0000 C   0  0
    5.7027  -24.9654    0.0000 C   0  0
    5.6175  -25.7781    0.0000 C   0  0
    0.9902  -22.4436    0.0000 F   0  0
    5.6162  -22.3748    0.0000 C   0  0
    6.2199  -21.8292    0.0000 N   0  3
    5.8872  -21.0828    0.0000 C   0  0
    5.0744  -21.1686    0.0000 C   0  0
    4.9050  -21.9680    0.0000 S   0  0
    7.0194  -21.9982    0.0000 C   0  0
    7.5655  -21.3903    0.0000 C   0  0
    8.3625  -21.5619    0.0000 C   0  0
    8.9084  -20.9548    0.0000 C   0  0
    8.6551  -20.1769    0.0000 C   0  0
    7.8509  -20.0096    0.0000 C   0  0
    7.3085  -20.6181    0.0000 C   0  0
    9.2004  -19.5683    0.0000 C   0  0
   10.0002  -19.7362    0.0000 N   0  0
   10.2546  -20.5128    0.0000 C   0  0
   11.0544  -20.6807    0.0000 C   0  0
    9.7093  -21.1214    0.0000 O   0  0
   11.5997  -20.0721    0.0000 C   0  0
   12.3994  -20.2400    0.0000 C   0  0
   12.9447  -19.6314    0.0000 C   0  0
   13.7445  -19.7993    0.0000 C   0  0  2  0  0  0
   14.0793  -20.5437    0.0000 S   0  0
   14.8918  -20.4563    0.0000 C   0  0
   14.3510  -19.2498    0.0000 C   0  0  2  0  0  0
   15.0577  -19.6520    0.0000 C   0  0  1  0  0  0
   15.6587  -19.1043    0.0000 N   0  0
   15.3234  -18.3634    0.0000 C   0  0
   14.5153  -18.4534    0.0000 N   0  0
   15.7277  -17.6532    0.0000 O   0  0
   13.6405  -18.8408    0.0000 H   0  0
   15.7619  -20.0583    0.0000 H   0  0
  2  3  2  0
  3  4  1  0
  4  7  2  0
  6  5  2  0
  5  2  1  0
  6  7  1  0
  7  8  1  0
  8  9  1  0
  9 10  1  0
 10  6  1  0
 11 12  1  0
 12 13  1  0
 13 14  1  0
 14 15  1  0
 15 11  1  0
  9 11  2  0
 14 16  2  0
 12 17  2  0
 10 18  1  0
 13 19  1  0
 19 20  1  0
  5 21  1  0
 16 22  1  0
 22 23  2  0
 23 24  1  0
 24 25  2  0
 25 26  1  0
 26 22  1  0
 23 27  1  0
 27 28  1  0
 28 29  2  0
 29 30  1  0
 30 31  2  0
 31 32  1  0
 32 33  2  0
 33 28  1  0
 31 34  1  0
 34 35  1  0
 35 36  1  0
 36 37  1  0
 36 38  2  0
 37 39  1  0
 39 40  1  0
 40 41  1  0
 42 41  1  1
 42 43  1  0
 43 44  1  0
 44 46  1  0
 45 42  1  0
 45 46  1  0
 46 47  1  0
 47 48  1  0
 48 49  1  0
 49 45  1  0
 48 50  2  0
 45 51  1  6
 46 52  1  6
M  CHG  2   1  -1  23   1
M  END