
  SciTegic04191613082D

171180  0  0  1  0            999 V2000
    6.3294   -1.1830    0.0000 N   0  0
    7.3000   -0.0393    0.0000 C   0  0
    8.0206    1.2763    0.0000 C   0  0  2  0  0  0
    9.4127    0.6849    0.0000 C   0  0
    9.5962   -0.8046    0.0000 C   0  0
   11.1052   -0.8932    0.0000 C   0  0
   11.7840   -2.2275    0.0000 C   0  0
   13.2790   -2.3066    0.0000 C   0  0
   13.9578   -3.6409    0.0000 C   0  0
   13.1416   -4.8962    0.0000 C   0  0
   11.6466   -4.8171    0.0000 C   0  0
   10.9678   -3.4828    0.0000 C   0  0
    9.4729   -3.4037    0.0000 C   0  0
    8.7788   -2.0595    0.0000 C   0  0
    8.4615    2.7100    0.0000 N   0  0
    8.6049    4.2031    0.0000 C   0  0
    9.8049    4.2099    0.0000 O   0  0
    8.4447    5.6945    0.0000 C   0  0  2  0  0  0
    9.9252    6.0045    0.0000 C   0  0
   10.9267    4.8867    0.0000 C   0  0
   12.3954    5.1920    0.0000 C   0  0
   13.3941    4.0728    0.0000 C   0  0
   12.9242    2.6483    0.0000 C   0  0
   11.4556    2.3429    0.0000 C   0  0
   10.4569    3.4621    0.0000 C   0  0
    7.9876    7.1232    0.0000 N   0  0
    7.2523    8.4306    0.0000 C   0  0
    8.2418    9.1094    0.0000 O   0  0
    6.2957    9.5890    0.0000 C   0  0  2  0  0  0
    5.0734   10.4586    0.0000 C   0  0
    3.7155   11.0959    0.0000 N   0  0
    2.2657   11.4805    0.0000 C   0  0
    0.7704   11.6000    0.0000 C   0  0
   -0.7070   11.3275    0.0000 C   0  0
   -2.1107   10.7986    0.0000 C   0  0
   -3.3791    9.9980    0.0000 C   0  0
   -3.9957   10.7853    0.0000 O   0  0
   -4.4605    8.9585    0.0000 N   0  0
   -5.3104    7.7225    0.0000 C   0  0
   -5.8942    6.3408    0.0000 C   0  0  1  0  0  0
   -7.3408    6.7826    0.0000 C   0  0
   -8.0718    6.1002    0.0000 O   0  0
   -7.6797    8.2447    0.0000 N   0  0
   -9.1150    8.6832    0.0000 C   0  0  2  0  0  0
  -10.2142    7.6613    0.0000 C   0  0
  -11.3614    8.0131    0.0000 O   0  0
   -9.9456    6.4917    0.0000 O   0  0
   -9.4539   10.1452    0.0000 C   0  0
  -10.8892   10.5837    0.0000 C   0  0
  -11.2281   12.0458    0.0000 C   0  0
  -12.6634   12.4843    0.0000 C   0  0
  -12.9344   13.6533    0.0000 N   0  0
   -6.1879    4.8698    0.0000 N   0  0
   -6.1794    3.3698    0.0000 C   0  0
   -5.8692    1.9022    0.0000 C   0  0  2  0  0  0
   -7.3107    1.4441    0.0000 C   0  0
   -8.6990    2.0144    0.0000 C   0  0
   -9.8876    1.0981    0.0000 C   0  0
  -11.2758    1.6684    0.0000 N   0  0
  -12.4644    0.7520    0.0000 C   0  0
  -13.5744    1.2080    0.0000 N   0  0
  -12.3047   -0.4373    0.0000 N   0  0
   -5.2699    0.5272    0.0000 N   0  0
   -4.4061   -0.6991    0.0000 C   0  0
   -5.3122   -1.4859    0.0000 O   0  0
   -3.3131   -1.7265    0.0000 C   0  0  1  0  0  0
   -2.0357   -2.5127    0.0000 N   0  0
   -0.6261   -3.0257    0.0000 C   0  0
   -0.9204   -4.1891    0.0000 O   0  0
    0.8578   -3.2445    0.0000 C   0  0  2  0  0  0
    0.2743   -4.6400    0.0000 C   0  0
   -1.0588   -5.3294    0.0000 C   0  0
   -1.1293   -6.8286    0.0000 C   0  0
    0.1332   -7.6400    0.0000 N   0  0
    0.0627   -9.1392    0.0000 C   0  0
    0.9040   -9.6798    0.0000 N   0  0
   -1.0037   -9.6894    0.0000 N   0  0
    2.3554   -3.1601    0.0000 N   0  0
    3.8054   -2.7760    0.0000 C   0  0
    4.1580   -3.7118    0.0000 O   0  0
    5.1484   -2.1078    0.0000 C   0  0  2  0  0  0
    6.3427   -3.0360    0.0000 C   0  0
    7.8425   -2.9807    0.0000 C   0  0
    8.6411   -4.2514    0.0000 C   0  0
    7.9408   -5.5788    0.0000 N   0  0
    8.7394   -6.8495    0.0000 C   0  0
    8.1794   -7.9108    0.0000 N   0  0
    9.9385   -6.8041    0.0000 N   0  0
   -4.5892   -2.5385    0.0000 C   0  0
   -6.0772   -2.3427    0.0000 C   0  0
   -7.3434   -3.1484    0.0000 C   0  0
   -8.6747   -2.4556    0.0000 N   0  0
   -9.9410   -3.2613    0.0000 C   0  0
   -9.8889   -4.4601    0.0000 N   0  0
  -11.0054   -2.7073    0.0000 N   0  0
   -7.1737    3.2630    0.0000 O   0  0
   -2.7312   10.7995    0.0000 C   0  0
   -2.1640   11.0372    0.0000 C   0  0
   -0.7221   11.4507    0.0000 C   0  0
   -3.5089   10.3729    0.0000 C   0  0
   -4.7136    9.4792    0.0000 N   0  0
   -5.4443   10.7993    0.0000 C   0  0
   -6.9175   10.5168    0.0000 C   0  0
   -7.1040    9.0284    0.0000 C   0  0
   -5.7393    8.3847    0.0000 C   0  0  1  0  0  0
   -6.5531    7.1247    0.0000 C   0  0
   -7.4384    7.5897    0.0000 O   0  0
   -7.1288    5.7396    0.0000 N   0  0
   -8.0829    6.0391    0.0000 C   0  0
   -7.4480    4.2739    0.0000 C   0  0
   -7.5004    2.7748    0.0000 C   0  0
   -8.4989    2.7200    0.0000 O   0  0
   -7.2842    1.2905    0.0000 N   0  0
   -6.8065   -0.1314    0.0000 C   0  0  2  0  0  0
   -7.9020   -1.1748    0.0000 C   0  0
   -9.3420   -0.7521    0.0000 C   0  0
  -10.2110   -1.5796    0.0000 O   0  0
   -9.6246    0.4142    0.0000 O   0  0
   -6.0825   -1.4451    0.0000 C   0  0
   -5.1356   -2.6085    0.0000 N   0  0
   -6.5569   -3.1152    0.0000 C   0  0
   -6.8320   -4.5898    0.0000 C   0  0
   -5.6926   -5.5653    0.0000 C   0  0
   -4.2781   -5.0664    0.0000 C   0  0
   -3.9962   -3.5841    0.0000 C   0  0  2  0  0  0
   -2.7009   -4.3406    0.0000 C   0  0
   -1.2914   -4.8536    0.0000 N   0  0
    0.1871   -5.1067    0.0000 C   0  0  1  0  0  0
    0.0636   -6.6145    0.0000 C   0  0
    1.2972   -7.4693    0.0000 C   0  0
    1.1829   -8.9766    0.0000 C   0  0
    2.4144   -9.8279    0.0000 C   0  0
    3.7676   -9.1872    0.0000 C   0  0
    4.9990  -10.0385    0.0000 C   0  0
    4.8772  -11.5306    0.0000 C   0  0
    3.5239  -12.1714    0.0000 C   0  0
    2.2925  -11.3200    0.0000 C   0  0
    3.8894   -7.6951    0.0000 C   0  0
    2.6502   -6.8272    0.0000 C   0  0
    1.6870   -5.0917    0.0000 C   0  0
    1.8065   -6.2858    0.0000 O   0  0
    3.1602   -4.8092    0.0000 N   0  0
    4.5592   -4.2681    0.0000 C   0  0  1  0  0  0
    5.2266   -5.6259    0.0000 C   0  0
    4.3919   -6.8732    0.0000 C   0  0
    5.0539   -8.2201    0.0000 C   0  0
    6.5513   -8.3212    0.0000 N   0  0
    7.2134   -9.6681    0.0000 C   0  0
    8.4106   -9.7490    0.0000 N   0  0
    6.5450  -10.6648    0.0000 N   0  0
    5.8391   -3.4860    0.0000 C   0  0
    6.9588   -2.4878    0.0000 N   0  0
    7.8823   -1.3058    0.0000 C   0  0
    8.5799    0.0221    0.0000 C   0  0
    9.0292    1.4532    0.0000 C   0  0
   10.2017    1.1979    0.0000 O   0  0
    9.2157    2.9416    0.0000 N   0  0
    9.1335    4.4393    0.0000 C   0  0
    8.7851    5.8983    0.0000 C   0  0
    8.1818    7.2717    0.0000 C   0  0
    7.3431    8.5152    0.0000 N   0  0
    9.2328    7.8508    0.0000 O   0  0
    6.5541   -4.4497    0.0000 O   0  0
   -3.2108   -5.4269    0.0000 O   0  0
   -7.0774   -2.1162    0.0000 O   0  0
   -4.0303   11.2262    0.0000 O   0  0
    2.4681   12.6633    0.0000 O   0  0
    8.2888   -0.7193    0.0000 O   0  0
   -3.5819   -4.4942    0.0000 H   0  0
   -6.7008    8.1100    0.0000 H   0  0
    6.9638    8.8449    0.0000 H   0  0
  2  1  1  0
  3  2  1  0
  3  4  1  1
  4  5  1  0
  5  6  2  0
  6  7  1  0
  7  8  2  0
  8  9  1  0
  9 10  2  0
 10 11  1  0
 11 12  2  0
 12 13  1  0
 13 14  2  0
 14  5  1  0
 12  7  1  0
 15  3  1  0
 16 15  1  0
 16 17  2  0
 18 16  1  0
 18 19  1  1
 19 20  1  0
 20 21  2  0
 21 22  1  0
 22 23  2  0
 23 24  1  0
 24 25  2  0
 25 20  1  0
 26 18  1  0
 27 26  1  0
 27 28  2  0
 29 27  1  0
 29 30  1  0
 30 31  1  0
 32 31  1  0
 33 32  1  0
 34 33  1  0
 35 34  2  0
 35 36  1  0
 36 37  2  0
 36 38  1  0
 38 39  1  0
 40 39  1  0
 40 41  1  6
 41 42  2  0
 41 43  1  0
 44 43  1  6
 44 45  1  0
 45 46  2  0
 45 47  1  0
 44 48  1  0
 48 49  1  0
 49 50  1  0
 50 51  1  0
 51 52  1  0
 40 53  1  0
 53 54  1  0
 54 55  1  0
 55 56  1  1
 56 57  1  0
 57 58  1  0
 58 59  1  0
 59 60  1  0
 60 61  2  0
 60 62  1  0
 55 63  1  0
 63 64  1  0
 64 65  2  0
 64 66  1  0
 66 67  1  0
 68 67  1  0
 68 69  2  0
 70 68  1  0
 70 71  1  1
 71 72  1  0
 72 73  1  0
 73 74  1  0
 74 75  1  0
 75 76  2  0
 75 77  1  0
 78 70  1  0
 79 78  1  0
 79 80  2  0
 81 79  1  0
  1 81  1  0
 81 82  1  1
 82 83  1  0
 83 84  1  0
 84 85  1  0
 85 86  1  0
 86 87  2  0
 86 88  1  0
 66 89  1  1
 89 90  1  0
 90 91  1  0
 91 92  1  0
 92 93  1  0
 93 94  1  0
 93 95  2  0
 54 96  2  0
 97 35  1  0
 98 97  2  0
 99 98  1  0
 33 99  2  0
100 98  1  0
101100  1  0
102101  1  0
103102  1  0
104103  1  0
105104  1  0
101105  1  0
105106  1  0
106107  2  0
108106  1  0
108109  1  0
110108  1  0
111110  1  0
111112  2  0
113111  1  0
114113  1  0
114115  1  1
115116  1  0
116117  2  0
116118  1  0
119114  1  0
120119  1  0
121120  1  0
122121  1  0
123122  1  0
124123  1  0
125124  1  0
125120  1  0
125126  1  0
127126  1  0
128127  1  0
128129  1  6
129130  1  0
130131  2  0
131132  1  0
133132  1  0
134133  2  0
135134  1  0
136135  2  0
137136  1  0
132137  2  0
133138  1  0
138139  2  0
139130  1  0
128140  1  0
140141  2  0
140142  1  0
142143  1  0
143144  1  6
144145  1  0
145146  1  0
146147  1  0
147148  1  0
148149  2  0
148150  1  0
143151  1  0
151152  1  0
152153  1  0
153154  1  0
154155  1  0
155156  2  0
155157  1  0
158157  1  0
159158  1  0
160159  1  0
160161  1  0
161 29  1  0
160162  2  0
151163  2  0
126164  2  0
119165  2  0
100166  2  0
 32167  2  0
  2168  2  0
125169  1  6
105170  1  1
 29171  1  1
M  END