
  CDK    9/16/09,9:51

 23 25  0  0  0  0  0  0  0  0999 V2000
   13.6557  -12.3006    0.0000 C   0  0  0  0  0  0  0  0  0  0  0  0
   13.6557  -13.1292    0.0000 N   0  0  0  0  0  0  0  0  0  0  0  0
   14.3693  -13.5412    0.0000 N   0  0  0  0  0  0  0  0  0  0  0  0
   15.0875  -13.1292    0.0000 C   0  0  0  0  0  0  0  0  0  0  0  0
   14.3693  -11.8841    0.0000 C   0  0  0  0  0  0  0  0  0  0  0  0
   15.0866  -12.2949    0.0000 C   0  0  0  0  0  0  0  0  0  0  0  0
   15.6991  -11.7396    0.0000 C   0  0  0  0  0  0  0  0  0  0  0  0
   15.3602  -10.9855    0.0000 S   0  0  0  0  0  0  0  0  0  0  0  0
   14.5384  -11.0749    0.0000 C   0  0  0  0  0  0  0  0  0  0  0  0
   15.8008  -13.5419    0.0000 O   0  0  0  0  0  0  0  0  0  0  0  0
   16.5057  -11.9081    0.0000 N   0  0  0  0  0  0  0  0  0  0  0  0
   12.9410  -11.8903    0.0000 C   0  0  0  0  0  0  0  0  0  0  0  0
   12.9391  -11.0663    0.0000 O   0  0  0  0  0  0  0  0  0  0  0  0
   12.2284  -12.3040    0.0000 O   0  0  0  0  0  0  0  0  0  0  0  0
   11.5138  -11.8937    0.0000 C   0  0  0  0  0  0  0  0  0  0  0  0
   10.8012  -12.3075    0.0000 C   0  0  0  0  0  0  0  0  0  0  0  0
   14.3661  -14.3617    0.0000 C   0  0  0  0  0  0  0  0  0  0  0  0
   13.6503  -14.7721    0.0000 C   0  0  0  0  0  0  0  0  0  0  0  0
   13.6488  -15.5953    0.0000 C   0  0  0  0  0  0  0  0  0  0  0  0
   14.3624  -16.0092    0.0000 C   0  0  0  0  0  0  0  0  0  0  0  0
   15.0789  -15.5937    0.0000 C   0  0  0  0  0  0  0  0  0  0  0  0
   15.0769  -14.7718    0.0000 C   0  0  0  0  0  0  0  0  0  0  0  0
   14.3624  -16.8332    0.0000 I   0  0  0  0  0  0  0  0  0  0  0  0
  7 11  1  0  0  0  0 
  1 12  1  0  0  0  0 
  1  2  2  0  0  0  0 
 12 13  2  0  0  0  0 
  1  5  1  0  0  0  0 
 12 14  1  0  0  0  0 
  2  3  1  0  0  0  0 
 14 15  1  0  0  0  0 
  3  4  1  0  0  0  0 
 15 16  1  0  0  0  0 
  6  7  2  0  0  0  0 
  7  8  1  0  0  0  0 
 17 18  2  0  0  0  0 
  8  9  1  0  0  0  0 
 18 19  1  0  0  0  0 
  9  5  2  0  0  0  0 
 19 20  2  0  0  0  0 
  4  6  1  0  0  0  0 
 20 21  1  0  0  0  0 
  4 10  2  0  0  0  0 
 21 22  2  0  0  0  0 
 22 17  1  0  0  0  0 
  3 17  1  0  0  0  0 
  5  6  1  0  0  0  0 
 20 23  1  0  0  0  0 
M  END