
  SciTegic02271514582D

 44 49  0  0  0  0            999 V2000
    3.4077   -7.0905    0.0000 C   0  0
    3.4065   -7.9101    0.0000 C   0  0
    4.1146   -8.3190    0.0000 C   0  0
    4.1128   -6.6817    0.0000 C   0  0
    4.8214   -7.0869    0.0000 C   0  0
    4.8222   -7.9060    0.0000 C   0  0
    5.5307   -8.3130    0.0000 N   0  0
    6.2390   -7.9022    0.0000 C   0  0
    6.2342   -7.0801    0.0000 C   0  0
    5.5251   -6.6767    0.0000 C   0  0
    2.6999   -6.6821    0.0000 C   0  0
    2.6997   -5.8649    0.0000 C   0  0
    1.9923   -7.0909    0.0000 C   0  0
    1.9893   -6.2734    0.0000 O   0  0
    3.3665   -5.3856    0.0000 N   0  0
    3.1138   -4.6085    0.0000 C   0  0
    2.2965   -4.6087    0.0000 N   0  0
    2.0443   -5.3860    0.0000 C   0  0
    1.2846   -6.6807    0.0000 C   0  0
    0.5774   -7.0888    0.0000 C   0  0
    0.5772   -7.9069    0.0000 C   0  0
    1.2900   -8.3151    0.0000 N   0  0
    1.9942   -7.9047    0.0000 C   0  0
    5.5208   -5.8595    0.0000 C   0  0
    6.9394   -6.6672    0.0000 C   0  0
    7.6496   -7.0715    0.0000 C   0  0
    6.9483   -8.3080    0.0000 C   0  0
    7.6500   -7.8882    0.0000 C   0  0
    8.3593   -8.2924    0.0000 C   0  0
    9.0655   -7.8795    0.0000 C   0  0
    9.0579   -7.0581    0.0000 C   0  0
    8.3480   -6.6576    0.0000 C   0  0
   -0.1343   -8.3166    0.0000 C   0  0
   -0.8457   -7.9091    0.0000 F   0  0
   -0.1356   -9.1338    0.0000 F   0  0
   -0.8420   -8.7208    0.0000 F   0  0
    4.1431   -5.6401    0.0000 C   0  0
    7.6577   -8.7088    0.0000 N   0  0
    5.5132   -5.0453    0.0000 N   0  0
    9.7797   -8.2791    0.0000 N   0  0
    9.8712   -9.0911    0.0000 N   0  0
   10.6718   -9.2551    0.0000 C   0  0
   11.0752   -8.5444    0.0000 C   0  0
   10.5238   -7.9412    0.0000 C   0  0
  1  2  2  0
  2  3  1  0
  3  6  2  0
  5  4  2  0
  4  1  1  0
  5  6  1  0
  6  7  1  0
  7  8  2  0
  8  9  1  0
  9 10  2  0
 10  5  1  0
  1 11  1  0
 11 12  1  0
 11 13  1  0
 11 14  1  0
 12 15  1  0
 15 16  1  0
 16 17  2  0
 17 18  1  0
 18 12  2  0
 13 19  2  0
 19 20  1  0
 20 21  2  0
 21 22  1  0
 22 23  2  0
 23 13  1  0
 10 24  1  0
  9 25  1  0
 25 26  1  0
  8 27  1  0
 26 28  2  0
 28 29  1  0
 29 30  2  0
 30 31  1  0
 31 32  2  0
 32 26  1  0
 21 33  1  0
 33 34  1  0
 33 35  1  0
 33 36  1  0
 15 37  1  0
 27 38  3  0
 24 39  3  0
 40 41  1  0
 41 42  2  0
 42 43  1  0
 43 44  2  0
 44 40  1  0
 30 40  1  0
M  END