
  SciTegic05171617262D

 28 32  0  0  0  0            999 V2000
    2.3164    0.1283    0.0000 O   0  0
    1.2785    0.7306    0.0000 C   0  0
    1.2785    2.2729    0.0000 N   0  0
    2.5654    3.0449    0.0000 C   0  0
    2.5408    4.5455    0.0000 C   0  0
    3.8260    5.3192    0.0000 C   0  0
    3.7987    6.8189    0.0000 C   0  0
    2.4862    7.5451    0.0000 C   0  0
    1.2010    6.7716    0.0000 C   0  0
    1.2283    5.2718    0.0000 C   0  0
    0.0000    3.0035    0.0000 C   0  0
   -1.2988    2.2729    0.0000 C   0  0
   -1.2988    0.7306    0.0000 C   0  0
    0.0000    0.0000    0.0000 C   0  0
   -1.2988   -0.7509    0.0000 C   0  0
   -1.2988   -2.2526    0.0000 C   0  0
    0.0000   -3.0238    0.0000 N   0  0
    1.2785   -2.2526    0.0000 C   0  0
    1.2785   -0.7509    0.0000 C   0  0
    0.0052   -4.5245    0.0000 C   0  0
    1.1916   -5.3783    0.0000 N   0  0
    0.7358   -6.8004    0.0000 C   0  0
    1.5015   -8.0949    0.0000 C   0  0
    0.7357   -9.4076    0.0000 C   0  0
   -0.7593   -9.4076    0.0000 C   0  0
   -1.5250   -8.0949    0.0000 C   0  0
   -0.7592   -6.8004    0.0000 C   0  0
   -1.2150   -5.3783    0.0000 N   0  0
  1  2  2  0
  2  3  1  0
  3  4  1  0
  4  5  1  0
  5  6  2  0
  6  7  1  0
  7  8  2  0
  8  9  1  0
  9 10  2  0
  5 10  1  0
  3 11  1  0
 11 12  1  0
 12 13  1  0
 13 14  1  0
  2 14  1  0
 14 15  1  0
 15 16  1  0
 16 17  1  0
 17 18  1  0
 18 19  1  0
 14 19  1  0
 17 20  1  0
 20 21  2  0
 21 22  1  0
 22 23  2  0
 23 24  1  0
 24 25  2  0
 25 26  1  0
 26 27  2  0
 22 27  1  0
 27 28  1  0
 20 28  1  0
M  END