
  SciTegic05061409512D

 25 27  0  0  0  0            999 V2000
    6.9835   -1.4858    0.0000 S   0  0
    7.3934   -0.7698    0.0000 O   0  0
    6.5684   -0.7729    0.0000 O   0  0
    1.2705   -3.1609    0.0000 C   0  0
    1.9869   -2.7476    0.0000 C   0  0
    1.9841   -1.9171    0.0000 C   0  0
    1.2687   -1.5080    0.0000 C   0  0
    2.6969   -1.5019    0.0000 C   0  0
    3.4130   -1.9117    0.0000 N   0  0
    2.6938   -0.6770    0.0000 O   0  0
    4.1258   -1.4965    0.0000 C   0  0
    4.8418   -1.9063    0.0000 C   0  0
    5.5546   -1.4911    0.0000 C   0  0
    6.2707   -1.9009    0.0000 C   0  0
    7.6995   -1.8956    0.0000 C   0  0
    7.6999   -2.7176    0.0000 C   0  0
    8.4151   -3.1274    0.0000 C   0  0
    9.1290   -2.7122    0.0000 C   0  0
    9.1232   -1.8829    0.0000 C   0  0
    8.4075   -1.4769    0.0000 C   0  0
    0.5557   -2.7481    0.0000 C   0  0
    0.5569   -1.9192    0.0000 N   0  0
   -0.2357   -1.6619    0.0000 C   0  0
   -0.7224   -2.3317    0.0000 C   0  0
   -0.2337   -3.0029    0.0000 N   0  0
  2  1  2  0
  1  3  2  0
 21  4  1  0
  4  5  2  0
  5  6  1  0
  6  7  2  0
  7 22  1  0
  6  8  1  0
  8  9  1  0
  8 10  2  0
  9 11  1  0
 11 12  1  0
 12 13  1  0
 13 14  1  0
 14  1  1  0
  1 15  1  0
 15 16  2  0
 16 17  1  0
 17 18  2  0
 18 19  1  0
 19 20  2  0
 20 15  1  0
 21 22  1  0
 22 23  1  0
 23 24  2  0
 24 25  1  0
 25 21  2  0
M  END