
  CDK    9/16/09,9:45

 11 10  0  0  0  0  0  0  0  0999 V2000
    8.7839   -9.2166    0.0000 C   0  0  0  0  0  0  0  0  0  0  0  0
    8.0695   -8.8039    0.0000 P   0  0  0  0  0  0  0  0  0  0  0  0
    8.4821   -8.0895    0.0000 O   0  0  0  0  0  0  0  0  0  0  0  0
    7.3551   -8.3913    0.0000 O   0  0  0  0  0  0  0  0  0  0  0  0
    7.6568   -9.5183    0.0000 F   0  0  0  0  0  0  0  0  0  0  0  0
    6.6407   -8.8039    0.0000 C   0  0  0  0  0  0  0  0  0  0  0  0
    5.9263   -8.3913    0.0000 C   0  0  0  0  0  0  0  0  0  0  0  0
    5.5137   -9.1056    0.0000 C   0  0  0  0  0  0  0  0  0  0  0  0
    5.2120   -7.9786    0.0000 C   0  0  0  0  0  0  0  0  0  0  0  0
    6.3390   -7.6769    0.0000 C   0  0  0  0  0  0  0  0  0  0  0  0
    6.6407   -9.6292    0.0000 C   0  0  0  0  0  0  0  0  0  0  0  0
  2  3  2  0  0  0  0 
  2  4  1  0  0  0  0 
  2  5  1  0  0  0  0 
  1  2  1  0  0  0  0 
  6  7  1  0  0  0  0 
  7  8  1  0  0  0  0 
  7  9  1  0  0  0  0 
  7 10  1  0  0  0  0 
  6 11  1  0  0  0  0 
  4  6  1  0  0  0  0 
M  END