
  SciTegic02011310462D

 17 17  0  0  0  0            999 V2000
    2.8359   -7.5120    0.0000 C   0  0
    2.8348   -8.3393    0.0000 C   0  0
    3.5495   -8.7522    0.0000 C   0  0
    4.2659   -8.3388    0.0000 C   0  0
    4.2631   -7.5084    0.0000 C   0  0
    3.5477   -7.0992    0.0000 C   0  0
    4.9809   -8.7502    0.0000 N   0  0
    2.1199   -8.7512    0.0000 C   0  0
    1.4059   -8.3382    0.0000 O   0  0
    2.1193   -9.5761    0.0000 N   0  0
    5.6947   -8.3366    0.0000 C   0  0
    6.4099   -8.7479    0.0000 C   0  0
    5.6934   -7.5116    0.0000 O   0  0
    7.1236   -8.3344    0.0000 C   0  0
    7.8387   -8.7457    0.0000 C   0  0
    7.8399   -9.5707    0.0000 O   0  0
    8.5524   -8.3321    0.0000 O   0  0
  1  2  2  0
  2  3  1  0
  3  4  2  0
  4  5  1  0
  5  6  2  0
  6  1  1  0
  4  7  1  0
  2  8  1  0
  8  9  2  0
  8 10  1  0
  7 11  1  0
 11 12  1  0
 11 13  2  0
 12 14  2  0
 14 15  1  0
 15 16  2  0
 15 17  1  0
M  END