
  SciTegic09291413392D

 28 30  0  0  0  0            999 V2000
   -1.9631  -23.2899    0.0000 C   0  0
   -1.9620  -24.1094    0.0000 C   0  0
   -1.2585  -24.5184    0.0000 C   0  0
   -1.2567  -22.8811    0.0000 C   0  0
   -0.5456  -23.2863    0.0000 C   0  0
   -0.5464  -24.1053    0.0000 C   0  0
    0.1653  -24.5124    0.0000 N   0  0
    0.8736  -24.1016    0.0000 C   0  0
    0.8688  -23.2794    0.0000 C   0  0
    0.1597  -22.8761    0.0000 C   0  0
    0.1548  -22.0640    0.0000 C   0  0
    0.8620  -21.6522    0.0000 C   0  0
    0.8580  -20.8358    0.0000 C   0  0
    0.1476  -20.4301    0.0000 C   0  0
   -0.5624  -20.8469    0.0000 C   0  0
   -0.5533  -21.6619    0.0000 C   0  0
    1.5740  -22.8665    0.0000 C   0  0  1  0  0  0
    2.2842  -23.2708    0.0000 C   0  0
    2.2904  -24.0887    0.0000 O   0  0
    2.9907  -22.8586    0.0000 O   0  0
    1.5829  -24.5074    0.0000 C   0  0
   -2.6668  -22.8815    0.0000 C   0  0
    0.1422  -19.6130    0.0000 Cl  0  0
    1.5691  -22.0494    0.0000 O   0  0
    2.2743  -21.6365    0.0000 C   0  0
    2.2693  -20.8193    0.0000 C   0  0
    2.9845  -22.0408    0.0000 C   0  0
    2.9799  -21.2222    0.0000 C   0  0
  1  2  2  0
  2  3  1  0
  3  6  2  0
  5  4  2  0
  4  1  1  0
  5  6  1  0
  6  7  1  0
  7  8  2  0
  8  9  1  0
  9 10  2  0
 10  5  1  0
 11 12  2  0
 12 13  1  0
 13 14  2  0
 14 15  1  0
 15 16  2  0
 16 11  1  0
 10 11  1  0
  9 17  1  0
 17 18  1  0
 18 19  1  0
 18 20  2  0
  8 21  1  0
  1 22  1  0
 14 23  1  0
 17 24  1  6
 24 25  1  0
 25 26  1  0
 25 27  1  0
 25 28  1  0
M  END