
  CDK    9/16/09,9:57

 21 22  0  0  0  0  0  0  0  0999 V2000
   -2.5192  -17.7489    0.0000 C   0  0  0  0  0  0  0  0  0  0  0  0
   -2.4946  -18.5754    0.0000 C   0  0  0  0  0  0  0  0  0  0  0  0
   -1.7660  -18.9652    0.0000 N   0  0  0  0  0  0  0  0  0  0  0  0
   -1.0620  -18.5328    0.0000 C   0  0  0  0  0  0  0  0  0  0  0  0
   -0.3334  -18.9226    0.0000 N   0  0  0  0  0  0  0  0  0  0  0  0
   -1.0866  -17.7063    0.0000 N   0  0  0  0  0  0  0  0  0  0  0  0
    0.3706  -18.4901    0.0000 C   0  0  0  0  0  0  0  0  0  0  0  0
    1.0992  -18.8800    0.0000 C   0  0  0  0  0  0  0  0  0  0  0  0
    0.3460  -17.6636    0.0000 O   0  0  0  0  0  0  0  0  0  0  0  0
   -3.2478  -17.3549    0.0000 C   0  0  0  0  0  0  0  0  0  0  0  0
   -3.2724  -16.5284    0.0000 C   0  0  0  0  0  0  0  0  0  0  0  0
   -2.8550  -15.2589    0.0000 C   0  0  0  0  0  0  0  0  0  0  0  0
   -3.6818  -15.2579    0.0000 N   0  0  0  0  0  0  0  0  0  0  0  0
   -3.9389  -16.0436    0.0000 C   0  0  0  0  0  0  0  0  0  0  0  0
   -2.6042  -16.0453    0.0000 N   0  0  0  0  0  0  0  0  0  0  0  0
    1.7786  -17.6211    0.0000 C   0  0  0  0  0  0  0  0  0  0  0  0
    1.7986  -18.4437    0.0000 C   0  0  0  0  0  0  0  0  0  0  0  0
    2.5136  -18.8335    0.0000 C   0  0  0  0  0  0  0  0  0  0  0  0
    3.2173  -18.4091    0.0000 C   0  0  0  0  0  0  0  0  0  0  0  0
    3.1973  -17.5864    0.0000 C   0  0  0  0  0  0  0  0  0  0  0  0
    2.4735  -17.1881    0.0000 C   0  0  0  0  0  0  0  0  0  0  0  0
 10 11  1  0  0  0  0 
 12 13  1  0  0  0  0 
  4  6  2  0  0  0  0 
  1  2  1  0  0  0  0 
  5  7  1  0  0  0  0 
  3  4  1  0  0  0  0 
 13 14  1  0  0  0  0 
 14 11  2  0  0  0  0 
 11 15  1  0  0  0  0 
 15 12  2  0  0  0  0 
  8 17  1  0  0  0  0 
 16 17  1  0  0  0  0 
  7  8  1  0  0  0  0 
  7  9  2  0  0  0  0 
  4  5  1  0  0  0  0 
  1 10  1  0  0  0  0 
  2  3  1  0  0  0  0 
 16 21  1  0  0  0  0 
 17 18  1  0  0  0  0 
 18 19  1  0  0  0  0 
 19 20  1  0  0  0  0 
 20 21  1  0  0  0  0 
M  END