
  SciTegic09171211542D

 98 97  0  0  0  0            999 V2000
    8.4787   -2.1491    0.0000 O   0  0
    8.1107   -2.8872    0.0000 S   0  0
    8.9340   -2.8368    0.0000 O   0  0
   12.2478  -11.0917    0.0000 O   0  0
   12.8919   -9.8154    0.0000 C   0  0
   12.9377  -10.6392    0.0000 C   0  0  1  0  0  0
   13.6713  -11.0075    0.0000 C   0  0
   13.5799   -9.3599    0.0000 C   0  0
   14.3139   -9.7365    0.0000 C   0  0  1  0  0  0
   14.3561  -10.5604    0.0000 C   0  0  1  0  0  0
   15.0868  -10.9338    0.0000 C   0  0
   15.7799  -10.4875    0.0000 C   0  0
   15.0024   -9.2858    0.0000 C   0  0  2  0  0  0
   15.7340   -9.6663    0.0000 C   0  0  2  0  0  0
   15.6596   -8.0215    0.0000 C   0  0
   14.9621   -8.4645    0.0000 C   0  0
   16.3913   -8.4019    0.0000 C   0  0  1  0  0  0
   16.4279   -9.2227    0.0000 C   0  0  1  0  0  0
   17.2200   -9.4416    0.0000 C   0  0
   17.6729   -8.7560    0.0000 C   0  0
   17.1606   -8.1134    0.0000 C   0  0  2  0  0  0
   14.2608   -8.9131    0.0000 C   0  0
   15.0409  -10.1093    0.0000 H   0  0
   15.6800   -8.8427    0.0000 H   0  0
   16.4689  -10.0467    0.0000 H   0  0
   16.3400   -7.5749    0.0000 C   0  0
   17.3804   -7.3182    0.0000 C   0  0  1  0  0  0
   18.1790   -7.1109    0.0000 C   0  0
   16.8015   -6.7303    0.0000 C   0  0
   18.7579   -7.6988    0.0000 C   0  0
   19.5564   -7.4914    0.0000 C   0  0
   20.1353   -8.0793    0.0000 C   0  0
   20.9338   -7.8720    0.0000 C   0  0
   19.9156   -8.8746    0.0000 C   0  0
   17.9823   -8.0638    0.0000 H   0  0
   14.3936  -11.3806    0.0000 H   0  0
   10.9686   -8.6587    0.0000 N   0  0
   10.7623   -9.4574    0.0000 C   0  0
   11.4584   -9.9005    0.0000 C   0  0
   12.0948   -9.3753    0.0000 N   0  0
   11.7919   -8.6079    0.0000 N   0  0
   10.2812   -9.0700    0.0000 O   0  0
    9.5602   -8.6679    0.0000 S   0  0
    9.5726   -9.4932    0.0000 O   0  0
    8.9709   -7.6029    0.0000 S   0  0
    8.0139   -6.0492    0.0000 O   0  0
    8.7513   -6.4258    0.0000 S   0  0
    8.7087   -5.5989    0.0000 O   0  0
    7.1804   -4.1404    0.0000 O   0  0
    7.4002   -4.9397    0.0000 S   0  0
    7.9824   -4.3497    0.0000 O   0  0
   11.3705   -2.1482    0.0000 O   0  0
   10.9648   -2.8712    0.0000 S   0  0
   11.7938   -2.8610    0.0000 O   0  0
   12.7066   -8.1378    0.0000 O   0  0
   13.1129   -7.4241    0.0000 S   0  0
   12.2917   -7.4291    0.0000 O   0  0
    8.1151   -3.7130    0.0000 O   0  0
    8.8304   -4.1242    0.0000 C   0  0  1  0  0  0
    8.8266   -4.9458    0.0000 C   0  0  1  0  0  0
    9.5377   -5.3569    0.0000 C   0  0  2  0  0  0
   10.2539   -4.9466    0.0000 C   0  0  2  0  0  0
   10.2544   -4.1206    0.0000 O   0  0
    9.5387   -3.7049    0.0000 C   0  0  2  0  0  0
    9.5352   -2.8798    0.0000 C   0  0
   10.2481   -2.4643    0.0000 O   0  0
    8.1109   -5.3564    0.0000 O   0  0
    9.5356   -6.1826    0.0000 O   0  0
   10.9677   -5.3606    0.0000 O   0  0
   10.9661   -6.1857    0.0000 C   0  0  1  0  0  0
   10.2538   -6.5956    0.0000 C   0  0  1  0  0  0
   10.2502   -7.4171    0.0000 C   0  0  2  0  0  0
   10.9621   -7.8349    0.0000 C   0  0  1  0  0  0
   11.6792   -7.4250    0.0000 O   0  0
   11.6845   -6.5973    0.0000 C   0  0  2  0  0  0
    9.5456   -7.0184    0.0000 O   0  0
   10.2645   -8.2457    0.0000 O   0  0
   12.3997   -6.1859    0.0000 C   0  0
   13.1136   -6.5995    0.0000 O   0  0
   10.2684   -5.7746    0.0000 H   0  0
   11.6811   -5.7751    0.0000 H   0  0
   13.8262   -7.8382    0.0000 O   0  5
    9.1911   -8.3981    0.0000 O   0  5
   10.9678   -3.6990    0.0000 O   0  5
    6.6819   -5.3527    0.0000 O   0  5
    8.0612   -6.8756    0.0000 O   0  5
    8.9621   -6.7759    0.0000 O   0  0
    8.1752   -7.8206    0.0000 O   0  0
    8.7647   -8.8856    0.0000 O   0  5
   11.5092  -10.7239    0.0000 C   0  0
    7.3984   -2.4767    0.0000 O   0  5
   15.0937   -3.7187    0.0000 Na  0  3
   16.0625   -3.7187    0.0000 Na  0  3
   16.9375   -3.8125    0.0000 Na  0  3
   15.5313   -4.5000    0.0000 Na  0  3
   16.5313   -4.5000    0.0000 Na  0  3
   17.6875   -4.5625    0.0000 Na  0  3
   16.8125   -5.0937    0.0000 Na  0  3
 47 46  2  0
 48 47  2  0
  9 13  1  0
  9 22  1  1
 10 11  1  0
 50 49  2  0
 51 50  2  0
 13 23  1  6
 11 12  1  0
 14 24  1  1
 53 52  2  0
 54 53  2  0
 12 14  1  0
 18 25  1  6
 13 14  1  0
 56 55  2  0
 57 56  2  0
 17 26  1  1
  5  8  1  0
 21 27  1  0
  6  7  1  0
 27 28  1  0
 59 58  1  6
 59 60  1  0
  7 10  1  0
 27 29  1  6
  9  8  1  0
 28 30  1  0
 13 16  1  0
 59 64  1  0
 60 61  1  0
 61 62  1  0
 62 63  1  0
 63 64  1  0
 30 31  1  0
 64 65  1  1
 14 18  1  0
 65 66  1  0
 31 32  1  0
 60 67  1  1
 17 15  1  0
 61 68  1  6
 32 33  1  0
 62 69  1  0
 15 16  1  0
 69 70  1  0
 70 71  1  0
 32 34  1  0
 17 18  1  0
 21 35  1  6
  9 10  1  0
 10 36  1  6
 70 75  1  0
 71 72  1  0
 72 73  1  0
 73 74  1  0
 74 75  1  0
 37 38  1  0
 71 76  1  1
  2  1  2  0
 72 77  1  6
  3  2  2  0
 75 78  1  1
 78 79  1  0
  5  6  1  0
 62 80  1  1
 18 19  1  0
 70 81  1  1
 79 56  1  0
 38 39  2  0
 56 82  1  0
 68 47  1  0
 76 45  1  0
 39 40  1  0
 45 83  1  0
 66 53  1  0
 40 41  2  0
 53 84  1  0
 67 50  1  0
 41 37  1  0
 50 85  1  0
 43 42  2  0
 47 86  1  0
 44 43  2  0
 45 87  2  0
 19 20  1  0
 45 88  2  0
 77 43  1  0
 20 21  1  0
 43 89  1  0
 73 37  1  1
 21 17  1  0
 39 90  1  0
 90  4  1  0
 58  2  1  0
  6  4  1  1
  2 91  1  0
M  CHG  8  82  -1  83  -1  84  -1  85  -1  86  -1  89  -1  91  -1  92   1
M  CHG  6  93   1  94   1  95   1  96   1  97   1  98   1
M  END