
  SciTegic04091511462D

 80 84  0  0  1  0            999 V2000
    3.9127   -5.9980    0.0000 N   0  0
   -0.7825   -2.9137    0.0000 N   0  0
    4.1624   -5.2113    0.0000 C   0  0
   -0.5702   -3.7004    0.0000 C   0  0
   -0.4453   -1.3153    0.0000 C   0  0
    3.6130   -4.5995    0.0000 C   0  0  2  0  0  0
    4.1249   -3.9501    0.0000 N   0  0
    0.0791   -0.6785    0.0000 N   0  0
   -0.7450   -2.0895    0.0000 C   0  0  2  0  0  0
    4.2623   -1.5526    0.0000 N   0  0
    2.3892   -0.0541    0.0000 N   0  0
    4.4246   -3.1884    0.0000 C   0  0
    1.5651   -0.0042    0.0000 C   0  0
    5.2238   -6.6598    0.0000 C   0  0
    3.8128   -0.8658    0.0000 C   0  0
    4.4621   -2.3643    0.0000 C   0  0  2  0  0  0
    4.3997   -6.6598    0.0000 C   0  0  2  0  0  0
    0.7659   -0.2165    0.0000 C   0  0  2  0  0  0
   -0.1207   -4.3997    0.0000 C   0  0
    5.6359   -7.3716    0.0000 N   0  0
    5.2862   -2.2768    0.0000 C   0  0
    3.1634   -0.3413    0.0000 C   0  0  2  0  0  0
    6.8721   -8.0958    0.0000 C   0  0
    9.3570   -5.2363    0.0000 C   0  0
    2.1270   -5.2613    0.0000 S   0  0
    1.3486   -5.4111    0.0000 S   0  0
    5.9980   -1.8523    0.0000 C   0  0
    0.5287   -4.9241    0.0000 C   0  0
    7.6963   -8.0958    0.0000 N   0  0
    6.4600   -7.3716    0.0000 C   0  0  2  0  0  0
    8.9325   -8.8076    0.0000 C   0  0
    4.8117    1.0822    0.0000 C   0  0
   10.1812   -5.2363    0.0000 N   0  0
    4.9741   -5.0365    0.0000 O   0  0
   -1.5442   -1.9147    0.0000 C   0  0
   -1.3194   -4.0375    0.0000 O   0  0
   -1.1571   -0.9033    0.0000 O   0  0
    2.9137   -5.0490    0.0000 C   0  0
    5.6359   -5.9481    0.0000 O   0  0
    5.2363   -3.3507    0.0000 O   0  0
    1.5276    0.6326    0.0000 O   0  0
    4.4121   -0.3164    0.0000 O   0  0
    0.4412    0.5327    0.0000 C   0  0
    6.4600   -8.8076    0.0000 O   0  0
    5.9980   -1.0281    0.0000 O   0  0
    9.3570   -8.0958    0.0000 O   0  0
    4.3997    1.7939    0.0000 O   0  0
    3.5755    0.3704    0.0000 C   0  0
    8.9325   -5.9481    0.0000 N   0  0
    8.1083   -8.8076    0.0000 C   0  0
    8.9325   -4.5120    0.0000 N   0  0
    3.1260   -6.2477    0.0000 C   0  0
    6.7223   -2.2644    0.0000 N   0  0
    4.3997    0.3704    0.0000 C   0  0
   -1.8064   -1.1280    0.0000 C   0  0
    5.6359    1.0947    0.0000 N   0  0
    9.3446   -9.5194    0.0000 N   0  0
   -1.6066   -3.0011    0.0000 C   0  0
   -2.3184    0.4453    0.0000 C   0  0
    0.9158    1.2071    0.0000 C   0  0
   -2.6181   -0.9532    0.0000 C   0  0
   -1.2570   -0.5162    0.0000 C   0  0
   -2.8678   -0.1665    0.0000 C   0  0
   -1.5067    0.2705    0.0000 C   0  0
    3.9127   -7.3341    0.0000 C   0  0
   -2.5681    1.2320    0.0000 O   0  0
    3.1260   -7.0844    0.0000 C   0  0
   -0.2455   -4.8242    0.0000 C   0  0
    0.9907   -5.5360    0.0000 C   0  0
    6.8721   -6.6598    0.0000 C   0  0
    8.1083   -5.9481    0.0000 C   0  0
    1.7399    1.1072    0.0000 C   0  0
    0.5911    1.9563    0.0000 C   0  0
    7.6963   -6.6598    0.0000 C   0  0
    0.5786   -6.2602    0.0000 C   0  0
   -0.6576   -5.5360    0.0000 C   0  0
    2.2269    1.7815    0.0000 C   0  0
    1.0656    2.6306    0.0000 C   0  0
   -0.2455   -6.2602    0.0000 C   0  0
    1.8897    2.5307    0.0000 C   0  0
  2  4  1  0
  3  1  1  0
  4 19  1  0
  5  9  1  0
  6  3  1  1
  7  6  1  0
  8  5  1  0
  9  2  1  0
 10 16  1  0
 11 22  1  0
 12  7  1  0
 13 11  1  0
 17 14  1  6
 15 10  1  0
 16 12  1  0
 17  1  1  0
 18 13  1  0
 19 28  1  0
 20 14  1  0
 16 21  1  1
 22 15  1  0
 23 30  1  0
 24 49  2  0
 25 38  1  0
 26 25  1  0
 27 21  1  0
 28 26  1  0
 29 23  1  0
 30 20  1  1
 31 50  1  0
 32 54  1  0
 33 24  1  0
 34  3  2  0
  9 35  1  1
 36  4  2  0
 37  5  2  0
  6 38  1  0
 39 14  2  0
 40 12  2  0
 41 13  2  0
 42 15  2  0
 18 43  1  1
 44 23  2  0
 45 27  2  0
 46 31  2  0
 47 32  2  0
 22 48  1  1
 49 71  1  0
 50 29  1  0
 51 24  1  0
 52  1  1  0
 53 27  1  0
 54 48  1  0
 55 35  1  0
 56 32  1  0
 57 31  1  0
 58  2  1  0
 59 64  2  0
 60 43  1  0
 61 55  1  0
 62 55  2  0
 63 61  2  0
 64 62  1  0
 17 65  1  0
 66 59  1  0
 67 52  1  0
 68 28  1  0
 69 28  1  0
 30 70  1  0
 71 74  1  0
 72 60  2  0
 73 60  1  0
 74 70  1  0
 75 69  1  0
 76 68  1  0
 77 72  1  0
 78 73  2  0
 79 75  1  0
 80 78  1  0
 65 67  1  0
 79 76  1  0
  8 18  1  0
 59 63  1  0
 80 77  2  0
M  END