
  SciTegic01161211242D

 16 13  0  0  0  0            999 V2000
    2.6000    0.0000    0.0000 N   0  0
    1.3000    0.7500    0.0000 C   0  0
    7.7999    0.0000    0.0000 O   0  0
    5.2000    0.0000    0.0000 C   0  0
    9.0999    0.7500    0.0000 N   0  0
    3.9000    0.7500    0.0000 C   0  0
    6.5000    0.7500    0.0000 C   0  0
   16.6999    0.3750    0.0000 Cl  0  0
   14.1999    0.3750    0.0000 Cl  0  0
    5.2000   -1.2000    0.0000 O   0  0
   10.3999    0.0000    0.0000 C   0  0
    0.2606    0.1503    0.0000 C   0  0
    0.2609    1.3502    0.0000 C   0  0
    1.3000    1.9500    0.0000 C   0  0
   11.4393    0.5997    0.0000 C   0  0
   10.3999   -1.2000    0.0000 C   0  0
  1  2  1  0
  3  5  1  0
  1  6  1  0
  4  6  1  0
  3  7  1  0
  4  7  1  0
  4 10  1  0
  5 11  1  0
  2 12  1  0
  2 13  1  0
  2 14  1  0
 11 15  1  0
 11 16  1  0
M  END