
  SciTegic02011310462D

 34 37  0  0  0  0            999 V2000
    9.8464   -4.3463    0.0000 C   0  0
    9.8512   -5.1735    0.0000 C   0  0
   10.5689   -5.5811    0.0000 N   0  0
   11.2823   -5.1626    0.0000 C   0  0
   11.2733   -4.3323    0.0000 C   0  0
   10.5551   -3.9284    0.0000 C   0  0
   12.0002   -5.5688    0.0000 C   0  0
   12.7109   -5.1500    0.0000 N   0  0
   13.4289   -5.5561    0.0000 O   0  0
   11.9831   -3.9119    0.0000 O   0  0
    3.4065   -3.1628    0.0000 C   0  0
    3.4080   -3.9901    0.0000 C   0  0
    4.1241   -4.4006    0.0000 C   0  0
    4.1170   -2.7478    0.0000 C   0  0
    4.8336   -3.1546    0.0000 C   0  0
    4.8396   -3.9829    0.0000 C   0  0
    5.5561   -4.3895    0.0000 C   0  0
    6.2711   -3.9724    0.0000 N   0  0
    6.2649   -3.1440    0.0000 C   0  0
    5.5439   -2.7328    0.0000 C   0  0
    5.5603   -5.2122    0.0000 C   0  0
    4.8468   -5.6283    0.0000 C   0  0
    4.8514   -6.4524    0.0000 C   0  0
    5.5687   -6.8614    0.0000 C   0  0
    6.2830   -6.4403    0.0000 C   0  0
    6.2749   -5.6176    0.0000 C   0  0
    2.6907   -2.7528    0.0000 O   0  0
    2.6878   -1.9280    0.0000 C   0  0
    2.6947   -4.4042    0.0000 O   0  0
    1.9793   -3.9936    0.0000 C   0  0
    6.9904   -4.3761    0.0000 C   0  0
    7.6997   -3.9549    0.0000 C   0  0
    8.4190   -4.3590    0.0000 C   0  0
    9.1285   -3.9381    0.0000 C   0  0
  1  2  2  0
  2  3  1  0
  3  4  2  0
  4  5  1  0
  5  6  2  0
  6  1  1  0
  4  7  1  0
  7  8  2  0
  8  9  1  0
  5 10  1  0
 11 12  2  0
 12 13  1  0
 13 16  2  0
 15 14  2  0
 14 11  1  0
 15 16  1  0
 15 20  1  0
 16 17  1  0
 17 18  1  0
 18 19  1  0
 19 20  1  0
 21 22  2  0
 22 23  1  0
 23 24  2  0
 24 25  1  0
 25 26  2  0
 26 21  1  0
 17 21  1  0
 11 27  1  0
 27 28  1  0
 12 29  1  0
 29 30  1  0
 18 31  1  0
 31 32  1  0
 32 33  1  0
 33 34  1  0
 34  1  1  0
M  END