
          11280715132D 1   1.00000     0.00000     0

 35 38  0     0  0            999 V2000
   -1.0583   -1.0417    0.0000 C   0  0  0  0  0  0           0  0  0
   -1.0583   -0.4417    0.0000 C   0  0  0  0  0  0           0  0  0
   -1.5750   -1.3417    0.0000 N   0  0  3  0  0  0           0  0  0
   -2.0875   -0.4417    0.0000 N   0  0  3  0  0  0           0  0  0
   -2.0875   -1.0417    0.0000 C   0  0  0  0  0  0           0  0  0
   -0.4833   -1.2250    0.0000 N   0  0  0  0  0  0           0  0  0
   -1.5750   -0.1417    0.0000 C   0  0  0  0  0  0           0  0  0
   -0.4833   -0.2542    0.0000 N   0  0  0  0  0  0           0  0  0
   -0.1333   -0.7417    0.0000 C   0  0  0  0  0  0           0  0  0
    4.4917   -0.1167    0.0000 S   0  0  3  0  0  0           0  0  0
    2.4250   -0.3292    0.0000 C   0  0  0  0  0  0           0  0  0
    3.9417    0.1333    0.0000 C   0  0  0  0  0  0           0  0  0
    0.4667   -0.7417    0.0000 C   0  0  3  0  0  0           0  0  0
    2.9042    0.0208    0.0000 C   0  0  0  0  0  0           0  0  0
   -2.6083   -1.3375    0.0000 O   0  0  0  0  0  0           0  0  0
    1.8750   -0.0875    0.0000 O   0  0  0  0  0  0           0  0  0
    3.4542   -0.2167    0.0000 C   0  0  0  0  0  0           0  0  0
    4.6667    0.4583    0.0000 O   0  0  0  0  0  0           0  0  0
    4.3125   -0.6792    0.0000 O   0  0  0  0  0  0           0  0  0
   -1.5833    0.4583    0.0000 O   0  0  0  0  0  0           0  0  0
    5.0750   -0.2500    0.0000 F   0  0  0  0  0  0           0  0  0
    2.4875   -0.9292    0.0000 O   0  0  0  0  0  0           0  0  0
    0.8167   -0.2542    0.0000 C   0  0  0  0  0  0           0  0  0
    1.3917   -0.4417    0.0000 C   0  0  3  0  0  0           0  0  0
   -1.5750   -1.9417    0.0000 C   0  0  0  0  0  0           0  0  0
   -2.6083   -0.1417    0.0000 C   0  0  0  0  0  0           0  0  0
    0.8167   -1.2250    0.0000 C   0  0  0  0  0  0           0  0  0
    1.3917   -1.0417    0.0000 C   0  0  0  0  0  0           0  0  0
    3.8792    0.7250    0.0000 C   0  0  0  0  0  0           0  0  0
    2.8417    0.6208    0.0000 C   0  0  0  0  0  0           0  0  0
    3.3292    0.9708    0.0000 C   0  0  0  0  0  0           0  0  0
   -2.0958   -2.2375    0.0000 C   0  0  0  0  0  0           0  0  0
   -2.6125    0.4583    0.0000 C   0  0  0  0  0  0           0  0  0
   -2.0958   -2.8375    0.0000 C   0  0  0  0  0  0           0  0  0
   -3.1333    0.7583    0.0000 C   0  0  0  0  0  0           0  0  0
  2  1  2  0     0  0
  3  1  1  0     0  0
  4  5  1  0     0  0
  5  3  1  0     0  0
  6  1  1  0     0  0
  7  2  1  0     0  0
  8  2  1  0     0  0
  9  6  1  0     0  0
 10 12  1  0     0  0
 11 16  1  0     0  0
 12 17  1  0     0  0
 13  9  1  0     0  0
 14 11  1  0     0  0
 15  5  2  0     0  0
 16 24  1  0     0  0
 17 14  2  0     0  0
 18 10  2  0     0  0
 19 10  2  0     0  0
 20  7  2  0     0  0
 21 10  1  0     0  0
 22 11  2  0     0  0
 23 13  1  0     0  0
 24 23  1  0     0  0
 25  3  1  0     0  0
 26  4  1  0     0  0
 27 13  1  0     0  0
 28 27  1  0     0  0
 29 31  1  0     0  0
 30 14  1  0     0  0
 31 30  2  0     0  0
 32 25  1  0     0  0
 33 26  1  0     0  0
 34 32  1  0     0  0
 35 33  1  0     0  0
  8  9  2  0     0  0
  4  7  1  0     0  0
 24 28  1  0     0  0
 29 12  2  0     0  0
M  END