
  SciTegic02011310462D

 36 39  0  0  0  0            999 V2000
   11.0281  -14.5313    0.0000 C   0  0
   10.3153  -14.9513    0.0000 C   0  0
   10.3237  -15.7767    0.0000 N   0  0
   11.0441  -16.1831    0.0000 C   0  0
   11.7576  -15.7579    0.0000 C   0  0
   11.7456  -14.9339    0.0000 C   0  0
   11.0539  -17.0080    0.0000 C   0  0
   11.7733  -17.4120    0.0000 N   0  0
   11.7831  -18.2369    0.0000 O   0  0
   12.4778  -16.1602    0.0000 O   0  0
    2.4402  -13.8588    0.0000 C   0  0
    2.4418  -14.6861    0.0000 C   0  0
    3.1579  -15.0966    0.0000 C   0  0
    3.1507  -13.4437    0.0000 C   0  0
    3.8674  -13.8505    0.0000 C   0  0
    3.8735  -14.6790    0.0000 C   0  0
    4.5901  -15.0856    0.0000 C   0  0
    5.3050  -14.6685    0.0000 N   0  0
    5.2990  -13.8399    0.0000 C   0  0
    4.5778  -13.4287    0.0000 C   0  0
    4.5943  -15.9084    0.0000 C   0  0
    3.8807  -16.3245    0.0000 C   0  0
    3.8852  -17.1487    0.0000 C   0  0
    4.6027  -17.5577    0.0000 C   0  0
    5.3170  -17.1366    0.0000 C   0  0
    5.3089  -16.3138    0.0000 C   0  0
    1.7243  -13.4487    0.0000 O   0  0
    1.7215  -12.6237    0.0000 C   0  0
    1.7283  -15.1003    0.0000 O   0  0
    1.0129  -14.6897    0.0000 C   0  0
    6.0301  -15.0623    0.0000 C   0  0
    6.7336  -14.6314    0.0000 C   0  0
    7.4584  -15.0252    0.0000 O   0  0
    8.1620  -14.5945    0.0000 C   0  0
    8.8868  -14.9883    0.0000 C   0  0
    9.5904  -14.5574    0.0000 C   0  0
  1  2  2  0
  2  3  1  0
  3  4  2  0
  4  5  1  0
  5  6  2  0
  6  1  1  0
  4  7  1  0
  7  8  2  0
  8  9  1  0
  5 10  1  0
 11 12  2  0
 12 13  1  0
 13 16  2  0
 15 14  2  0
 14 11  1  0
 15 16  1  0
 15 20  1  0
 16 17  1  0
 17 18  1  0
 18 19  1  0
 19 20  1  0
 21 22  2  0
 22 23  1  0
 23 24  2  0
 24 25  1  0
 25 26  2  0
 26 21  1  0
 17 21  1  0
 11 27  1  0
 27 28  1  0
 12 29  1  0
 29 30  1  0
 18 31  1  0
 31 32  1  0
 32 33  1  0
 33 34  1  0
 34 35  1  0
 35 36  1  0
 36  2  1  0
M  END