
  SciTegic12171313022D

 39 44  0  0  0  0            999 V2000
   17.0324  -13.3079    0.0000 C   0  0
   17.0322  -14.1251    0.0000 O   0  0
   16.3248  -12.8992    0.0000 N   0  0
   15.6151  -13.3146    0.0000 C   0  0
   14.9096  -12.9094    0.0000 C   0  0
   14.9056  -12.0918    0.0000 C   0  0
   15.6132  -11.6812    0.0000 C   0  0
   16.3249  -12.0882    0.0000 C   0  0
   14.1964  -11.6854    0.0000 N   0  0
   13.4511  -12.0204    0.0000 C   0  0
   12.9021  -11.4150    0.0000 C   0  0
   13.3082  -10.7058    0.0000 C   0  0
   14.1081  -10.8730    0.0000 C   0  0
   17.7415  -12.0804    0.0000 C   0  0
   17.7404  -12.8999    0.0000 C   0  0
   18.4484  -13.3089    0.0000 C   0  0
   19.1581  -12.8994    0.0000 C   0  0
   19.1553  -12.0768    0.0000 C   0  0
   18.4467  -11.6715    0.0000 C   0  0
   19.8614  -11.6655    0.0000 C   0  0
   20.5707  -12.0714    0.0000 N   0  0
   19.8584  -10.8483    0.0000 O   0  0
   20.5712  -12.8904    0.0000 C   0  0
   21.2763  -13.2962    0.0000 C   0  0
   21.9849  -12.8884    0.0000 C   0  0
   21.9838  -12.0703    0.0000 C   0  0
   21.2741  -11.6599    0.0000 C   0  0
   22.6915  -13.2959    0.0000 N   0  0
   22.7769  -14.1086    0.0000 C   0  0
   23.5763  -14.2785    0.0000 C   0  0
   23.9849  -13.5707    0.0000 C   0  0
   23.4380  -12.9635    0.0000 C   0  0
   18.4442  -10.8543    0.0000 N   0  0
   17.7353  -10.4478    0.0000 C   0  0
   17.7362   -9.6314    0.0000 C   0  0
   17.0281   -9.2250    0.0000 C   0  0
   16.3206   -9.6357    0.0000 C   0  0
   16.3257  -10.4571    0.0000 C   0  0
   17.0344  -10.8598    0.0000 C   0  0
  1  2  2  0
  1  3  1  0
  3  4  1  0
  3  8  1  0
  4  5  1  0
  5  6  1  0
  6  7  1  0
  7  8  1  0
  9 10  1  0
 10 11  1  0
 11 12  1  0
 12 13  1  0
 13  9  1  0
  6  9  1  0
 14 15  2  0
 15 16  1  0
 16 17  2  0
 17 18  1  0
 18 19  2  0
 19 14  1  0
 18 20  1  0
 20 21  1  0
 20 22  2  0
 21 23  1  0
 21 27  1  0
 23 24  1  0
 24 25  1  0
 25 26  1  0
 26 27  1  0
 28 29  1  0
 29 30  1  0
 30 31  1  0
 31 32  1  0
 32 28  1  0
 25 28  1  0
 15  1  1  0
 19 33  1  0
 33 34  1  0
 34 35  2  0
 35 36  1  0
 36 37  2  0
 37 38  1  0
 38 39  2  0
 39 34  1  0
M  END