
          11280715332D 1   1.00000     0.00000     0

 16 17  0     0  0            999 V2000
    9.0292   -1.9917    0.0000 N   0  0  0  0  0  0           0  0  0
    8.5167   -2.2917    0.0000 C   0  0  0  0  0  0           0  0  0
    9.5500   -2.2875    0.0000 C   0  0  0  0  0  0           0  0  0
    8.5167   -2.8917    0.0000 C   0  0  0  0  0  0           0  0  0
    9.5542   -2.8875    0.0000 O   0  0  0  0  0  0           0  0  0
    9.0375   -3.1875    0.0000 C   0  0  0  0  0  0           0  0  0
    7.9417   -2.1125    0.0000 S   0  0  0  0  0  0           0  0  0
    7.9500   -3.0792    0.0000 C   0  0  0  0  0  0           0  0  0
    7.5917   -2.6000    0.0000 C   0  0  0  0  0  0           0  0  0
   10.0667   -1.9792    0.0000 N   0  0  3  0  0  0           0  0  0
    9.0417   -3.7875    0.0000 O   0  0  0  0  0  0           0  0  0
    7.7667   -3.6542    0.0000 C   0  0  0  0  0  0           0  0  0
   10.0625   -1.3792    0.0000 C   0  0  0  0  0  0           0  0  0
   10.5792   -2.2792    0.0000 C   0  0  0  0  0  0           0  0  0
   11.1042   -1.9792    0.0000 C   0  0  0  0  0  0           0  0  0
   10.5792   -1.0792    0.0000 C   0  0  0  0  0  0           0  0  0
  2  1  1  0     0  0
  3  1  2  0     0  0
  4  2  2  0     0  0
  5  3  1  0     0  0
  6  5  1  0     0  0
  7  2  1  0     0  0
  8  4  1  0     0  0
  9  7  1  0     0  0
 10  3  1  0     0  0
 11  6  2  0     0  0
 12  8  1  0     0  0
 13 10  1  0     0  0
 14 10  1  0     0  0
 15 14  1  0     0  0
 16 13  1  0     0  0
  6  4  1  0     0  0
  8  9  2  0     0  0
M  END