
  SciTegic02181312462D

 31 32  0  0  0  0            999 V2000
   28.1039   -4.3916    0.0000 C   0  0
   20.8650   -7.5540    0.0000 C   0  0
   20.8639   -8.3814    0.0000 C   0  0
   21.5786   -8.7942    0.0000 C   0  0
   21.5769   -7.1413    0.0000 C   0  0
   22.2923   -7.5504    0.0000 C   0  0
   22.2925   -8.3814    0.0000 C   0  0
   23.0829   -8.6381    0.0000 N   0  0
   23.5713   -7.9655    0.0000 C   0  0
   23.0825   -7.2935    0.0000 O   0  0
   24.3963   -7.9652    0.0000 N   0  0
   24.8086   -7.2507    0.0000 C   0  0
   25.6335   -7.2504    0.0000 C   0  0
   26.0458   -6.5358    0.0000 C   0  0
   26.8694   -6.5384    0.0000 C   0  0
   27.2815   -5.8247    0.0000 C   0  0
   26.8687   -5.1094    0.0000 C   0  0
   26.0395   -5.1123    0.0000 C   0  0
   25.6310   -5.8267    0.0000 C   0  0
   27.2800   -4.3942    0.0000 O   0  0
   28.5163   -3.6777    0.0000 C   0  0
   29.3413   -3.6763    0.0000 O   0  5
   28.1026   -2.9639    0.0000 O   0  0
   24.8090   -8.6796    0.0000 C   0  0
   25.6340   -8.6793    0.0000 C   0  0
   26.0468   -9.3936    0.0000 C   0  0
   26.8718   -9.3933    0.0000 C   0  0
   27.2845  -10.1077    0.0000 C   0  0
   28.1095  -10.1074    0.0000 C   0  0
   28.5218   -9.3927    0.0000 C   0  0
   21.7446   -4.9500    0.0000 Na  0  3
  2  3  2  0
  3  4  1  0
  4  7  2  0
  6  5  2  0
  5  2  1  0
  6  7  1  0
  7  8  1  0
  8  9  2  0
  9 10  1  0
 10  6  1  0
  9 11  1  0
 11 12  1  0
 12 13  1  0
 13 14  1  0
 14 15  2  0
 15 16  1  0
 16 17  2  0
 17 18  1  0
 18 19  2  0
 19 14  1  0
 17 20  1  0
 20  1  1  0
  1 21  1  0
 21 22  1  0
 21 23  2  0
 11 24  1  0
 24 25  1  0
 25 26  1  0
 26 27  1  0
 27 28  1  0
 28 29  1  0
 29 30  1  0
M  CHG  2  22  -1  31   1
M  END