
          11280714572D 1   1.00000     0.00000     0

 42 46  0     0  0            999 V2000
    8.7542   -2.0917    0.0000 C   0  0  0  0  0  0           0  0  0
   10.1750   -1.2500    0.0000 N   0  0  0  0  0  0           0  0  0
    4.4542   -1.3042    0.0000 N   0  0  0  0  0  0           0  0  0
    5.1667   -0.8917    0.0000 C   0  0  0  0  0  0           0  0  0
    4.4542   -2.1292    0.0000 C   0  0  0  0  0  0           0  0  0
    8.0417   -2.5125    0.0000 C   0  0  0  0  0  0           0  0  0
    8.7417   -1.2667    0.0000 C   0  0  0  0  0  0           0  0  0
    9.4667   -2.4917    0.0000 C   0  0  0  0  0  0           0  0  0
   10.1750   -2.0667    0.0000 C   0  0  0  0  0  0           0  0  0
    9.4542   -0.8542    0.0000 C   0  0  0  0  0  0           0  0  0
    5.8792   -0.4792    0.0000 N   0  0  0  0  0  0           0  0  0
   -2.6958   -2.1375    0.0000 N   0  0  3  0  0  0           0  0  0
    8.0667   -3.3375    0.0000 O   0  0  0  0  0  0           0  0  0
   -1.9750   -2.5500    0.0000 C   0  0  0  0  0  0           0  0  0
    3.7417   -2.5417    0.0000 N   0  0  0  0  0  0           0  0  0
    5.1667   -2.5417    0.0000 N   0  0  0  0  0  0           0  0  0
   -1.2625   -2.1375    0.0000 C   0  0  0  0  0  0           0  0  0
    7.3167   -2.1167    0.0000 N   0  0  0  0  0  0           0  0  0
   -0.5458   -2.5542    0.0000 C   0  0  0  0  0  0           0  0  0
    0.1667   -2.1375    0.0000 C   0  0  0  0  0  0           0  0  0
    2.3125   -2.5500    0.0000 C   0  0  0  0  0  0           0  0  0
    0.8792   -2.5500    0.0000 O   0  0  0  0  0  0           0  0  0
    8.0292   -0.8667    0.0000 C   0  0  0  0  0  0           0  0  0
    9.4792   -3.3167    0.0000 C   0  0  0  0  0  0           0  0  0
   -3.4083   -2.5500    0.0000 C   0  0  0  0  0  0           0  0  0
   -2.6958   -1.3042    0.0000 C   0  0  0  0  0  0           0  0  0
    9.4500   -0.0292    0.0000 C   0  0  0  0  0  0           0  0  0
   10.8917   -2.4667    0.0000 C   0  0  0  0  0  0           0  0  0
   -0.5500   -0.9000    0.0000 C   0  0  0  0  0  0           0  0  0
    3.0250   -2.1292    0.0000 C   0  0  0  0  0  0           0  0  0
   -1.2583   -1.3125    0.0000 C   0  0  0  0  0  0           0  0  0
    1.5917   -2.1375    0.0000 C   0  0  0  0  0  0           0  0  0
    5.8875   -2.1250    0.0000 C   0  0  0  0  0  0           0  0  0
    6.6000   -2.5375    0.0000 C   0  0  0  0  0  0           0  0  0
    0.1667   -1.3042    0.0000 C   0  0  0  0  0  0           0  0  0
   -3.3958   -0.8917    0.0000 C   0  0  0  0  0  0           0  0  0
   -4.1208   -2.1292    0.0000 C   0  0  0  0  0  0           0  0  0
   10.2000   -3.7167    0.0000 C   0  0  0  0  0  0           0  0  0
    8.0167   -0.0500    0.0000 C   0  0  0  0  0  0           0  0  0
   10.9042   -3.2917    0.0000 C   0  0  0  0  0  0           0  0  0
    8.7292    0.3708    0.0000 C   0  0  0  0  0  0           0  0  0
   -4.1125   -1.3042    0.0000 C   0  0  0  0  0  0           0  0  0
  2  9  2  0     0  0
  3  5  1  0     0  0
  4  3  1  0     0  0
  5 16  2  0     0  0
  6  1  1  0     0  0
  7  1  1  0     0  0
  8  1  2  0     0  0
  9  8  1  0     0  0
 10  7  2  0     0  0
 11  4  3  0     0  0
 12 14  1  0     0  0
 13  6  2  0     0  0
 14 17  1  0     0  0
 15  5  1  0     0  0
 16 33  1  0     0  0
 17 19  1  0     0  0
 18  6  1  0     0  0
 19 20  2  0     0  0
 20 22  1  0     0  0
 21 30  1  0     0  0
 22 32  1  0     0  0
 23  7  1  0     0  0
 24  8  1  0     0  0
 25 12  1  0     0  0
 26 12  1  0     0  0
 27 10  1  0     0  0
 28  9  1  0     0  0
 29 35  2  0     0  0
 30 15  1  0     0  0
 31 29  1  0     0  0
 32 21  1  0     0  0
 33 34  1  0     0  0
 34 18  1  0     0  0
 35 20  1  0     0  0
 36 26  1  0     0  0
 37 25  1  0     0  0
 38 24  2  0     0  0
 39 23  2  0     0  0
 40 38  1  0     0  0
 41 39  1  0     0  0
 42 36  1  0     0  0
  2 10  1  0     0  0
 28 40  2  0     0  0
 41 27  2  0     0  0
 17 31  2  0     0  0
 42 37  1  0     0  0
M  END