
  SciTegic05281317142D

 35 38  0  0  0  0            999 V2000
    3.8943   -3.7525    0.0000 C   0  0
    5.1945   -3.0045    0.0000 C   0  0
    5.1969   -1.5045    0.0000 C   0  0
    3.8991   -0.7525    0.0000 C   0  0
    2.5987   -1.5004    0.0000 C   0  0
    2.5965   -3.0004    0.0000 C   0  0
    1.2990   -0.7500    0.0000 C   0  0
    0.0000   -1.5000    0.0000 N   0  0
   -1.2990   -0.7500    0.0000 C   0  0
   -1.2990    0.7500    0.0000 C   0  0
    0.0000    1.5000    0.0000 C   0  0
    1.2990    0.7500    0.0000 C   0  0
    3.9046    0.7483    0.0000 O   0  0
    4.9456    1.3452    0.0000 C   0  0
    6.4994   -0.7589    0.0000 O   0  0
    7.5368   -1.3620    0.0000 C   0  0
   -2.5973    1.5031    0.0000 C   0  0
   -2.5951    3.0039    0.0000 C   0  0
   -1.3786    3.8595    0.0000 S   0  0
   -1.8372    5.2877    0.0000 C   0  0
   -3.3372    5.2929    0.0000 N   0  0
   -3.8056    3.8679    0.0000 C   0  0
   -1.1285    6.2561    0.0000 S   0  0
   -4.9460    3.4943    0.0000 O   0  0
   -4.2161    6.5062    0.0000 C   0  0  2  0  0  0
   -3.6062    7.8775    0.0000 C   0  0
   -2.4127    8.0030    0.0000 O   0  0
   -4.3112    8.8485    0.0000 O   0  0
   -5.7091    6.3524    0.0000 C   0  0
   -6.5895    7.5678    0.0000 C   0  0
   -8.0819    7.4162    0.0000 C   0  0
   -8.9594    8.6327    0.0000 C   0  0
   -8.3446   10.0010    0.0000 C   0  0
   -6.8523   10.1526    0.0000 C   0  0
   -5.9748    8.9361    0.0000 C   0  0
 10 17  1  0
  8  9  1  0
 17 18  2  0
 18 19  1  0
  4  5  1  0
  9 10  2  0
  2  3  1  0
 10 11  1  0
 19 20  1  0
 20 21  1  0
 21 22  1  0
 22 18  1  0
  5  6  2  0
 20 23  2  0
 11 12  2  0
 22 24  2  0
 12  7  1  0
 21 25  1  0
  5  7  1  0
 25 26  1  0
  6  1  1  0
 26 27  1  0
  4 13  1  0
 26 28  2  0
  1  2  2  0
 25 29  1  1
 13 14  1  0
 29 30  1  0
  3  4  2  0
 30 31  2  0
  3 15  1  0
 31 32  1  0
  7  8  2  0
 32 33  2  0
 15 16  1  0
 33 34  1  0
 34 35  2  0
 35 30  1  0
M  END