
          11280715502D 1   1.00000     0.00000     0

 26 28  0     0  0            999 V2000
    9.2843    2.4974    0.0000 C   0  0  3  0  0  0           0  0  0
    9.2843    1.6719    0.0000 C   0  0  0  0  0  0           0  0  0
    9.9974    1.2612    0.0000 C   0  0  0  0  0  0           0  0  0
   10.7105    1.6719    0.0000 N   0  0  3  0  0  0           0  0  0
   10.7105    2.4974    0.0000 C   0  0  0  0  0  0           0  0  0
    9.9974    2.9122    0.0000 C   0  0  0  0  0  0           0  0  0
    8.5677    2.9060    0.0000 C   0  0  0  0  0  0           0  0  0
    7.8533    2.4932    0.0000 C   0  0  0  0  0  0           0  0  0
    7.0981    2.8268    0.0000 C   0  0  0  0  0  0           0  0  0
    6.5460    2.2106    0.0000 N   0  0  0  0  0  0           0  0  0
    6.9589    1.5004    0.0000 C   0  0  0  0  0  0           0  0  0
    7.7659    1.6737    0.0000 N   0  0  0  0  0  0           0  0  0
   11.4253    1.2560    0.0000 C   0  0  0  0  0  0           0  0  0
   11.4241    0.4304    0.0000 C   0  0  0  0  0  0           0  0  0
   10.7070    0.0224    0.0000 C   0  0  0  0  0  0           0  0  0
   10.7055   -0.8024    0.0000 C   0  0  0  0  0  0           0  0  0
   11.4210   -1.2191    0.0000 C   0  0  0  0  0  0           0  0  0
   12.1394   -0.8008    0.0000 C   0  0  0  0  0  0           0  0  0
   12.1374    0.0226    0.0000 C   0  0  0  0  0  0           0  0  0
   11.4209   -2.0446    0.0000 O   0  0  0  0  0  0           0  0  0
   12.1363   -2.4553    0.0000 C   0  0  0  0  0  0           0  0  0
   12.8519   -2.0447    0.0000 C   0  0  0  0  0  0           0  0  0
   13.5632   -2.4555    0.0000 C   0  0  0  0  0  0           0  0  0
   14.2787   -2.0449    0.0000 N   0  0  3  0  0  0           0  0  0
   14.9941   -2.4557    0.0000 C   0  0  0  0  0  0           0  0  0
   14.2788   -1.2194    0.0000 C   0  0  0  0  0  0           0  0  0
  5  6  1  0     0  0
  4 13  1  0     0  0
 13 14  1  0     0  0
  1  7  1  0     0  0
 14 15  2  0     0  0
  1  2  1  0     0  0
 15 16  1  0     0  0
  7  8  1  0     0  0
 16 17  2  0     0  0
  8  9  2  0     0  0
 17 18  1  0     0  0
  1  6  1  0     0  0
 18 19  2  0     0  0
 19 14  1  0     0  0
  2  3  1  0     0  0
 17 20  1  0     0  0
  3  4  1  0     0  0
 20 21  1  0     0  0
  4  5  1  0     0  0
 21 22  1  0     0  0
  9 10  1  0     0  0
 22 23  1  0     0  0
 10 11  1  0     0  0
 23 24  1  0     0  0
 11 12  2  0     0  0
 24 25  1  0     0  0
 12  8  1  0     0  0
 24 26  1  0     0  0
M  END