
  Mrv0541 04051115152D          

 11 12  0  0  0  0            999 V2000
   -1.1553   -0.7425    0.0000 C   0  0  0  0  0  0  0  0  0  0  0  0
   -1.6402   -0.0750    0.0000 C   0  0  0  0  0  0  0  0  0  0  0  0
   -1.1553    0.5924    0.0000 N   0  0  0  0  0  0  0  0  0  0  0  0
   -0.3707    0.3375    0.0000 C   0  0  0  0  0  0  0  0  0  0  0  0
    0.3438    0.7500    0.0000 C   0  0  0  0  0  0  0  0  0  0  0  0
    0.3438    1.5750    0.0000 O   0  0  0  0  0  0  0  0  0  0  0  0
    1.0583    0.3375    0.0000 N   0  0  0  0  0  0  0  0  0  0  0  0
    1.0583   -0.4875    0.0000 C   0  0  0  0  0  0  0  0  0  0  0  0
    1.7728   -0.9000    0.0000 N   0  0  0  0  0  0  0  0  0  0  0  0
    0.3438   -0.9000    0.0000 N   0  0  0  0  0  0  0  0  0  0  0  0
   -0.3707   -0.4875    0.0000 C   0  0  0  0  0  0  0  0  0  0  0  0
  2  1  2  0  0  0  0
 11  1  1  0  0  0  0
  2  3  1  0  0  0  0
  4  3  1  0  0  0  0
  4  5  1  0  0  0  0
 11  4  2  0  0  0  0
  5  6  2  0  0  0  0
  5  7  1  0  0  0  0
  8  7  1  0  0  0  0
  8  9  1  0  0  0  0
  8 10  2  0  0  0  0
 11 10  1  0  0  0  0
M  END