
  SciTegic06051313522D

 16 17  0  0  0  0            999 V2000
    2.9275   -7.6966    0.0000 C   0  0
    2.1079   -7.6940    0.0000 C   0  0
    1.6977   -8.4014    0.0000 C   0  0
    2.1060   -9.1117    0.0000 C   0  0
    2.9286   -9.1103    0.0000 C   0  0
    3.3351   -8.4024    0.0000 C   0  0
    4.1523   -8.4013    0.0000 C   0  0
    4.5585   -9.1089    0.0000 C   0  0
    5.3749   -9.1082    0.0000 C   0  0
    5.7834   -8.3994    0.0000 C   0  0
    5.3695   -7.6899    0.0000 C   0  0
    4.5544   -7.6941    0.0000 N   0  0
    6.6024   -8.3981    0.0000 C   0  0
    7.0129   -9.1048    0.0000 O   0  0
    7.0092   -7.6894    0.0000 O   0  0
    5.7840   -9.8156    0.0000 C   0  0
  1  2  2  0
  2  3  1  0
  3  4  2  0
  4  5  1  0
  5  6  2  0
  6  1  1  0
  6  7  1  0
  7  8  2  0
  8  9  1  0
  9 10  2  0
 10 11  1  0
 11 12  2  0
 12  7  1  0
 13 14  1  0
 13 15  2  0
 10 13  1  0
  9 16  1  0
M  END