
  SciTegic01161211252D

 27 30  0  0  0  0            999 V2000
    9.1538    1.1293    0.0000 N   0  0
    9.8677    0.7156    0.0000 C   0  0
    9.8665   -0.1094    0.0000 O   0  0
   10.5828    1.1272    0.0000 C   0  0
   11.2951    0.7127    0.0000 C   0  0
   12.0097    1.1236    0.0000 N   0  0
   12.0114    1.9494    0.0000 C   0  0
   11.2924    2.3629    0.0000 C   0  0
   10.5807    1.9497    0.0000 C   0  0
   12.7259    2.3619    0.0000 O   0  0
   13.4404    1.9493    0.0000 C   0  0
   13.4355    1.1240    0.0000 C   0  0
   14.1491    0.7114    0.0000 C   0  0
   14.8646    1.1240    0.0000 C   0  0
   14.8621    1.9533    0.0000 C   0  0
   14.1479    2.3621    0.0000 C   0  0
    8.4708    0.6663    0.0000 C   0  0
    7.6804    0.9096    0.0000 C   0  0
    9.2126    1.9518    0.0000 C   0  0
    7.3760    1.6751    0.0000 N   0  0
    8.6062    2.5135    0.0000 C   0  0
    7.7899    2.3874    0.0000 C   0  0
   15.5728    2.3651    0.0000 C   0  0
   16.2858    2.7800    0.0000 N   0  0
    6.5550    1.6818    0.0000 C   0  0
    5.8435    2.0993    0.0000 C   0  0
    5.8376    1.2744    0.0000 C   0  0
  6  7  2  0
 13 14  2  0
  2  4  1  0
 14 15  1  0
  7  8  1  0
 15 16  2  0
 16 11  1  0
  1 17  1  0
  8  9  2  0
 17 18  1  0
  9  4  1  0
  1 19  1  0
  4  5  2  0
 18 20  1  0
  7 10  1  0
 19 21  1  0
  2  3  2  0
 20 22  1  0
 21 22  1  0
 10 11  1  0
  5  6  1  0
 23 24  3  0
 15 23  1  0
 26 25  1  0
 27 26  1  0
 25 27  1  0
 11 12  2  0
  1  2  1  0
 12 13  1  0
 20 25  1  0
M  END