
          11280715082D 1   1.00000     0.00000     0

 18 18  0     0  0            999 V2000
    0.9917   -1.6792    0.0000 C   0  0  0  0  0  0           0  0  0
    1.5125   -1.9750    0.0000 C   0  0  0  0  0  0           0  0  0
    1.5125   -2.5792    0.0000 C   0  0  0  0  0  0           0  0  0
    0.9917   -2.8917    0.0000 C   0  0  0  0  0  0           0  0  0
    0.9875   -1.0792    0.0000 N   0  0  3  0  0  0           0  0  0
    0.4750   -1.9792    0.0000 O   0  0  0  0  0  0           0  0  0
    1.0000   -3.4917    0.0000 O   0  0  0  0  0  0           0  0  0
    0.4667   -2.5917    0.0000 O   0  0  0  0  0  0           0  0  0
    2.0292   -1.6750    0.0000 C   0  0  0  0  0  0           0  0  0
    2.0292   -2.8792    0.0000 C   0  0  0  0  0  0           0  0  0
    1.5125   -0.7750    0.0000 C   0  0  0  0  0  0           0  0  0
    0.4750   -0.7792    0.0000 C   0  0  0  0  0  0           0  0  0
    1.5125   -0.1750    0.0000 C   0  0  0  0  0  0           0  0  0
    0.4667   -0.1792    0.0000 C   0  0  0  0  0  0           0  0  0
    2.5542   -1.9792    0.0000 C   0  0  0  0  0  0           0  0  0
    2.5542   -2.5792    0.0000 C   0  0  0  0  0  0           0  0  0
    2.0292    0.1250    0.0000 C   0  0  0  0  0  0           0  0  0
   -0.0458    0.1208    0.0000 C   0  0  0  0  0  0           0  0  0
  2  1  1  0     0  0
  3  2  2  0     0  0
  4  3  1  0     0  0
  5  1  1  0     0  0
  6  1  2  0     0  0
  7  4  2  0     0  0
  8  4  1  0     0  0
  9  2  1  0     0  0
 10  3  1  0     0  0
 11  5  1  0     0  0
 12  5  1  0     0  0
 13 11  1  0     0  0
 14 12  1  0     0  0
 15  9  2  0     0  0
 16 15  1  0     0  0
 17 13  1  0     0  0
 18 14  1  0     0  0
 10 16  2  0     0  0
M  END