
  Mrv0541 05211314572D          

 34 37  0  0  0  0            999 V2000
    0.0860    0.3754    0.0000 C   0  0  0  0  0  0  0  0  0  0  0  0
    0.8004   -0.0371    0.0000 C   0  0  0  0  0  0  0  0  0  0  0  0
    1.5149    0.3754    0.0000 C   0  0  0  0  0  0  0  0  0  0  0  0
    2.2294   -0.0371    0.0000 N   0  0  0  0  0  0  0  0  0  0  0  0
    1.5149    1.2004    0.0000 O   0  0  0  0  0  0  0  0  0  0  0  0
    2.2294   -0.8621    0.0000 C   0  0  0  0  0  0  0  0  0  0  0  0
    2.9439   -1.2746    0.0000 C   0  0  0  0  0  0  0  0  0  0  0  0
    3.6583   -0.8621    0.0000 N   0  0  0  0  0  0  0  0  0  0  0  0
    3.6583   -0.0371    0.0000 C   0  0  0  0  0  0  0  0  0  0  0  0
    2.9439    0.3754    0.0000 C   0  0  0  0  0  0  0  0  0  0  0  0
    4.3728   -1.2746    0.0000 C   0  0  0  0  0  0  0  0  0  0  0  0
    5.0873   -0.8621    0.0000 C   0  0  0  0  0  0  0  0  0  0  0  0
    5.8017   -1.2746    0.0000 C   0  0  0  0  0  0  0  0  0  0  0  0
    5.8017   -2.0996    0.0000 N   0  0  0  0  0  0  0  0  0  0  0  0
    5.0873   -2.5121    0.0000 C   0  0  0  0  0  0  0  0  0  0  0  0
    4.3728   -2.0996    0.0000 C   0  0  0  0  0  0  0  0  0  0  0  0
   -0.6285   -0.0371    0.0000 N   0  0  0  0  0  0  0  0  0  0  0  0
   -0.6285   -0.8621    0.0000 C   0  0  0  0  0  0  0  0  0  0  0  0
   -1.3430    0.3754    0.0000 C   0  0  0  0  0  0  0  0  0  0  0  0
   -2.0574   -0.0371    0.0000 C   0  0  0  0  0  0  0  0  0  0  0  0
   -2.7719    0.3754    0.0000 C   0  0  0  0  0  0  0  0  0  0  0  0
   -4.0776    0.6529    0.0000 C   0  0  0  0  0  0  0  0  0  0  0  0
   -3.5256    0.0398    0.0000 C   0  0  0  0  0  0  0  0  0  0  0  0
   -3.7805   -0.7448    0.0000 C   0  0  0  0  0  0  0  0  0  0  0  0
   -4.5875   -0.9163    0.0000 C   0  0  0  0  0  0  0  0  0  0  0  0
   -5.1395   -0.3033    0.0000 C   0  0  0  0  0  0  0  0  0  0  0  0
   -4.8846    0.4814    0.0000 C   0  0  0  0  0  0  0  0  0  0  0  0
   -2.8581    1.1958    0.0000 C   0  0  0  0  0  0  0  0  0  0  0  0
   -3.6651    1.3674    0.0000 C   0  0  0  0  0  0  0  0  0  0  0  0
   -3.9201    2.1520    0.0000 C   0  0  0  0  0  0  0  0  0  0  0  0
   -3.3680    2.7651    0.0000 C   0  0  0  0  0  0  0  0  0  0  0  0
   -2.5610    2.5936    0.0000 C   0  0  0  0  0  0  0  0  0  0  0  0
   -2.3061    1.8089    0.0000 C   0  0  0  0  0  0  0  0  0  0  0  0
    8.0410    0.0000    0.0000 Cl  0  0  0  0  0  0  0  0  0  0  0  0
 16 11  1  0  0  0  0
  4 10  1  0  0  0  0
  1 17  1  0  0  0  0
  6  7  1  0  0  0  0
 17 18  1  0  0  0  0
  7  8  1  0  0  0  0
 17 19  1  0  0  0  0
  8  9  1  0  0  0  0
 19 20  1  0  0  0  0
  9 10  1  0  0  0  0
 20 21  1  0  0  0  0
 21 23  1  0  0  0  0
 22 29  1  0  0  0  0
 28 21  1  0  0  0  0
 22 23  2  0  0  0  0
  4  6  1  0  0  0  0
  8 11  1  0  0  0  0
  2  3  1  0  0  0  0
 11 12  2  0  0  0  0
  1  2  1  0  0  0  0
 12 13  1  0  0  0  0
 22 27  1  0  0  0  0
 23 24  1  0  0  0  0
 24 25  2  0  0  0  0
 25 26  1  0  0  0  0
 26 27  2  0  0  0  0
 28 29  2  0  0  0  0
  3  4  1  0  0  0  0
 13 14  2  0  0  0  0
 14 15  1  0  0  0  0
  3  5  2  0  0  0  0
 15 16  2  0  0  0  0
 28 33  1  0  0  0  0
 29 30  1  0  0  0  0
 30 31  2  0  0  0  0
 31 32  1  0  0  0  0
 32 33  2  0  0  0  0
M  END