
  SciTegic10191216002D

 25 26  0  0  0  0            999 V2000
   14.2457  -30.0885    0.0000 C   0  0
   13.5254  -29.6883    0.0000 C   0  0
   12.8194  -30.1137    0.0000 C   0  0
   12.8347  -30.9395    0.0000 C   0  0
   13.5620  -31.3380    0.0000 C   0  0
   14.2650  -30.9103    0.0000 C   0  0
   12.1289  -31.3665    0.0000 C   0  0
   11.4061  -30.9687    0.0000 C   0  0
   12.1457  -32.1913    0.0000 C   0  0
   12.8667  -26.8083    0.0000 O   0  0
   12.8667  -27.6333    0.0000 C   0  0
   13.5787  -28.0417    0.0000 C   0  0
   14.2907  -27.6333    0.0000 N   0  0
   14.2907  -26.8083    0.0000 C   0  0
   13.5787  -26.3917    0.0000 C   0  0
   15.0064  -26.3979    0.0000 C   0  0
   15.7196  -26.8125    0.0000 O   0  0
   16.4353  -26.4021    0.0000 C   0  0
   15.0088  -25.5729    0.0000 O   0  0
   15.0046  -28.0469    0.0000 C   0  0
   15.0034  -28.8719    0.0000 C   0  0
   15.7196  -27.6354    0.0000 O   0  0
   14.9758  -29.6989    0.0000 S   0  0
   15.8283  -28.8862    0.0000 F   0  0
   14.1786  -28.8549    0.0000 F   0  0
  4  7  1  0
 10 15  1  0
 11 12  1  0
 12 13  1  0
 13 14  1  0
 14 15  1  0
  3  4  2  0
 14 16  1  0
  7  8  1  0
 16 17  1  0
 17 18  1  0
  7  9  1  0
 16 19  2  0
 10 11  1  0
 13 20  1  0
  4  5  1  0
 20 21  1  0
  2  3  1  0
 20 22  2  0
  5  6  2  0
 21 23  1  0
  6  1  1  0
 21 24  1  0
  1  2  2  0
 21 25  1  0
 23  1  1  0
M  END