
          11280715102D 1   1.00000     0.00000     0

 34 36  0     0  0            999 V2000
    8.7542   -0.7250    0.0000 C   0  0  3  0  0  0           0  0  0
    7.6000   -1.5917    0.0000 O   0  0  0  0  0  0           0  0  0
    8.1167   -0.9417    0.0000 C   0  0  3  0  0  0           0  0  0
    8.1292   -0.3500    0.0000 C   0  0  3  0  0  0           0  0  0
    8.7542   -0.1292    0.0000 C   0  0  3  0  0  0           0  0  0
    9.1625   -1.1500    0.0000 C   0  0  0  0  0  0           0  0  0
    9.9792   -1.8000    0.0000 C   0  0  0  0  0  0           0  0  0
    9.8292   -1.2250    0.0000 N   0  0  0  0  0  0           0  0  0
   11.3000   -2.6875    0.0000 C   0  0  0  0  0  0           0  0  0
   12.4542   -0.2500    0.0000 C   0  0  0  0  0  0           0  0  0
   10.7167   -2.5292    0.0000 N   0  0  0  0  0  0           0  0  0
    7.4750   -0.6292    0.0000 C   0  0  0  0  0  0           0  0  0
    7.4750   -0.0667    0.0000 C   0  0  0  0  0  0           0  0  0
    9.5625   -2.2292    0.0000 O   0  0  0  0  0  0           0  0  0
   11.7250   -2.2625    0.0000 O   0  0  0  0  0  0           0  0  0
   12.4542   -0.8500    0.0000 O   0  0  0  0  0  0           0  0  0
    9.8500    0.0250    0.0000 C   0  0  0  0  0  0           0  0  0
   10.3750   -0.2667    0.0000 C   0  0  0  0  0  0           0  0  0
   10.5625   -1.9542    0.0000 C   0  0  0  0  0  0           0  0  0
   12.9667    0.0583    0.0000 O   0  0  0  0  0  0           0  0  0
    9.3375   -0.2792    0.0000 C   0  0  0  0  0  0           0  0  0
   11.4542   -3.2667    0.0000 C   0  0  0  0  0  0           0  0  0
   11.9292    0.0458    0.0000 C   0  0  0  0  0  0           0  0  0
   10.9292   -5.2750    0.0000 C   0  0  3  0  0  0           0  0  0
   10.8917    0.0375    0.0000 C   0  0  0  0  0  0           0  0  0
   10.7667   -4.6917    0.0000 C   0  0  0  0  0  0           0  0  0
   11.4125   -0.2542    0.0000 C   0  0  0  0  0  0           0  0  0
   10.5125   -5.7000    0.0000 C   0  0  0  0  0  0           0  0  0
   11.5125   -5.4167    0.0000 C   0  0  0  0  0  0           0  0  0
   11.0375   -3.6917    0.0000 C   0  0  0  0  0  0           0  0  0
   11.1917   -4.2667    0.0000 C   0  0  0  0  0  0           0  0  0
   11.6667   -6.0000    0.0000 C   0  0  0  0  0  0           0  0  0
   10.6667   -6.2750    0.0000 C   0  0  0  0  0  0           0  0  0
   11.2500   -6.4250    0.0000 C   0  0  0  0  0  0           0  0  0
  2  3  1  0     0  0
  3  1  1  0     0  0
  4  5  1  0     0  0
  5  1  1  0     0  0
  6  1  1  0     0  0
  7  8  1  0     0  0
  8  6  1  0     0  0
  9 11  1  0     0  0
 10 23  1  0     0  0
 11 19  1  0     0  0
 12  3  1  0     0  0
 13  4  1  0     0  0
 14  7  2  0     0  0
 15  9  2  0     0  0
 16 10  2  0     0  0
 17 21  1  0     0  0
 18 17  2  0     0  0
 19  7  1  0     0  0
 20 10  1  0     0  0
 21  5  1  0     0  0
 22  9  1  0     0  0
 23 27  1  0     0  0
 24 26  1  0     0  0
 25 18  1  0     0  0
 26 31  1  0     0  0
 27 25  1  0     0  0
 28 24  1  0     0  0
 29 24  1  0     0  0
 30 22  1  0     0  0
 31 30  1  0     0  0
 32 29  1  0     0  0
 33 28  1  0     0  0
 34 32  1  0     0  0
  4  2  1  0     0  0
 13 12  1  0     0  0
 33 34  1  0     0  0
M  END