
          11280715492D 1   1.00000     0.00000     0

 23 25  0     0  0            999 V2000
   12.9323  -23.9031    0.0000 O   0  0  0  0  0  0           0  0  0
   13.6450  -24.3187    0.0000 C   0  0  0  0  0  0           0  0  0
    9.3667  -21.8375    0.0000 C   0  0  3  0  0  0           0  0  0
    9.3667  -22.6625    0.0000 C   0  0  0  0  0  0           0  0  0
   10.0787  -23.0708    0.0000 C   0  0  0  0  0  0           0  0  0
   10.7907  -22.6625    0.0000 N   0  0  3  0  0  0           0  0  0
   10.7907  -21.8375    0.0000 C   0  0  0  0  0  0           0  0  0
   10.0787  -21.4208    0.0000 C   0  0  0  0  0  0           0  0  0
    8.6510  -21.4271    0.0000 C   0  0  0  0  0  0           0  0  0
    7.9377  -21.8417    0.0000 C   0  0  0  0  0  0           0  0  0
    7.1833  -21.5085    0.0000 C   0  0  0  0  0  0           0  0  0
    6.6331  -22.1232    0.0000 N   0  0  0  0  0  0           0  0  0
    7.0477  -22.8365    0.0000 C   0  0  0  0  0  0           0  0  0
    7.8541  -22.6625    0.0000 N   0  0  0  0  0  0           0  0  0
   11.5046  -23.0760    0.0000 C   0  0  0  0  0  0           0  0  0
   11.5034  -23.9010    0.0000 C   0  0  0  0  0  0           0  0  0
   12.2173  -24.3146    0.0000 C   0  0  0  0  0  0           0  0  0
   13.6395  -25.1427    0.0000 C   0  0  0  0  0  0           0  0  0
   14.3513  -25.5583    0.0000 C   0  0  0  0  0  0           0  0  0
   15.0685  -25.1488    0.0000 C   0  0  0  0  0  0           0  0  0
   15.0695  -24.3195    0.0000 C   0  0  0  0  0  0           0  0  0
   14.3571  -23.9078    0.0000 C   0  0  0  0  0  0           0  0  0
   15.7843  -23.9076    0.0000 Cl  0  0  0  0  0  0           0  0  0
  4  5  1  0     0  0
  5  6  1  0     0  0
 11 12  1  0     0  0
 12 13  1  0     0  0
 13 14  2  0     0  0
 14 10  1  0     0  0
  6  7  1  0     0  0
  6 15  1  0     0  0
  7  8  1  0     0  0
 15 16  1  0     0  0
 16 17  1  0     0  0
 17  1  1  0     0  0
  3  9  1  0     0  0
  2 18  2  0     0  0
  1  2  1  0     0  0
 18 19  1  0     0  0
  9 10  1  0     0  0
 19 20  2  0     0  0
 10 11  2  0     0  0
 20 21  1  0     0  0
  3  4  1  0     0  0
 21 22  2  0     0  0
 22  2  1  0     0  0
  3  8  1  0     0  0
 21 23  1  0     0  0
M  END