
  CDK    9/16/09,9:58

 19 22  0  0  0  0  0  0  0  0999 V2000
    3.8542  -21.7182    0.0000 C   0  0  0  0  0  0  0  0  0  0  0  0
    3.8530  -22.5460    0.0000 C   0  0  0  0  0  0  0  0  0  0  0  0
    4.5661  -22.9590    0.0000 C   0  0  0  0  0  0  0  0  0  0  0  0
    4.5641  -21.3052    0.0000 C   0  0  0  0  0  0  0  0  0  0  0  0
    5.2826  -21.7141    0.0000 C   0  0  0  0  0  0  0  0  0  0  0  0
    5.2831  -22.5414    0.0000 C   0  0  0  0  0  0  0  0  0  0  0  0
    6.0701  -22.7965    0.0000 N   0  0  0  0  0  0  0  0  0  0  0  0
    6.5560  -22.1270    0.0000 C   0  0  0  0  0  0  0  0  0  0  0  0
    6.0692  -21.4581    0.0000 N   0  0  0  0  0  0  0  0  0  0  0  0
    7.3813  -22.1263    0.0000 N   0  0  0  0  0  0  0  0  0  0  0  0
    7.7943  -22.8408    0.0000 C   0  0  0  0  0  0  0  0  0  0  0  0
    7.4629  -23.5963    0.0000 C   0  0  0  0  0  0  0  0  0  0  0  0
    8.6187  -22.9278    0.0000 C   0  0  0  0  0  0  0  0  0  0  0  0
    8.7910  -23.7349    0.0000 C   0  0  0  0  0  0  0  0  0  0  0  0
    8.0776  -24.1464    0.0000 C   0  0  0  0  0  0  0  0  0  0  0  0
    8.0783  -24.9681    0.0000 C   0  0  0  0  0  0  0  0  0  0  0  0
    8.7917  -25.3793    0.0000 C   0  0  0  0  0  0  0  0  0  0  0  0
    9.5057  -24.9627    0.0000 C   0  0  0  0  0  0  0  0  0  0  0  0
    9.5015  -24.1424    0.0000 C   0  0  0  0  0  0  0  0  0  0  0  0
  9  5  1  0  0  0  0 
  4  1  1  0  0  0  0 
  8 10  1  0  0  0  0 
  5  6  1  0  0  0  0 
 10 11  1  0  0  0  0 
 11 12  1  0  0  0  0 
  2  3  1  0  0  0  0 
 12 15  1  0  0  0  0 
 14 13  1  0  0  0  0 
 13 11  1  0  0  0  0 
  3  6  2  0  0  0  0 
  1  2  2  0  0  0  0 
 14 15  2  0  0  0  0 
  5  4  2  0  0  0  0 
 15 16  1  0  0  0  0 
  6  7  1  0  0  0  0 
 16 17  2  0  0  0  0 
  7  8  1  0  0  0  0 
 17 18  1  0  0  0  0 
  8  9  2  0  0  0  0 
 18 19  2  0  0  0  0 
 19 14  1  0  0  0  0 
M  END