
  SciTegic04091415222D

 29 32  0  0  0  0            999 V2000
   34.8088  -16.8912    0.0000 C   0  0
   34.3983  -17.6077    0.0000 C   0  0
   35.2240  -17.6050    0.0000 C   0  0
   29.0905  -16.9087    0.0000 C   0  0
   30.5191  -16.9050    0.0000 C   0  0
   29.8030  -16.4955    0.0000 C   0  0
   30.5220  -17.7364    0.0000 C   0  0
   30.5181  -19.3888    0.0000 C   0  0
   31.2369  -18.9722    0.0000 C   0  0
   31.2349  -18.1478    0.0000 C   0  0
   29.8040  -18.1480    0.0000 C   0  0
   29.0893  -17.7369    0.0000 C   0  0
   28.3781  -18.1503    0.0000 C   0  0
   28.3803  -18.9745    0.0000 O   0  0
   29.0998  -19.3837    0.0000 C   0  0
   29.8080  -18.9680    0.0000 C   0  0
   31.2297  -16.4908    0.0000 C   0  0
   31.9467  -16.9027    0.0000 N   0  0
   32.6599  -16.4878    0.0000 C   0  0
   32.6572  -15.6611    0.0000 N   0  0
   31.9354  -15.2510    0.0000 C   0  0
   31.2253  -15.6683    0.0000 N   0  0
   29.8006  -15.6697    0.0000 Cl  0  0
   31.9295  -14.4253    0.0000 N   0  0
   33.3764  -16.8984    0.0000 S   0  0
   34.0903  -16.4831    0.0000 C   0  0
   35.5207  -16.4784    0.0000 C   0  0
   36.2373  -16.8890    0.0000 N   0  0
   35.5179  -15.6526    0.0000 O   0  0
  2  1  1  0
  1  3  1  0
  4 12  2  0
  7  5  1  0
  5  6  2  0
  6  4  1  0
  7 11  1  0
 16  8  1  0
  8  9  2  0
  9 10  1  0
 10  7  2  0
 11 12  1  0
 12 13  1  0
 13 14  1  0
 14 15  1  0
 15 16  1  0
 16 11  2  0
 17 18  2  0
 18 19  1  0
 19 20  2  0
 20 21  1  0
 21 22  2  0
 22 17  1  0
  5 17  1  0
  6 23  1  0
 21 24  1  0
 19 25  1  0
 25 26  1  0
 26  1  1  0
  1 27  1  0
 27 28  1  0
 27 29  2  0
M  END