
  SciTegic02271515072D

 35 38  0  0  0  0            999 V2000
    3.2894   -4.4904    0.0000 N   0  0
    3.2894   -5.3076    0.0000 C   0  0
    3.9947   -5.7121    0.0000 N   0  0
    3.9947   -4.0777    0.0000 C   0  0
    4.7000   -4.4904    0.0000 C   0  0
    4.6999   -5.3086    0.0000 C   0  0
    5.4781   -5.5615    0.0000 S   0  0
    5.9591   -4.8996    0.0000 C   0  0
    5.4781   -4.2377    0.0000 C   0  0
    6.7763   -4.8996    0.0000 C   0  0
    7.1849   -5.6073    0.0000 C   0  0
    6.8525   -6.3495    0.0000 C   0  0
    7.4598   -6.8964    0.0000 N   0  0
    8.1675   -6.4877    0.0000 N   0  0
    7.9975   -5.6885    0.0000 C   0  0
    5.7307   -3.4605    0.0000 C   0  0
    6.5300   -3.2906    0.0000 N   0  0
    5.1839   -2.8532    0.0000 O   0  0
    7.1345   -3.8392    0.0000 O   0  0
    7.8422   -3.4307    0.0000 C   0  0
    7.6723   -2.6313    0.0000 C   0  0  2  0  0  0
    6.8596   -2.5460    0.0000 C   0  0
    3.9942   -6.5293    0.0000 C   0  0
    3.2863   -6.9375    0.0000 C   0  0
    4.7017   -6.9382    0.0000 C   0  0
    2.5823   -5.7172    0.0000 O   0  0
    2.5805   -4.0839    0.0000 C   0  0
    3.9947   -3.2605    0.0000 O   0  0
    6.0530   -6.5186    0.0000 C   0  0
    8.5427   -5.0797    0.0000 C   0  0
    9.3425   -5.2475    0.0000 F   0  0
    8.2881   -4.3032    0.0000 F   0  0
    9.1170   -4.4946    0.0000 F   0  0
    8.3741   -2.2163    0.0000 O   0  0
    7.5142   -1.8295    0.0000 C   0  0
  1  2  1  0
  1  4  1  0
  2  3  1  0
  3  6  1  0
  5  4  1  0
  5  6  2  0
  6  7  1  0
  7  8  1  0
  8  9  2  0
  9  5  1  0
  8 10  1  0
 10 11  1  0
 11 12  2  0
 12 13  1  0
 13 14  1  0
 14 15  2  0
 15 11  1  0
  9 16  1  0
 16 17  1  0
 16 18  2  0
 17 19  1  0
 19 20  1  0
 20 21  1  0
 21 22  1  0
 22 17  1  0
  3 23  1  0
 23 24  1  0
 23 25  1  0
  2 26  2  0
  1 27  1  0
  4 28  2  0
 12 29  1  0
 15 30  1  0
 30 31  1  0
 30 32  1  0
 30 33  1  0
 21 34  1  6
 21 35  1  0
M  END