
  SciTegic01161211262D

 28 29  0  0  0  0            999 V2000
    5.5629    1.9443    0.0000 C   0  0
    5.5599    1.1166    0.0000 C   0  0
    6.2691    0.7065    0.0000 N   0  0
    6.2705    2.3542    0.0000 O   0  0
    6.9931    3.5899    0.0000 C   0  0
    6.2711    3.1804    0.0000 C   0  0
    7.6734   -0.1311    0.0000 C   0  0
    5.5602    3.5948    0.0000 O   0  0
    6.9715    1.1111    0.0000 C   0  0
    7.6854    0.6903    0.0000 C   0  0  2  0  0  0
    8.4082    1.1027    0.0000 C   0  0
    8.4119    1.9284    0.0000 C   0  0
    6.9755    1.9340    0.0000 O   0  0
    8.3799   -0.5530    0.0000 C   0  0
    8.3678   -1.3758    0.0000 N   0  0
    9.0985   -0.1520    0.0000 O   0  0
    9.0744   -1.7976    0.0000 C   0  0
    9.0623   -2.6204    0.0000 C   0  0
    8.3422   -3.0166    0.0000 C   0  0
    8.3298   -3.8386    0.0000 C   0  0
    9.0369   -4.2613    0.0000 C   0  0
    9.7579   -3.8559    0.0000 C   0  0
    9.7668   -3.0352    0.0000 C   0  0
    9.0259   -5.0841    0.0000 Cl  0  0
    9.1311    2.3360    0.0000 C   0  0
    9.1352    3.1610    0.0000 C   0  0
    8.4215    3.5778    0.0000 C   0  0
    7.7021    3.1638    0.0000 C   0  0
  7 14  1  0
  2  3  1  0
 14 15  1  0
 10  7  1  6
 14 16  2  0
  3  9  1  0
 15 17  1  0
  6  8  2  0
 17 18  1  0
 18 19  2  0
  1  2  1  0
 19 20  1  0
  9 10  1  0
 20 21  2  0
  1  4  1  0
 21 22  1  0
 10 11  1  0
 22 23  2  0
 23 18  1  0
  4  6  1  0
 21 24  1  0
 11 12  1  0
 12 25  2  0
 28  5  1  0
 25 26  1  0
  9 13  2  0
 26 27  1  0
  5  6  1  0
 27 28  1  0
M  END