
  CDK    9/16/09,9:56

 32 34  0  0  0  0  0  0  0  0999 V2000
   12.8700  -22.4213    0.0000 O   0  0  0  0  0  0  0  0  0  0  0  0
   12.8666  -23.2436    0.0000 C   0  0  0  0  0  0  0  0  0  0  0  0
   12.1314  -23.6179    0.0000 C   0  0  0  0  0  0  0  0  0  0  0  0
   11.3983  -23.2415    0.0000 C   0  0  0  0  0  0  0  0  0  0  0  0
   11.2690  -22.4252    0.0000 O   0  0  0  0  0  0  0  0  0  0  0  0
   10.8136  -23.8250    0.0000 C   0  0  0  0  0  0  0  0  0  0  0  0
    9.9977  -23.6925    0.0000 O   0  0  0  0  0  0  0  0  0  0  0  0
   11.1878  -24.5601    0.0000 C   0  0  0  0  0  0  0  0  0  0  0  0
   11.9990  -24.4338    0.0000 O   0  0  0  0  0  0  0  0  0  0  0  0
   10.8114  -25.2932    0.0000 N   0  0  0  0  0  0  0  0  0  0  0  0
    9.9952  -25.4225    0.0000 C   0  0  0  0  0  0  0  0  0  0  0  0
    9.8627  -26.2383    0.0000 N   0  0  0  0  0  0  0  0  0  0  0  0
   10.6009  -26.6119    0.0000 C   0  0  0  0  0  0  0  0  0  0  0  0
   10.8126  -27.4103    0.0000 C   0  0  0  0  0  0  0  0  0  0  0  0
   10.2279  -27.9938    0.0000 N   0  0  0  0  0  0  0  0  0  0  0  0
   11.6090  -27.6254    0.0000 N   0  0  0  0  0  0  0  0  0  0  0  0
   12.1937  -27.0419    0.0000 C   0  0  0  0  0  0  0  0  0  0  0  0
   11.9810  -26.2474    0.0000 N   0  0  0  0  0  0  0  0  0  0  0  0
   11.1846  -26.0324    0.0000 C   0  0  0  0  0  0  0  0  0  0  0  0
   13.5688  -23.6761    0.0000 N   0  0  0  0  0  0  0  0  0  0  0  0
   17.1223  -22.4256    0.0000 C   0  0  0  0  0  0  0  0  0  0  0  0
   17.8367  -22.0132    0.0000 N   0  0  0  0  0  0  0  0  0  0  0  0
   16.4038  -22.0132    0.0000 C   0  0  0  0  0  0  0  0  0  0  0  0
   17.1223  -23.2546    0.0000 O   0  0  0  0  0  0  0  0  0  0  0  0
   15.6852  -22.4256    0.0000 C   0  0  0  0  0  0  0  0  0  0  0  0
   14.9667  -22.0132    0.0000 C   0  0  0  0  0  0  0  0  0  0  0  0
   14.2510  -22.4189    0.0000 C   0  0  0  0  0  0  0  0  0  0  0  0
   14.2721  -23.2471    0.0000 C   0  0  0  0  0  0  0  0  0  0  0  0
   18.5510  -22.4256    0.0000 C   0  0  0  0  0  0  0  0  0  0  0  0
   19.2653  -22.0132    0.0000 C   0  0  0  0  0  0  0  0  0  0  0  0
   19.9797  -22.4256    0.0000 C   0  0  0  0  0  0  0  0  0  0  0  0
   20.6941  -22.0132    0.0000 N   0  0  0  0  0  0  0  0  0  0  0  0
 12 13  1  0  0  0  0 
 13 14  1  0  0  0  0 
 14 15  1  0  0  0  0 
 14 16  2  0  0  0  0 
 16 17  1  0  0  0  0 
 17 18  2  0  0  0  0 
 18 19  1  0  0  0  0 
 13 19  2  0  0  0  0 
 10 19  1  0  0  0  0 
  2 20  1  0  0  0  0 
  1  2  2  0  0  0  0 
  3  2  1  1  0  0  0 
 21 22  1  0  0  0  0 
  3  4  1  0  0  0  0 
 21 23  1  0  0  0  0 
  4  5  1  6  0  0  0 
 21 24  2  0  0  0  0 
  4  6  1  0  0  0  0 
 23 25  1  0  0  0  0 
  6  7  1  6  0  0  0 
 25 26  1  0  0  0  0 
  6  8  1  0  0  0  0 
 26 27  1  0  0  0  0 
  8  9  1  0  0  0  0 
 27 28  1  0  0  0  0 
 28 20  1  0  0  0  0 
  3  9  1  0  0  0  0 
 22 29  1  0  0  0  0 
  8 10  1  1  0  0  0 
 29 30  1  0  0  0  0 
 10 11  1  0  0  0  0 
 30 31  1  0  0  0  0 
 11 12  2  0  0  0  0 
 31 32  1  0  0  0  0 
M  END