
  SciTegic12231509382D

 24 26  0  0  0  0            999 V2000
    3.6486    2.3511    0.0000 C   0  0
    4.4736    2.3511    0.0000 C   0  0
    5.2986    2.3511    0.0000 C   0  0
    4.4736    3.1761    0.0000 C   0  0
    5.1881    3.5886    0.0000 N   0  0
    4.4736    1.5261    0.0000 C   0  0
    3.8062    1.0411    0.0000 N   0  0
    4.0611    0.2565    0.0000 C   0  0
    4.8861    0.2565    0.0000 C   0  0
    5.1411    1.0411    0.0000 N   0  0
    5.3710   -0.4109    0.0000 C   0  0
    5.0355   -1.1646    0.0000 C   0  0
    5.5204   -1.8320    0.0000 C   0  0
    6.3409   -1.7458    0.0000 N   0  0
    6.6764   -0.9921    0.0000 C   0  0
    6.1915   -0.3247    0.0000 C   0  0
    3.5762   -0.4109    0.0000 C   0  0
    2.7557   -0.3247    0.0000 C   0  0
    2.2708   -0.9921    0.0000 C   0  0
    2.6064   -1.7458    0.0000 C   0  0
    2.1214   -2.4132    0.0000 Cl  0  0
    3.4268   -1.8320    0.0000 C   0  0
    3.7624   -2.5857    0.0000 O   0  0
    3.9118   -1.1646    0.0000 C   0  0
  1  2  1  0
  2  3  1  0
  2  4  1  0
  4  5  1  0
  2  6  1  0
  6 10  1  0
  6  7  2  0
  7  8  1  0
  8  9  2  0
  9 10  1  0
  9 11  1  0
 11 16  2  0
 11 12  1  0
 12 13  2  0
 13 14  1  0
 14 15  2  0
 15 16  1  0
  8 17  1  0
 17 24  2  0
 17 18  1  0
 18 19  2  0
 19 20  1  0
 20 21  1  0
 20 22  2  0
 22 23  1  0
 22 24  1  0
M  END