
  SciTegic04151115542D

 26 27  0  0  0  0            999 V2000
    3.6152  -24.3833    0.0000 C   0  0
    3.6141  -25.2107    0.0000 C   0  0
    4.3289  -25.6235    0.0000 C   0  0
    5.0453  -25.2102    0.0000 C   0  0
    5.0425  -24.3797    0.0000 C   0  0
    4.3271  -23.9705    0.0000 C   0  0
    4.3287  -26.4485    0.0000 F   0  0
    2.8993  -25.6226    0.0000 Cl  0  0
    5.7554  -23.9645    0.0000 N   0  0
    6.4714  -24.3743    0.0000 C   0  0
    7.1843  -23.9591    0.0000 C   0  0
    6.4745  -25.1993    0.0000 O   0  0
    7.9003  -24.3689    0.0000 N   0  0
    7.1812  -23.1341    0.0000 O   0  0
    8.6133  -23.9537    0.0000 C   0  0
    9.3252  -24.3644    0.0000 C   0  0
   10.0360  -23.9527    0.0000 C   0  0
   10.0371  -23.1274    0.0000 N   0  3
    9.3213  -22.7154    0.0000 C   0  0
    8.6042  -23.1287    0.0000 C   0  0
   10.8292  -23.7333    0.0000 C   0  0
   10.4417  -24.6625    0.0000 C   0  0
    8.9042  -21.9958    0.0000 C   0  0
    9.7292  -21.9958    0.0000 C   0  0
   10.4417  -22.4083    0.0000 C   0  0
   10.8583  -23.1250    0.0000 O   0  5
 11 13  1  0
  1  2  2  0
 11 14  2  0
  3  7  1  0
 13 15  1  0
 15 16  1  0
  3  4  2  0
  2  8  1  0
  5  9  1  0
  4  5  1  0
 15 20  1  0
 16 17  1  0
 17 18  1  0
 18 19  1  0
 19 20  1  0
  9 10  1  0
 17 21  1  0
  2  3  1  0
 17 22  1  0
 10 11  1  0
 19 23  1  0
  5  6  2  0
 19 24  1  0
 10 12  2  0
 18 25  1  0
  6  1  1  0
 18 26  1  0
M  CHG  2  18   1  26  -1
M  END