
  SciTegic02231516502D

 26 29  0  0  0  0            999 V2000
    6.3624   -2.5206    0.0000 N   0  0
    4.9334   -2.5206    0.0000 C   0  0
    5.6479   -2.1081    0.0000 C   0  0
    6.3624   -3.3456    0.0000 C   0  0
    4.2190   -2.1081    0.0000 C   0  0
    5.6479   -3.7581    0.0000 N   0  0
    2.9132   -1.8305    0.0000 N   0  0
    7.0768   -3.7581    0.0000 C   0  0
    9.3065   -5.8161    0.0000 N   0  0
    4.9334   -3.3456    0.0000 C   0  0
    3.4653   -2.4436    0.0000 N   0  0
    3.3257   -1.1161    0.0000 N   0  0
    7.0768   -2.1081    0.0000 C   0  0
   10.1135   -5.9876    0.0000 C   0  0
    4.1327   -1.2876    0.0000 N   0  0
    9.2202   -4.9956    0.0000 C   0  0
    9.9739   -4.6600    0.0000 S   0  0
    7.7913   -2.5206    0.0000 C   0  0
   10.5260   -5.2731    0.0000 C   0  0
    7.7913   -3.3456    0.0000 C   0  0
    5.6479   -1.2831    0.0000 O   0  0
    8.5058   -3.7581    0.0000 O   0  0
   10.4490   -6.7413    0.0000 C   0  0
    8.5058   -4.5831    0.0000 C   0  0
   11.2695   -6.8275    0.0000 C   0  0
    9.9641   -7.4087    0.0000 C   0  0
  2  3  1  0
  3  1  1  0
  4  1  1  0
  5  2  1  0
  6  4  2  0
  7 11  1  0
  8  4  1  0
  9 16  2  0
 10  6  1  0
 11  5  1  0
 12 15  1  0
 13  1  1  0
 14  9  1  0
 15  5  2  0
 16 24  1  0
 17 16  1  0
 18 13  2  0
 19 17  1  0
 20 18  1  0
 21  3  2  0
 22 20  1  0
 23 14  1  0
 24 22  1  0
 25 23  1  0
 26 23  1  0
  8 20  2  0
 10  2  2  0
 12  7  2  0
 14 19  2  0
M  END