
  CDK    9/16/09,9:59

 39 43  0  0  0  0  0  0  0  0999 V2000
   -3.2884  -21.9756    0.0000 N   0  0  0  0  0  0  0  0  0  0  0  0
   -2.5697  -21.5624    0.0000 C   0  0  0  0  0  0  0  0  0  0  0  0
   -2.5729  -20.7321    0.0000 C   0  0  0  0  0  0  0  0  0  0  0  0
   -3.2903  -20.3236    0.0000 C   0  0  0  0  0  0  0  0  0  0  0  0
   -4.0008  -21.5630    0.0000 C   0  0  0  0  0  0  0  0  0  0  0  0
   -3.9984  -20.7379    0.0000 C   0  0  0  0  0  0  0  0  0  0  0  0
   -4.7106  -20.3250    0.0000 C   0  0  0  0  0  0  0  0  0  0  0  0
   -5.4257  -20.7361    0.0000 C   0  0  0  0  0  0  0  0  0  0  0  0
   -5.4241  -21.5644    0.0000 C   0  0  0  0  0  0  0  0  0  0  0  0
   -4.7113  -21.9735    0.0000 C   0  0  0  0  0  0  0  0  0  0  0  0
   -6.1371  -21.9782    0.0000 Cl  0  0  0  0  0  0  0  0  0  0  0  0
   -3.2953  -19.4993    0.0000 N   0  0  0  0  0  0  0  0  0  0  0  0
   -2.5840  -19.0829    0.0000 C   0  0  0  0  0  0  0  0  0  0  0  0
   -1.8676  -19.4928    0.0000 C   0  0  0  0  0  0  0  0  0  0  0  0
   -1.1567  -19.0772    0.0000 C   0  0  0  0  0  0  0  0  0  0  0  0
   -1.1611  -18.2520    0.0000 C   0  0  0  0  0  0  0  0  0  0  0  0
   -1.8824  -17.8443    0.0000 C   0  0  0  0  0  0  0  0  0  0  0  0
   -2.5904  -18.2624    0.0000 C   0  0  0  0  0  0  0  0  0  0  0  0
   -0.4412  -19.4850    0.0000 N   0  0  0  0  0  0  0  0  0  0  0  0
   -1.8903  -17.0157    0.0000 C   0  0  0  0  0  0  0  0  0  0  0  0
    0.2698  -19.0694    0.0000 C   0  0  0  0  0  0  0  0  0  0  0  0
    0.9852  -19.4772    0.0000 C   0  0  0  0  0  0  0  0  0  0  0  0
    0.2652  -18.2458    0.0000 O   0  0  0  0  0  0  0  0  0  0  0  0
    0.9897  -20.3008    0.0000 N   0  0  0  0  0  0  0  0  0  0  0  0
    0.2804  -20.7126    0.0000 C   0  0  0  0  0  0  0  0  0  0  0  0
    0.2829  -21.5325    0.0000 C   0  0  0  0  0  0  0  0  0  0  0  0
    0.9965  -21.9442    0.0000 C   0  0  0  0  0  0  0  0  0  0  0  0
    1.7093  -21.5298    0.0000 C   0  0  0  0  0  0  0  0  0  0  0  0
    1.7084  -20.7036    0.0000 C   0  0  0  0  0  0  0  0  0  0  0  0
   -1.1767  -16.5947    0.0000 O   0  0  0  0  0  0  0  0  0  0  0  0
   -0.4552  -17.0021    0.0000 C   0  0  0  0  0  0  0  0  0  0  0  0
    0.2584  -16.5810    0.0000 C   0  0  0  0  0  0  0  0  0  0  0  0
   -0.4473  -17.8307    0.0000 O   0  0  0  0  0  0  0  0  0  0  0  0
    0.9798  -16.9885    0.0000 N   0  0  0  0  0  0  0  0  0  0  0  0
    0.9813  -17.8150    0.0000 C   0  0  0  0  0  0  0  0  0  0  0  0
    1.6986  -18.2224    0.0000 C   0  0  0  0  0  0  0  0  0  0  0  0
    2.4147  -17.8049    0.0000 C   0  0  0  0  0  0  0  0  0  0  0  0
    2.4089  -16.9753    0.0000 C   0  0  0  0  0  0  0  0  0  0  0  0
    1.6869  -16.5633    0.0000 C   0  0  0  0  0  0  0  0  0  0  0  0
  8  9  2  0  0  0  0 
 15 19  1  0  0  0  0 
  4  6  1  0  0  0  0 
 17 20  1  0  0  0  0 
  9 10  1  0  0  0  0 
 19 21  1  0  0  0  0 
 10  5  2  0  0  0  0 
 21 22  1  0  0  0  0 
  1  2  2  0  0  0  0 
 21 23  2  0  0  0  0 
  9 11  1  0  0  0  0 
 22 24  1  0  0  0  0 
 24 25  1  0  0  0  0 
  5  1  1  0  0  0  0 
  4 12  1  0  0  0  0 
  5  6  1  0  0  0  0 
 12 13  1  0  0  0  0 
  2  3  1  0  0  0  0 
 24 29  1  0  0  0  0 
 25 26  1  0  0  0  0 
 26 27  1  0  0  0  0 
 27 28  1  0  0  0  0 
 28 29  1  0  0  0  0 
 13 14  2  0  0  0  0 
 20 30  1  0  0  0  0 
  6  7  2  0  0  0  0 
 30 31  1  0  0  0  0 
 14 15  1  0  0  0  0 
 31 32  1  0  0  0  0 
 31 33  2  0  0  0  0 
 15 16  2  0  0  0  0 
 32 34  1  0  0  0  0 
 34 35  1  0  0  0  0 
  7  8  1  0  0  0  0 
 16 17  1  0  0  0  0 
  3  4  2  0  0  0  0 
 17 18  2  0  0  0  0 
 18 13  1  0  0  0  0 
 34 39  1  0  0  0  0 
 35 36  1  0  0  0  0 
 36 37  1  0  0  0  0 
 37 38  1  0  0  0  0 
 38 39  1  0  0  0  0 
M  END