
          11280715362D 1   1.00000     0.00000     0

 36 39  0     1  0            999 V2000
    4.4375   -5.0375    0.0000 C   0  0  1  0  0  0           0  0  0
    4.2542   -4.2292    0.0000 C   0  0  2  0  0  0           0  0  0
    5.0167   -5.6167    0.0000 N   0  0  3  0  0  0           0  0  0
    3.7292   -5.4625    0.0000 C   0  0  0  0  0  0           0  0  0
    3.4292   -4.1625    0.0000 C   0  0  3  0  0  0           0  0  0
    9.2125   -5.0250    0.0000 C   0  0  0  0  0  0           0  0  0
    5.8667   -2.6792    0.0000 C   0  0  0  0  0  0           0  0  0
    6.6792   -2.6542    0.0000 C   0  0  0  0  0  0           0  0  0
    3.0042   -3.4500    0.0000 O   0  0  0  0  0  0           0  0  0
    3.1042   -4.9167    0.0000 C   0  0  0  0  0  0           0  0  0
    9.8667   -4.7542    0.0000 O   0  0  0  0  0  0           0  0  0
    5.4667   -3.4000    0.0000 C   0  0  0  0  0  0           0  0  0
    7.0917   -3.3542    0.0000 C   0  0  0  0  0  0           0  0  0
    7.0792   -1.9417    0.0000 C   0  0  0  0  0  0           0  0  0
    5.4542   -1.9750    0.0000 C   0  0  0  0  0  0           0  0  0
    6.3417   -4.1792    0.0000 C   0  0  0  0  0  0           0  0  0
    7.2125   -4.2417    0.0000 C   0  0  0  0  0  0           0  0  0
    5.0500   -4.0167    0.0000 O   0  0  0  0  0  0           0  0  0
    3.4125   -2.7292    0.0000 C   0  0  0  0  0  0           0  0  0
    4.2375   -2.7167    0.0000 C   0  0  0  0  0  0           0  0  0
    8.3125   -2.6250    0.0000 C   0  0  0  0  0  0           0  0  0
    9.1125   -5.7292    0.0000 O   0  0  0  0  0  0           0  0  0
    7.8917   -1.9167    0.0000 C   0  0  0  0  0  0           0  0  0
    7.9125   -3.3417    0.0000 C   0  0  0  0  0  0           0  0  0
    4.6375   -2.0000    0.0000 C   0  0  0  0  0  0           0  0  0
    4.6500   -3.4167    0.0000 C   0  0  0  0  0  0           0  0  0
    5.7917   -5.3417    0.0000 C   0  0  0  0  0  0           0  0  0
    4.7500   -6.3917    0.0000 C   0  0  0  0  0  0           0  0  0
    9.1375   -2.6125    0.0000 O   0  0  0  0  0  0           0  0  0
    5.6292   -4.6000    0.0000 C   0  0  0  0  0  0           0  0  0
    8.6500   -4.5875    0.0000 C   0  0  0  0  0  0           0  0  0
    7.7125   -4.8375    0.0000 C   0  0  0  0  0  0           0  0  0
    5.1917   -7.0917    0.0000 C   0  0  0  0  0  0           0  0  0
    6.4917   -5.7792    0.0000 C   0  0  0  0  0  0           0  0  0
    6.0125   -7.1750    0.0000 C   0  0  0  0  0  0           0  0  0
    6.5917   -6.5917    0.0000 C   0  0  0  0  0  0           0  0  0
  2  1  1  0     0  0
  1  3  1  1     0  0
  4  1  1  0     0  0
  5  2  1  0     0  0
  6 31  1  0     0  0
  7 12  1  0     0  0
  8  7  1  0     0  0
  9  5  1  0     0  0
 10  4  1  0     0  0
 11  6  2  0     0  0
 12 26  2  0     0  0
 13  8  2  0     0  0
 14  8  1  0     0  0
 15 25  1  0     0  0
 16 30  1  0     0  0
 17 16  2  0     0  0
  2 18  1  6     0  0
 19  9  1  0     0  0
 20 19  1  0     0  0
 21 23  1  0     0  0
 22  6  1  0     0  0
 23 14  2  0     0  0
 24 13  1  0     0  0
 25 20  2  0     0  0
 26 20  1  0     0  0
 27  3  1  0     0  0
 28  3  1  0     0  0
 29 21  1  0     0  0
 30 18  1  0     0  0
 31 32  1  0     0  0
 32 17  1  0     0  0
 33 28  1  0     0  0
 34 27  1  0     0  0
 35 33  1  0     0  0
 36 34  1  0     0  0
  5 10  1  0     0  0
 36 35  1  0     0  0
  7 15  2  0     0  0
 24 21  2  0     0  0
M  END