
  SciTegic07221113202D

 33 34  0  0  0  0            999 V2000
    1.4143  -18.1205    0.0000 C   0  0
    2.2393  -18.1205    0.0000 C   0  0
    1.0018  -18.8350    0.0000 C   0  0
    2.6518  -18.8350    0.0000 C   0  0
    3.4768  -18.8350    0.0000 O   0  0
    2.2393  -19.5495    0.0000 O   0  0
    0.1768  -18.8350    0.0000 O   0  0
    1.4143  -19.5495    0.0000 O   0  0
    4.3861  -22.5960    0.0000 C   0  0
    3.6627  -22.1826    0.0000 N   0  0
    2.9507  -22.5960    0.0000 C   0  0
    5.8156  -22.5960    0.0000 N   0  0
    5.0922  -22.1826    0.0000 C   0  0
    4.3861  -23.4227    0.0000 O   0  0
    2.2331  -22.1826    0.0000 C   0  0
    6.5332  -22.1768    0.0000 C   0  0
    2.9507  -23.4227    0.0000 C   0  0
    5.8156  -23.4227    0.0000 C   0  0
    2.2331  -21.3559    0.0000 C   0  0
    1.5211  -22.5960    0.0000 C   0  0
    7.2452  -22.5902    0.0000 C   0  0
    6.5218  -21.3501    0.0000 C   0  0
    2.2445  -23.8361    0.0000 C   0  0
    3.6627  -23.8361    0.0000 C   0  0
    0.8035  -22.1940    0.0000 C   0  0
    1.5211  -20.9425    0.0000 C   0  0
    3.6627  -24.6628    0.0000 C   0  0
    7.9514  -22.1826    0.0000 C   0  0
    7.2452  -20.9367    0.0000 C   0  0
    2.2445  -24.6628    0.0000 C   0  0
    7.9514  -21.3559    0.0000 C   0  0
    2.9507  -25.0762    0.0000 C   0  0
    0.8035  -21.3559    0.0000 C   0  0
  1  2  2  0
  1  3  1  0
  2  4  1  0
  4  5  2  0
  4  6  1  0
  3  7  1  0
  3  8  2  0
 10  9  1  0
 11 10  1  0
 12 13  1  0
 13  9  1  0
 14  9  2  0
 15 11  1  0
 16 12  1  0
 17 11  1  0
 18 12  1  0
 19 15  2  0
 20 15  1  0
 21 16  1  0
 22 16  1  0
 23 17  1  0
 24 17  1  0
 25 20  2  0
 26 19  1  0
 27 24  1  0
 28 21  1  0
 29 22  1  0
 30 23  1  0
 31 29  1  0
 32 27  1  0
 33 25  1  0
 31 28  1  0
 32 30  1  0
 33 26  2  0
M  END