
  CDK    6/4/10,11:42

 23 22  0  0  0  0  0  0  0  0999 V2000
    7.4458    1.7795    0.0000 C   0  0  0  0  0  0  0  0  0  0  0  0
    7.4470    0.9522    0.0000 C   0  0  0  0  0  0  0  0  0  0  0  0
    6.7322    0.5393    0.0000 C   0  0  0  0  0  0  0  0  0  0  0  0
    6.0157    0.9526    0.0000 N   0  0  0  0  0  0  0  0  0  0  0  0
    6.0186    1.7832    0.0000 C   0  0  0  0  0  0  0  0  0  0  0  0
    6.7340    2.1923    0.0000 C   0  0  0  0  0  0  0  0  0  0  0  0
    8.1604    2.1919    0.0000 C   0  0  0  0  0  0  0  0  0  0  0  0
    8.1606    3.0169    0.0000 N   0  0  0  0  0  0  0  0  0  0  0  0
    8.8752    3.4292    0.0000 O   0  0  0  0  0  0  0  0  0  0  0  0
    1.7277    1.7750    0.0000 C   0  0  0  0  0  0  0  0  0  0  0  0
    1.7266    0.9477    0.0000 C   0  0  0  0  0  0  0  0  0  0  0  0
    2.4414    0.5348    0.0000 C   0  0  0  0  0  0  0  0  0  0  0  0
    3.1578    0.9481    0.0000 N   0  0  0  0  0  0  0  0  0  0  0  0
    3.1550    1.7787    0.0000 C   0  0  0  0  0  0  0  0  0  0  0  0
    2.4396    2.1878    0.0000 C   0  0  0  0  0  0  0  0  0  0  0  0
    3.8730    0.5368    0.0000 C   0  0  0  0  0  0  0  0  0  0  0  0
    4.5868    0.9504    0.0000 C   0  0  0  0  0  0  0  0  0  0  0  0
    5.3019    0.5390    0.0000 C   0  0  0  0  0  0  0  0  0  0  0  0
    1.0132    2.1874    0.0000 C   0  0  0  0  0  0  0  0  0  0  0  0
    1.0130    3.0124    0.0000 N   0  0  0  0  0  0  0  0  0  0  0  0
    0.2984    3.4247    0.0000 O   0  0  0  0  0  0  0  0  0  0  0  0
    3.3625    2.0625    0.0000 Br  0  0  0  0  0  0  0  0  0  0  0  0
    5.1750    2.0958    0.0000 Br  0  0  0  0  0  0  0  0  0  0  0  0
  3  4  2  0  0  0  0 
 10 11  2  0  0  0  0 
 11 12  1  0  0  0  0 
  4  5  1  0  0  0  0 
 12 13  2  0  0  0  0 
 13 14  1  0  0  0  0 
  5  6  2  0  0  0  0 
 14 15  2  0  0  0  0 
 15 10  1  0  0  0  0 
  6  1  1  0  0  0  0 
 13 16  1  0  0  0  0 
  1  2  2  0  0  0  0 
 16 17  1  0  0  0  0 
  1  7  1  0  0  0  0 
 17 18  1  0  0  0  0 
 10 19  1  0  0  0  0 
  7  8  2  0  0  0  0 
 19 20  2  0  0  0  0 
  2  3  1  0  0  0  0 
 20 21  1  0  0  0  0 
 18  4  1  0  0  0  0 
  8  9  1  0  0  0  0 
M  CHG  1   4   1
M  CHG  1  13   1
M  CHG  1  22  -1
M  CHG  1  23  -1
M  END