
          11280714442D 1   1.00000     0.00000     0

 21 22  0     0  0            999 V2000
    6.2000   -2.3625    0.0000 C   0  0  0  0  0  0           0  0  0
    5.5042   -2.8042    0.0000 C   0  0  0  0  0  0           0  0  0
    4.7667   -2.4250    0.0000 C   0  0  0  0  0  0           0  0  0
    6.9292   -2.7417    0.0000 O   0  0  0  0  0  0           0  0  0
    4.0792   -2.8750    0.0000 C   0  0  0  0  0  0           0  0  0
    6.1625   -1.5417    0.0000 O   0  0  0  0  0  0           0  0  0
    5.5417   -3.6292    0.0000 C   0  0  0  0  0  0           0  0  0
    9.7875   -2.6125    0.0000 N   0  0  0  0  0  0           0  0  0
    4.1167   -3.6917    0.0000 C   0  0  0  0  0  0           0  0  0
    4.8542   -4.0667    0.0000 C   0  0  0  0  0  0           0  0  0
    8.3542   -2.6792    0.0000 C   0  0  3  0  0  0           0  0  0
    7.6250   -2.3000    0.0000 C   0  0  0  0  0  0           0  0  0
    9.0542   -2.2292    0.0000 C   0  0  0  0  0  0           0  0  0
    8.3917   -3.5042    0.0000 O   0  0  0  0  0  0           0  0  0
   10.4792   -2.1667    0.0000 C   0  0  3  0  0  0           0  0  0
    3.3417   -2.4917    0.0000 C   0  0  0  0  0  0           0  0  0
    3.4167   -4.1417    0.0000 C   0  0  0  0  0  0           0  0  0
   11.2125   -2.5500    0.0000 C   0  0  0  0  0  0           0  0  0
   10.4417   -1.3417    0.0000 C   0  0  0  0  0  0           0  0  0
    2.6500   -2.9375    0.0000 C   0  0  0  0  0  0           0  0  0
    2.6875   -3.7625    0.0000 C   0  0  0  0  0  0           0  0  0
  2  1  1  0     0  0
  3  2  2  0     0  0
  4  1  1  0     0  0
  5  3  1  0     0  0
  6  1  2  0     0  0
  7  2  1  0     0  0
  8 13  1  0     0  0
  9 10  1  0     0  0
 10  7  2  0     0  0
 11 12  1  0     0  0
 12  4  1  0     0  0
 13 11  1  0     0  0
 14 11  1  0     0  0
 15  8  1  0     0  0
 16  5  1  0     0  0
 17  9  1  0     0  0
 18 15  1  0     0  0
 19 15  1  0     0  0
 20 16  2  0     0  0
 21 17  2  0     0  0
  9  5  2  0     0  0
 21 20  1  0     0  0
M  END