
  SciTegic03291108562D

 17 19  0  0  0  0            999 V2000
   -0.9579   -0.3577    0.0000 I   0  0
    0.7962   -0.5557    0.0000 S   0  0
   -0.7029    1.7618    0.0000 S   0  0
   -0.0045   -1.7886    0.0000 N   0  0
    1.5106    0.6818    0.0000 N   0  0
    0.7962    1.9193    0.0000 N   0  0
   -0.6720   -0.6326    0.0000 N   0  0
   -0.8115   -1.9602    0.0000 N   0  0
   -1.2240   -1.2457    0.0000 N   0  0
    0.0817    0.6818    0.0000 C   0  0
    0.7962    0.2693    0.0000 C   0  0
    0.0817    1.5068    0.0000 C   0  0
   -0.7029    0.4269    0.0000 C   0  0
    0.0817   -0.9682    0.0000 C   0  0
   -1.1878    1.0943    0.0000 C   0  0
    1.5106    1.5068    0.0000 C   0  0
    0.6086   -2.3407    0.0000 C   0  0
  1 13  1  0
  2 11  1  0
  2 14  1  0
  3 12  1  0
  3 15  1  0
  4  8  1  0
  4 14  1  0
  4 17  1  0
  5 11  1  0
  5 16  2  0
  6 12  2  0
  6 16  1  0
  7  9  1  0
  7 14  2  0
  8  9  2  0
 10 11  2  0
 10 12  1  0
 10 13  1  0
 13 15  2  0
M  END