
          11280714512D 1   1.00000     0.00000     0

  9  9  0     0  0            999 V2000
    1.4750   -0.8667    0.0000 C   0  0  0  0  0  0           0  0  0
    2.1917   -0.4542    0.0000 C   0  0  0  0  0  0           0  0  0
    0.7625   -0.4542    0.0000 C   0  0  0  0  0  0           0  0  0
    1.4750    0.7833    0.0000 C   0  0  0  0  0  0           0  0  0
    2.1917    0.3708    0.0000 C   0  0  0  0  0  0           0  0  0
    0.7625    0.3708    0.0000 C   0  0  0  0  0  0           0  0  0
    0.0500   -0.8667    0.0000 C   0  0  0  0  0  0           0  0  0
    2.9042   -0.8667    0.0000 C   0  0  0  0  0  0           0  0  0
   -0.6708   -0.4542    0.0000 C   0  0  0  0  0  0           0  0  0
  2  1  1  0     0  0
  3  1  2  0     0  0
  4  6  2  0     0  0
  5  2  2  0     0  0
  6  3  1  0     0  0
  7  3  1  0     0  0
  8  2  1  0     0  0
  9  7  1  0     0  0
  4  5  1  0     0  0
M  END