
  SciTegic03251510122D

 31 35  0  0  1  0            999 V2000
    3.0542    3.5761    0.0000 O   0  0  0  0  0  0  0  0  0  0  0  0
   -4.5657    0.9001    0.0000 O   0  0  0  0  0  0  0  0  0  0  0  0
   -6.1517   -3.9308    0.0000 O   0  0  0  0  0  0  0  0  0  0  0  0
    0.9547    2.3683    0.0000 N   0  0  0  0  0  0  0  0  0  0  0  0
    3.0843    1.1566    0.0000 N   0  0  0  0  0  0  0  0  0  0  0  0
    0.6426   -2.0562    0.0000 N   0  0  0  0  0  0  0  0  0  0  0  0
   -0.5946    6.0224    0.0000 N   0  0  0  0  0  0  0  0  0  0  0  0
   -6.9062   -2.6344    0.0000 N   0  0  0  0  0  0  0  0  0  0  0  0
    0.6426    0.8996    0.0000 C   0  0  0  0  0  0  0  0  0  0  0  0
   -0.6609    0.1469    0.0000 C   0  0  0  0  0  0  0  0  0  0  0  0
   -0.0501    3.4796    0.0000 C   0  0  1  0  0  0  0  0  0  0  0  0
    1.9460    0.1469    0.0000 C   0  0  0  0  0  0  0  0  0  0  0  0
   -0.6609   -1.3585    0.0000 C   0  0  0  0  0  0  0  0  0  0  0  0
    2.4601    2.5335    0.0000 C   0  0  0  0  0  0  0  0  0  0  0  0
   -3.2678   -1.3585    0.0000 C   0  0  0  0  0  0  0  0  0  0  0  0
   -1.9460    0.8996    0.0000 C   0  0  0  0  0  0  0  0  0  0  0  0
   -3.2678    0.1469    0.0000 C   0  0  0  0  0  0  0  0  0  0  0  0
    0.4098    4.9082    0.0000 C   0  0  0  0  0  0  0  0  0  0  0  0
   -1.9460   -2.0562    0.0000 C   0  0  0  0  0  0  0  0  0  0  0  0
    1.9460   -1.3585    0.0000 C   0  0  0  0  0  0  0  0  0  0  0  0
   -4.5530   -2.1335    0.0000 C   0  0  0  0  0  0  0  0  0  0  0  0
   -1.2233    3.2273    0.0000 C   0  0  0  0  0  0  0  0  0  0  0  0
   -4.6856   -3.6139    0.0000 C   0  0  0  0  0  0  0  0  0  0  0  0
   -5.9063   -1.5162    0.0000 C   0  0  0  0  0  0  0  0  0  0  0  0
    1.8769    5.2211    0.0000 C   0  0  0  0  0  0  0  0  0  0  0  0
   -0.1320    7.4493    0.0000 C   0  0  0  0  0  0  0  0  0  0  0  0
    2.3395    6.6480    0.0000 C   0  0  0  0  0  0  0  0  0  0  0  0
   -3.7863   -4.4084    0.0000 C   0  0  0  0  0  0  0  0  0  0  0  0
   -6.1525   -0.3417    0.0000 C   0  0  0  0  0  0  0  0  0  0  0  0
    1.3351    7.7621    0.0000 C   0  0  0  0  0  0  0  0  0  0  0  0
   -4.5639    2.1001    0.0000 C   0  0  0  0  0  0  0  0  0  0  0  0
  1 14  2  0  0  0  0
 17  2  1  0  0  0  0
  2 31  1  0  0  0  0
  8  3  1  0  0  0  0
  3 23  1  0  0  0  0
  9  4  1  0  0  0  0
  4 11  1  0  0  0  0
  4 14  1  0  0  0  0
  5 12  1  0  0  0  0
 14  5  1  0  0  0  0
  6 13  1  0  0  0  0
 20  6  2  0  0  0  0
  7 18  1  0  0  0  0
 26  7  2  0  0  0  0
 24  8  2  0  0  0  0
 10  9  1  0  0  0  0
  9 12  2  0  0  0  0
 10 13  2  0  0  0  0
 16 10  1  0  0  0  0
 11 18  1  0  0  0  0
 11 22  1  6  0  0  0
 12 20  1  0  0  0  0
 13 19  1  0  0  0  0
 15 17  1  0  0  0  0
 19 15  2  0  0  0  0
 15 21  1  0  0  0  0
 17 16  2  0  0  0  0
 18 25  2  0  0  0  0
 23 21  2  0  0  0  0
 21 24  1  0  0  0  0
 23 28  1  0  0  0  0
 24 29  1  0  0  0  0
 25 27  1  0  0  0  0
 30 26  1  0  0  0  0
 27 30  2  0  0  0  0
M  END