
          11280714522D 1   1.00000     0.00000     0

 51 55  0     0  0            999 V2000
    6.1667   -5.8917    0.0000 N   0  0  3  0  0  0           0  0  0
    6.9667   -7.5542    0.0000 N   0  0  0  0  0  0           0  0  0
    7.3250   -6.8167    0.0000 C   0  0  3  0  0  0           0  0  0
    6.9667   -6.0750    0.0000 C   0  0  0  0  0  0           0  0  0
    6.1667   -7.7417    0.0000 C   0  0  0  0  0  0           0  0  0
   -1.2458   -0.3125    0.0000 C   0  0  0  0  0  0           0  0  0
    5.5250   -7.2292    0.0000 C   0  0  0  0  0  0           0  0  0
    5.5250   -6.4042    0.0000 C   0  0  0  0  0  0           0  0  0
    8.1500   -6.8292    0.0000 N   0  0  0  0  0  0           0  0  0
   -1.8208    0.2708    0.0000 N   0  0  0  0  0  0           0  0  0
   -0.4208   -0.2042    0.0000 N   0  0  0  0  0  0           0  0  0
    8.5542   -7.5417    0.0000 C   0  0  0  0  0  0           0  0  0
   -2.6083    0.0708    0.0000 C   0  0  0  0  0  0           0  0  0
   -1.3958   -1.1125    0.0000 S   0  0  0  0  0  0           0  0  0
   -0.0750   -0.9417    0.0000 C   0  0  0  0  0  0           0  0  0
    5.9792   -5.0792    0.0000 C   0  0  0  0  0  0           0  0  0
   -0.6833   -1.5042    0.0000 C   0  0  0  0  0  0           0  0  0
    9.3792   -7.5500    0.0000 N   0  0  0  0  0  0           0  0  0
    5.1917   -4.8292    0.0000 C   0  0  0  0  0  0           0  0  0
    2.8417   -4.0792    0.0000 C   0  0  0  0  0  0           0  0  0
    7.4792   -5.4167    0.0000 O   0  0  0  0  0  0           0  0  0
    6.0417   -8.5542    0.0000 C   0  0  0  0  0  0           0  0  0
    8.1417   -8.2542    0.0000 O   0  0  0  0  0  0           0  0  0
    3.6250   -4.3292    0.0000 C   0  0  0  0  0  0           0  0  0
    9.7917   -8.2625    0.0000 C   0  0  0  0  0  0           0  0  0
    2.2375   -4.6417    0.0000 O   0  0  0  0  0  0           0  0  0
    5.0167   -4.0250    0.0000 O   0  0  0  0  0  0           0  0  0
    4.5875   -5.3792    0.0000 N   0  0  0  0  0  0           0  0  0
   -3.1750    0.6625    0.0000 N   0  0  0  0  0  0           0  0  0
   -2.8333   -0.7167    0.0000 N   0  0  0  0  0  0           0  0  0
    2.6542   -3.2792    0.0000 N   0  0  0  0  0  0           0  0  0
    9.3792   -8.9750    0.0000 C   0  0  0  0  0  0           0  0  0
    3.8042   -5.1292    0.0000 C   0  0  0  0  0  0           0  0  0
    4.8125   -7.6417    0.0000 C   0  0  0  0  0  0           0  0  0
    0.9000   -1.9917    0.0000 S   0  0  0  0  0  0           0  0  0
    0.7125   -1.1875    0.0000 C   0  0  0  0  0  0           0  0  0
    4.8125   -5.9917    0.0000 C   0  0  0  0  0  0           0  0  0
    9.7917   -9.6917    0.0000 C   0  0  0  0  0  0           0  0  0
   11.0375   -8.9750    0.0000 C   0  0  0  0  0  0           0  0  0
   10.6250   -8.2625    0.0000 C   0  0  0  0  0  0           0  0  0
    5.2750   -8.8542    0.0000 C   0  0  0  0  0  0           0  0  0
    6.6792   -9.0667    0.0000 C   0  0  0  0  0  0           0  0  0
    1.8750   -3.0375    0.0000 C   0  0  0  0  0  0           0  0  0
   10.6250   -9.6917    0.0000 C   0  0  0  0  0  0           0  0  0
    1.6875   -2.2292    0.0000 C   0  0  0  0  0  0           0  0  0
    9.3750  -10.4125    0.0000 C   0  0  0  0  0  0           0  0  0
    4.0917   -7.2292    0.0000 C   0  0  0  0  0  0           0  0  0
    4.0917   -6.4042    0.0000 C   0  0  0  0  0  0           0  0  0
    5.1500   -9.6750    0.0000 C   0  0  0  0  0  0           0  0  0
    6.5542   -9.8875    0.0000 C   0  0  0  0  0  0           0  0  0
    5.7917  -10.1917    0.0000 C   0  0  0  0  0  0           0  0  0
  2  3  1  0     0  0
  3  4  1  0     0  0
  4  1  1  0     0  0
  5  7  1  0     0  0
  6 11  2  0     0  0
  7  8  1  0     0  0
  8  1  1  0     0  0
  3  9  1  0     0  0
 10  6  1  0     0  0
 11 15  1  0     0  0
 12  9  1  0     0  0
 13 10  2  0     0  0
 14 17  1  0     0  0
 15 36  1  0     0  0
 16  1  1  0     0  0
 17 15  2  0     0  0
 18 12  1  0     0  0
 19 16  1  0     0  0
 20 24  1  0     0  0
 21  4  2  0     0  0
 22  5  1  0     0  0
 23 12  2  0     0  0
 24 33  1  0     0  0
 25 18  1  0     0  0
 26 20  2  0     0  0
 27 19  2  0     0  0
 28 19  1  0     0  0
 29 13  1  0     0  0
 30 13  1  0     0  0
 31 20  1  0     0  0
 32 25  2  0     0  0
 33 28  1  0     0  0
 34  7  2  0     0  0
 35 45  1  0     0  0
 36 35  1  0     0  0
 37  8  2  0     0  0
 38 32  1  0     0  0
 39 40  2  0     0  0
 40 25  1  0     0  0
 41 22  2  0     0  0
 42 22  1  0     0  0
 43 31  1  0     0  0
 44 39  1  0     0  0
 45 43  1  0     0  0
 46 38  1  0     0  0
 47 48  2  0     0  0
 48 37  1  0     0  0
 49 41  1  0     0  0
 50 42  2  0     0  0
 51 50  1  0     0  0
  2  5  2  0     0  0
 47 34  1  0     0  0
 51 49  2  0     0  0
 44 38  2  0     0  0
  6 14  1  0     0  0
M  END