
  Mrv0541 05211314572D          

 20 20  0  0  0  0            999 V2000
    1.9314   -1.7323    0.0000 C   0  0  0  0  0  0  0  0  0  0  0  0
    0.5025   -4.2073    0.0000 N   0  0  0  0  0  0  0  0  0  0  0  0
    2.6459   -1.3198    0.0000 C   0  0  0  0  0  0  0  0  0  0  0  0
    8.3617   -0.4948    0.0000 N   0  0  0  0  0  0  0  0  0  0  0  0
    1.2170   -1.3198    0.0000 O   0  0  0  0  0  0  0  0  0  0  0  0
    3.3604   -1.7323    0.0000 C   0  0  0  0  0  0  0  0  0  0  0  0
    2.6459   -0.4948    0.0000 C   0  0  0  0  0  0  0  0  0  0  0  0
    1.9314   -2.5573    0.0000 O   0  0  0  0  0  0  0  0  0  0  0  0
    4.0748   -0.4948    0.0000 C   0  0  0  0  0  0  0  0  0  0  0  0
    4.7893   -0.0823    0.0000 N   0  0  0  0  0  0  0  0  0  0  0  0
    3.3604   -0.0823    0.0000 C   0  0  0  0  0  0  0  0  0  0  0  0
    4.0748   -1.3198    0.0000 C   0  0  0  0  0  0  0  0  0  0  0  0
    1.2170   -3.7948    0.0000 C   0  0  0  0  0  0  0  0  0  0  0  0
    1.2170   -2.9698    0.0000 C   0  0  0  0  0  0  0  0  0  0  0  0
    0.5025   -5.0323    0.0000 C   0  0  0  0  0  0  0  0  0  0  0  0
   -0.2120   -3.7948    0.0000 C   0  0  0  0  0  0  0  0  0  0  0  0
    7.6472   -0.0823    0.0000 C   0  0  0  0  0  0  0  0  0  0  0  0
    5.5038   -0.4948    0.0000 C   0  0  0  0  0  0  0  0  0  0  0  0
    6.9327   -0.4948    0.0000 C   0  0  0  0  0  0  0  0  0  0  0  0
    6.2183   -0.0823    0.0000 C   0  0  0  0  0  0  0  0  0  0  0  0
  2 13  1  0  0  0  0
  3  1  1  0  0  0  0
  4 17  1  0  0  0  0
  5  1  2  0  0  0  0
  6  3  1  0  0  0  0
  7  3  2  0  0  0  0
  8  1  1  0  0  0  0
  9 11  2  0  0  0  0
 10  9  1  0  0  0  0
 11  7  1  0  0  0  0
 12  6  2  0  0  0  0
 13 14  1  0  0  0  0
 14  8  1  0  0  0  0
 15  2  1  0  0  0  0
 16  2  1  0  0  0  0
 17 19  1  0  0  0  0
 18 10  1  0  0  0  0
 19 20  1  0  0  0  0
 20 18  1  0  0  0  0
 12  9  1  0  0  0  0
M  END