
  SciTegic01161211212D

 28 29  0  0  0  0            999 V2000
    3.6387   -0.8963    0.0000 C   0  0
    2.6003   -1.4977    0.0000 O   0  0
    1.2990   -0.7500    0.0000 C   0  0
    1.2990    0.7500    0.0000 C   0  0
    0.0000    1.5000    0.0000 C   0  0
   -1.2990    0.7500    0.0000 C   0  0
   -1.2990   -0.7500    0.0000 C   0  0
    0.0000   -1.5000    0.0000 C   0  0
    0.0000   -3.0008    0.0000 N   0  0
   -1.2978   -3.7529    0.0000 C   0  0
   -1.2955   -5.2529    0.0000 C   0  0
    0.0048   -6.0009    0.0000 N   0  0
    0.0102   -7.5017    0.0000 C   0  0
    1.3123   -8.2482    0.0000 C   0  0
    2.3495   -7.6447    0.0000 O   0  0
    1.3177   -9.7490    0.0000 C   0  0
    2.6180  -10.4970    0.0000 C   0  0
    2.6204  -11.9970    0.0000 C   0  0
    1.3226  -12.7491    0.0000 C   0  0
    1.3245  -13.9491    0.0000 O   0  0
    0.0223  -12.0012    0.0000 C   0  0
    0.0199  -10.5012    0.0000 C   0  0
   -1.2778  -12.7510    0.0000 C   0  0
   -2.3171  -12.1512    0.0000 O   0  0
   -1.2779  -13.9510    0.0000 N   0  0
    1.3026   -5.2488    0.0000 C   0  0
    1.3002   -3.7488    0.0000 C   0  0
    6.3990   -6.3759    0.0000 Cl  0  0
  1  2  1  0
  2  3  1  0
  3  4  2  0
  4  5  1  0
  5  6  2  0
  6  7  1  0
  7  8  2  0
  8  3  1  0
  8  9  1  0
  9 10  1  0
 10 11  1  0
 11 12  1  0
 12 13  1  0
 13 14  1  0
 14 15  1  0
 14 16  1  0
 16 17  2  0
 17 18  1  0
 18 19  2  0
 19 20  1  0
 19 21  1  0
 21 22  2  0
 22 16  1  0
 21 23  1  0
 23 24  2  0
 23 25  1  0
 12 26  1  0
 26 27  1  0
 27  9  1  0
M  END