
  CDK    9/16/09,9:50

 34 37  0  0  0  0  0  0  0  0999 V2000
    8.8861    1.4709    0.0000 C   0  0  0  0  0  0  0  0  0  0  0  0
    8.8849    0.6435    0.0000 C   0  0  0  0  0  0  0  0  0  0  0  0
    9.5997    0.2306    0.0000 C   0  0  0  0  0  0  0  0  0  0  0  0
    9.5979    1.8836    0.0000 C   0  0  0  0  0  0  0  0  0  0  0  0
   10.3133    1.4745    0.0000 C   0  0  0  0  0  0  0  0  0  0  0  0
   10.3136    0.6435    0.0000 C   0  0  0  0  0  0  0  0  0  0  0  0
   11.1040    0.3869    0.0000 N   0  0  0  0  0  0  0  0  0  0  0  0
   11.5924    1.0594    0.0000 C   0  0  0  0  0  0  0  0  0  0  0  0
   11.1036    1.7315    0.0000 N   0  0  0  0  0  0  0  0  0  0  0  0
   12.4174    1.0597    0.0000 C   0  0  0  0  0  0  0  0  0  0  0  0
   12.8296    1.7743    0.0000 C   0  0  0  0  0  0  0  0  0  0  0  0
   13.6546    1.7746    0.0000 C   0  0  0  0  0  0  0  0  0  0  0  0
   14.0669    2.4892    0.0000 C   0  0  0  0  0  0  0  0  0  0  0  0
   11.5083   -0.3250    0.0000 C   0  0  0  0  0  0  0  0  0  0  0  0
   12.3333   -0.3308    0.0000 C   0  0  0  0  0  0  0  0  0  0  0  0
   12.7381   -1.0491    0.0000 C   0  0  0  0  0  0  0  0  0  0  0  0
   13.5623   -1.0552    0.0000 C   0  0  0  0  0  0  0  0  0  0  0  0
   13.9806   -0.3432    0.0000 C   0  0  0  0  0  0  0  0  0  0  0  0
   13.5688    0.3766    0.0000 C   0  0  0  0  0  0  0  0  0  0  0  0
   12.7459    0.3793    0.0000 C   0  0  0  0  0  0  0  0  0  0  0  0
   14.8021   -0.3475    0.0000 C   0  0  0  0  0  0  0  0  0  0  0  0
   15.2099   -1.0660    0.0000 C   0  0  0  0  0  0  0  0  0  0  0  0
   16.0341   -1.0710    0.0000 C   0  0  0  0  0  0  0  0  0  0  0  0
   16.4515   -0.3584    0.0000 C   0  0  0  0  0  0  0  0  0  0  0  0
   16.0387    0.3608    0.0000 C   0  0  0  0  0  0  0  0  0  0  0  0
   15.2158    0.3624    0.0000 C   0  0  0  0  0  0  0  0  0  0  0  0
   14.7923   -1.7815    0.0000 C   0  0  0  0  0  0  0  0  0  0  0  0
   13.9674   -1.7759    0.0000 O   0  0  0  0  0  0  0  0  0  0  0  0
   15.2000   -2.4987    0.0000 O   0  0  0  0  0  0  0  0  0  0  0  0
    8.1715    1.8832    0.0000 N   0  0  0  0  0  0  0  0  0  0  0  0
    7.4571    1.4705    0.0000 C   0  0  0  0  0  0  0  0  0  0  0  0
    6.7426    1.8829    0.0000 C   0  0  0  0  0  0  0  0  0  0  0  0
    7.4573    0.6455    0.0000 O   0  0  0  0  0  0  0  0  0  0  0  0
    6.7424    2.7079    0.0000 C   0  0  0  0  0  0  0  0  0  0  0  0
  6  7  1  0  0  0  0 
 16 17  1  0  0  0  0 
  7  8  1  0  0  0  0 
 17 18  2  0  0  0  0 
  8  9  2  0  0  0  0 
 18 19  1  0  0  0  0 
  9  5  1  0  0  0  0 
 19 20  2  0  0  0  0 
 20 15  1  0  0  0  0 
  4  1  1  0  0  0  0 
  8 10  1  0  0  0  0 
 21 22  2  0  0  0  0 
  5  6  1  0  0  0  0 
 22 23  1  0  0  0  0 
 10 11  1  0  0  0  0 
 23 24  2  0  0  0  0 
 24 25  1  0  0  0  0 
 11 12  1  0  0  0  0 
 25 26  2  0  0  0  0 
 26 21  1  0  0  0  0 
 18 21  1  0  0  0  0 
  2  3  1  0  0  0  0 
 12 13  1  0  0  0  0 
  3  6  2  0  0  0  0 
 27 28  1  0  0  0  0 
 27 29  2  0  0  0  0 
 22 27  1  0  0  0  0 
  7 14  1  0  0  0  0 
  1 30  1  0  0  0  0 
  1  2  2  0  0  0  0 
 30 31  1  0  0  0  0 
 14 15  1  0  0  0  0 
 31 32  1  0  0  0  0 
  5  4  2  0  0  0  0 
 31 33  2  0  0  0  0 
 15 16  2  0  0  0  0 
 32 34  1  0  0  0  0 
M  END