
          11280715492D 1   1.00000     0.00000     0

 25 27  0     0  0            999 V2000
    0.8071  -24.1938    0.0000 C   0  0  0  0  0  0           0  0  0
    0.8059  -25.0188    0.0000 O   0  0  0  0  0  0           0  0  0
    1.5222  -23.7823    0.0000 N   0  0  0  0  0  0           0  0  0
    2.2361  -24.1958    0.0000 C   0  0  0  0  0  0           0  0  0
    2.2319  -25.0188    0.0000 C   0  0  0  0  0  0           0  0  0
    2.9450  -25.4323    0.0000 C   0  0  0  0  0  0           0  0  0
    3.6610  -25.0207    0.0000 C   0  0  0  0  0  0           0  0  0
    3.6596  -24.1915    0.0000 C   0  0  0  0  0  0           0  0  0
    2.9459  -23.7817    0.0000 C   0  0  0  0  0  0           0  0  0
   -2.0458  -21.7208    0.0000 C   0  0  3  0  0  0           0  0  0
   -2.0458  -22.5458    0.0000 C   0  0  0  0  0  0           0  0  0
   -1.3338  -22.9542    0.0000 C   0  0  0  0  0  0           0  0  0
   -0.6218  -22.5458    0.0000 N   0  0  3  0  0  0           0  0  0
   -0.6218  -21.7208    0.0000 C   0  0  0  0  0  0           0  0  0
   -1.3338  -21.3042    0.0000 C   0  0  0  0  0  0           0  0  0
   -2.7615  -21.3104    0.0000 C   0  0  0  0  0  0           0  0  0
   -3.4748  -21.7250    0.0000 C   0  0  0  0  0  0           0  0  0
   -4.2292  -21.3918    0.0000 C   0  0  0  0  0  0           0  0  0
   -4.7794  -22.0065    0.0000 N   0  0  0  0  0  0           0  0  0
   -4.3648  -22.7198    0.0000 C   0  0  0  0  0  0           0  0  0
   -3.5584  -22.5458    0.0000 N   0  0  0  0  0  0           0  0  0
    0.0921  -22.9594    0.0000 C   0  0  0  0  0  0           0  0  0
    0.0909  -23.7844    0.0000 C   0  0  0  0  0  0           0  0  0
    4.3754  -25.4333    0.0000 O   0  0  0  0  0  0           0  0  0
    4.3753  -26.2583    0.0000 C   0  0  0  0  0  0           0  0  0
  3  4  1  0     0  0
 10 15  1  0     0  0
 11 12  1  0     0  0
 12 13  1  0     0  0
 13 14  1  0     0  0
 14 15  1  0     0  0
  7  8  2  0     0  0
 10 16  1  0     0  0
 16 17  1  0     0  0
 17 18  2  0     0  0
  8  9  1  0     0  0
  9  4  2  0     0  0
 10 11  1  0     0  0
  4  5  1  0     0  0
 18 19  1  0     0  0
 19 20  1  0     0  0
 20 21  2  0     0  0
 21 17  1  0     0  0
  1  3  1  0     0  0
 13 22  1  0     0  0
  5  6  2  0     0  0
 22 23  1  0     0  0
 23  1  1  0     0  0
  1  2  2  0     0  0
  7 24  1  0     0  0
  6  7  1  0     0  0
 24 25  1  0     0  0
M  END