
          11280714482D 1   1.00000     0.00000     0

 23 24  0     0  0            999 V2000
   -2.4083    0.4500    0.0000 N   0  0  3  0  0  0           0  0  0
   -3.1250    0.8583    0.0000 C   0  0  0  0  0  0           0  0  0
   -3.8333    0.4458    0.0000 N   0  0  0  0  0  0           0  0  0
   -2.4083   -0.3750    0.0000 C   0  0  0  0  0  0           0  0  0
   -1.6958    0.8708    0.0000 C   0  0  0  0  0  0           0  0  0
   -3.1208   -0.7917    0.0000 C   0  0  0  0  0  0           0  0  0
   -0.2708    0.8708    0.0000 N   0  0  3  0  0  0           0  0  0
   -0.9833    0.4583    0.0000 C   0  0  0  0  0  0           0  0  0
   -4.5458   -1.6167    0.0000 C   0  0  0  0  0  0           0  0  0
   -3.8333   -0.3792    0.0000 C   0  0  0  0  0  0           0  0  0
   -3.1208   -1.6167    0.0000 C   0  0  0  0  0  0           0  0  0
    1.8792    0.4708    0.0000 N   0  0  0  0  0  0           0  0  0
   -3.8333   -2.0292    0.0000 C   0  0  0  0  0  0           0  0  0
   -4.5458   -0.7917    0.0000 C   0  0  0  0  0  0           0  0  0
   -5.2583   -2.0292    0.0000 O   0  0  0  0  0  0           0  0  0
   -3.1250    1.6875    0.0000 C   0  0  0  0  0  0           0  0  0
   -4.5500    0.8500    0.0000 C   0  0  0  0  0  0           0  0  0
    0.4500    0.4625    0.0000 C   0  0  0  0  0  0           0  0  0
    1.1625    0.8750    0.0000 C   0  0  0  0  0  0           0  0  0
   -0.2708    1.6958    0.0000 C   0  0  0  0  0  0           0  0  0
   -5.2583   -2.8542    0.0000 C   0  0  0  0  0  0           0  0  0
   -3.8458    2.0958    0.0000 C   0  0  0  0  0  0           0  0  0
   -4.5583    1.6833    0.0000 C   0  0  0  0  0  0           0  0  0
  2  1  1  0     0  0
  3  2  1  0     0  0
  4  1  1  0     0  0
  5  1  1  0     0  0
  6  4  1  0     0  0
  7  8  1  0     0  0
  8  5  1  0     0  0
  9 13  1  0     0  0
 10  6  2  0     0  0
 11  6  1  0     0  0
 12 19  1  0     0  0
 13 11  2  0     0  0
 14 10  1  0     0  0
 15  9  1  0     0  0
 16  2  2  0     0  0
 17  3  2  0     0  0
 18  7  1  0     0  0
 19 18  1  0     0  0
 20  7  1  0     0  0
 21 15  1  0     0  0
 22 16  1  0     0  0
 23 22  2  0     0  0
 14  9  2  0     0  0
 17 23  1  0     0  0
M  END