
  SciTegic09141214152D

 33 35  0  0  0  0            999 V2000
    1.8750   -3.8667    0.0000 N   0  0
    1.9625   -3.0500    0.0000 C   0  0
    1.2042   -2.7167    0.0000 N   0  0
    1.0667   -4.0417    0.0000 C   0  0
    0.6542   -3.3292    0.0000 C   0  0
    0.7292   -4.7917    0.0000 C   0  0
    2.6792   -2.6375    0.0000 C   0  0
   10.5375   -3.0125    0.0000 C   0  0
   11.2542   -2.5917    0.0000 C   0  0
    9.8250   -2.6042    0.0000 C   0  0
    2.6792   -1.8125    0.0000 C   0  0
    3.3917   -3.0500    0.0000 C   0  0
   11.2417   -1.7667    0.0000 C   0  0
    4.8167   -1.3917    0.0000 O   0  0
    4.1042   -1.8042    0.0000 C   0  0
    9.8167   -1.7792    0.0000 C   0  0
    6.2500   -1.3875    0.0000 C   0  0  1  0  0  0
    5.5375   -1.8000    0.0000 C   0  0
    3.3917   -1.3917    0.0000 C   0  0
    4.1042   -2.6375    0.0000 C   0  0
   10.5292   -1.3625    0.0000 C   0  0
   10.5417   -3.8375    0.0000 O   0  0
    7.6792   -1.3792    0.0000 N   0  0
   11.9667   -3.0042    0.0000 O   0  0
    6.2417   -0.5625    0.0000 O   0  0
   -0.0875   -4.8792    0.0000 C   0  0
    1.2167   -5.4625    0.0000 C   0  0
    0.5167   -5.5917    0.0000 C   0  0
    6.9667   -1.7917    0.0000 C   0  0
    8.3917   -1.7917    0.0000 C   0  0
    9.1042   -1.3750    0.0000 C   0  0
    9.8292   -4.2542    0.0000 C   0  0
   11.9750   -3.8292    0.0000 C   0  0
  2  1  2  0
  3  2  1  0
  4  1  1  0
  5  4  2  0
  6  4  1  0
  7  2  1  0
  8 10  1  0
  9 13  1  0
 10 16  2  0
 11  7  2  0
 12  7  1  0
 13 21  2  0
 14 15  1  0
 15 20  1  0
 16 31  1  0
 17 18  1  0
 18 14  1  0
 19 11  1  0
 20 12  2  0
 21 16  1  0
 22  8  1  0
 23 29  1  0
 24  9  1  0
 17 25  1  1
 26  6  1  0
 27  6  1  0
 28  6  1  0
 29 17  1  0
 30 23  1  0
 31 30  1  0
 32 22  1  0
 33 24  1  0
  3  5  1  0
 19 15  2  0
  8  9  2  0
M  END