
  SciTegic01091215432D

 26 28  0  0  0  0            999 V2000
    1.1587   -6.4022    0.0000 S   0  0
    0.7489   -7.1182    0.0000 O   0  0
    1.5739   -7.1151    0.0000 O   0  0
   -3.1264   -6.4166    0.0000 C   0  0
   -3.1276   -7.2440    0.0000 C   0  0
   -2.4128   -7.6569    0.0000 C   0  0
   -1.6963   -7.2435    0.0000 C   0  0
   -1.6992   -6.4130    0.0000 C   0  0
   -2.4146   -6.0039    0.0000 C   0  0
   -0.9863   -5.9978    0.0000 C   0  0
   -0.2703   -6.4076    0.0000 C   0  0
    0.4427   -5.9924    0.0000 N   0  0
    1.8716   -5.9870    0.0000 C   0  0
    2.5836   -6.3986    0.0000 C   0  0
    3.2960   -5.9841    0.0000 C   0  0
    3.2933   -5.1582    0.0000 C   0  0
    2.5723   -4.7486    0.0000 C   0  0
    1.8628   -5.1655    0.0000 C   0  0
    4.0057   -4.7421    0.0000 Cl  0  0
   -2.4130   -8.4819    0.0000 C   0  0
   -3.1275   -8.8942    0.0000 C   0  0
   -3.8419   -8.4815    0.0000 C   0  0
   -3.9306   -7.6611    0.0000 N   0  0
   -4.7375   -7.4893    0.0000 N   0  0
   -5.1502   -8.2038    0.0000 N   0  0
   -4.5982   -8.8169    0.0000 N   0  0
  1 13  1  0
  2  1  2  0
 13 14  2  0
  7  8  1  0
 14 15  1  0
  4  5  2  0
 15 16  2  0
  8  9  2  0
 16 17  1  0
  9  4  1  0
 17 18  2  0
 18 13  1  0
  1  3  2  0
 16 19  1  0
  8 10  1  0
  6 20  1  0
  5  6  1  0
 20 21  1  0
 10 11  1  0
 21 22  1  0
 22 23  2  0
 11 12  1  0
 12  1  1  0
  6  7  2  0
 23 24  1  0
 24 25  1  0
 25 26  2  0
 26 22  1  0
M  END