
  SciTegic01161211212D

164155  0  0  0  0            999 V2000
   -3.9420   -1.6074    0.0000 O   0  0
   -4.6565   -2.0199    0.0000 C   0  0  1  0  0  0
   -3.7277   -3.3812    0.0000 O   0  0
   -5.3709   -3.2574    0.0000 C   0  0  2  0  0  0
   -5.3709   -4.0824    0.0000 O   0  0
   -6.0854   -2.8449    0.0000 C   0  0  2  0  0  0
   -6.7999   -3.2574    0.0000 O   0  0
   -6.0854   -2.0199    0.0000 C   0  0  2  0  0  0
   -5.3709   -1.6074    0.0000 O   0  0
   -6.7999   -1.6074    0.0000 C   0  0
   -6.7999   -0.7824    0.0000 O   0  0
   -7.5144   -0.3699    0.0000 S   0  0
   -7.9269   -1.0844    0.0000 O   0  0
   -7.1019    0.3445    0.0000 O   0  0
   -8.2287    0.0426    0.0000 O   0  5
   -7.5144   -2.8449    0.0000 S   0  0
   -7.9269   -3.5594    0.0000 O   0  0
   -7.1019   -2.1305    0.0000 O   0  0
   -8.2287   -2.4324    0.0000 O   0  5
   -6.0854   -4.4949    0.0000 S   0  0
   -6.4979   -3.7805    0.0000 O   0  0
   -5.6729   -5.2094    0.0000 O   0  0
   -6.7999   -4.9074    0.0000 O   0  5
   -3.7277   -4.4537    0.0000 C   0  0  2  0  0  0
   -3.0132   -4.8662    0.0000 C   0  0  2  0  0  0
   -2.2987   -4.4537    0.0000 O   0  0
   -3.0132   -5.6912    0.0000 C   0  0  2  0  0  0
   -2.2987   -6.1036    0.0000 O   0  0
   -3.7277   -6.1036    0.0000 C   0  0  2  0  0  0
   -3.7277   -6.9286    0.0000 O   0  0
   -4.4421   -4.8662    0.0000 O   0  0
   -5.3709   -6.2273    0.0000 C   0  0
   -6.0854   -5.8148    0.0000 O   0  0
   -6.7999   -6.2273    0.0000 S   0  0
   -7.2124   -5.5130    0.0000 O   0  0
   -6.3874   -6.9418    0.0000 O   0  0
   -7.5144   -6.6398    0.0000 O   0  5
   -4.4421   -7.3411    0.0000 S   0  0
   -4.0296   -8.0556    0.0000 O   0  0
   -4.8546   -6.6266    0.0000 O   0  0
   -5.1566   -7.7536    0.0000 O   0  5
   -2.2987   -3.6287    0.0000 S   0  0
   -3.1237   -3.6287    0.0000 O   0  0
   -1.4737   -3.6287    0.0000 O   0  0
   -2.2987   -2.8037    0.0000 O   0  5
   -0.8698   -6.1036    0.0000 C   0  0  2  0  0  0
   -0.8698   -6.9286    0.0000 O   0  0
   -0.1553   -5.6912    0.0000 C   0  0  2  0  0  0
    0.5591   -6.1036    0.0000 O   0  0
   -0.1553   -4.8662    0.0000 C   0  0  2  0  0  0
    0.5591   -4.4537    0.0000 O   0  0
   -0.8698   -4.4537    0.0000 C   0  0  2  0  0  0
   -1.5843   -4.8662    0.0000 O   0  0
   -0.8698   -3.3812    0.0000 C   0  0
   -0.1553   -2.9687    0.0000 O   0  0
   -0.1553   -2.1437    0.0000 S   0  0
   -0.9803   -2.1437    0.0000 O   0  0
    0.6696   -2.1437    0.0000 O   0  0
   -0.1553   -1.3187    0.0000 O   0  5
    0.5591   -3.6287    0.0000 S   0  0
   -0.2658   -3.6287    0.0000 O   0  0
    1.3841   -3.6287    0.0000 O   0  0
    0.5591   -2.8037    0.0000 O   0  5
   -0.1553   -7.3411    0.0000 S   0  0
    0.2571   -6.6266    0.0000 O   0  0
   -0.5678   -8.0556    0.0000 O   0  0
    0.5591   -7.7536    0.0000 O   0  5
    1.9880   -6.1036    0.0000 C   0  0  2  0  0  0
    1.9880   -6.9286    0.0000 O   0  0
    2.7025   -5.6912    0.0000 C   0  0  2  0  0  0
    3.6313   -6.2273    0.0000 O   0  0
    2.7025   -4.8662    0.0000 C   0  0  2  0  0  0
    3.4169   -4.4537    0.0000 O   0  0
    1.9880   -4.4537    0.0000 C   0  0  2  0  0  0
    1.2735   -4.8662    0.0000 O   0  0
    1.9880   -3.3812    0.0000 C   0  0
    2.7025   -2.9687    0.0000 O   0  0
    2.7025   -2.1437    0.0000 S   0  0
    1.8775   -2.1437    0.0000 O   0  0
    3.5275   -2.1437    0.0000 O   0  0
    3.4169   -3.6287    0.0000 S   0  0
    4.2419   -3.6287    0.0000 O   0  0
    2.5919   -3.6287    0.0000 O   0  0
    3.4169   -2.8037    0.0000 O   0  5
    2.7025   -7.3411    0.0000 S   0  0
    3.1150   -6.6266    0.0000 O   0  0
    2.2900   -8.0556    0.0000 O   0  0
    3.4169   -7.7536    0.0000 O   0  5
    5.2711   -6.3908    0.0000 C   0  0  2  0  0  0
    5.1278   -7.2033    0.0000 O   0  0
    6.0463   -6.1087    0.0000 C   0  0  2  0  0  0
    6.6783   -6.6390    0.0000 O   0  0
    6.1896   -5.2963    0.0000 C   0  0  2  0  0  0
    7.0021   -5.1530    0.0000 O   0  0
    5.5576   -4.7660    0.0000 C   0  0  2  0  0  0
    4.7824   -5.0482    0.0000 O   0  0
    5.5576   -3.9410    0.0000 C   0  0
    6.1896   -3.4107    0.0000 O   0  0
    6.0463   -2.5982    0.0000 S   0  0
    6.8658   -2.5024    0.0000 O   0  0
    5.2213   -2.5982    0.0000 O   0  0
    5.9984   -1.7746    0.0000 O   0  5
    7.2842   -4.3778    0.0000 S   0  0
    6.5698   -3.9653    0.0000 O   0  0
    8.0417   -4.7046    0.0000 O   0  0
    7.6545   -3.6405    0.0000 O   0  5
    7.4536   -6.3568    0.0000 S   0  0
    7.1714   -5.5816    0.0000 O   0  0
    7.7357   -7.1320    0.0000 O   0  0
    8.2287   -6.0746    0.0000 O   0  5
    5.7598   -7.7336    0.0000 S   0  0
    6.2901   -7.1016    0.0000 O   0  0
    5.2295   -8.3656    0.0000 O   0  0
    6.3918   -8.2639    0.0000 O   0  5
   -3.9420   -0.7824    0.0000 C   0  0
   -3.2275   -0.3699    0.0000 C   0  0
   -3.2275    0.4551    0.0000 C   0  0
   -2.5131    0.8676    0.0000 C   0  0
   -2.5131    1.6926    0.0000 C   0  0
   -1.7986    2.1051    0.0000 C   0  0
   -1.7986    2.9300    0.0000 C   0  0
   -1.0841    3.3425    0.0000 C   0  0
   -1.0841    4.1675    0.0000 N   0  0
   -1.7516    4.6524    0.0000 N   0  0
   -1.4966    5.4370    0.0000 N   0  0
   -0.6716    5.4370    0.0000 C   0  0
   -0.4167    4.6524    0.0000 C   0  0
   -0.1867    6.1044    0.0000 C   0  0
   -0.5223    6.8581    0.0000 C   0  0
   -0.0373    7.5256    0.0000 C   0  0
    0.7830    7.4393    0.0000 C   0  0
    1.1186    6.6856    0.0000 C   0  0
    0.6337    6.0182    0.0000 C   0  0
   -1.5843   -5.6912    0.0000 C   0  0  2  0  0  0
   -1.5843   -6.5161    0.0000 H   0  0
    1.2735   -5.6912    0.0000 C   0  0  2  0  0  0
    1.2735   -6.5161    0.0000 H   0  0
    4.6391   -5.8605    0.0000 C   0  0  2  0  0  0
    4.6391   -6.6855    0.0000 H   0  0
   -4.4421   -5.6912    0.0000 C   0  0  2  0  0  0
   -5.0255   -5.1078    0.0000 H   0  0
   -0.3729    8.2793    0.0000 C   0  0
   -1.1935    8.3656    0.0000 C   0  0
   -1.6785    7.6981    0.0000 C   0  0
   -1.3429    6.9444    0.0000 C   0  0
    2.7025   -1.3187    0.0000 O   0  5
  -10.2500   -1.1250    0.0000 Na  0  3
   -9.0000   -2.6250    0.0000 Na  0  3
   -7.9375   -4.8438    0.0000 Na  0  3
   -8.0938   -7.3750    0.0000 Na  0  3
   -5.6875   -8.4062    0.0000 Na  0  3
   -0.9063   -8.6250    0.0000 Na  0  3
    2.5000   -8.7500    0.0000 Na  0  3
    5.9062   -9.1250    0.0000 Na  0  3
    8.5937   -6.4687    0.0000 Na  0  3
    8.2187   -3.6875    0.0000 Na  0  3
    5.1250   -1.8125    0.0000 Na  0  3
    4.0938   -2.9375    0.0000 Na  0  3
    1.8125   -1.6250    0.0000 Na  0  3
    1.5000   -2.9375    0.0000 Na  0  3
   -0.9063   -0.8125    0.0000 Na  0  3
   -2.8438   -2.1875    0.0000 Na  0  3
   -4.6565   -2.8449    0.0000 C   0  0  2  0  0  0
   -3.9420   -2.4324    0.0000 H   0  0
  2  1  1  6
  2163  1  0
163  3  1  0
163  4  1  0
  4  5  1  1
  4  6  1  0
  6  7  1  6
  6  8  1  0
  8  9  1  0
  8 10  1  1
 10 11  1  0
  2  9  1  0
 12 13  2  0
 12 14  2  0
 12 15  1  0
 11 12  1  0
 16 17  2  0
 16 18  2  0
 16 19  1  0
  7 16  1  0
 20 21  2  0
 20 22  2  0
 20 23  1  0
  5 20  1  0
 24 25  1  0
 25 26  1  1
 25 27  1  0
 27 28  1  1
 27 29  1  0
 29 30  1  6
 29140  1  0
140 31  1  0
140 32  1  0
 32 33  1  0
 24 31  1  0
 34 35  2  0
 34 36  2  0
 34 37  1  0
 33 34  1  0
 38 39  2  0
 38 40  2  0
 38 41  1  0
 30 38  1  0
 42 43  2  0
 42 44  2  0
 42 45  1  0
 26 42  1  0
134 46  1  0
 46 47  1  6
 46 48  1  0
 48 49  1  6
 48 50  1  0
 50 51  1  1
 50 52  1  0
 52 53  1  0
 52 54  1  6
 54 55  1  0
134 53  1  0
 56 57  2  0
 56 58  2  0
 56 59  1  0
 55 56  1  0
 60 61  2  0
 60 62  2  0
 60 63  1  0
 51 60  1  0
 64 65  2  0
 64 66  2  0
 64 67  1  0
 47 64  1  0
136 68  1  0
 68 69  1  6
 68 70  1  0
 70 71  1  6
 70 72  1  0
 72 73  1  1
 72 74  1  0
 74 75  1  0
 74 76  1  6
 76 77  1  0
136 75  1  0
 78 79  2  0
 78 80  2  0
 78146  1  0
 77 78  1  0
 81 82  2  0
 81 83  2  0
 81 84  1  0
 73 81  1  0
 85 86  2  0
 85 87  2  0
 85 88  1  0
 69 85  1  0
138 89  1  0
 89 90  1  6
 89 91  1  0
 91 92  1  6
 91 93  1  0
 93 94  1  1
 93 95  1  0
 95 96  1  0
 95 97  1  6
 97 98  1  0
138 96  1  0
 99100  2  0
 99101  2  0
 99102  1  0
 98 99  1  0
103104  2  0
103105  2  0
103106  1  0
 94103  1  0
107108  2  0
107109  2  0
107110  1  0
 92107  1  0
111112  2  0
111113  2  0
111114  1  0
 90111  1  0
138 71  1  0
136 49  1  0
134 28  1  0
 24  3  1  6
115116  1  0
116117  1  0
117118  1  0
118119  1  0
119120  1  0
120121  1  0
121122  1  0
123124  1  0
124125  2  0
125126  1  0
126127  2  0
123127  1  0
128129  1  0
129130  2  0
130131  1  0
131132  2  0
132133  1  0
128133  2  0
126128  1  0
122123  1  0
  1115  1  0
134135  1  6
136137  1  6
138139  1  6
140141  1  6
130142  1  0
142143  2  0
143144  1  0
144145  2  0
145129  1  0
163164  1  6
M  CHG  8  15  -1  19  -1  23  -1  37  -1  41  -1  45  -1  59  -1  63  -1
M  CHG  8  67  -1  84  -1  88  -1 102  -1 106  -1 110  -1 114  -1 146  -1
M  CHG  8 147   1 148   1 149   1 150   1 151   1 152   1 153   1 154   1
M  CHG  8 155   1 156   1 157   1 158   1 159   1 160   1 161   1 162   1
M  END