
          11280714462D 1   1.00000     0.00000     0

 21 22  0     0  0            999 V2000
   -2.4833   -0.9167    0.0000 N   0  0  3  0  0  0           0  0  0
   -3.0708   -0.8167    0.0000 N   0  0  0  0  0  0           0  0  0
   -2.7458   -0.0792    0.0000 C   0  0  0  0  0  0           0  0  0
   -2.2208   -0.3792    0.0000 C   0  0  0  0  0  0           0  0  0
   -2.9458   -1.7667    0.0000 C   0  0  0  0  0  0           0  0  0
   -2.4083   -1.5167    0.0000 C   0  0  0  0  0  0           0  0  0
   -2.7458    0.5333    0.0000 C   0  0  0  0  0  0           0  0  0
   -2.2208    0.8333    0.0000 O   0  0  0  0  0  0           0  0  0
   -3.3583   -1.3417    0.0000 C   0  0  0  0  0  0           0  0  0
   -0.0833    0.2833    0.0000 N   0  0  0  0  0  0           0  0  0
   -1.1125    0.6958    0.0000 C   0  0  3  0  0  0           0  0  0
   -1.6958    0.5333    0.0000 C   0  0  0  0  0  0           0  0  0
   -0.6833    0.2833    0.0000 C   0  0  0  0  0  0           0  0  0
   -0.9708    1.2833    0.0000 O   0  0  0  0  0  0           0  0  0
   -3.2708   -0.3792    0.0000 C   0  0  0  0  0  0           0  0  0
    0.2750   -0.2042    0.0000 C   0  0  3  0  0  0           0  0  0
   -3.2708    0.8333    0.0000 C   0  0  0  0  0  0           0  0  0
    0.0292   -0.7542    0.0000 C   0  0  0  0  0  0           0  0  0
    0.8750   -0.1417    0.0000 C   0  0  0  0  0  0           0  0  0
   -3.7875   -0.0792    0.0000 C   0  0  0  0  0  0           0  0  0
   -3.7875    0.5208    0.0000 C   0  0  0  0  0  0           0  0  0
  2  1  1  0     0  0
  3  4  1  0     0  0
  4  1  1  0     0  0
  5  6  2  0     0  0
  6  1  1  0     0  0
  7  3  1  0     0  0
  8  7  1  0     0  0
  9  2  2  0     0  0
 10 13  1  0     0  0
 11 12  1  0     0  0
 12  8  1  0     0  0
 13 11  1  0     0  0
 14 11  1  0     0  0
 15  3  2  0     0  0
 16 10  1  0     0  0
 17  7  2  0     0  0
 18 16  1  0     0  0
 19 16  1  0     0  0
 20 15  1  0     0  0
 21 20  2  0     0  0
  5  9  1  0     0  0
 21 17  1  0     0  0
M  END