
  SciTegic09261414532D

 37 40  0  0  0  0            999 V2000
    7.0881  -13.1544    0.0000 C   0  0
    7.0889  -13.9812    0.0000 C   0  0
    7.8042  -14.3920    0.0000 N   0  0
    8.5192  -13.9773    0.0000 C   0  0
    8.5144  -13.1474    0.0000 C   0  0
    7.7985  -12.7402    0.0000 C   0  0
    9.2353  -14.3871    0.0000 C   0  0
    9.2263  -12.7306    0.0000 C   0  0  1  0  0  0
    9.9433  -13.1387    0.0000 C   0  0
   10.6552  -12.7219    0.0000 O   0  0
    9.9483  -13.9636    0.0000 O   0  0
    9.2213  -11.9056    0.0000 O   0  0
    9.9333  -11.4887    0.0000 C   0  0
    9.9282  -10.6638    0.0000 C   0  0
   10.6502  -11.8969    0.0000 C   0  0
   10.6456  -11.0705    0.0000 C   0  0
    7.7942  -11.9152    0.0000 C   0  0
    8.5075  -11.5047    0.0000 C   0  0
    7.0792  -11.5145    0.0000 C   0  0
    7.0717  -10.6916    0.0000 C   0  0
    6.3751  -14.3947    0.0000 C   0  0
    6.3727  -12.7437    0.0000 C   0  0
    5.6636  -13.9819    0.0000 C   0  0
    4.9502  -14.3948    0.0000 C   0  0
    4.9510  -15.2207    0.0000 C   0  0
    5.6711  -15.6318    0.0000 C   0  0
    6.3815  -15.2166    0.0000 C   0  0
    4.2377  -15.6352    0.0000 C   0  0
    7.7917  -10.2719    0.0000 C   0  0
    8.5000  -10.6830    0.0000 C   0  0
    7.7898   -9.4551    0.0000 Cl  0  0
    3.4759  -15.2986    0.0000 C   0  0
    2.9204  -15.9191    0.0000 N   0  0
    3.3389  -16.6392    0.0000 O   0  0
    4.1530  -16.4637    0.0000 C   0  0
    4.7736  -17.0192    0.0000 C   0  0
    3.3004  -14.4844    0.0000 C   0  0
  1  2  2  0
  2  3  1  0
  3  4  2  0
  4  5  1  0
  5  6  2  0
  6  1  1  0
  4  7  1  0
  5  8  1  0
  8  9  1  0
  9 10  1  0
  9 11  2  0
  8 12  1  6
 12 13  1  0
 13 14  1  0
 13 15  1  0
 13 16  1  0
  6 17  1  0
 17 18  2  0
 18 30  1  0
 20 19  2  0
 19 17  1  0
 20 29  1  0
  2 21  1  0
  1 22  1  0
 21 23  2  0
 23 24  1  0
 24 25  2  0
 25 26  1  0
 26 27  2  0
 27 21  1  0
 25 28  1  0
 29 30  2  0
 29 31  1  0
 28 32  1  0
 28 35  2  0
 32 33  2  0
 33 34  1  0
 34 35  1  0
 35 36  1  0
 32 37  1  0
M  END