
          11280715452D 1   1.00000     0.00000     0

 37 37  0     1  0            999 V2000
    1.1375    0.0458    0.0000 C   0  0  0  0  0  0           0  0  0
   -1.0083    0.4458    0.0000 C   0  0  0  0  0  0           0  0  0
   -0.2958    0.0333    0.0000 N   0  0  0  0  0  0           0  0  0
    1.8542    0.4500    0.0000 N   0  0  3  0  0  0           0  0  0
    3.2792    0.4583    0.0000 C   0  0  0  0  0  0           0  0  0
    0.4167    0.4500    0.0000 C   0  0  1  0  0  0           0  0  0
    2.5625    0.0458    0.0000 C   0  0  2  0  0  0           0  0  0
   -1.7208    0.0250    0.0000 C   0  0  2  0  0  0           0  0  0
   -2.4375    0.4458    0.0000 C   0  0  3  0  0  0           0  0  0
    3.9917    0.0500    0.0000 C   0  0  0  0  0  0           0  0  0
    4.7042    0.4625    0.0000 C   0  0  0  0  0  0           0  0  0
    0.4167    1.2750    0.0000 C   0  0  3  0  0  0           0  0  0
    1.1375   -0.7875    0.0000 O   0  0  0  0  0  0           0  0  0
   -1.0083    1.2625    0.0000 O   0  0  0  0  0  0           0  0  0
   -1.7208   -0.8000    0.0000 N   0  0  3  0  0  0           0  0  0
   -3.1583    0.0250    0.0000 C   0  0  0  0  0  0           0  0  0
    4.7042    1.2875    0.0000 O   0  0  0  0  0  0           0  0  0
    2.5667   -0.7792    0.0000 C   0  0  3  0  0  0           0  0  0
    5.4167    0.0500    0.0000 O   0  0  0  0  0  0           0  0  0
    1.8417    1.2750    0.0000 C   0  0  0  0  0  0           0  0  0
   -2.0333    1.1500    0.0000 C   0  0  0  0  0  0           0  0  0
   -2.8583    1.1500    0.0000 C   0  0  0  0  0  0           0  0  0
    3.9917   -0.7750    0.0000 C   0  0  0  0  0  0           0  0  0
   -3.1458   -2.4542    0.0000 O   0  0  0  0  0  0           0  0  0
    1.1292    1.6875    0.0000 C   0  0  0  0  0  0           0  0  0
   -0.3000    1.6875    0.0000 C   0  0  0  0  0  0           0  0  0
    1.2167    1.0625    0.0000 C   0  0  0  0  0  0           0  0  0
   -2.4333   -1.2125    0.0000 C   0  0  0  0  0  0           0  0  0
   -1.0083   -1.2125    0.0000 C   0  0  0  0  0  0           0  0  0
   -3.1625   -0.7875    0.0000 C   0  0  0  0  0  0           0  0  0
   -3.8708    0.4500    0.0000 C   0  0  0  0  0  0           0  0  0
   -2.4333   -2.0375    0.0000 C   0  0  0  0  0  0           0  0  0
    1.8542   -1.2000    0.0000 C   0  0  0  0  0  0           0  0  0
    3.2792   -1.1917    0.0000 C   0  0  0  0  0  0           0  0  0
   -4.5833    0.0458    0.0000 C   0  0  0  0  0  0           0  0  0
   -3.8708   -1.2000    0.0000 C   0  0  0  0  0  0           0  0  0
   -4.5958   -0.7792    0.0000 C   0  0  0  0  0  0           0  0  0
  2  3  1  0     0  0
  3  6  1  0     0  0
  4  1  1  0     0  0
  5  7  1  0     0  0
  6  1  1  0     0  0
  7  4  1  0     0  0
  8  2  1  0     0  0
  9  8  1  0     0  0
 10  5  2  0     0  0
 11 10  1  0     0  0
  6 12  1  1     0  0
 13  1  2  0     0  0
 14  2  2  0     0  0
  8 15  1  1     0  0
 16  9  1  0     0  0
 17 11  2  0     0  0
  7 18  1  6     0  0
 19 11  1  0     0  0
 20  4  1  0     0  0
 21  9  1  0     0  0
 22  9  1  0     0  0
 23 10  1  0     0  0
 24 32  1  0     0  0
 25 12  1  0     0  0
 26 12  1  0     0  0
 27 12  1  0     0  0
 28 15  1  0     0  0
 29 15  1  0     0  0
 30 16  1  0     0  0
 31 16  2  0     0  0
 32 28  1  0     0  0
 33 18  1  0     0  0
 34 18  1  0     0  0
 35 31  1  0     0  0
 36 30  2  0     0  0
 37 35  2  0     0  0
 36 37  1  0     0  0
M  END