
  SciTegic11201309402D

 85 88  0  0  1  0            999 V2000
   11.2250   -9.4375    0.0000 N   0  0
   12.0125   -8.1167    0.0000 C   0  0
    4.4875   -9.9417    0.0000 C   0  0
    2.9917   -9.9417    0.0000 N   0  0
    2.2417   -9.5125    0.0000 C   0  0
   -0.0083   -9.9417    0.0000 C   0  0
   11.9542   -8.9792    0.0000 C   0  0  1  0  0  0
   10.6375   -6.2875    0.0000 C   0  0
    5.2375   -9.5125    0.0000 N   0  0
    0.7417   -9.5125    0.0000 N   0  0
    3.7417   -9.5125    0.0000 C   0  0  1  0  0  0
   11.2917   -7.6292    0.0000 N   0  0
   10.6917   -5.4167    0.0000 N   0  0
    5.9875   -9.9417    0.0000 C   0  0  1  0  0  0
   10.4792   -9.8792    0.0000 C   0  0
    5.9875  -10.8042    0.0000 C   0  0
    1.4917   -9.9417    0.0000 C   0  0  1  0  0  0
   -0.7583   -9.5125    0.0000 C   0  0  2  0  0  0
    6.2125   -5.1167    0.0000 C   0  0
   13.8042   -3.9000    0.0000 C   0  0
    6.7375   -9.5125    0.0000 C   0  0
   -1.5083  -10.8042    0.0000 C   0  0
   -1.5083   -9.9417    0.0000 N   0  0
   10.0292   -4.0792    0.0000 C   0  0
    6.7375  -11.2417    0.0000 C   0  0
   11.3542   -6.7667    0.0000 C   0  0  1  0  0  0
    9.9750   -4.9417    0.0000 C   0  0  2  0  0  0
   13.8625   -3.0375    0.0000 N   0  0
    5.4917   -4.6375    0.0000 N   0  0
   12.7917   -7.7292    0.0000 O   0  0
    4.4875  -10.8042    0.0000 O   0  0
    2.2417   -8.6417    0.0000 O   0  0
   -0.0083  -10.8042    0.0000 O   0  0
    9.8625   -6.6667    0.0000 O   0  0
   -0.7583   -8.6417    0.0000 C   0  0
    1.4917  -10.8042    0.0000 C   0  0
   10.5000  -10.7500    0.0000 O   0  0
    6.7375   -8.6417    0.0000 O   0  0
   10.8125   -3.6917    0.0000 O   0  0
   -0.7583  -11.2417    0.0000 O   0  0
    6.7375  -12.1042    0.0000 O   0  0
   13.0250   -4.2792    0.0000 N   0  0
    6.9875   -4.7375    0.0000 N   0  0
    7.4875   -9.9417    0.0000 N   0  0
   -2.2208  -11.2167    0.0000 C   0  0
   14.5167   -4.3792    0.0000 N   0  0
    6.1542   -5.9792    0.0000 N   0  0
    9.3167   -3.5917    0.0000 N   0  0
    3.7417   -8.6417    0.0000 C   0  0
    7.4875  -10.8042    0.0000 N   0  0
   -0.0083   -8.2125    0.0000 C   0  0
   11.4375  -10.2750    0.0000 C   0  0
    1.4917   -7.3500    0.0000 C   0  0
    2.2417  -11.2417    0.0000 C   0  0
   -2.2208  -12.0417    0.0000 C   0  0
    0.7417   -8.6417    0.0000 C   0  0
   -0.0083   -7.3500    0.0000 C   0  0
    1.4917   -8.2125    0.0000 C   0  0
    0.7417   -6.9167    0.0000 C   0  0
   12.6167   -9.5292    0.0000 C   0  0
    9.7250   -9.4667    0.0000 C   0  0
    2.2417   -6.9167    0.0000 O   0  0
   12.3000  -10.3292    0.0000 C   0  0
   12.1292   -6.3875    0.0000 C   0  0
    9.2000   -5.3167    0.0000 C   0  0
    7.7042   -5.2167    0.0000 C   0  0
   12.9667   -5.1417    0.0000 C   0  0
    8.2250   -9.4917    0.0000 C   0  0
    4.4875   -8.2125    0.0000 C   0  0
    2.9917   -8.2125    0.0000 C   0  0
    2.2417   -6.0500    0.0000 C   0  0
    2.2417  -12.1042    0.0000 C   0  0
    2.9917  -10.8042    0.0000 C   0  0
   -2.9375  -12.4542    0.0000 C   0  0
   -1.5083  -12.4542    0.0000 C   0  0
    8.9792   -9.9167    0.0000 C   0  0
    8.4792   -4.8417    0.0000 C   0  0
   12.1917   -5.5250    0.0000 C   0  0
    2.9917   -5.6167    0.0000 C   0  0
    3.7417  -11.2417    0.0000 C   0  0
   -2.9458  -13.2792    0.0000 C   0  0
   -1.5083  -13.2750    0.0000 C   0  0
    2.9917  -12.5375    0.0000 C   0  0
    3.7417  -12.1042    0.0000 C   0  0
   -2.2250  -13.6917    0.0000 C   0  0
  7  2  1  1
  3  9  1  0
 11  4  1  1
  5  4  1  0
  6 10  1  0
  7  1  1  0
  8 26  1  0
 14  9  1  6
 17 10  1  6
 11  3  1  0
 12  2  1  0
 13  8  1  0
 14 21  1  0
 15  1  1  0
 14 16  1  0
 17  5  1  0
 18  6  1  0
 19 43  2  0
 20 42  2  0
 21 44  1  0
 22 23  1  0
 18 23  1  6
 24 27  1  0
 25 16  1  0
 26 12  1  6
 27 13  1  1
 28 20  1  0
 29 19  1  0
 30  2  2  0
 31  3  2  0
 32  5  2  0
 33  6  2  0
 34  8  2  0
 18 35  1  0
 17 36  1  0
 37 15  2  0
 38 21  2  0
 39 24  2  0
 40 22  2  0
 41 25  2  0
 42 67  1  0
 43 66  1  0
 44 68  1  0
 45 22  1  0
 46 20  1  0
 47 19  1  0
 48 24  1  0
 11 49  1  0
 50 25  1  0
 51 35  1  0
 52  1  1  0
 53 59  1  0
 54 36  1  0
 55 45  1  0
 56 51  2  0
 57 51  1  0
 58 56  1  0
 59 57  2  0
  7 60  1  0
 61 15  1  0
 62 53  1  0
 63 52  1  0
 26 64  1  0
 27 65  1  0
 66 77  1  0
 67 78  1  0
 68 76  1  0
 69 49  1  0
 70 49  1  0
 71 62  1  0
 72 54  2  0
 73 54  1  0
 74 55  2  0
 75 55  1  0
 76 61  1  0
 77 65  1  0
 78 64  1  0
 79 71  1  0
 80 73  2  0
 81 74  1  0
 82 75  2  0
 83 72  1  0
 84 80  1  0
 85 82  1  0
 63 60  1  0
 84 83  2  0
 53 58  2  0
 81 85  2  0
M  END