
  SciTegic12231509382D

 39 45  0  0  0  0            999 V2000
   -1.9446   -3.9536    0.0000 N   0  0
   -2.6121   -4.4385    0.0000 C   0  0
   -2.3571   -5.2231    0.0000 C   0  0
   -1.5321   -5.2231    0.0000 C   0  0
   -1.2772   -4.4385    0.0000 C   0  0
   -3.3967   -4.1836    0.0000 O   0  0
   -0.4926   -4.1836    0.0000 O   0  0
   -2.8421   -5.8905    0.0000 C   0  0
   -1.0472   -5.8905    0.0000 C   0  0
   -3.6625   -5.9768    0.0000 C   0  0
   -3.8341   -6.7837    0.0000 N   0  0
   -3.1196   -7.1962    0.0000 C   0  0
   -2.5065   -6.6442    0.0000 C   0  0
   -1.3021   -6.6752    0.0000 C   0  0
   -0.6347   -7.1601    0.0000 N   0  0
    0.0327   -6.6751    0.0000 C   0  0
   -0.2222   -5.8905    0.0000 C   0  0
   -1.7219   -6.8991    0.0000 C   0  0
   -1.5503   -7.7061    0.0000 C   0  0
   -2.1634   -8.2581    0.0000 C   0  0
   -2.9480   -8.0032    0.0000 C   0  0
    0.3298   -5.2774    0.0000 C   0  0
    1.1368   -5.4489    0.0000 C   0  0
    1.3917   -6.2335    0.0000 C   0  0
    0.8397   -6.8466    0.0000 C   0  0
   -4.5877   -7.1193    0.0000 C   0  0
   -5.2552   -6.6344    0.0000 C   0  0
   -6.0089   -6.9699    0.0000 C   0  0
   -6.0951   -7.7904    0.0000 N   0  0
   -5.4277   -8.2753    0.0000 C   0  0
   -4.6740   -7.9398    0.0000 C   0  0
   -6.8920   -8.0039    0.0000 C   0  0
   -0.6347   -7.9851    0.0000 C   0  0
   -7.4754   -7.4206    0.0000 C   0  0
   -7.2618   -6.6237    0.0000 N   0  0
   -7.8452   -6.0403    0.0000 C   0  0
   -8.6421   -6.2538    0.0000 C   0  0
   -8.8556   -7.0507    0.0000 C   0  0
   -8.2723   -7.6341    0.0000 C   0  0
  1  2  1  0
  1  5  1  0
  2  3  1  0
  3  4  2  0
  4  5  1  0
  2  6  2  0
  5  7  2  0
  3  8  1  0
  4  9  1  0
  8 10  2  0
  8 13  1  0
 10 11  1  0
 11 12  1  0
  9 14  2  0
  9 17  1  0
 14 15  1  0
 15 16  1  0
 21 12  1  0
 12 13  2  0
 13 18  1  0
 18 19  2  0
 19 20  1  0
 20 21  2  0
 25 16  1  0
 16 17  2  0
 17 22  1  0
 22 23  2  0
 23 24  1  0
 24 25  2  0
 11 26  1  0
 26 27  1  0
 31 26  1  0
 27 28  1  0
 28 29  1  0
 29 30  1  0
 30 31  1  0
 29 32  1  0
 15 33  1  0
 32 34  1  0
 34 35  1  0
 34 39  2  0
 35 36  2  0
 36 37  1  0
 37 38  2  0
 38 39  1  0
M  END