
          11280715522D 1   1.00000     0.00000     0

 29 32  0     0  0            999 V2000
    7.6480   -6.4036    0.0000 C   0  0  0  0  0  0           0  0  0
    7.6468   -7.2309    0.0000 C   0  0  0  0  0  0           0  0  0
    8.3615   -7.6438    0.0000 C   0  0  0  0  0  0           0  0  0
    8.3597   -5.9909    0.0000 C   0  0  0  0  0  0           0  0  0
    9.0751   -6.4000    0.0000 C   0  0  0  0  0  0           0  0  0
    9.0759   -7.2267    0.0000 C   0  0  0  0  0  0           0  0  0
    9.7911   -7.6377    0.0000 N   0  0  0  0  0  0           0  0  0
   10.5060   -7.2229    0.0000 C   0  0  0  0  0  0           0  0  0
   10.5012   -6.3931    0.0000 C   0  0  0  0  0  0           0  0  0
    9.7854   -5.9858    0.0000 N   0  0  0  0  0  0           0  0  0
   11.2221   -7.6327    0.0000 O   0  0  0  0  0  0           0  0  0
   11.2132   -5.9762    0.0000 C   0  0  0  0  0  0           0  0  0
   11.9300   -6.3844    0.0000 N   0  0  0  0  0  0           0  0  0
   11.2082   -5.1513    0.0000 O   0  0  0  0  0  0           0  0  0
   12.6420   -5.9675    0.0000 C   0  0  0  0  0  0           0  0  0
   13.3566   -6.3791    0.0000 C   0  0  0  0  0  0           0  0  0
   14.0681   -5.9629    0.0000 C   0  0  0  0  0  0           0  0  0
   14.0635   -5.1372    0.0000 C   0  0  0  0  0  0           0  0  0
   13.3415   -4.7292    0.0000 C   0  0  0  0  0  0           0  0  0
   12.6331   -5.1477    0.0000 C   0  0  0  0  0  0           0  0  0
   14.7748   -4.7194    0.0000 O   0  0  0  0  0  0           0  0  0
   11.2253   -8.4576    0.0000 C   0  0  0  0  0  0           0  0  0
   13.3336   -3.9044    0.0000 C   0  0  0  0  0  0           0  0  0
   14.0440   -3.4850    0.0000 N   0  0  3  0  0  0           0  0  0
   14.7624   -3.8973    0.0000 C   0  0  0  0  0  0           0  0  0
   15.4707   -3.4815    0.0000 C   0  0  0  0  0  0           0  0  0
   15.4670   -2.6562    0.0000 N   0  0  0  0  0  0           0  0  0
   14.7488   -2.2484    0.0000 C   0  0  0  0  0  0           0  0  0
   14.0343   -2.6660    0.0000 C   0  0  0  0  0  0           0  0  0
 12 14  2  0     0  0
  6  7  2  0     0  0
 13 15  1  0     0  0
  1  2  1  0     0  0
 15 16  2  0     0  0
  7  8  1  0     0  0
 16 17  1  0     0  0
  5  4  1  0     0  0
 17 18  2  0     0  0
  8  9  2  0     0  0
 18 19  1  0     0  0
  4  1  2  0     0  0
 19 20  2  0     0  0
 20 15  1  0     0  0
  9 10  1  0     0  0
 18 21  1  0     0  0
 10  5  2  0     0  0
 11 22  1  0     0  0
 19 23  1  0     0  0
  8 11  1  0     0  0
 23 24  1  0     0  0
 24 25  1  0     0  0
  2  3  2  0     0  0
  9 12  1  0     0  0
  5  6  1  0     0  0
 12 13  1  0     0  0
  3  6  1  0     0  0
 24 29  1  0     0  0
 25 26  1  0     0  0
 26 27  1  0     0  0
 27 28  1  0     0  0
 28 29  1  0     0  0
M  END