
  SciTegic02261315432D

 82 86  0  0  1  0            999 V2000
    3.6192   -4.3167    0.0000 N   0  0
    4.3067   -4.7629    0.0000 C   0  0
    9.7406   -4.3927    0.0000 N   0  0
    5.0471   -4.3927    0.0000 C   0  0  1  0  0  0
    8.5903   -5.5429    0.0000 C   0  0
    5.5264   -5.0603    0.0000 N   0  0
    7.8070   -5.7941    0.0000 N   0  0
   12.2591    0.0661    0.0000 N   0  3
    6.9840   -0.5884    0.0000 C   0  0
    7.8070   -0.5884    0.0000 N   0  0
    9.7406   -1.9964    0.0000 N   0  0
    9.9984   -3.6027    0.0000 C   0  0
    6.1973   -5.5429    0.0000 C   0  0
    9.2547   -1.3287    0.0000 C   0  0
    2.6310   -5.4074    0.0000 C   0  0
    9.2547   -5.0603    0.0000 C   0  0  2  0  0  0
    6.9840   -5.7941    0.0000 C   0  0  2  0  0  0
    6.1973   -0.8462    0.0000 C   0  0
    2.8491   -4.6141    0.0000 C   0  0  2  0  0  0
    9.9984   -2.7797    0.0000 C   0  0  2  0  0  0
    8.5903   -0.8462    0.0000 C   0  0  2  0  0  0
    2.2046   -7.0038    0.0000 C   0  0
    3.2160   -5.9924    0.0000 N   0  0
    1.9865   -7.7971    0.0000 N   0  0
    6.8551   -6.6138    0.0000 C   0  0
    1.1932   -8.0119    0.0000 C   0  0  2  0  0  0
    0.9850   -8.8085    0.0000 C   0  0
    6.0817   -6.9047    0.0000 C   0  0
   11.4361    0.0198    0.0000 C   0  0
    3.0045   -6.7857    0.0000 C   0  0  1  0  0  0
    4.7893   -2.7797    0.0000 S   0  0
   12.6459   -0.6677    0.0000 O   0  5
    5.0471   -1.9964    0.0000 S   0  0
   12.7053    0.7602    0.0000 O   0  0
    4.2671   -5.5859    0.0000 O   0  0
    8.9671   -6.2800    0.0000 O   0  0
    1.8377   -5.6222    0.0000 O   0  0
    6.8551    0.2247    0.0000 O   0  0
   10.8114   -3.7316    0.0000 O   0  0
    5.8239   -6.2800    0.0000 O   0  0
    9.8397   -0.7470    0.0000 O   0  0
    4.7893   -3.6027    0.0000 C   0  0
    8.9671   -0.1091    0.0000 C   0  0
   10.8114   -2.6508    0.0000 C   0  0
    1.6262   -6.4188    0.0000 O   0  0
    0.6148   -7.4302    0.0000 C   0  0
    0.1884   -9.0233    0.0000 O   0  0
    5.9528   -7.7243    0.0000 O   0  0
   10.9899    0.7106    0.0000 C   0  0
   11.0593   -0.7173    0.0000 C   0  0
    1.5667   -9.3935    0.0000 N   0  0
    5.5264   -1.3287    0.0000 C   0  0
    9.8397   -5.6420    0.0000 C   0  0
    3.5730   -3.4937    0.0000 C   0  0
    5.4437   -6.3890    0.0000 N   0  0
    9.7901   -0.0628    0.0000 C   0  0
   -0.1851   -7.6450    0.0000 C   0  0
   -1.7716   -8.0714    0.0000 C   0  0
   11.3337   -3.2953    0.0000 C   0  0
   10.2363   -0.7569    0.0000 C   0  0
   10.1636    0.6709    0.0000 C   0  0
    6.5741   -1.5799    0.0000 C   0  0
    5.8239   -0.1091    0.0000 C   0  0
   -0.3933   -8.4416    0.0000 C   0  0
   -0.7635   -7.0600    0.0000 C   0  0
    4.3266  -10.1273    0.0000 N   0  0
   -1.5633   -7.2715    0.0000 C   0  0
   -1.1866   -8.6564    0.0000 C   0  0
    2.3302   -3.9696    0.0000 C   0  0
   -2.5748   -8.2829    0.0000 O   0  0
    2.7797   -3.2755    0.0000 C   0  0
    3.5895   -7.3707    0.0000 C   0  0
    3.7416   -9.5488    0.0000 C   0  0
   10.6396   -5.4272    0.0000 C   0  0
    9.6281   -6.4386    0.0000 C   0  0
   12.1467   -3.1664    0.0000 C   0  0
   11.0362   -4.0654    0.0000 C   0  0
    3.3747   -8.1705    0.0000 C   0  0
    3.9597   -8.7490    0.0000 C   0  0
   11.5551   -4.7034    0.0000 C   0  0
   12.6657   -3.8076    0.0000 C   0  0
   12.3682   -4.5745    0.0000 C   0  0
  2  1  1  0
  3 16  1  0
  4  2  1  6
  5  7  1  0
  6  4  1  0
  7 17  1  0
  8 29  1  0
  9 18  1  0
 10  9  1  0
 11 14  1  0
 12  3  1  0
 13  6  1  0
 14 21  1  0
 19 15  1  6
 16  5  1  0
 17 13  1  0
 18 52  1  0
 19  1  1  0
 20 12  1  0
 21 10  1  0
 30 22  1  1
 23 15  1  0
 24 22  1  0
 17 25  1  1
 26 24  1  0
 27 26  1  0
 28 25  1  0
 29 49  1  0
 30 23  1  0
 31 42  1  0
 32  8  1  0
 33 31  1  0
 34  8  2  0
 35  2  2  0
 36  5  2  0
 37 15  2  0
 38  9  2  0
 39 12  2  0
 40 13  2  0
 41 14  2  0
 42  4  1  0
 21 43  1  1
 20 44  1  1
 45 22  2  0
 26 46  1  6
 47 27  2  0
 48 28  2  0
 49 61  2  0
 50 60  1  0
 51 27  1  0
 52 33  1  0
 16 53  1  1
 54  1  1  0
 55 28  1  0
 56 43  1  0
 57 46  1  0
 58 67  2  0
 59 44  1  0
 60 56  2  0
 61 56  1  0
 62 18  1  0
 63 18  1  0
 64 57  1  0
 65 57  2  0
 66 73  1  0
 67 65  1  0
 68 64  2  0
 69 19  1  0
 70 58  1  0
 71 54  1  0
 72 30  1  0
 73 79  1  0
 74 53  1  0
 75 53  1  0
 76 59  1  0
 77 59  2  0
 78 72  1  0
 79 78  1  0
 80 77  1  0
 81 76  2  0
 82 80  2  0
 71 69  1  0
 68 58  1  0
 11 20  1  0
 29 50  2  0
 81 82  1  0
M  CHG  2   8   1  32  -1
M  END