
  SciTegic12181313002D

 59 63  0  0  0  0            999 V2000
    8.8761    3.8009    0.0000 N   0  0
    8.1616    4.2134    0.0000 C   0  0
    7.4471    3.8009    0.0000 C   0  0
    7.4471    2.9759    0.0000 N   0  0
    9.5906    4.2134    0.0000 C   0  0  1  0  0  0
   10.3051    3.8009    0.0000 C   0  0
   10.3050    2.9759    0.0000 N   0  0
   10.3050    1.3259    0.0000 N   0  0
   11.0195    1.7384    0.0000 C   0  0
   11.0195    2.5634    0.0000 C   0  0  1  0  0  0
    8.8760    0.5009    0.0000 S   0  3
    9.5905    0.0884    0.0000 C   0  0
   10.3050    0.5009    0.0000 C   0  0  2  0  0  0
    7.4471    1.3260    0.0000 N   0  0
    7.4471    0.5010    0.0000 C   0  0
    8.1615    0.0885    0.0000 C   0  0
    6.7326    2.5634    0.0000 C   0  0
    6.7326    1.7384    0.0000 C   0  0  1  0  0  0
    6.0182    2.9759    0.0000 O   0  0
    6.0182    1.3258    0.0000 C   0  0
    5.3037    1.7383    0.0000 C   0  0
    5.3037    2.5633    0.0000 C   0  0
    4.5893    2.9758    0.0000 C   0  0
    3.8748    2.5633    0.0000 C   0  0
    3.8748    1.7383    0.0000 C   0  0
    4.5892    1.3258    0.0000 C   0  0
    6.7326    0.0886    0.0000 O   0  0
    8.8760    1.3259    0.0000 O   0  5
   11.0194    0.0884    0.0000 C   0  0
   11.7339    0.5009    0.0000 N   0  0
   11.0194   -0.7366    0.0000 O   0  0
   11.7340    1.3259    0.0000 O   0  0
   11.7340    2.9759    0.0000 C   0  0
   12.4485    2.5634    0.0000 C   0  0
   11.0195    4.2134    0.0000 O   0  0
    9.5906    5.0384    0.0000 C   0  0
   10.3050    5.4509    0.0000 C   0  0
   10.3050    6.2759    0.0000 N   0  0
   11.0195    5.0384    0.0000 O   0  0
    8.1616    5.0384    0.0000 O   0  0
    7.6606    4.5978    0.0000 C   0  0
    7.0773    5.1812    0.0000 C   0  0
    6.2804    4.9676    0.0000 C   0  0
    6.0669    4.1707    0.0000 C   0  0
    6.6502    3.5874    0.0000 C   0  0
    3.1603    2.9758    0.0000 O   0  0
    2.4458    2.5633    0.0000 P   0  0
    1.7314    2.9758    0.0000 O   0  0
    2.0333    1.8488    0.0000 O   0  0
    3.0292    1.9800    0.0000 O   0  0
   12.4484    1.7384    0.0000 C   0  0
   13.1629    1.3259    0.0000 C   0  0
   13.8774    1.7384    0.0000 C   0  0
   13.8774    2.5634    0.0000 C   0  0
   13.1629    2.9759    0.0000 C   0  0
   14.5919    1.3259    0.0000 C   0  0
   15.3064    1.7384    0.0000 C   0  0
   15.3064    2.5634    0.0000 C   0  0
   14.5919    2.9759    0.0000 C   0  0
  1  2  1  0
  2  3  1  0
  3  4  1  0
  1  5  1  0
  5  6  1  0
  6  7  1  0
 10  7  1  0
  8  9  1  0
  9 10  1  0
 13  8  1  0
 11 12  1  0
 13 12  1  0
 11 16  1  0
 14 15  1  0
 15 16  1  0
  4 17  1  0
 18 14  1  0
 17 18  1  0
 17 19  2  0
 18 20  1  6
 20 21  1  0
 21 22  2  0
 21 26  1  0
 22 23  1  0
 23 24  2  0
 24 25  1  0
 25 26  2  0
 15 27  2  0
 11 28  1  1
 13 29  1  1
 29 30  1  0
 29 31  2  0
  9 32  2  0
 10 33  1  6
 33 34  1  0
  6 35  2  0
  5 36  1  6
 36 37  1  0
 37 38  1  0
 37 39  2  0
  2 40  2  0
  3 41  1  0
 45  3  1  0
 41 42  1  0
 42 43  1  0
 43 44  1  0
 44 45  1  0
 24 46  1  0
 46 47  1  0
 47 48  2  0
 47 49  1  0
 47 50  1  0
 34 51  2  0
 34 55  1  0
 51 52  1  0
 52 53  2  0
 54 55  2  0
 54 59  1  0
 53 54  1  0
 53 56  1  0
 56 57  2  0
 57 58  1  0
 58 59  2  0
M  CHG  2  11   1  28  -1
M  END