
  SciTegic11201309402D

 78 81  0  0  1  0            999 V2000
    8.4167   -2.2250    0.0000 N   0  0
    7.7167   -2.6167    0.0000 C   0  0
    9.9292   -2.6167    0.0000 C   0  0
    1.4042   -2.2500    0.0000 C   0  0
   -0.8333   -0.8917    0.0000 C   0  0
    7.0167   -2.2250    0.0000 C   0  0  1  0  0  0
    0.0042   -2.2500    0.0000 N   0  0
   -0.6958   -2.6417    0.0000 C   0  0
    9.2292   -2.2250    0.0000 C   0  0  1  0  0  0
    5.6125   -2.2375    0.0000 C   0  0
    6.3125   -2.6167    0.0000 N   0  0
    3.5042   -2.6292    0.0000 C   0  0
    0.2625   -0.4375    0.0000 N   0  0
    4.2125   -2.2375    0.0000 N   0  0
    2.1042   -2.6292    0.0000 N   0  0
    0.7042   -2.6417    0.0000 C   0  0  1  0  0  0
   10.6292   -2.2250    0.0000 N   0  0
    4.9125   -2.6292    0.0000 C   0  0  1  0  0  0
   -0.1083   -1.0625    0.0000 C   0  0
   -2.8000   -2.2500    0.0000 C   0  0
    4.9125   -3.4250    0.0000 C   0  0
   -1.3958   -2.2500    0.0000 C   0  0  2  0  0  0
   12.0417   -2.2042    0.0000 C   0  0
   12.8042   -5.7542    0.0000 C   0  0
   -2.1000   -2.6417    0.0000 N   0  0
   -0.8958   -0.1750    0.0000 C   0  0
   -1.3958   -1.4542    0.0000 C   0  0
   -3.5000   -2.6417    0.0000 C   0  0
    2.8042   -2.2375    0.0000 C   0  0  1  0  0  0
    5.6125   -3.8125    0.0000 C   0  0
   12.7417   -2.5875    0.0000 N   0  0
   -0.2208    0.1083    0.0000 C   0  0
   11.3417   -2.6125    0.0000 C   0  0  2  0  0  0
   -4.2208   -2.2500    0.0000 C   0  0
   14.1542   -2.5750    0.0000 C   0  0
   12.1042   -6.1625    0.0000 N   0  0
    3.5042   -0.2542    0.0000 C   0  0
    7.7167   -3.4167    0.0000 O   0  0
    9.9292   -3.4167    0.0000 O   0  0
    1.4042   -1.4542    0.0000 O   0  0
   -0.6958   -3.4375    0.0000 O   0  0
    5.6125   -1.4417    0.0000 O   0  0
    3.5042   -3.4250    0.0000 O   0  0
   -2.8000   -1.4542    0.0000 O   0  0
   12.0292   -1.4042    0.0000 O   0  0
    6.3125   -3.4167    0.0000 O   0  0
   14.1667   -3.3667    0.0000 O   0  0
    4.2125    0.1375    0.0000 O   0  0
    2.8042   -1.4417    0.0000 C   0  0
   12.7917   -4.9625    0.0000 N   0  0
   13.4417   -2.1792    0.0000 C   0  0
   13.5042   -6.1417    0.0000 N   0  0
    8.1542   -1.4667    0.0000 C   0  0
   -4.2208   -3.0417    0.0000 S   0  0
    0.7042   -3.4375    0.0000 C   0  0  2  0  0  0
    5.6125   -4.6042    0.0000 N   0  0
    3.5042   -1.0500    0.0000 C   0  0
   14.8500   -2.1667    0.0000 N   0  0
    7.0167   -1.4292    0.0000 C   0  0
    7.7167   -1.0375    0.0000 S   0  0
    2.7917    0.1375    0.0000 O   0  0
    9.4750   -1.4667    0.0000 C   0  0
    8.8167   -1.0000    0.0000 C   0  0
   -1.4833    0.2583    0.0000 C   0  0
   -4.9208   -2.6542    0.0000 C   0  0
   -4.2208   -1.4667    0.0000 C   0  0
   11.3542   -3.4042    0.0000 C   0  0
   -0.1333    0.8208    0.0000 C   0  0
   12.0792   -4.5792    0.0000 C   0  0
    0.0042   -3.8292    0.0000 C   0  0
    1.4042   -3.8250    0.0000 C   0  0
   12.0667   -3.7875    0.0000 C   0  0
    0.0042   -4.6292    0.0000 C   0  0
   -1.3958    0.9708    0.0000 C   0  0
   -5.6208   -2.2500    0.0000 C   0  0
   -4.9208   -1.0750    0.0000 C   0  0
   -0.7208    1.2583    0.0000 C   0  0
   -5.6208   -1.4542    0.0000 C   0  0
  2  1  1  0
  9  3  1  6
  4 15  1  0
  5 27  1  0
  6  2  1  0
 16  7  1  6
  8  7  1  0
  9  1  1  0
 10 11  1  0
  6 11  1  1
 12 14  1  0
 13 19  1  0
 18 14  1  6
 29 15  1  1
 16  4  1  0
 17  3  1  0
 18 10  1  0
 19  5  2  0
 20 25  1  0
 18 21  1  0
 22  8  1  0
 23 33  1  0
 24 50  2  0
 22 25  1  6
 26  5  1  0
 22 27  1  0
 28 20  1  0
 29 12  1  0
 30 21  1  0
 31 23  1  0
 32 26  2  0
 33 17  1  6
 34 28  1  0
 35 51  1  0
 36 24  1  0
 37 57  1  0
 38  2  2  0
 39  3  2  0
 40  4  2  0
 41  8  2  0
 42 10  2  0
 43 12  2  0
 44 20  2  0
 45 23  2  0
 46 30  2  0
 47 35  2  0
 48 37  2  0
 29 49  1  0
 50 69  1  0
 51 31  1  0
 52 24  1  0
 53  1  1  0
 54 34  1  0
 16 55  1  0
 56 30  1  0
 57 49  1  0
 58 35  1  0
  6 59  1  0
 60 59  1  0
 61 37  1  0
  9 62  1  0
 63 53  1  0
 64 26  1  0
 65 34  1  0
 66 34  1  0
 33 67  1  0
 68 32  1  0
 69 72  1  0
 70 55  1  0
 55 71  1  1
 72 67  1  0
 73 70  1  0
 74 64  2  0
 75 65  1  0
 76 66  1  0
 77 74  1  0
 78 76  1  0
 62 63  1  0
 32 13  1  0
 68 77  2  0
 75 78  1  0
M  END