
  SciTegic05071316162D

 19 20  0  0  0  0            999 V2000
   26.5573  -18.2258    0.0000 C   0  0
   26.5562  -19.0453    0.0000 C   0  0
   27.2642  -19.4543    0.0000 C   0  0
   27.9739  -19.0449    0.0000 C   0  0
   27.9710  -18.2222    0.0000 C   0  0
   27.2624  -17.8169    0.0000 C   0  0
   25.8495  -17.8174    0.0000 C   0  0  2  0  0  0
   25.1419  -18.2261    0.0000 C   0  0
   24.4341  -17.8177    0.0000 C   0  0
   23.7265  -18.2265    0.0000 N   0  0
   22.9805  -17.8904    0.0000 N   0  0
   22.4338  -18.4978    0.0000 C   0  0
   22.8426  -19.2054    0.0000 N   0  0
   23.6418  -19.0352    0.0000 C   0  0
   25.8493  -17.0002    0.0000 C   0  0
   26.5569  -16.5914    0.0000 C   0  0
   27.2647  -16.9998    0.0000 C   0  0
   27.9723  -16.5911    0.0000 C   0  0
   28.6822  -19.4524    0.0000 Cl  0  0
  1  2  2  0
  2  3  1  0
  3  4  2  0
  4  5  1  0
  5  6  2  0
  6  1  1  0
  1  7  1  0
  7  8  1  0
  8  9  1  0
  9 10  1  0
 10 11  1  0
 11 12  2  0
 12 13  1  0
 13 14  2  0
 14 10  1  0
  7 15  1  6
 15 16  1  0
 16 17  1  0
 17 18  1  0
  4 19  1  0
M  END