
  Mrv0541 05211314572D          

 37 41  0  0  0  0            999 V2000
    0.7542    0.0347    0.0000 C   0  0  0  0  0  0  0  0  0  0  0  0
    0.0397   -0.3778    0.0000 C   0  0  0  0  0  0  0  0  0  0  0  0
    0.0397   -1.2028    0.0000 C   0  0  0  0  0  0  0  0  0  0  0  0
   -0.6747   -1.6153    0.0000 N   0  0  0  0  0  0  0  0  0  0  0  0
    0.7542   -1.6153    0.0000 O   0  0  0  0  0  0  0  0  0  0  0  0
   -0.6747   -2.4403    0.0000 C   0  0  0  0  0  0  0  0  0  0  0  0
   -1.3892   -2.8528    0.0000 C   0  0  0  0  0  0  0  0  0  0  0  0
   -2.1037   -2.4403    0.0000 N   0  0  0  0  0  0  0  0  0  0  0  0
   -2.1037   -1.6153    0.0000 C   0  0  0  0  0  0  0  0  0  0  0  0
   -1.3892   -1.2028    0.0000 C   0  0  0  0  0  0  0  0  0  0  0  0
   -2.8181   -2.8528    0.0000 C   0  0  0  0  0  0  0  0  0  0  0  0
   -2.8181   -3.6778    0.0000 C   0  0  0  0  0  0  0  0  0  0  0  0
   -3.5326   -4.0903    0.0000 C   0  0  0  0  0  0  0  0  0  0  0  0
   -3.5326   -2.4403    0.0000 N   0  0  0  0  0  0  0  0  0  0  0  0
    0.7542    0.8597    0.0000 N   0  0  0  0  0  0  0  0  0  0  0  0
    0.0397    1.2722    0.0000 C   0  0  0  0  0  0  0  0  0  0  0  0
    1.4687    1.2722    0.0000 C   0  0  0  0  0  0  0  0  0  0  0  0
    1.4687    2.0972    0.0000 C   0  0  0  0  0  0  0  0  0  0  0  0
    2.1831    2.5097    0.0000 C   0  0  0  0  0  0  0  0  0  0  0  0
    3.0764    3.5017    0.0000 C   0  0  0  0  0  0  0  0  0  0  0  0
    2.2694    3.3302    0.0000 C   0  0  0  0  0  0  0  0  0  0  0  0
    1.7174    3.9433    0.0000 C   0  0  0  0  0  0  0  0  0  0  0  0
    1.9723    4.7279    0.0000 C   0  0  0  0  0  0  0  0  0  0  0  0
    2.7793    4.8994    0.0000 C   0  0  0  0  0  0  0  0  0  0  0  0
    3.3313    4.2863    0.0000 C   0  0  0  0  0  0  0  0  0  0  0  0
    2.9368    2.1741    0.0000 C   0  0  0  0  0  0  0  0  0  0  0  0
    3.4889    2.7872    0.0000 C   0  0  0  0  0  0  0  0  0  0  0  0
    4.2958    2.6157    0.0000 C   0  0  0  0  0  0  0  0  0  0  0  0
    4.5508    1.8311    0.0000 C   0  0  0  0  0  0  0  0  0  0  0  0
    3.9987    1.2180    0.0000 C   0  0  0  0  0  0  0  0  0  0  0  0
    3.1918    1.3895    0.0000 C   0  0  0  0  0  0  0  0  0  0  0  0
   -4.2471   -2.8528    0.0000 N   0  0  0  0  0  0  0  0  0  0  0  0
   -4.2471   -3.6778    0.0000 C   0  0  0  0  0  0  0  0  0  0  0  0
   -5.0317   -3.9327    0.0000 N   0  0  0  0  0  0  0  0  0  0  0  0
   -5.5166   -3.2653    0.0000 C   0  0  0  0  0  0  0  0  0  0  0  0
   -5.0317   -2.5979    0.0000 C   0  0  0  0  0  0  0  0  0  0  0  0
    6.7901    0.0000    0.0000 Cl  0  0  0  0  0  0  0  0  0  0  0  0
 15 17  1  0  0  0  0
  6  7  1  0  0  0  0
 17 18  1  0  0  0  0
  7  8  1  0  0  0  0
 18 19  1  0  0  0  0
 19 21  1  0  0  0  0
 20 27  1  0  0  0  0
 26 19  1  0  0  0  0
 20 21  2  0  0  0  0
  8  9  1  0  0  0  0
  9 10  1  0  0  0  0
  4  6  1  0  0  0  0
  8 11  1  0  0  0  0
  2  3  1  0  0  0  0
 11 12  1  0  0  0  0
 20 25  1  0  0  0  0
 21 22  1  0  0  0  0
 22 23  2  0  0  0  0
 23 24  1  0  0  0  0
 24 25  2  0  0  0  0
 26 27  2  0  0  0  0
  1  2  1  0  0  0  0
 12 13  2  0  0  0  0
 13 33  1  0  0  0  0
  3  4  1  0  0  0  0
 32 14  1  0  0  0  0
 14 11  2  0  0  0  0
 26 31  1  0  0  0  0
 27 28  1  0  0  0  0
 28 29  2  0  0  0  0
 29 30  1  0  0  0  0
 30 31  2  0  0  0  0
 32 33  1  0  0  0  0
  1 15  1  0  0  0  0
  3  5  2  0  0  0  0
 15 16  1  0  0  0  0
  4 10  1  0  0  0  0
 33 34  2  0  0  0  0
 34 35  1  0  0  0  0
 35 36  2  0  0  0  0
 36 32  1  0  0  0  0
M  END