
  SciTegic10191216022D

 38 44  0  0  1  0            999 V2000
    2.1097  -16.0588    0.0000 C   0  0
    1.6805  -16.7652    0.0000 C   0  0
    2.0776  -17.4879    0.0000 C   0  0
    2.9037  -17.5056    0.0000 C   0  0
    2.9317  -16.0745    0.0000 C   0  0
    3.3364  -16.7961    0.0000 C   0  0
    4.1785  -15.3752    0.0000 C   0  0  2  0  0  0
    3.3496  -15.3632    0.0000 C   0  0
    4.5832  -16.0968    0.0000 C   0  0  1  0  0  0
    4.1613  -16.8102    0.0000 C   0  0  2  0  0  0
    4.5659  -17.5283    0.0000 C   0  0  2  0  0  0
    5.3939  -17.5393    0.0000 C   0  0
    5.8159  -16.8260    0.0000 C   0  0
    5.4097  -16.1016    0.0000 C   0  0
    3.6131  -17.9155    0.0000 O   0  0
    4.9908  -16.8083    0.0000 O   0  0
    4.3873  -14.5730    0.0000 N   0  0
    3.9419  -16.0091    0.0000 C   0  0
    4.5247  -15.4222    0.0000 C   0  0
    3.5881  -14.7853    0.0000 H   0  0
    4.4261  -13.7497    0.0000 C   0  0
    5.1585  -13.3717    0.0000 C   0  0
    5.9804  -13.4132    0.0000 C   0  0
    5.6024  -12.6808    0.0000 C   0  0
    1.6505  -18.1928    0.0000 O   0  0
    5.7974  -18.2579    0.0000 N   0  0
    6.6216  -18.2678    0.0000 C   0  0
    7.0251  -18.9864    0.0000 C   0  0
    7.0422  -17.5590    0.0000 O   0  0
    4.7745  -18.3193    0.0000 H   0  0
    6.6032  -19.6944    0.0000 C   0  0
    7.0060  -20.4125    0.0000 C   0  0
    7.8311  -20.4228    0.0000 C   0  0
    8.2516  -19.7090    0.0000 C   0  0
    7.8463  -18.9938    0.0000 C   0  0
    9.0757  -19.7160    0.0000 N   0  0
    9.4818  -20.4332    0.0000 C   0  0
    9.4938  -19.0057    0.0000 C   0  0
  9  7  1  0
 10 18  1  1
  7  8  1  0
 18 19  1  0
 19 17  1  0
  9 10  1  0
  7 20  1  6
  4  6  1  0
 17 21  1  0
  5  1  1  0
 21 22  1  0
 23 22  1  0
 24 23  1  0
 22 24  1  0
  5  6  2  0
  2  3  1  0
  3 25  1  0
  1  2  2  0
 12 26  1  0
  9 14  1  0
 26 27  1  0
 10 11  1  0
 27 28  1  0
 11 12  1  0
 27 29  2  0
 12 13  1  0
 11 30  1  1
 13 14  1  0
 28 31  2  0
  3  4  2  0
 31 32  1  0
  4 15  1  0
 32 33  2  0
 11 15  1  0
 33 34  1  0
  5  8  1  0
 34 35  2  0
 35 28  1  0
  9 16  1  1
 34 36  1  0
  6 10  1  0
 36 37  1  0
  7 17  1  0
 36 38  1  0
M  END