
  SciTegic12231509382D

 37 41  0  0  0  0            999 V2000
   23.8300  -16.3835    0.0000 C   0  0  1  0  0  0
   23.1136  -16.7875    0.0000 C   0  0  1  0  0  0
   21.6893  -16.7833    0.0000 C   0  0  2  0  0  0
   25.2626  -15.5839    0.0000 C   0  0  1  0  0  0
   24.5546  -15.1591    0.0000 C   0  0  1  0  0  0
   23.8425  -15.5631    0.0000 C   0  0  1  0  0  0
   22.4015  -16.3710    0.0000 C   0  0  1  0  0  0
   21.6810  -17.6079    0.0000 C   0  0  2  0  0  0
   20.9772  -18.0202    0.0000 C   0  0
   24.7420  -14.3554    0.0000 C   0  0  1  0  0  0
   25.9747  -15.9879    0.0000 C   0  0
   24.5296  -16.8083    0.0000 C   0  0
   23.1136  -17.6121    0.0000 C   0  0
   25.2501  -16.4044    0.0000 C   0  0
   25.8790  -15.0384    0.0000 C   0  0
   23.1303  -15.1383    0.0000 C   0  0
   20.9772  -16.3627    0.0000 C   0  0
   22.4057  -15.5464    0.0000 C   0  0
   22.3932  -18.0244    0.0000 C   0  0
   25.5624  -14.2846    0.0000 C   0  0
   24.2006  -13.7307    0.0000 C   0  0
   20.2567  -17.6079    0.0000 C   0  0  2  0  0  0
   26.6911  -15.5756    0.0000 O   0  0
   20.2567  -16.7833    0.0000 C   0  0
   24.4672  -12.9519    0.0000 C   0  0
   23.8175  -17.2081    0.0000 C   0  0
   25.9789  -16.8125    0.0000 O   0  0
   23.1053  -15.9629    0.0000 C   0  0
   21.6810  -15.9504    0.0000 C   0  0
   20.5483  -18.7324    0.0000 C   0  0
   21.3812  -18.7324    0.0000 C   0  0
   19.5446  -18.0244    0.0000 O   0  0
   23.3885  -13.8973    0.0000 C   0  0
   21.6768  -18.4325    0.0000 H   0  0
   24.5504  -15.9837    0.0000 H   0  0
   22.3932  -17.1956    0.0000 H   0  0
   23.8383  -14.7261    0.0000 H   0  0
  9  8  1  0
 10  5  1  0
  4 11  1  1
 12  1  1  0
 13  2  1  0
 14 12  1  0
 15  4  1  0
 16  6  1  0
 17  3  1  0
 18 16  1  0
 19 13  1  0
 20 10  1  0
 10 21  1  6
 22  9  1  0
 23 11  2  0
 24 17  1  0
 25 21  2  0
  1 26  1  6
 27 11  1  0
  2 28  1  1
  3 29  1  1
 30  9  1  0
 31  9  1  0
 22 32  1  1
 33 21  1  0
  8 34  1  6
  5 35  1  6
  7 36  1  6
  6 37  1  1
  5  4  1  0
  7 18  1  0
 15 20  1  0
  3  8  1  0
 24 22  1  0
  2  1  1  0
  3  7  1  0
  4 14  1  0
  5  6  1  0
  6  1  1  0
  7  2  1  0
  8 19  1  0
M  END