
          11280715082D 1   1.00000     0.00000     0

 45 49  0     0  0            999 V2000
    6.9042   -3.6292    0.0000 N   0  0  3  0  0  0           0  0  0
    6.3917   -3.3417    0.0000 C   0  0  0  0  0  0           0  0  0
    5.8750   -3.6292    0.0000 C   0  0  0  0  0  0           0  0  0
    4.8417   -3.6417    0.0000 C   0  0  0  0  0  0           0  0  0
    5.3625   -3.3417    0.0000 N   0  0  0  0  0  0           0  0  0
    3.2917   -3.3542    0.0000 C   0  0  0  0  0  0           0  0  0
    4.3250   -3.3417    0.0000 C   0  0  3  0  0  0           0  0  0
    3.8125   -3.6417    0.0000 N   0  0  0  0  0  0           0  0  0
    2.2542   -3.3542    0.0000 C   0  0  0  0  0  0           0  0  0
    6.9125   -4.2292    0.0000 C   0  0  0  0  0  0           0  0  0
    7.4250   -3.3292    0.0000 C   0  0  0  0  0  0           0  0  0
    2.7750   -3.6542    0.0000 C   0  0  0  0  0  0           0  0  0
    5.8750   -4.2292    0.0000 C   0  0  0  0  0  0           0  0  0
    1.7375   -3.6542    0.0000 C   0  0  0  0  0  0           0  0  0
    2.0000   -1.4667    0.0000 C   0  0  0  0  0  0           0  0  0
    6.3875   -4.5292    0.0000 C   0  0  0  0  0  0           0  0  0
    6.3875   -2.7417    0.0000 O   0  0  0  0  0  0           0  0  0
    4.8375   -4.2417    0.0000 O   0  0  0  0  0  0           0  0  0
    4.3250   -2.7417    0.0000 C   0  0  0  0  0  0           0  0  0
    3.2417   -2.8417    0.0000 O   0  0  0  0  0  0           0  0  0
    1.9875   -1.8667    0.0000 O   0  0  0  0  0  0           0  0  0
    2.5250   -1.1667    0.0000 C   0  0  0  0  0  0           0  0  0
    1.2167   -3.3542    0.0000 C   0  0  0  0  0  0           0  0  0
    7.9417   -3.6292    0.0000 C   0  0  0  0  0  0           0  0  0
    3.9000   -2.3167    0.0000 C   0  0  0  0  0  0           0  0  0
    3.0500   -1.4667    0.0000 C   0  0  0  0  0  0           0  0  0
    8.9750   -4.2167    0.0000 C   0  0  0  0  0  0           0  0  0
    1.4875   -1.1667    0.0000 O   0  0  0  0  0  0           0  0  0
    7.9417   -4.2292    0.0000 C   0  0  0  0  0  0           0  0  0
    4.0500   -1.7417    0.0000 C   0  0  0  0  0  0           0  0  0
    8.4500   -3.3292    0.0000 C   0  0  0  0  0  0           0  0  0
    3.3167   -2.4792    0.0000 C   0  0  0  0  0  0           0  0  0
    2.8917   -2.0542    0.0000 C   0  0  0  0  0  0           0  0  0
    3.6292   -1.3167    0.0000 C   0  0  0  0  0  0           0  0  0
    8.4542   -4.5167    0.0000 C   0  0  0  0  0  0           0  0  0
    8.9667   -3.6167    0.0000 C   0  0  0  0  0  0           0  0  0
    2.2542   -2.7417    0.0000 C   0  0  0  0  0  0           0  0  0
    9.4875   -4.5167    0.0000 O   0  0  0  0  0  0           0  0  0
    1.7375   -2.4417    0.0000 C   0  0  0  0  0  0           0  0  0
    1.7375   -4.2417    0.0000 C   0  0  0  0  0  0           0  0  0
    1.2125   -2.7417    0.0000 C   0  0  0  0  0  0           0  0  0
    0.7000   -3.6542    0.0000 C   0  0  0  0  0  0           0  0  0
    9.4875   -5.1167    0.0000 C   0  0  0  0  0  0           0  0  0
    1.2250   -4.5417    0.0000 C   0  0  0  0  0  0           0  0  0
    0.7000   -4.2542    0.0000 C   0  0  0  0  0  0           0  0  0
  2  1  1  0     0  0
  3  2  1  0     0  0
  4  5  1  0     0  0
  5  3  1  0     0  0
  6  8  1  0     0  0
  7  4  1  0     0  0
  8  7  1  0     0  0
  9 12  1  0     0  0
 10  1  1  0     0  0
 11  1  1  0     0  0
 12  6  1  0     0  0
 13 16  1  0     0  0
 14  9  1  0     0  0
 15 22  1  0     0  0
 16 10  2  0     0  0
 17  2  2  0     0  0
 18  4  2  0     0  0
 19  7  1  0     0  0
 20  6  2  0     0  0
 21 15  2  0     0  0
 22 26  1  0     0  0
 23 14  1  0     0  0
 24 11  1  0     0  0
 25 19  1  0     0  0
 26 33  1  0     0  0
 27 36  1  0     0  0
 28 15  1  0     0  0
 29 24  2  0     0  0
 30 25  2  0     0  0
 31 24  1  0     0  0
 32 25  1  0     0  0
 33 32  2  0     0  0
 34 30  1  0     0  0
 35 29  1  0     0  0
 36 31  2  0     0  0
 37  9  2  0     0  0
 38 27  1  0     0  0
 39 37  1  0     0  0
 40 14  2  0     0  0
 41 39  2  0     0  0
 42 23  2  0     0  0
 43 38  1  0     0  0
 44 40  1  0     0  0
 45 44  2  0     0  0
  3 13  2  0     0  0
 27 35  2  0     0  0
 26 34  2  0     0  0
 41 23  1  0     0  0
 45 42  1  0     0  0
M  END