
  SciTegic01061414252D

 23 24  0  0  0  0            999 V2000
   11.5363   -8.4223    0.0000 S   0  0
   11.1232   -9.1364    0.0000 O   0  0
   11.9482   -9.1370    0.0000 O   0  0
   12.2522   -7.1830    0.0000 C   0  0
   12.2510   -8.0103    0.0000 C   0  0
   12.9659   -8.4232    0.0000 C   0  0
   13.6822   -8.0099    0.0000 C   0  0
   13.6794   -7.1793    0.0000 C   0  0
   12.9641   -6.7702    0.0000 C   0  0
   14.3923   -6.7641    0.0000 C   0  0
   15.1083   -7.1740    0.0000 C   0  0
   14.3892   -5.9393    0.0000 O   0  0
   15.8212   -6.7588    0.0000 S   0  0
   16.5371   -7.1685    0.0000 C   0  0
   16.5371   -7.9924    0.0000 N   0  0
   17.2523   -8.4021    0.0000 C   0  0
   17.9661   -7.9869    0.0000 C   0  0
   17.9603   -7.1576    0.0000 C   0  0
   17.2446   -6.7517    0.0000 N   0  0
   10.8222   -8.0092    0.0000 N   0  0
   12.9657   -9.2481    0.0000 Cl  0  0
   18.6826   -8.3957    0.0000 C   0  0
   19.3949   -7.9796    0.0000 C   0  0
  2  1  2  0
  1  3  2  0
  4  5  2  0
  5  6  1  0
  6  7  2  0
  7  8  1  0
  8  9  2  0
  9  4  1  0
  8 10  1  0
 10 11  1  0
 10 12  2  0
 11 13  1  0
 13 14  1  0
 14 15  2  0
 15 16  1  0
 16 17  2  0
 17 18  1  0
 18 19  2  0
 19 14  1  0
  5  1  1  0
  1 20  1  0
  6 21  1  0
 17 22  1  0
 22 23  1  0
M  END