
          11280715122D 1   1.00000     0.00000     0

 33 35  0     0  0            999 V2000
    7.8750   -3.2917    0.0000 C   0  0  0  0  0  0           0  0  0
    7.1625   -2.8792    0.0000 C   0  0  0  0  0  0           0  0  0
    3.1167   -3.4000    0.0000 N   0  0  3  0  0  0           0  0  0
    7.8750   -4.1167    0.0000 C   0  0  0  0  0  0           0  0  0
    2.4000   -2.9875    0.0000 C   0  0  0  0  0  0           0  0  0
    4.4792   -4.3167    0.0000 N   0  0  3  0  0  0           0  0  0
    7.1625   -2.0542    0.0000 N   0  0  3  0  0  0           0  0  0
    8.5875   -4.5292    0.0000 N   0  0  0  0  0  0           0  0  0
    6.4417   -3.2917    0.0000 O   0  0  0  0  0  0           0  0  0
    2.4000   -2.1542    0.0000 C   0  0  0  0  0  0           0  0  0
    3.1125   -1.7417    0.0000 O   0  0  0  0  0  0           0  0  0
    3.0542   -4.2167    0.0000 C   0  0  0  0  0  0           0  0  0
    3.8542   -3.0292    0.0000 C   0  0  0  0  0  0           0  0  0
    7.1625   -4.5375    0.0000 N   0  0  0  0  0  0           0  0  0
    3.8167   -0.4917    0.0000 C   0  0  3  0  0  0           0  0  0
    4.5375   -3.5000    0.0000 C   0  0  0  0  0  0           0  0  0
    3.7375   -4.6792    0.0000 C   0  0  0  0  0  0           0  0  0
    3.1042   -0.9125    0.0000 C   0  0  0  0  0  0           0  0  0
    8.5875   -2.8792    0.0000 C   0  0  0  0  0  0           0  0  0
    5.1542   -4.7875    0.0000 C   0  0  0  0  0  0           0  0  0
    5.8667   -4.3667    0.0000 C   0  0  0  0  0  0           0  0  0
    1.6792   -3.4000    0.0000 C   0  0  0  0  0  0           0  0  0
    9.3042   -4.1167    0.0000 C   0  0  0  0  0  0           0  0  0
    6.4500   -4.9500    0.0000 C   0  0  0  0  0  0           0  0  0
    6.4417   -1.6417    0.0000 C   0  0  0  0  0  0           0  0  0
    7.8750   -1.6417    0.0000 C   0  0  0  0  0  0           0  0  0
    1.6792   -1.7417    0.0000 C   0  0  0  0  0  0           0  0  0
    4.5292   -0.9042    0.0000 C   0  0  0  0  0  0           0  0  0
    3.8042    0.3333    0.0000 C   0  0  0  0  0  0           0  0  0
    4.0292   -1.2917    0.0000 C   0  0  0  0  0  0           0  0  0
    9.3042   -3.2917    0.0000 C   0  0  0  0  0  0           0  0  0
    0.9667   -2.9875    0.0000 C   0  0  0  0  0  0           0  0  0
    0.9667   -2.1542    0.0000 C   0  0  0  0  0  0           0  0  0
  2  1  1  0     0  0
  3 12  1  0     0  0
  4  1  2  0     0  0
  5  3  1  0     0  0
  6 20  1  0     0  0
  7  2  1  0     0  0
  8  4  1  0     0  0
  9  2  2  0     0  0
 10  5  1  0     0  0
 11 10  1  0     0  0
 12 17  1  0     0  0
 13 16  1  0     0  0
 14  4  1  0     0  0
 15 18  1  0     0  0
 16  6  1  0     0  0
 17  6  1  0     0  0
 18 11  1  0     0  0
 19  1  1  0     0  0
 20 21  1  0     0  0
 21 24  1  0     0  0
 22  5  2  0     0  0
 23 31  1  0     0  0
 24 14  1  0     0  0
 25  7  1  0     0  0
 26  7  1  0     0  0
 27 10  2  0     0  0
 28 15  1  0     0  0
 29 15  1  0     0  0
 30 15  1  0     0  0
 31 19  2  0     0  0
 32 22  1  0     0  0
 33 32  2  0     0  0
 23  8  2  0     0  0
  3 13  1  0     0  0
 33 27  1  0     0  0
M  END