
  SciTegic05061409512D

 24 27  0  0  0  0            999 V2000
   15.2171  -10.2397    0.0000 C   0  0
   14.3999  -10.2397    0.0000 C   0  0
   13.9936  -10.9435    0.0000 C   0  0
   14.3999  -11.6518    0.0000 C   0  0
   15.2171  -11.6518    0.0000 C   0  0
   15.6279  -10.9435    0.0000 N   0  0
   13.1780  -10.9387    0.0000 N   0  0
   12.6985  -10.2769    0.0000 C   0  0
   11.9210  -10.5284    0.0000 C   0  0
   11.9199  -11.3456    0.0000 C   0  0
   12.6967  -11.5991    0.0000 C   0  0
   16.4414  -10.9432    0.0000 C   0  0
   16.8504  -11.6520    0.0000 C   0  0
   17.6668  -11.6512    0.0000 C   0  0
   18.0753  -10.9424    0.0000 C   0  0
   17.6613  -10.2329    0.0000 C   0  0
   16.8462  -10.2372    0.0000 C   0  0
   18.0664   -9.5232    0.0000 C   0  0
   18.8836   -9.5192    0.0000 C   0  0
   19.2957  -10.2249    0.0000 N   0  0
   18.9691  -10.9729    0.0000 C   0  0
   19.5791  -11.5167    0.0000 C   0  0
   20.2848  -11.1046    0.0000 C   0  0
   20.1109  -10.3062    0.0000 C   0  0
  1  2  1  0
  1  6  1  0
  2  3  1  0
  3  4  1  0
  4  5  1  0
  5  6  1  0
  7  8  1  0
  8  9  1  0
  9 10  1  0
 10 11  1  0
 11  7  1  0
  3  7  1  0
 12 13  2  0
 13 14  1  0
 14 15  2  0
 15 16  1  0
 16 17  2  0
 17 12  1  0
  6 12  1  0
 16 18  1  0
 18 19  1  0
 19 20  1  0
 20 21  1  0
 21 22  1  0
 22 23  1  0
 23 24  1  0
 24 20  1  0
M  END