
  SciTegic12231509382D

 29 32  0  0  0  0            999 V2000
   -0.8750   -0.5772    0.0000 C   0  0
   -0.3901   -1.2446    0.0000 N   0  0
   -0.3901    0.0902    0.0000 N   0  0
    0.3945   -0.1647    0.0000 C   0  0
    0.3945   -0.9897    0.0000 C   0  0
   -0.6450   -2.0293    0.0000 C   0  0
   -0.6450    0.8749    0.0000 C   0  0
   -1.7000   -0.5772    0.0000 N   0  0
   -0.3479    2.2726    0.0000 C   0  0
   -0.0930   -2.6423    0.0000 C   0  0
   -0.0508    3.6703    0.0000 C   0  0
    0.2041    2.8857    0.0000 C   0  0
   -0.0930    1.4880    0.0000 C   0  0
   -0.8578    3.8418    0.0000 C   0  0
   -1.1549    2.4441    0.0000 C   0  0
   -0.3479   -3.4270    0.0000 C   0  0
   -1.4099    3.2287    0.0000 C   0  0
    0.5012    4.2834    0.0000 Cl  0  0
   -1.1128    4.6264    0.0000 Cl  0  0
    0.7140    1.3164    0.0000 O   0  0
    1.1090   -1.4022    0.0000 C   0  0
    1.1090    0.2478    0.0000 C   0  0
    0.7140   -2.4708    0.0000 C   0  0
   -1.1549   -3.5985    0.0000 C   0  0
    0.2041   -4.0401    0.0000 C   0  0
    1.8235   -0.1647    0.0000 C   0  0
    1.8235   -0.9897    0.0000 C   0  0
    1.2660   -3.0839    0.0000 C   0  0
    1.0111   -3.8685    0.0000 C   0  0
 13  7  1  0
 14 11  1  0
  9 15  2  0
 16 10  1  0
 17 15  1  0
 18 11  1  0
 19 14  1  0
 20 13  1  0
 21  5  2  0
  4 22  2  0
 23 10  2  0
 24 16  1  0
 16 25  2  0
 26 22  1  0
 27 21  1  0
 28 23  1  0
 29 25  1  0
  4  5  1  0
 26 27  2  0
 17 14  2  0
 29 28  2  0
  2  1  1  0
  3  1  1  0
  4  3  1  0
  5  2  1  0
  6  2  1  0
  7  3  1  0
  8  1  2  0
  9 13  1  0
 10  6  1  0
 11 12  2  0
 12  9  1  0
M  END