
          11280715212D 1   1.00000     0.00000     0

 34 36  0     0  0            999 V2000
    5.5292   -3.2375    0.0000 N   0  3  0  0  0  0           0  0  0
    1.9667   -2.8375    0.0000 N   0  3  0  0  0  0           0  0  0
    1.2417   -2.4250    0.0000 C   0  0  0  0  0  0           0  0  0
    6.2417   -2.8292    0.0000 C   0  0  0  0  0  0           0  0  0
    6.2417   -2.0042    0.0000 C   0  0  0  0  0  0           0  0  0
    1.2417   -1.6000    0.0000 C   0  0  0  0  0  0           0  0  0
    5.5292   -1.5917    0.0000 C   0  0  0  0  0  0           0  0  0
    1.9542   -1.1792    0.0000 C   0  0  0  0  0  0           0  0  0
    2.6792   -2.4167    0.0000 C   0  0  0  0  0  0           0  0  0
    4.8167   -2.8292    0.0000 C   0  0  0  0  0  0           0  0  0
    2.6667   -1.5917    0.0000 C   0  0  0  0  0  0           0  0  0
    4.8167   -2.0000    0.0000 C   0  0  0  0  0  0           0  0  0
    5.5042   -0.7500    0.0000 N   0  0  0  0  0  0           0  0  0
    1.9542   -0.3542    0.0000 N   0  0  0  0  0  0           0  0  0
    6.2750   -4.6792    0.0000 I   0  5  0  0  0  0           0  0  0
    0.6792   -4.6167    0.0000 I   0  5  0  0  0  0           0  0  0
    1.9667   -3.6625    0.0000 C   0  0  0  0  0  0           0  0  0
    4.6917   -3.4792    0.0000 C   0  0  0  0  0  0           0  0  0
    0.5292   -1.1875    0.0000 C   0  0  0  0  0  0           0  0  0
    6.9542   -1.5875    0.0000 C   0  0  0  0  0  0           0  0  0
    6.9542   -3.2417    0.0000 C   0  0  0  0  0  0           0  0  0
    0.5292   -2.8417    0.0000 C   0  0  0  0  0  0           0  0  0
    2.6667    0.0583    0.0000 C   0  0  0  0  0  0           0  0  0
    5.5167    0.0708    0.0000 C   0  0  0  0  0  0           0  0  0
    4.1042   -4.0667    0.0000 C   0  0  0  0  0  0           0  0  0
    2.6792   -4.0667    0.0000 C   0  0  0  0  0  0           0  0  0
   -0.1833   -1.6042    0.0000 C   0  0  0  0  0  0           0  0  0
    7.6667   -1.9917    0.0000 C   0  0  0  0  0  0           0  0  0
   -0.1833   -2.4292    0.0000 C   0  0  0  0  0  0           0  0  0
    7.6667   -2.8292    0.0000 C   0  0  0  0  0  0           0  0  0
    4.8042   -0.3417    0.0000 C   0  0  0  0  0  0           0  0  0
    3.3792   -0.3500    0.0000 C   0  0  0  0  0  0           0  0  0
    4.0917    0.0625    0.0000 C   0  0  0  0  0  0           0  0  0
    3.3917   -3.6542    0.0000 C   0  0  0  0  0  0           0  0  0
  2 17  1  0     0  0
  3  2  1  0     0  0
  4  1  2  0     0  0
  5  4  1  0     0  0
  6  3  1  0     0  0
  7 12  1  0     0  0
  8 11  2  0     0  0
  9  2  2  0     0  0
 10  1  1  0     0  0
 11  9  1  0     0  0
 12 10  2  0     0  0
 13  7  1  0     0  0
 14  8  1  0     0  0
 17 26  1  0     0  0
 18  1  1  0     0  0
 19  6  2  0     0  0
 20  5  1  0     0  0
 21  4  1  0     0  0
 22  3  2  0     0  0
 23 32  1  0     0  0
 24 13  1  0     0  0
 25 18  1  0     0  0
 26 34  1  0     0  0
 27 29  2  0     0  0
 28 30  1  0     0  0
 29 22  1  0     0  0
 30 21  2  0     0  0
 31 24  1  0     0  0
 32 33  1  0     0  0
 33 31  1  0     0  0
 34 25  1  0     0  0
  7  5  2  0     0  0
 28 20  2  0     0  0
  6  8  1  0     0  0
 23 14  1  0     0  0
 27 19  1  0     0  0
M  CHG  4   1   1   2   1  15  -1  16  -1
M  END