
          11280715152D 1   1.00000     0.00000     0

 21 24  0     0  0            999 V2000
    6.9417   -7.0792    0.0000 C   0  0  0  0  0  0           0  0  0
    6.2292   -6.6667    0.0000 N   0  0  3  0  0  0           0  0  0
    7.5542   -6.5292    0.0000 N   0  0  0  0  0  0           0  0  0
    6.9417   -7.9167    0.0000 C   0  0  0  0  0  0           0  0  0
    6.2292   -8.3292    0.0000 N   0  0  3  0  0  0           0  0  0
    6.4000   -5.8625    0.0000 C   0  0  0  0  0  0           0  0  0
    7.2250   -5.7750    0.0000 C   0  0  0  0  0  0           0  0  0
    5.5167   -7.0875    0.0000 C   0  0  0  0  0  0           0  0  0
    5.5125   -7.9125    0.0000 C   0  0  0  0  0  0           0  0  0
    7.6542   -8.3292    0.0000 O   0  0  0  0  0  0           0  0  0
    7.6375   -5.0625    0.0000 C   0  0  0  0  0  0           0  0  0
    6.2250   -9.1542    0.0000 C   0  0  0  0  0  0           0  0  0
    4.8000   -6.6750    0.0000 C   0  0  0  0  0  0           0  0  0
    4.8000   -8.3292    0.0000 C   0  0  0  0  0  0           0  0  0
    8.4625   -5.0667    0.0000 C   0  0  0  0  0  0           0  0  0
    7.2250   -4.3542    0.0000 C   0  0  0  0  0  0           0  0  0
    4.0875   -7.0917    0.0000 C   0  0  0  0  0  0           0  0  0
    4.0875   -7.9167    0.0000 C   0  0  0  0  0  0           0  0  0
    7.6292   -3.6375    0.0000 C   0  0  0  0  0  0           0  0  0
    8.8750   -4.3500    0.0000 C   0  0  0  0  0  0           0  0  0
    8.4625   -3.6375    0.0000 C   0  0  0  0  0  0           0  0  0
  2  1  1  0     0  0
  3  1  2  0     0  0
  4  1  1  0     0  0
  5  4  1  0     0  0
  6  2  1  0     0  0
  7  3  1  0     0  0
  8  2  1  0     0  0
  9  5  1  0     0  0
 10  4  2  0     0  0
 11  7  1  0     0  0
 12  5  1  0     0  0
 13  8  2  0     0  0
 14  9  2  0     0  0
 15 11  2  0     0  0
 16 11  1  0     0  0
 17 13  1  0     0  0
 18 14  1  0     0  0
 19 16  2  0     0  0
 20 15  1  0     0  0
 21 19  1  0     0  0
  6  7  2  0     0  0
  9  8  1  0     0  0
 18 17  2  0     0  0
 21 20  2  0     0  0
M  END