
  Mrv0541 05211314572D          

 35 38  0  0  0  0            999 V2000
   -0.0636    0.4735    0.0000 C   0  0  0  0  0  0  0  0  0  0  0  0
    0.6508    0.0610    0.0000 C   0  0  0  0  0  0  0  0  0  0  0  0
    1.3653    0.4735    0.0000 C   0  0  0  0  0  0  0  0  0  0  0  0
    2.0798    0.0610    0.0000 N   0  0  0  0  0  0  0  0  0  0  0  0
    1.3653    1.2985    0.0000 O   0  0  0  0  0  0  0  0  0  0  0  0
    2.0798   -0.7640    0.0000 C   0  0  0  0  0  0  0  0  0  0  0  0
    2.7942   -1.1765    0.0000 C   0  0  0  0  0  0  0  0  0  0  0  0
    3.5087   -0.7640    0.0000 N   0  0  0  0  0  0  0  0  0  0  0  0
    3.5087    0.0610    0.0000 C   0  0  0  0  0  0  0  0  0  0  0  0
    2.7942    0.4735    0.0000 C   0  0  0  0  0  0  0  0  0  0  0  0
    4.2232   -1.1765    0.0000 C   0  0  0  0  0  0  0  0  0  0  0  0
    4.9376   -0.7640    0.0000 C   0  0  0  0  0  0  0  0  0  0  0  0
    5.6521   -1.1765    0.0000 C   0  0  0  0  0  0  0  0  0  0  0  0
    5.6521   -2.0015    0.0000 C   0  0  0  0  0  0  0  0  0  0  0  0
    4.9376   -2.4140    0.0000 C   0  0  0  0  0  0  0  0  0  0  0  0
    4.2232   -2.0015    0.0000 C   0  0  0  0  0  0  0  0  0  0  0  0
   -0.7781    0.0610    0.0000 N   0  0  0  0  0  0  0  0  0  0  0  0
   -0.7781   -0.7640    0.0000 C   0  0  0  0  0  0  0  0  0  0  0  0
   -1.4926    0.4735    0.0000 C   0  0  0  0  0  0  0  0  0  0  0  0
   -2.2071    0.0610    0.0000 C   0  0  0  0  0  0  0  0  0  0  0  0
   -2.9215    0.4735    0.0000 C   0  0  0  0  0  0  0  0  0  0  0  0
   -4.2272    0.7510    0.0000 C   0  0  0  0  0  0  0  0  0  0  0  0
   -3.6752    0.1380    0.0000 C   0  0  0  0  0  0  0  0  0  0  0  0
   -3.9301   -0.6467    0.0000 C   0  0  0  0  0  0  0  0  0  0  0  0
   -4.7371   -0.8182    0.0000 C   0  0  0  0  0  0  0  0  0  0  0  0
   -5.2891   -0.2051    0.0000 C   0  0  0  0  0  0  0  0  0  0  0  0
   -5.0342    0.5795    0.0000 C   0  0  0  0  0  0  0  0  0  0  0  0
   -3.0078    1.2940    0.0000 C   0  0  0  0  0  0  0  0  0  0  0  0
   -3.8147    1.4655    0.0000 C   0  0  0  0  0  0  0  0  0  0  0  0
   -4.0697    2.2501    0.0000 C   0  0  0  0  0  0  0  0  0  0  0  0
   -3.5176    2.8632    0.0000 C   0  0  0  0  0  0  0  0  0  0  0  0
   -2.7107    2.6917    0.0000 C   0  0  0  0  0  0  0  0  0  0  0  0
   -2.4557    1.9071    0.0000 C   0  0  0  0  0  0  0  0  0  0  0  0
    4.9376   -3.2390    0.0000 Cl  0  0  0  0  0  0  0  0  0  0  0  0
    7.8914    0.0000    0.0000 Cl  0  0  0  0  0  0  0  0  0  0  0  0
  4 10  1  0  0  0  0
  1 17  1  0  0  0  0
  6  7  1  0  0  0  0
 17 18  1  0  0  0  0
  7  8  1  0  0  0  0
 17 19  1  0  0  0  0
  8  9  1  0  0  0  0
 19 20  1  0  0  0  0
  9 10  1  0  0  0  0
 20 21  1  0  0  0  0
 21 23  1  0  0  0  0
 22 29  1  0  0  0  0
 28 21  1  0  0  0  0
 22 23  2  0  0  0  0
  4  6  1  0  0  0  0
  8 11  1  0  0  0  0
  2  3  1  0  0  0  0
 11 12  2  0  0  0  0
  1  2  1  0  0  0  0
 12 13  1  0  0  0  0
 22 27  1  0  0  0  0
 23 24  1  0  0  0  0
 24 25  2  0  0  0  0
 25 26  1  0  0  0  0
 26 27  2  0  0  0  0
 28 29  2  0  0  0  0
  3  4  1  0  0  0  0
 13 14  2  0  0  0  0
 14 15  1  0  0  0  0
  3  5  2  0  0  0  0
 15 16  2  0  0  0  0
 28 33  1  0  0  0  0
 29 30  1  0  0  0  0
 30 31  2  0  0  0  0
 31 32  1  0  0  0  0
 32 33  2  0  0  0  0
 16 11  1  0  0  0  0
 15 34  1  0  0  0  0
M  END