
  SciTegic09261414462D

 10 10  0  0  0  0            999 V2000
   19.8960   -3.0995    0.0000 C   0  0
   19.8948   -3.9190    0.0000 C   0  0
   20.6029   -4.3280    0.0000 C   0  0
   21.3125   -3.9186    0.0000 C   0  0
   21.3097   -3.0959    0.0000 C   0  0
   20.6011   -2.6906    0.0000 C   0  0
   22.0158   -2.6847    0.0000 N   0  0
   22.0209   -4.3261    0.0000 N   0  0
   19.1868   -4.3271    0.0000 C   0  0
   19.1881   -2.6911    0.0000 Cl  0  0
  1  2  2  0
  2  3  1  0
  3  4  2  0
  4  5  1  0
  5  6  2  0
  6  1  1  0
  5  7  1  0
  4  8  1  0
  2  9  1  0
  1 10  1  0
M  END