
  CDK    9/16/09,9:57

 12 13  0  0  0  0  0  0  0  0999 V2000
    1.2657   -8.6275    0.0000 N   0  0  0  0  0  0  0  0  0  0  0  0
    1.0491   -9.4235    0.0000 C   0  0  0  0  0  0  0  0  0  0  0  0
    1.7392   -9.8758    0.0000 N   0  0  0  0  0  0  0  0  0  0  0  0
    2.3824   -9.3591    0.0000 N   0  0  0  0  0  0  0  0  0  0  0  0
    2.0899   -8.5877    0.0000 N   0  0  0  0  0  0  0  0  0  0  0  0
    0.2808   -9.7140    0.0000 C   0  0  0  0  0  0  0  0  0  0  0  0
   -0.3585   -9.1903    0.0000 C   0  0  0  0  0  0  0  0  0  0  0  0
   -1.1295   -9.4823    0.0000 C   0  0  0  0  0  0  0  0  0  0  0  0
   -1.2624  -10.2977    0.0000 C   0  0  0  0  0  0  0  0  0  0  0  0
   -0.6183  -10.8202    0.0000 C   0  0  0  0  0  0  0  0  0  0  0  0
    0.1502  -10.5253    0.0000 C   0  0  0  0  0  0  0  0  0  0  0  0
   -2.0336  -10.5913    0.0000 Cl  0  0  0  0  0  0  0  0  0  0  0  0
  6  7  2  0  0  0  0 
  2  3  1  0  0  0  0 
  7  8  1  0  0  0  0 
  3  4  1  0  0  0  0 
  8  9  2  0  0  0  0 
  4  5  2  0  0  0  0 
  9 10  1  0  0  0  0 
  5  1  1  0  0  0  0 
 10 11  2  0  0  0  0 
 11  6  1  0  0  0  0 
  2  6  1  0  0  0  0 
  1  2  2  0  0  0  0 
  9 12  1  0  0  0  0 
M  END