
  SciTegic02271217242D

 40 43  0  0  0  0            999 V2000
   27.5819  -17.9458    0.0000 C   0  0
   27.5807  -18.7732    0.0000 C   0  0
   28.2956  -19.1860    0.0000 C   0  0
   29.0120  -18.7727    0.0000 C   0  0
   29.0091  -17.9422    0.0000 C   0  0
   28.2938  -17.5330    0.0000 C   0  0
   29.7221  -17.5270    0.0000 O   0  0
   30.4381  -17.9368    0.0000 C   0  0
   30.4378  -18.7594    0.0000 N   0  0
   31.1530  -19.1692    0.0000 C   0  0
   31.8669  -18.7539    0.0000 C   0  0
   31.8611  -17.9247    0.0000 C   0  0
   31.1454  -17.5187    0.0000 C   0  0
   32.5835  -19.1628    0.0000 Cl  0  0
   31.1380  -16.6937    0.0000 N   0  0
   31.8487  -16.2748    0.0000 S   0  0
   32.5669  -16.6809    0.0000 C   0  0
   31.4292  -15.5542    0.0000 O   0  0
   32.2542  -15.5542    0.0000 O   0  0
   32.5713  -17.5052    0.0000 C   0  0
   33.2886  -17.9113    0.0000 C   0  0
   34.0003  -17.4923    0.0000 C   0  0
   33.9902  -16.6631    0.0000 C   0  0
   33.2724  -16.2608    0.0000 C   0  0
   34.7190  -17.8974    0.0000 Cl  0  0
   26.8659  -19.1851    0.0000 C   0  0
   26.1518  -18.7720    0.0000 N   0  0
   26.8653  -20.0101    0.0000 O   0  0
   26.1525  -17.9470    0.0000 C   0  0
   25.4383  -17.5340    0.0000 C   0  0
   24.7235  -17.9459    0.0000 N   0  0
   24.0071  -17.5258    0.0000 C   0  0
   23.2945  -17.9343    0.0000 C   0  0
   23.2896  -18.7596    0.0000 C   0  0
   24.0035  -19.1749    0.0000 C   0  0
   24.7224  -18.7648    0.0000 C   0  0
   34.6995  -16.2417    0.0000 C   0  0
   35.4191  -16.6453    0.0000 F   0  0
   34.6892  -15.4168    0.0000 F   0  0
   35.4083  -15.8250    0.0000 F   0  0
  4  5  1  0
 17 20  2  0
  9 10  1  0
 20 21  1  0
  2  3  1  0
 21 22  2  0
 10 11  2  0
 22 23  1  0
  5  6  2  0
 23 24  2  0
 24 17  1  0
 11 12  1  0
 22 25  1  0
  6  1  1  0
  2 26  1  0
 12 13  2  0
 26 27  1  0
 13  8  1  0
 26 28  2  0
  1  2  2  0
 27 29  1  0
 11 14  1  0
 29 30  1  0
  5  7  1  0
 30 31  1  0
 31 32  1  0
 13 15  1  0
  3  4  2  0
 15 16  1  0
  7  8  1  0
 16 17  1  0
 31 36  1  0
 32 33  1  0
 33 34  1  0
 34 35  1  0
 35 36  1  0
 23 37  1  0
 16 18  2  0
 37 38  1  0
  8  9  2  0
 37 39  1  0
 16 19  2  0
 37 40  1  0
M  END