
  SciTegic12171313032D

 27 29  0  0  0  0            999 V2000
    1.8930  -18.0029    0.0000 C   0  0
    1.8918  -18.8225    0.0000 C   0  0
    2.5999  -19.2314    0.0000 N   0  0
    3.3095  -18.8220    0.0000 C   0  0
    3.3067  -17.9993    0.0000 C   0  0
    2.5981  -17.5941    0.0000 N   0  0
    4.0179  -19.2295    0.0000 N   0  0
    4.0129  -17.5881    0.0000 N   0  0
    4.0098  -16.7709    0.0000 C   0  0  1  0  0  0
    4.7160  -16.3596    0.0000 C   0  0
    3.3006  -16.3650    0.0000 C   0  0
    5.4205  -16.7691    0.0000 C   0  0
    6.1262  -16.3585    0.0000 C   0  0
    6.1235  -15.5405    0.0000 C   0  0
    5.4093  -15.1347    0.0000 C   0  0
    4.7065  -15.5476    0.0000 C   0  0
    1.1872  -17.5947    0.0000 C   0  0
    1.1884  -16.7764    0.0000 C   0  0
    0.4814  -16.3680    0.0000 C   0  0
   -0.2351  -16.7769    0.0000 C   0  0
   -0.2296  -17.5983    0.0000 C   0  0
    0.4832  -18.0029    0.0000 C   0  0
   -0.9331  -18.0073    0.0000 C   0  0
   -1.6436  -17.6014    0.0000 O   0  0
   -0.9362  -18.8245    0.0000 O   0  0
    1.8964  -16.3683    0.0000 O   0  0
    1.8971  -15.5512    0.0000 C   0  0
  1  2  2  0
  2  3  1  0
  3  4  2  0
  4  5  1  0
  5  6  2  0
  6  1  1  0
  4  7  1  0
  5  8  1  0
  8  9  1  0
  9 10  1  0
  9 11  1  6
 10 12  2  0
 12 13  1  0
 13 14  2  0
 14 15  1  0
 15 16  2  0
 16 10  1  0
 17 18  2  0
 18 19  1  0
 19 20  2  0
 20 21  1  0
 21 22  2  0
 22 17  1  0
  1 17  1  0
 23 24  1  0
 23 25  2  0
 21 23  1  0
 18 26  1  0
 26 27  1  0
M  END