
          02060813482D 1   1.00000     0.00000     0

 53 58  0     1  0            999 V2000
   -3.7447  -22.8441    0.0000 N   0  0  0  0  0  0           0  0  0
   -3.0302  -22.4316    0.0000 C   0  0  2  0  0  0           0  0  0
   -2.3157  -22.8441    0.0000 C   0  0  0  0  0  0           0  0  0
   -3.0302  -21.6066    0.0000 C   0  0  0  0  0  0           0  0  0
   -3.7447  -21.1940    0.0000 C   0  0  0  0  0  0           0  0  0
   -3.7419  -20.3679    0.0000 C   0  0  0  0  0  0           0  0  0
   -4.4556  -19.9555    0.0000 C   0  0  0  0  0  0           0  0  0
   -5.1710  -20.3680    0.0000 C   0  0  0  0  0  0           0  0  0
   -5.1684  -21.1973    0.0000 C   0  0  0  0  0  0           0  0  0
   -4.4542  -21.6060    0.0000 C   0  0  0  0  0  0           0  0  0
   -4.4515  -22.4310    0.0000 C   0  0  0  0  0  0           0  0  0
   -3.0266  -19.9567    0.0000 C   0  0  0  0  0  0           0  0  0
   -5.8861  -19.9565    0.0000 O   0  0  0  0  0  0           0  0  0
   -2.3157  -23.6691    0.0000 O   0  0  0  0  0  0           0  0  0
   -1.6012  -22.4316    0.0000 N   0  0  3  0  0  0           0  0  0
   -0.8923  -22.8465    0.0000 C   0  0  1  0  0  0           0  0  0
   -0.1800  -22.4375    0.0000 C   0  0  0  0  0  0           0  0  0
   -1.6087  -21.6081    0.0000 C   0  0  0  0  0  0           0  0  0
   -0.8900  -21.1975    0.0000 C   0  0  0  0  0  0           0  0  0
   -0.1788  -21.6118    0.0000 C   0  0  0  0  0  0           0  0  0
    0.5336  -21.2030    0.0000 C   0  0  0  0  0  0           0  0  0
    0.5359  -20.3800    0.0000 C   0  0  0  0  0  0           0  0  0
   -0.1802  -19.9676    0.0000 C   0  0  0  0  0  0           0  0  0
   -0.8896  -20.3787    0.0000 C   0  0  0  0  0  0           0  0  0
   -0.8958  -23.6715    0.0000 C   0  0  0  0  0  0           0  0  0
   -1.6120  -24.0811    0.0000 O   0  0  0  0  0  0           0  0  0
   -0.1830  -24.0871    0.0000 N   0  0  0  0  0  0           0  0  0
   -0.8984  -22.0191    0.0000 H   0  0  0  0  0  0           0  0  0
    0.5332  -23.6776    0.0000 C   0  0  0  0  0  0           0  0  0
    1.2459  -24.0931    0.0000 C   0  0  0  0  0  0           0  0  0
    1.9621  -23.6836    0.0000 C   0  0  0  0  0  0           0  0  0
    2.6748  -24.0991    0.0000 C   0  0  0  0  0  0           0  0  0
    3.3911  -23.6896    0.0000 C   0  0  2  0  0  0           0  0  0
    3.3946  -22.8646    0.0000 N   0  0  0  0  0  0           0  0  0
    4.1038  -24.1053    0.0000 C   0  0  0  0  0  0           0  0  0
    4.1155  -24.9286    0.0000 N   0  0  0  0  0  0           0  0  0
    4.8855  -23.8382    0.0000 N   0  0  0  0  0  0           0  0  0
    5.3794  -24.4990    0.0000 C   0  0  0  0  0  0           0  0  0
    4.9044  -25.1713    0.0000 C   0  0  0  0  0  0           0  0  0
    5.2491  -25.9167    0.0000 C   0  0  0  0  0  0           0  0  0
    6.0688  -25.9912    0.0000 C   0  0  0  0  0  0           0  0  0
    6.5423  -25.3140    0.0000 C   0  0  0  0  0  0           0  0  0
    6.1950  -24.5713    0.0000 C   0  0  0  0  0  0           0  0  0
    4.1108  -22.4551    0.0000 C   0  0  0  0  0  0           0  0  0
    4.1142  -21.6301    0.0000 O   0  0  0  0  0  0           0  0  0
    4.8235  -22.8706    0.0000 O   0  0  0  0  0  0           0  0  0
    4.8305  -21.2206    0.0000 C   0  0  0  0  0  0           0  0  0
    4.8340  -20.3955    0.0000 C   0  0  0  0  0  0           0  0  0
    5.5489  -19.9884    0.0000 C   0  0  0  0  0  0           0  0  0
    5.5528  -19.1642    0.0000 C   0  0  0  0  0  0           0  0  0
    4.8395  -18.7478    0.0000 C   0  0  0  0  0  0           0  0  0
    4.1208  -19.1617    0.0000 C   0  0  0  0  0  0           0  0  0
    4.1205  -19.9846    0.0000 C   0  0  0  0  0  0           0  0  0
  1  2  1  0     0  0
 25 26  2  0     0  0
  8 13  1  0     0  0
 25 27  1  0     0  0
  6  7  1  0     0  0
 16 28  1  6     0  0
  3 14  2  0     0  0
 27 29  1  0     0  0
  2  4  1  1     0  0
 29 30  1  0     0  0
  3 15  1  0     0  0
 30 31  1  0     0  0
 15 16  1  0     0  0
 31 32  1  0     0  0
  7  8  2  0     0  0
 32 33  1  0     0  0
 33 34  1  6     0  0
  8  9  1  0     0  0
 33 35  1  0     0  0
 35 36  2  0     0  0
 15 18  1  0     0  0
 16 17  1  0     0  0
 36 39  1  0     0  0
 38 37  1  0     0  0
 37 35  1  0     0  0
 17 20  1  0     0  0
 19 18  1  0     0  0
 38 39  2  0     0  0
  4  5  1  0     0  0
 39 40  1  0     0  0
  9 10  2  0     0  0
 40 41  2  0     0  0
 19 20  2  0     0  0
 41 42  1  0     0  0
 10  5  1  0     0  0
 42 43  2  0     0  0
 43 38  1  0     0  0
 20 21  1  0     0  0
 34 44  1  0     0  0
  2  3  1  0     0  0
 44 45  1  0     0  0
 21 22  2  0     0  0
 44 46  2  0     0  0
 10 11  1  0     0  0
 45 47  1  0     0  0
 22 23  1  0     0  0
 47 48  1  0     0  0
  5  6  2  0     0  0
 48 49  2  0     0  0
 23 24  2  0     0  0
 49 50  1  0     0  0
 24 19  1  0     0  0
 50 51  2  0     0  0
  6 12  1  0     0  0
 51 52  1  0     0  0
 16 25  1  0     0  0
 52 53  2  0     0  0
 53 48  1  0     0  0
M  END