
          05080814042D 1   1.00000     0.00000     0

 38 43  0     1  0            999 V2000
   -5.1098   -8.0452    0.0000 C   0  0  0  0  0  0           0  0  0
   -5.1110   -8.8712    0.0000 C   0  0  0  0  0  0           0  0  0
   -4.3972   -9.2834    0.0000 C   0  0  0  0  0  0           0  0  0
   -4.3990   -7.6331    0.0000 C   0  0  0  0  0  0           0  0  0
   -3.6849   -8.0416    0.0000 C   0  0  0  0  0  0           0  0  0
   -3.6814   -8.8732    0.0000 C   0  0  0  0  0  0           0  0  0
   -2.9635   -9.2839    0.0000 C   0  0  0  0  0  0           0  0  0
   -2.9703   -7.6205    0.0000 C   0  0  0  0  0  0           0  0  0
   -2.2476   -8.0357    0.0000 C   0  0  2  0  0  0           0  0  0
   -2.2465   -8.8690    0.0000 C   0  0  2  0  0  0           0  0  0
   -1.5283   -9.2825    0.0000 N   0  0  3  0  0  0           0  0  0
   -0.8065   -8.8672    0.0000 C   0  0  0  0  0  0           0  0  0
   -0.8076   -8.0338    0.0000 C   0  0  1  0  0  0           0  0  0
   -1.5304   -7.6158    0.0000 C   0  0  0  0  0  0           0  0  0
   -1.5284  -10.1061    0.0000 C   0  0  0  0  0  0           0  0  0
   -0.0943   -7.6218    0.0000 C   0  0  0  0  0  0           0  0  0
    0.6191   -8.0334    0.0000 N   0  0  3  0  0  0           0  0  0
   -0.0945   -6.7981    0.0000 O   0  0  0  0  0  0           0  0  0
    0.6136   -8.8619    0.0000 C   0  0  0  0  0  0           0  0  0
    1.3228   -9.2734    0.0000 C   0  0  0  0  0  0           0  0  0
    2.0385   -8.8649    0.0000 N   0  0  3  0  0  0           0  0  0
    2.0403   -8.0403    0.0000 C   0  0  0  0  0  0           0  0  0
    1.3264   -7.6242    0.0000 C   0  0  0  0  0  0           0  0  0
   -2.2546   -9.6925    0.0000 H   0  0  0  0  0  0           0  0  0
   -2.2546   -7.2090    0.0000 H   0  0  0  0  0  0           0  0  0
    2.7504   -9.2792    0.0000 C   0  0  0  0  0  0           0  0  0
    2.7440  -10.1012    0.0000 C   0  0  0  0  0  0           0  0  0
    3.4551  -10.5156    0.0000 C   0  0  0  0  0  0           0  0  0
    3.4595   -8.8677    0.0000 N   0  0  0  0  0  0           0  0  0
   -4.4017   -6.8089    0.0000 O   0  0  0  0  0  0           0  0  0
   -5.1163   -6.3993    0.0000 C   0  0  0  0  0  0           0  0  0
    4.9563   -9.0267    0.0000 N   0  0  0  0  0  0           0  0  0
    4.1710   -9.2782    0.0000 C   0  0  0  0  0  0           0  0  0
    4.1687  -10.1034    0.0000 C   0  0  0  0  0  0           0  0  0
    4.9534  -10.3594    0.0000 N   0  0  0  0  0  0           0  0  0
    5.4381   -9.6915    0.0000 S   0  0  0  0  0  0           0  0  0
   -4.3987  -10.1070    0.0000 C   0  0  0  0  0  0           0  0  0
   -3.6861  -10.5202    0.0000 O   0  0  0  0  0  0           0  0  0
 16 18  2  0     0  0
 17 19  1  0     0  0
  9  8  1  0     0  0
  9 10  1  0     0  0
  5  4  2  0     0  0
  4  1  1  0     0  0
  5  6  1  0     0  0
 17 23  1  0     0  0
 19 20  1  0     0  0
 20 21  1  0     0  0
 21 22  1  0     0  0
 22 23  1  0     0  0
 10 24  1  1     0  0
  2  3  1  0     0  0
  9 25  1  6     0  0
  3  6  2  0     0  0
 21 26  1  0     0  0
  9 14  1  0     0  0
 26 27  1  0     0  0
 10 11  1  0     0  0
 27 28  2  0     0  0
 28 34  1  0     0  0
 11 12  1  0     0  0
 33 29  1  0     0  0
 29 26  2  0     0  0
 12 13  1  0     0  0
 13 14  1  0     0  0
 30 31  1  0     0  0
  4 30  1  0     0  0
 33 34  1  0     0  0
  1  2  2  0     0  0
 11 15  1  0     0  0
  5  8  1  0     0  0
 13 16  1  1     0  0
  6  7  1  0     0  0
 32 33  2  0     0  0
 34 35  2  0     0  0
 35 36  1  0     0  0
 36 32  1  0     0  0
 16 17  1  0     0  0
  3 37  1  0     0  0
  7 10  1  0     0  0
 37 38  2  0     0  0
M  END