
  SciTegic04021211102D

 18 20  0  0  0  0            999 V2000
    1.0027   -0.3583    0.0000 N   0  0
    1.0016   -1.1857    0.0000 C   0  0
    1.7164   -1.5985    0.0000 N   0  0
    1.7146    0.0545    0.0000 C   0  0
    2.4300   -0.3547    0.0000 C   0  0
    2.4302   -1.1811    0.0000 C   0  0
    3.2163   -1.4363    0.0000 N   0  0
    3.7020   -0.7675    0.0000 C   0  0
    3.2159   -0.0991    0.0000 N   0  0
    1.7121    0.8795    0.0000 N   0  0
    2.4254    1.2941    0.0000 C   0  0
    3.1389    0.8813    0.0000 C   0  0
    3.8517    1.2953    0.0000 C   0  0
    3.8497    2.1212    0.0000 C   0  0
    3.1289    2.5313    0.0000 C   0  0
    2.4191    2.1150    0.0000 C   0  0
    0.2868   -1.5976    0.0000 N   0  0
    3.1236    3.3563    0.0000 O   0  0
  8  9  2  0
  9  5  1  0
  4  1  1  0
  4 10  1  0
  5  6  1  0
 10 11  1  0
 11 12  2  0
  2  3  1  0
 12 13  1  0
  3  6  2  0
 13 14  2  0
  1  2  2  0
 14 15  1  0
  5  4  2  0
 15 16  2  0
 16 11  1  0
  6  7  1  0
  2 17  1  0
  7  8  1  0
 15 18  1  0
M  END