
          11280715412D 1   1.00000     0.00000     0

 31 34  0     0  0            999 V2000
    0.2000    0.7000    0.0000 C   0  0  0  0  0  0           0  0  0
   -0.7958   -0.1917    0.0000 C   0  0  0  0  0  0           0  0  0
    0.5292   -0.0542    0.0000 C   0  0  0  0  0  0           0  0  0
   -0.6208    0.6125    0.0000 N   0  0  0  0  0  0           0  0  0
   -0.0833   -0.6125    0.0000 N   0  0  3  0  0  0           0  0  0
    0.6125    1.4125    0.0000 C   0  0  0  0  0  0           0  0  0
   -1.5208   -0.2750    0.0000 C   0  0  0  0  0  0           0  0  0
   -1.9333    0.4375    0.0000 C   0  0  0  0  0  0           0  0  0
    1.4042    1.2000    0.0000 N   0  0  0  0  0  0           0  0  0
   -0.0833   -1.4375    0.0000 C   0  0  0  0  0  0           0  0  0
    1.9875    1.7875    0.0000 N   0  0  3  0  0  0           0  0  0
   -1.9333   -0.9917    0.0000 C   0  0  0  0  0  0           0  0  0
   -2.7583    0.4375    0.0000 C   0  0  0  0  0  0           0  0  0
    0.5792    2.2375    0.0000 O   0  0  0  0  0  0           0  0  0
    1.3417   -0.2167    0.0000 C   0  0  0  0  0  0           0  0  0
   -0.8000   -1.8375    0.0000 C   0  0  0  0  0  0           0  0  0
    0.6167   -1.8417    0.0000 C   0  0  0  0  0  0           0  0  0
   -3.1708   -0.2750    0.0000 C   0  0  0  0  0  0           0  0  0
   -1.5208    1.1500    0.0000 Cl  0  0  0  0  0  0           0  0  0
   -2.7583   -0.9875    0.0000 C   0  0  0  0  0  0           0  0  0
   -0.1000   -3.0750    0.0000 C   0  0  0  0  0  0           0  0  0
    0.6167   -2.6625    0.0000 C   0  0  0  0  0  0           0  0  0
   -0.8083   -2.6542    0.0000 C   0  0  0  0  0  0           0  0  0
   -3.9958   -0.2667    0.0000 Cl  0  0  0  0  0  0           0  0  0
   -0.1083   -3.9000    0.0000 Cl  0  0  0  0  0  0           0  0  0
    1.6000   -1.0125    0.0000 F   0  0  0  0  0  0           0  0  0
    2.7875    1.5708    0.0000 C   0  0  0  0  0  0           0  0  0
    1.7667    2.5833    0.0000 C   0  0  0  0  0  0           0  0  0
    3.3667    2.1500    0.0000 C   0  0  0  0  0  0           0  0  0
    2.3542    3.1708    0.0000 C   0  0  0  0  0  0           0  0  0
    3.1542    2.9458    0.0000 C   0  0  0  0  0  0           0  0  0
  2  4  2  0     0  0
  3  1  2  0     0  0
  4  1  1  0     0  0
  5  3  1  0     0  0
  6  1  1  0     0  0
  7  2  1  0     0  0
  8  7  2  0     0  0
  9  6  1  0     0  0
 10  5  1  0     0  0
 11  9  1  0     0  0
 12  7  1  0     0  0
 13  8  1  0     0  0
 14  6  2  0     0  0
 15  3  1  0     0  0
 16 10  2  0     0  0
 17 10  1  0     0  0
 18 20  1  0     0  0
 19  8  1  0     0  0
 20 12  2  0     0  0
 21 22  1  0     0  0
 22 17  2  0     0  0
 23 16  1  0     0  0
 24 18  1  0     0  0
 25 21  1  0     0  0
 26 15  1  0     0  0
 27 11  1  0     0  0
 28 11  1  0     0  0
 29 27  1  0     0  0
 30 28  1  0     0  0
 31 30  1  0     0  0
  2  5  1  0     0  0
 21 23  2  0     0  0
 31 29  1  0     0  0
 18 13  2  0     0  0
M  END