
          03140815522D 1   1.00000     0.00000     0

 18 18  0     0  0            999 V2000
    4.8253   -3.8359    0.0000 N   0  0  0  0  0  0           0  0  0
    5.6459   -3.8356    0.0000 O   0  0  0  0  0  0           0  0  0
    5.9009   -3.0521    0.0000 C   0  0  0  0  0  0           0  0  0
    5.2262   -2.5665    0.0000 C   0  0  0  0  0  0           0  0  0
    4.5629   -3.0529    0.0000 C   0  0  0  0  0  0           0  0  0
    0.8092   -2.6101    0.0000 C   0  0  0  0  0  0           0  0  0
    1.5959   -2.8595    0.0000 C   0  0  0  0  0  0           0  0  0
    2.3785   -3.1088    0.0000 C   0  0  0  0  0  0           0  0  0
    3.1653   -3.3582    0.0000 C   0  0  0  0  0  0           0  0  0
    3.7761   -2.8035    0.0000 O   0  0  0  0  0  0           0  0  0
    0.1983   -3.1648    0.0000 N   0  3  3  0  0  0           0  0  0
    6.6839   -2.7911    0.0000 C   0  0  0  0  0  0           0  0  0
   -0.2903   -2.4999    0.0000 C   0  0  0  0  0  0           0  0  0
   -1.0722   -2.7591    0.0000 C   0  0  0  0  0  0           0  0  0
   -1.0636   -3.5838    0.0000 C   0  0  0  0  0  0           0  0  0
   -0.2804   -3.8367    0.0000 C   0  0  0  0  0  0           0  0  0
    0.8171   -3.7142    0.0000 C   0  0  0  0  0  0           0  0  0
    1.4036   -4.8979    0.0000 I   0  5  0  0  0  0           0  0  0
  1  2  1  0     0  0
  2  3  1  0     0  0
  3  4  2  0     0  0
  4  5  1  0     0  0
  5  1  2  0     0  0
  6  7  1  0     0  0
  7  8  3  0     0  0
  8  9  1  0     0  0
  9 10  1  0     0  0
 10  5  1  0     0  0
  6 11  1  0     0  0
  3 12  1  0     0  0
 11 13  1  0     0  0
 13 14  1  0     0  0
 14 15  1  0     0  0
 15 16  1  0     0  0
 16 11  1  0     0  0
 11 17  1  0     0  0
M  CHG  2  11   1  18  -1
M  END