
  SciTegic11201309402D

 23 25  0  0  1  0            999 V2000
    5.4709   -3.4182    0.0000 C   0  0  2  0  0  0
    5.0534   -4.1271    0.0000 C   0  0  2  0  0  0
    7.2843   -1.7482    0.0000 S   0  0
    6.2754   -3.5791    0.0000 O   0  0
    4.2315   -4.1358    0.0000 C   0  0  1  0  0  0
    5.6144   -4.7403    0.0000 O   0  0
    6.3580   -4.4011    0.0000 C   0  0
    5.0534   -2.7050    0.0000 O   0  0
    5.8753   -2.7050    0.0000 C   0  0
    3.8096   -3.4226    0.0000 C   0  0  2  0  0  0
    6.6973   -2.7050    0.0000 O   0  0
    3.6835   -4.7533    0.0000 O   0  0
    6.2493   -1.2525    0.0000 O   0  0
    7.2800   -0.7350    0.0000 O   0  0
    3.0051   -3.5922    0.0000 O   0  0
    4.2315   -2.7050    0.0000 C   0  0
    2.9224   -4.4141    0.0000 C   0  0
    8.1063   -1.7482    0.0000 N   0  0
    7.1539   -4.1793    0.0000 C   0  0
    6.5755   -5.1969    0.0000 C   0  0
    5.0534   -4.9521    0.0000 H   0  0
    4.5737   -4.8864    0.0000 H   0  0
    3.3279   -2.7528    0.0000 H   0  0
  2  1  1  0
  3 11  1  0
  1  4  1  0
  5  2  1  0
  2  6  1  0
  7  4  1  0
  8  1  1  0
  1  9  1  6
 10 16  1  0
 11  9  1  0
  5 12  1  0
 13  3  2  0
 14  3  2  0
 10 15  1  0
 16  8  1  0
 17 12  1  0
 18  3  1  0
 19  7  1  0
 20  7  1  0
  7  6  1  0
 10  5  1  0
 17 15  1  0
  2 21  1  6
  5 22  1  1
 10 23  1  1
M  END