
  SciTegic06011109532D

162170  0  0  0  0            999 V2000
   -0.5394  -18.8388    0.0000 C   0  0  2  0  0  0
   -1.2526  -17.5983    0.0000 O   0  0
   -1.2526  -18.4197    0.0000 C   0  0
   -0.5394  -19.6602    0.0000 C   0  0  1  0  0  0
   -1.2526  -20.0752    0.0000 C   0  0
   -2.6854  -18.4197    0.0000 C   0  0  1  0  0  0
   -3.4027  -18.8388    0.0000 C   0  0
   -4.1064  -15.0667    0.0000 C   0  0  2  0  0  0
   -3.3836  -13.8306    0.0000 O   0  0
   -3.3809  -14.6516    0.0000 C   0  0
   -4.0958  -15.8873    0.0000 C   0  0
   -1.9565  -14.6440    0.0000 C   0  0  2  0  0  0
   -1.2395  -15.8746    0.0000 O   0  0
   -1.2391  -15.0496    0.0000 C   0  0
   -1.9593  -13.8238    0.0000 C   0  0
   -2.6758  -13.4096    0.0000 C   0  0
    1.5982  -17.6007    0.0000 C   0  0
    1.5982  -18.4240    0.0000 C   0  0  1  0  0  0
    0.9192  -14.6497    0.0000 C   0  0
    0.1880  -15.0596    0.0000 C   0  0  2  0  0  0
    0.1839  -15.8905    0.0000 C   0  0
    0.8998  -16.3209    0.0000 S   0  0
    0.8952  -17.1612    0.0000 S   0  0
    3.7365  -14.7027    0.0000 C   0  0
    2.3255  -13.8631    0.0000 C   0  0
    1.6022  -13.4402    0.0000 C   0  0  2  0  0  0
    0.8821  -18.8388    0.0000 C   0  0
    0.8817  -19.6554    0.0000 O   0  0
    1.6385  -15.0485    0.0000 O   0  0
    3.7452  -13.8829    0.0000 C   0  0  2  0  0  0
    1.6142  -12.6195    0.0000 C   0  0
    2.3156  -14.6870    0.0000 O   0  0
    4.4560  -13.4810    0.0000 C   0  0
    4.4689  -12.6561    0.0000 C   0  0
    3.0185  -15.1064    0.0000 O   0  0
    2.3063  -19.6665    0.0000 C   0  0
    1.5933  -20.0735    0.0000 O   0  0
    3.0158  -20.0759    0.0000 C   0  0  2  0  0  0
    3.0112  -20.9063    0.0000 C   0  0
    2.2921  -21.3162    0.0000 C   0  0
    4.4372  -20.0846    0.0000 C   0  0
    4.4338  -20.9087    0.0000 O   0  0
    4.4414  -18.4523    0.0000 C   0  0
    4.4400  -17.6274    0.0000 C   0  0  2  0  0  0
    3.7334  -18.8606    0.0000 O   0  0
    5.1488  -16.3863    0.0000 C   0  0
    4.4322  -15.9825    0.0000 O   0  0
    5.8590  -15.9694    0.0000 C   0  0  2  0  0  0
    6.5679  -14.7369    0.0000 C   0  0
    6.5602  -13.9064    0.0000 C   0  0  1  0  0  0
    7.2803  -15.1406    0.0000 O   0  0
    7.2767  -13.4894    0.0000 C   0  0  2  0  0  0
   -1.9700  -18.8388    0.0000 N   0  0
    6.5714  -16.3830    0.0000 C   0  0
    1.5446  -20.9787    0.0000 C   0  0
    0.9894  -21.5918    0.0000 N   0  0
    1.3992  -22.3067    0.0000 C   0  0
    5.1606  -18.8547    0.0000 N   0  0
    5.1576  -19.6756    0.0000 C   0  0  1  0  0  0
    5.9369  -19.9326    0.0000 C   0  0
    6.4225  -19.2697    0.0000 C   0  0
    5.9417  -18.6034    0.0000 C   0  0
    5.1505  -20.4962    0.0000 H   0  0
    3.7257  -17.2202    0.0000 C   0  0
    3.0137  -17.6343    0.0000 C   0  0
    2.2995  -17.2271    0.0000 C   0  0
    3.0160  -18.4598    0.0000 C   0  0
    6.5655  -17.2085    0.0000 C   0  0
    7.9900  -13.8984    0.0000 C   0  0
    7.2724  -12.6681    0.0000 C   0  0
    0.9072  -12.1969    0.0000 C   0  0
   -4.8036  -16.3086    0.0000 C   0  0
   -4.8005  -13.8359    0.0000 C   0  0
   -5.5124  -13.4173    0.0000 C   0  0  2  0  0  0
   -4.0861  -13.4246    0.0000 O   0  0
   -5.5057  -12.5960    0.0000 C   0  0
   -1.2499  -13.4083    0.0000 C   0  0
   -2.6869  -17.5983    0.0000 C   0  0
   -3.4030  -17.1869    0.0000 C   0  0
   -4.7913  -12.1890    0.0000 C   0  0
   -4.0840  -12.6054    0.0000 C   0  0
   -3.3704  -12.1952    0.0000 C   0  0
   -3.3630  -11.3725    0.0000 C   0  0
   -4.0784  -10.9583    0.0000 C   0  0
   -4.7917  -11.3679    0.0000 C   0  0
   -5.5220  -15.9045    0.0000 C   0  0
   -5.5283  -15.0832    0.0000 O   0  0
    0.8320  -11.3819    0.0000 C   0  0
    0.0290  -11.2001    0.0000 N   0  0
   -0.3936  -11.9073    0.0000 C   0  0
    5.1848  -12.2597    0.0000 C   0  0
    5.1941  -11.4360    0.0000 C   0  0
    4.4873  -11.0157    0.0000 C   0  0
    3.7688  -11.4200    0.0000 C   0  0
    3.7607  -12.2417    0.0000 C   0  0
    8.7030  -13.4860    0.0000 C   0  0
    6.1451  -13.1897    0.0000 H   0  0
    7.2778  -17.6222    0.0000 C   0  0
   -4.1132  -17.6011    0.0000 C   0  0
   -5.5395  -17.6038    0.0000 C   0  0
   -4.1160  -18.4299    0.0000 O   0  0
   -4.1071  -20.0726    0.0000 C   0  0  2  0  0  0
   -4.8245  -19.6637    0.0000 C   0  0
   -4.8247  -18.8424    0.0000 O   0  0
   -6.9514  -13.4114    0.0000 C   0  0
   -7.6778  -13.8279    0.0000 C   0  0
   -6.9520  -12.5774    0.0000 O   0  0
   -4.1034  -20.9066    0.0000 C   0  0
   -4.8237  -21.3269    0.0000 C   0  0
   -5.5470  -20.9113    0.0000 C   0  0
   -6.2682  -21.3308    0.0000 C   0  0
   -6.2716  -22.1657    0.0000 C   0  0
   -5.5345  -22.5793    0.0000 C   0  0
   -4.8176  -22.1574    0.0000 C   0  0
   -6.9838  -22.5869    0.0000 O   0  0
   -6.2328  -13.8290    0.0000 N   0  0
    0.1727  -18.4280    0.0000 N   0  0
   -4.8029  -14.6572    0.0000 N   0  0
   -2.6759  -15.0558    0.0000 N   0  0
    2.3088  -18.8424    0.0000 N   0  0
    0.8881  -13.8561    0.0000 N   0  0
    3.0360  -13.4580    0.0000 N   0  0
    3.7331  -19.6730    0.0000 N   0  0
    5.1566  -17.2070    0.0000 N   0  0
    5.8743  -15.1391    0.0000 N   0  0
    4.4511  -15.1216    0.0000 N   0  0
   -0.5184  -14.6475    0.0000 N   0  0
    2.2081  -22.1363    0.0000 N   0  0
   -6.2338  -16.3258    0.0000 O   0  0
    0.1492  -12.5284    0.0000 N   0  0
    4.4986  -10.1903    0.0000 O   0  0
    0.1727  -20.0711    0.0000 O   0  0
   -4.8251  -17.1896    0.0000 N   0  0
   -6.2586  -17.1925    0.0000 N   0  0
   -5.5379  -18.4252    0.0000 N   0  0
   -3.3983  -19.6602    0.0000 N   0  0
   -5.5375  -20.0803    0.0000 N   0  0
    7.2758  -18.4562    0.0000 C   0  0
    7.9970  -18.8750    0.0000 N   0  0
    8.7203  -18.4597    0.0000 C   0  0
    9.4415  -18.8786    0.0000 C   0  0
    8.7224  -17.6257    0.0000 O   0  0
   10.1648  -18.4634    0.0000 O   0  0
   10.8860  -18.8822    0.0000 C   0  0
   11.6093  -18.4670    0.0000 C   0  0
   12.3305  -18.8858    0.0000 N   0  0
   11.6114  -17.6330    0.0000 O   0  0
   13.0538  -18.4707    0.0000 C   0  0
   13.7739  -18.8926    0.0000 C   0  0
   14.4967  -18.4780    0.0000 C   0  0
   14.4992  -17.6432    0.0000 C   0  0
   13.7729  -17.2245    0.0000 C   0  0
   13.0531  -17.6414    0.0000 C   0  0
   15.2219  -17.2270    0.0000 C   0  0
   15.9437  -17.6448    0.0000 C   0  0
   16.6665  -17.2288    0.0000 C   0  0
   17.3883  -17.6466    0.0000 N   0  0
   16.6674  -16.3948    0.0000 O   0  0
   17.6018  -18.4503    0.0000 C   0  0
   18.4077  -18.2354    0.0000 C   0  0
   18.1928  -17.4296    0.0000 C   0  0
   18.6096  -16.7072    0.0000 O   0  0
 46 48  1  0
 48125  1  0
125 49  1  0
 49 50  1  0
 49 51  2  0
 50 52  1  0
 50126  1  0
 27117  1  0
 48 54  1  1
 40 55  2  0
 55 56  1  0
 56 57  2  0
 57128  1  0
128 40  1  0
 58 59  1  0
 59 60  1  0
 60 61  1  0
 61 62  1  0
 62 58  1  0
 59 63  1  6
 44 64  1  6
 64 65  1  0
 65 66  1  0
 65 67  1  0
 54 68  1  0
 52 69  1  0
 52 70  1  1
 31 71  1  0
 11 72  1  0
118 73  1  0
 73 74  1  0
 73 75  2  0
 74 76  1  1
 74116  1  0
 15 77  1  0
  6 78  1  6
 78 79  1  0
 76 80  1  0
 80 81  2  0
 81 82  1  0
 82 83  2  0
 83 84  1  0
 84 85  2  0
 85 80  1  0
 72 86  1  0
 86129  1  0
 86 87  2  0
 71 88  2  0
 88 89  1  0
 89 90  2  0
 90130  1  0
130 71  1  0
 34 91  2  0
 91 92  1  0
 92 93  2  0
 93 94  1  0
 94 95  2  0
 95 34  1  0
 93131  1  0
 69 96  1  0
 50 97  1  6
 68 98  1  0
  4132  1  6
 79 99  1  0
 99133  1  0
133100  1  0
100134  1  0
100135  2  0
  7101  2  0
  7136  1  0
136102  1  0
102103  1  0
103104  2  0
103137  1  0
116105  1  0
  3 53  1  0
105106  1  0
  1  3  1  1
105107  2  0
  3  2  2  0
102108  1  1
  1  4  1  0
108109  1  0
  4  5  1  0
109110  2  0
 53  6  1  0
110111  1  0
  6  7  1  0
111112  2  0
  1117  1  0
112113  1  0
  8 10  1  0
113114  2  0
114109  1  0
 10  9  2  0
112115  1  0
  8 11  1  6
 12 14  1  0
 14 13  2  0
 12 15  1  0
 15 16  1  0
 10119  1  0
 12119  1  1
118  8  1  0
 17 18  1  0
 18120  1  0
 19 20  1  0
 20 21  1  0
 21 22  1  0
 23 22  1  0
 24126  1  0
122 25  1  0
 24 30  1  0
 26121  1  0
 25 26  1  0
121 19  1  0
 23 17  1  0
 18 27  1  6
 27 28  2  0
 98138  1  0
 20127  1  6
138139  1  0
127 14  1  0
139140  1  0
 19 29  2  0
140141  1  0
122 30  1  0
140142  2  0
 26 31  1  1
141143  1  0
 25 32  2  0
143144  1  0
 30 33  1  1
144145  1  0
 33 34  1  0
145146  1  0
 24 35  2  0
145147  2  0
120 36  1  0
146148  1  0
 36 37  2  0
148149  2  0
 36 38  1  0
149150  1  0
 38 39  1  1
150151  2  0
 38123  1  0
151152  1  0
 39 40  1  0
152153  2  0
153148  1  0
123 41  1  0
151154  1  0
 59 41  1  0
154155  1  0
 41 42  2  0
155156  1  0
 58 43  1  0
156157  1  0
 43 44  1  0
156158  2  0
157159  1  0
 43 45  2  0
 44124  1  0
124 46  1  0
159160  1  0
160161  1  0
161157  1  0
 46 47  2  0
161162  2  0
M  END