
  SciTegic05301215422D

 21 23  0  0  0  0            999 V2000
   -0.8247   -3.6207    0.0000 S   0  0
    2.6358   -2.0666    0.0000 O   0  0
    2.3387    0.6660    0.0000 N   0  0
    1.2768   -1.6250    0.0000 N   0  0
    1.0218   -2.4097    0.0000 N   0  0
    3.1233   -0.4140    0.0000 C   0  0
    2.3387   -0.6689    0.0000 C   0  0
    3.1233    0.4110    0.0000 C   0  0
    2.0837   -1.4535    0.0000 C   0  0
    1.8537   -0.0015    0.0000 C   0  0
    3.8378   -0.8265    0.0000 C   0  0
    3.8378    0.8235    0.0000 C   0  0
   -0.0401   -3.3658    0.0000 C   0  0
    4.5522   -0.4140    0.0000 C   0  0
   -0.8247   -4.4457    0.0000 C   0  0
    4.5522    0.4110    0.0000 C   0  0
    0.2148   -2.5812    0.0000 C   0  0
    0.4448   -4.0332    0.0000 C   0  0
   -0.0401   -4.7007    0.0000 C   0  0
   -1.4922   -4.9307    0.0000 C   0  0
   -1.4059   -5.7512    0.0000 C   0  0
  1 13  1  0
  1 15  1  0
  2  9  2  0
  3  8  1  0
  3 10  1  0
  4  5  1  0
  4  9  1  0
  5 17  2  0
  6  7  1  0
  6  8  1  0
  6 11  2  0
  7  9  1  0
  7 10  2  0
  8 12  2  0
 11 14  1  0
 12 16  1  0
 13 17  1  0
 13 18  2  0
 14 16  2  0
 15 19  2  0
 15 20  1  0
 18 19  1  0
 20 21  1  0
M  END