
  SciTegic12191611282D

 98102  0  0  0  0            999 V2000
    7.9228   -7.5278    0.0000 N   0  0
    7.5461   -6.3884    0.0000 C   0  0  2  0  0  0
    5.6997   -4.9450    0.0000 O   0  0
    6.0764   -6.0844    0.0000 C   0  0
    8.5450   -5.2683    0.0000 C   0  0
   10.0147   -5.5723    0.0000 C   0  0
   11.0135   -4.4521    0.0000 C   0  0
   12.1886   -4.6952    0.0000 O   0  0
   10.6368   -3.3128    0.0000 O   0  0
    5.0775   -7.2046    0.0000 N   0  0
    3.6078   -6.9005    0.0000 C   0  0  2  0  0  0
    1.9582   -5.2359    0.0000 O   0  0
    3.1338   -5.4765    0.0000 C   0  0
    2.6123   -8.0237    0.0000 C   0  0
    2.0931  -10.5717    0.0000 C   0  0
    3.0864   -9.4477    0.0000 C   0  0
    4.5565   -9.7461    0.0000 C   0  0
    5.0331  -11.1683    0.0000 C   0  0
    4.0398  -12.2923    0.0000 C   0  0
    2.5697  -11.9940    0.0000 C   0  0
    4.4211  -13.4301    0.0000 O   0  0
    4.1293   -4.3534    0.0000 N   0  0
    3.6552   -2.9294    0.0000 C   0  0  2  0  0  0
    5.8263   -2.0469    0.0000 O   0  0
    4.6507   -1.8062    0.0000 C   0  0
    2.1855   -2.6254    0.0000 C   0  0
    2.5889    0.0182    0.0000 C   0  0
    1.7138   -1.2033    0.0000 C   0  0
    1.7138    1.2033    0.0000 N   0  0
    0.2917   -0.7475    0.0000 C   0  0
    0.2917    0.7475    0.0000 C   0  0
   -1.0028    1.5132    0.0000 C   0  0
   -2.3155    0.7475    0.0000 C   0  0
   -2.3155   -0.7475    0.0000 C   0  0
   -1.0028   -1.5132    0.0000 C   0  0
    4.1767   -0.3822    0.0000 N   0  0
    5.1721    0.7409    0.0000 C   0  0  2  0  0  0
    3.5225    2.4056    0.0000 O   0  0
    4.6981    2.1649    0.0000 C   0  0
    6.6431    0.4430    0.0000 C   0  0
    7.4381    1.3419    0.0000 O   0  0
    5.6936    3.2881    0.0000 N   0  0
    5.2195    4.7121    0.0000 C   0  0  2  0  0  0
    7.3906    5.5946    0.0000 O   0  0
    6.2150    5.8352    0.0000 C   0  0
    3.7498    5.0161    0.0000 C   0  0
    3.2774    6.4406    0.0000 C   0  0
    2.1022    6.6837    0.0000 C   0  0
    4.0752    7.3370    0.0000 C   0  0
    5.7410    7.2592    0.0000 N   0  0
    6.7365    8.3824    0.0000 C   0  0  1  0  0  0
    5.0868   10.0471    0.0000 O   0  0
    7.9121    8.1417    0.0000 C   0  0
    6.2624    9.8064    0.0000 C   0  0
    7.2579   10.9295    0.0000 N   0  0
    6.7839   12.3535    0.0000 C   0  0  1  0  0  0
    8.9550   13.2360    0.0000 O   0  0
    5.6082   12.5942    0.0000 C   0  0
    7.7794   13.4767    0.0000 C   0  0
    7.3053   14.9007    0.0000 N   0  0
    8.1827   16.1016    0.0000 C   0  0  2  0  0  0
   10.2843   15.0698    0.0000 O   0  0
    9.6808   16.1071    0.0000 C   0  0
    7.2898   17.3069    0.0000 C   0  0
    5.8814   15.3303    0.0000 C   0  0
    5.8676   16.8302    0.0000 C   0  0
   10.4274   17.4091    0.0000 N   0  0
   11.9282   17.4145    0.0000 C   0  0  2  0  0  0
   12.0713   19.7537    0.0000 O   0  0
   12.6747   18.7165    0.0000 C   0  0
   12.6855   16.1188    0.0000 C   0  0
   14.1864   16.1259    0.0000 C   0  0
   14.9437   14.8301    0.0000 C   0  0
   16.1437   14.8358    0.0000 O   0  0
   14.3490   13.7879    0.0000 N   0  0
   14.9140   25.2238    0.0000 N   0  0
   14.1620   26.5227    0.0000 C   0  0
   12.9620   26.5208    0.0000 N   0  0
   14.7600   27.5630    0.0000 N   0  0
   14.1755   18.7219    0.0000 N   0  0
   14.9221   20.0239    0.0000 C   0  0  2  0  0  0
   17.0263   18.9921    0.0000 O   0  0
   16.4229   20.0293    0.0000 C   0  0
   14.1700   21.3227    0.0000 C   0  0
   14.9180   22.6239    0.0000 C   0  0
   14.1660   23.9227    0.0000 C   0  0
   17.1694   21.3313    0.0000 N   0  0
   18.6702   21.3367    0.0000 C   0  0  2  0  0  0
   20.6276   20.0466    0.0000 O   0  0
   19.4276   20.0410    0.0000 C   0  0
   19.4168   22.6387    0.0000 C   0  0
   21.6656   23.9443    0.0000 C   0  0
   20.9176   22.6441    0.0000 C   0  0
   21.6697   21.3462    0.0000 C   0  0
   23.1697   21.3486    0.0000 C   0  0
   23.9177   22.6488    0.0000 C   0  0
   23.1656   23.9467    0.0000 C   0  0
   18.8328   18.9987    0.0000 N   0  0
  4 10  1  0
 13 22  1  0
 25 36  1  0
 39 42  1  0
 45 50  1  0
 54 55  1  0
 59 60  1  0
 63 67  1  0
 70 80  1  0
 83 87  1  0
 90 98  1  0
  1  2  1  0
  2  4  1  0
  4  3  2  0
  2  5  1  6
  5  6  1  0
  6  7  1  0
  7  8  2  0
  7  9  1  0
 10 11  1  0
 11 13  1  0
 13 12  2  0
 11 14  1  1
 14 16  1  0
 15 16  2  0
 16 17  1  0
 17 18  2  0
 18 19  1  0
 19 20  2  0
 20 15  1  0
 19 21  1  0
 22 23  1  0
 23 25  1  0
 25 24  2  0
 23 26  1  1
 26 28  1  0
 27 28  2  0
 28 30  1  0
 29 27  1  0
 31 29  1  0
 30 31  2  0
 31 32  1  0
 32 33  2  0
 33 34  1  0
 34 35  2  0
 35 30  1  0
 36 37  1  0
 37 39  1  0
 39 38  2  0
 37 40  1  6
 40 41  1  0
 42 43  1  0
 43 45  1  0
 45 44  2  0
 43 46  1  1
 46 47  1  0
 47 48  1  0
 47 49  1  0
 50 51  1  0
 51 54  1  0
 54 52  2  0
 51 53  1  6
 55 56  1  0
 56 59  1  0
 59 57  2  0
 56 58  1  1
 60 61  1  0
 61 63  1  1
 63 62  2  0
 61 64  1  0
 65 66  1  0
 66 64  1  0
 65 60  1  0
 68 67  1  6
 68 70  1  0
 70 69  2  0
 68 71  1  0
 71 72  1  0
 72 73  1  0
 73 74  2  0
 73 75  1  0
 76 77  1  0
 77 78  1  0
 77 79  2  0
 81 80  1  1
 81 83  1  0
 83 82  2  0
 81 84  1  0
 84 85  1  0
 85 86  1  0
 86 76  1  0
 88 87  1  1
 88 90  1  0
 90 89  2  0
 88 91  1  0
 91 93  1  0
 92 93  2  0
 93 94  1  0
 94 95  2  0
 95 96  1  0
 96 97  2  0
 97 92  1  0
M  END