
          11280714552D 1   1.00000     0.00000     0

 45 49  0     0  0            999 V2000
    1.9417   -5.1375    0.0000 C   0  0  0  0  0  0           0  0  0
    3.3750   -5.1417    0.0000 C   0  0  0  0  0  0           0  0  0
    2.6542   -5.5542    0.0000 C   0  0  0  0  0  0           0  0  0
    1.9417   -4.3125    0.0000 C   0  0  0  0  0  0           0  0  0
    3.3750   -4.3125    0.0000 C   0  0  0  0  0  0           0  0  0
    2.6542   -3.8917    0.0000 O   0  0  0  0  0  0           0  0  0
    6.2167   -4.3167    0.0000 O   0  0  0  0  0  0           0  0  0
    1.2292   -3.9000    0.0000 C   0  0  0  0  0  0           0  0  0
    1.2292   -5.5542    0.0000 C   0  0  0  0  0  0           0  0  0
    6.9417   -3.9167    0.0000 C   0  0  3  0  0  0           0  0  0
    6.2292   -2.6750    0.0000 O   0  0  0  0  0  0           0  0  0
    5.5125   -3.9042    0.0000 C   0  0  0  0  0  0           0  0  0
    6.9417   -3.0917    0.0000 C   0  0  3  0  0  0           0  0  0
    4.0917   -3.9042    0.0000 C   0  0  0  0  0  0           0  0  0
    0.5167   -4.3167    0.0000 C   0  0  0  0  0  0           0  0  0
    0.5167   -5.1417    0.0000 C   0  0  0  0  0  0           0  0  0
    7.6500   -4.3417    0.0000 C   0  0  0  0  0  0           0  0  0
    5.5167   -3.0792    0.0000 C   0  0  0  0  0  0           0  0  0
    1.2250   -3.0750    0.0000 C   0  0  0  0  0  0           0  0  0
    4.8042   -4.3167    0.0000 C   0  0  0  0  0  0           0  0  0
    8.3667   -3.9292    0.0000 C   0  0  0  0  0  0           0  0  0
    9.0750   -4.3500    0.0000 C   0  0  0  0  0  0           0  0  0
    1.9417   -2.6625    0.0000 C   0  0  0  0  0  0           0  0  0
    2.6542   -6.3792    0.0000 O   0  0  0  0  0  0           0  0  0
    9.0667   -5.1792    0.0000 C   0  0  0  0  0  0           0  0  0
    4.0917   -3.0792    0.0000 C   0  0  0  0  0  0           0  0  0
    7.6417   -5.1667    0.0000 C   0  0  0  0  0  0           0  0  0
    4.0875   -5.5542    0.0000 O   0  0  0  0  0  0           0  0  0
    4.8042   -2.6667    0.0000 C   0  0  0  0  0  0           0  0  0
    1.9375   -1.8375    0.0000 C   0  0  0  0  0  0           0  0  0
    3.3542    0.6458    0.0000 C   0  0  0  0  0  0           0  0  0
    8.3500   -5.5792    0.0000 C   0  0  0  0  0  0           0  0  0
    3.3625   -0.1792    0.0000 C   0  0  0  0  0  0           0  0  0
    1.2292   -6.3792    0.0000 O   0  0  0  0  0  0           0  0  0
   -0.1958   -3.9042    0.0000 O   0  0  0  0  0  0           0  0  0
    9.7917   -3.9417    0.0000 O   0  0  0  0  0  0           0  0  0
    7.6667   -2.6917    0.0000 C   0  0  0  0  0  0           0  0  0
    9.7792   -5.5917    0.0000 O   0  0  0  0  0  0           0  0  0
    2.6500   -0.5917    0.0000 C   0  0  0  0  0  0           0  0  0
    8.3750   -3.1042    0.0000 O   0  0  0  0  0  0           0  0  0
    2.6500   -1.4167    0.0000 C   0  0  0  0  0  0           0  0  0
    1.2167   -1.4250    0.0000 C   0  0  0  0  0  0           0  0  0
    2.6417    1.0583    0.0000 C   0  0  0  0  0  0           0  0  0
    4.0667    1.0583    0.0000 C   0  0  0  0  0  0           0  0  0
   10.5000   -4.3625    0.0000 C   0  0  0  0  0  0           0  0  0
  2  3  1  0     0  0
  3  1  1  0     0  0
  4  1  1  0     0  0
  5  6  1  0     0  0
  6  4  1  0     0  0
  7 12  1  0     0  0
  8  4  2  0     0  0
  9  1  2  0     0  0
 10  7  1  0     0  0
 11 18  1  0     0  0
 12 20  1  0     0  0
 13 11  1  0     0  0
 14  5  1  0     0  0
 15 16  2  0     0  0
 16  9  1  0     0  0
 17 10  1  0     0  0
 18 29  1  0     0  0
 19  8  1  0     0  0
 20 14  2  0     0  0
 21 17  1  0     0  0
 22 21  2  0     0  0
 23 19  1  0     0  0
 24  3  2  0     0  0
 25 32  2  0     0  0
 26 14  1  0     0  0
 27 17  2  0     0  0
 28  2  1  0     0  0
 29 26  2  0     0  0
 30 23  2  0     0  0
 31 33  2  0     0  0
 32 27  1  0     0  0
 33 39  1  0     0  0
 34  9  1  0     0  0
 35 15  1  0     0  0
 36 22  1  0     0  0
 37 13  1  0     0  0
 38 25  1  0     0  0
 39 41  1  0     0  0
 40 37  1  0     0  0
 41 30  1  0     0  0
 42 30  1  0     0  0
 43 31  1  0     0  0
 44 31  1  0     0  0
 45 36  1  0     0  0
 15  8  1  0     0  0
  5  2  2  0     0  0
 12 18  2  0     0  0
 13 10  1  0     0  0
 25 22  1  0     0  0
M  END