
  SciTegic04071410272D

 27 29  0  0  0  0            999 V2000
   -0.2949    1.4989    0.0000 C   0  0  1  0  0  0
    0.7721    0.6970    0.0000 C   0  0  2  0  0  0
    0.2559    1.1257    0.0000 C   0  0
   -0.7158    1.1257    0.0000 C   0  0  1  0  0  0
   -0.8555    1.9388    0.0000 N   0  3
    0.6339    1.5144    0.0000 C   0  0
   -1.2357    0.4134    0.0000 C   0  0
   -0.6154    0.7903    0.0000 C   0  0
    1.1839   -0.0179    0.0000 C   0  0
    0.7707   -0.7320    0.0000 C   0  0
    1.1825   -1.4469    0.0000 C   0  0
   -0.0543   -0.7312    0.0000 C   0  0
   -0.4675   -1.4452    0.0000 C   0  0
   -1.2925   -1.4444    0.0000 C   0  0
   -1.7043   -0.7295    0.0000 C   0  0
   -1.2911   -0.0155    0.0000 C   0  0
   -0.4661   -0.0163    0.0000 C   0  0
    2.0075   -1.4477    0.0000 C   0  0
    2.4193   -2.1626    0.0000 C   0  0
    2.0061   -2.8766    0.0000 C   0  0
    1.1811   -2.8758    0.0000 C   0  0
    0.7693   -2.1609    0.0000 C   0  0
   -0.4848    2.3017    0.0000 H   0  0
   -1.3186    1.6890    0.0000 H   0  0
   -1.6199    2.2492    0.0000 C   0  0
   -0.7654    2.7588    0.0000 C   0  0
    4.6586    0.0000    0.0000 Br  0  5
 10 12  1  0
  3  4  1  0
 12 13  2  0
  4  5  1  0
 13 14  1  0
  1  5  1  0
 14 15  2  0
  1  6  1  0
 15 16  1  0
  6  2  1  0
 16 17  2  0
 17 12  1  0
  4  7  1  0
 11 18  2  0
  1  8  1  0
 18 19  1  0
  7  8  1  0
 19 20  2  0
 20 21  1  0
  2  9  1  6
 21 22  2  0
 22 11  1  0
  1 23  1  6
  9 10  2  0
  4 24  1  1
  5 25  1  0
 10 11  1  0
  5 26  1  0
  2  3  1  0
M  CHG  2   5   1  27  -1
M  END