
          11280715492D 1   1.00000     0.00000     0

 19 21  0     0  0            999 V2000
    9.5484  -24.8720    0.0000 C   0  0  0  0  0  0           0  0  0
    9.5473  -25.6990    0.0000 C   0  0  0  0  0  0           0  0  0
   10.2617  -26.1116    0.0000 C   0  0  0  0  0  0           0  0  0
   10.2599  -24.4594    0.0000 C   0  0  0  0  0  0           0  0  0
   10.9750  -24.8684    0.0000 C   0  0  0  0  0  0           0  0  0
   10.9799  -25.6990    0.0000 C   0  0  0  0  0  0           0  0  0
   11.7713  -25.9511    0.0000 N   0  0  0  0  0  0           0  0  0
   12.2557  -25.2762    0.0000 C   0  0  0  0  0  0           0  0  0
   11.7634  -24.6071    0.0000 N   0  0  0  0  0  0           0  0  0
   13.0803  -25.2713    0.0000 C   0  0  0  0  0  0           0  0  0
   13.4969  -25.9830    0.0000 O   0  0  0  0  0  0           0  0  0
   13.4885  -24.5547    0.0000 N   0  0  3  0  0  0           0  0  0
   14.3103  -24.5550    0.0000 C   0  0  0  0  0  0           0  0  0
   14.7183  -23.8426    0.0000 C   0  0  0  0  0  0           0  0  0
   14.3053  -23.1284    0.0000 N   0  0  3  0  0  0           0  0  0
   13.4797  -23.1313    0.0000 C   0  0  0  0  0  0           0  0  0
   13.0672  -23.8483    0.0000 C   0  0  0  0  0  0           0  0  0
   14.7161  -22.4134    0.0000 C   0  0  0  0  0  0           0  0  0
   10.2574  -23.6347    0.0000 C   0  0  0  0  0  0           0  0  0
  9  5  1  0     0  0
  4  1  2  0     0  0
  8 10  1  0     0  0
  5  6  2  0     0  0
 10 11  2  0     0  0
 10 12  1  0     0  0
 12 13  1  0     0  0
  2  3  2  0     0  0
  3  6  1  0     0  0
  1  2  1  0     0  0
  5  4  1  0     0  0
  6  7  1  0     0  0
 12 17  1  0     0  0
 13 14  1  0     0  0
 14 15  1  0     0  0
 15 16  1  0     0  0
 16 17  1  0     0  0
  7  8  1  0     0  0
 15 18  1  0     0  0
  8  9  2  0     0  0
  4 19  1  0     0  0
M  END