
  SciTegic01161211252D

 36 39  0  0  0  0            999 V2000
    9.8957    0.2354    0.0000 C   0  0
   10.7228    0.2353    0.0000 C   0  0
   10.3111   -1.5693    0.0000 O   0  0
    9.5661   -1.2124    0.0000 C   0  0  1  0  0  0
    9.3873   -0.4059    0.0000 C   0  0  1  0  0  0
    8.6033   -0.1610    0.0000 O   0  0
    8.9609   -1.7740    0.0000 C   0  0
   11.2394   -0.4050    0.0000 C   0  0  2  0  0  0
   11.0550   -1.2107    0.0000 C   0  0  2  0  0  0
   11.6578   -1.7722    0.0000 C   0  0
   12.0265   -0.1609    0.0000 O   0  0
   12.6327   -0.7237    0.0000 C   0  0  2  0  0  0
   12.4404   -1.5282    0.0000 C   0  0  2  0  0  0
   13.0402   -2.0923    0.0000 O   0  0
   13.8315   -1.8574    0.0000 C   0  0  2  0  0  0
   14.0197   -1.0530    0.0000 C   0  0  1  0  0  0
   13.4206   -0.4834    0.0000 C   0  0
    8.1714   -1.5214    0.0000 C   0  0  1  0  0  0
    7.9975   -0.7177    0.0000 C   0  0  1  0  0  0
    7.2183   -0.4699    0.0000 C   0  0
    6.6077   -1.0223    0.0000 O   0  0
    7.5702   -2.0772    0.0000 O   0  0
   14.4331   -2.4206    0.0000 C   0  0
   15.2237   -2.1847    0.0000 C   0  0
   15.8253   -2.7521    0.0000 O   0  0
   14.8102   -0.8168    0.0000 O   0  0
    7.7673    0.0808    0.0000 H   0  0
    9.1554    0.3914    0.0000 H   0  0
   11.4362    0.4024    0.0000 C   0  0
   12.8269    0.0826    0.0000 H   0  0
   14.4142   -0.3250    0.0000 H   0  0
   13.6298   -2.6570    0.0000 H   0  0
   12.2347   -2.3248    0.0000 H   0  0
   10.8523   -2.0091    0.0000 H   0  0
    9.7905   -2.0029    0.0000 H   0  0
    8.3983   -2.3135    0.0000 H   0  0
 14 15  1  0
 15 16  1  0
 16 17  1  0
 18 19  1  0
 18  7  1  0
  8  9  1  0
  4  3  1  0
  3  9  1  0
  4  5  1  0
 18 22  1  0
 19 20  1  0
 20 21  1  0
 15 23  1  0
  8 11  1  0
 23 24  1  0
  9 10  1  0
 24 25  1  0
 10 13  1  0
 16 26  1  0
 12 11  1  0
 19 27  1  6
 12 13  1  0
  5 28  1  6
  1  2  1  0
  8 29  1  6
  2  8  1  0
 12 30  1  6
  5  1  1  0
 16 31  1  6
  4  7  1  0
 15 32  1  1
  5  6  1  0
 13 33  1  1
  6 19  1  0
  9 34  1  1
 12 17  1  0
  4 35  1  1
 13 14  1  0
 18 36  1  1
M  END