
  SciTegic09291413392D

 15 16  0  0  0  0            999 V2000
   34.3165   -2.7900    0.0000 C   0  0
   34.3153   -3.6095    0.0000 C   0  0
   35.0234   -4.0185    0.0000 C   0  0
   35.7330   -3.6090    0.0000 C   0  0
   35.7302   -2.7864    0.0000 C   0  0
   35.0216   -2.3811    0.0000 C   0  0
   36.4364   -2.3751    0.0000 N   0  0
   33.6127   -2.3773    0.0000 C   0  0
   33.6215   -1.5605    0.0000 C   0  0
   32.9185   -1.1479    0.0000 C   0  0
   32.2083   -1.5511    0.0000 C   0  0
   32.2054   -2.3712    0.0000 N   0  0
   32.9089   -2.7801    0.0000 C   0  0
   31.5028   -1.1388    0.0000 N   0  0
   32.9244   -0.3308    0.0000 C   0  0
  1  2  2  0
  2  3  1  0
  3  4  2  0
  4  5  1  0
  5  6  2  0
  6  1  1  0
  5  7  1  0
  1  8  1  0
  8  9  2  0
  9 10  1  0
 10 11  2  0
 11 12  1  0
 12 13  2  0
 13  8  1  0
 11 14  1  0
 10 15  1  0
M  END