
  CDK    9/16/09,10:4

 33 36  0  0  0  0  0  0  0  0999 V2000
    8.0620  -16.8938    0.0000 Br  0  0  0  0  0  0  0  0  0  0  0  0
    6.1680  -21.5452    0.0000 C   0  0  0  0  0  0  0  0  0  0  0  0
    6.9974  -21.5263    0.0000 C   0  0  0  0  0  0  0  0  0  0  0  0
    7.3934  -20.8025    0.0000 C   0  0  0  0  0  0  0  0  0  0  0  0
    6.9646  -20.0931    0.0000 C   0  0  0  0  0  0  0  0  0  0  0  0
    6.1354  -20.1121    0.0000 C   0  0  0  0  0  0  0  0  0  0  0  0
    5.7348  -20.8405    0.0000 N   0  0  0  0  0  0  0  0  0  0  0  0
    6.3702  -21.1646    0.0000 C   0  0  0  0  0  0  0  0  0  0  0  0
    6.6936  -20.4696    0.0000 C   0  0  0  0  0  0  0  0  0  0  0  0
    4.9102  -20.8679    0.0000 C   0  0  0  0  0  0  0  0  0  0  0  0
    8.2184  -20.7924    0.0000 C   0  0  0  0  0  0  0  0  0  0  0  0
    9.0433  -20.7781    0.0000 C   0  0  0  0  0  0  0  0  0  0  0  0
    8.2306  -21.6173    0.0000 O   0  0  0  0  0  0  0  0  0  0  0  0
    8.2062  -19.9675    0.0000 C   0  0  0  0  0  0  0  0  0  0  0  0
    8.9152  -19.5472    0.0000 C   0  0  0  0  0  0  0  0  0  0  0  0
    8.9035  -18.7231    0.0000 C   0  0  0  0  0  0  0  0  0  0  0  0
    8.1824  -18.3204    0.0000 C   0  0  0  0  0  0  0  0  0  0  0  0
    7.4718  -18.7479    0.0000 C   0  0  0  0  0  0  0  0  0  0  0  0
    7.4871  -19.5705    0.0000 C   0  0  0  0  0  0  0  0  0  0  0  0
    9.4662  -21.4877    0.0000 C   0  0  0  0  0  0  0  0  0  0  0  0
   10.2903  -21.4738    0.0000 C   0  0  0  0  0  0  0  0  0  0  0  0
   10.6913  -20.7518    0.0000 C   0  0  0  0  0  0  0  0  0  0  0  0
   10.2621  -20.0423    0.0000 C   0  0  0  0  0  0  0  0  0  0  0  0
    9.4394  -20.0597    0.0000 C   0  0  0  0  0  0  0  0  0  0  0  0
    4.4742  -20.1675    0.0000 C   0  0  0  0  0  0  0  0  0  0  0  0
    3.6496  -20.1950    0.0000 C   0  0  0  0  0  0  0  0  0  0  0  0
    3.2136  -19.4946    0.0000 O   0  0  0  0  0  0  0  0  0  0  0  0
    3.6020  -18.7669    0.0000 C   0  0  0  0  0  0  0  0  0  0  0  0
    4.4250  -18.7419    0.0000 C   0  0  0  0  0  0  0  0  0  0  0  0
    4.8134  -18.0149    0.0000 C   0  0  0  0  0  0  0  0  0  0  0  0
    4.3773  -17.3136    0.0000 C   0  0  0  0  0  0  0  0  0  0  0  0
    3.5487  -17.3438    0.0000 C   0  0  0  0  0  0  0  0  0  0  0  0
    3.1639  -18.0713    0.0000 C   0  0  0  0  0  0  0  0  0  0  0  0
 15 16  1  0  0  0  0 
  7  8  1  0  0  0  0 
 16 17  2  0  0  0  0 
 17 18  1  0  0  0  0 
  8  9  1  0  0  0  0 
 18 19  2  0  0  0  0 
 19 14  1  0  0  0  0 
  4  9  1  0  0  0  0 
 12 20  2  0  0  0  0 
  2  3  1  0  0  0  0 
 20 21  1  0  0  0  0 
  7 10  1  0  0  0  0 
 21 22  2  0  0  0  0 
  2  7  1  0  0  0  0 
 22 23  1  0  0  0  0 
  4 11  1  0  0  0  0 
 23 24  2  0  0  0  0 
 24 12  1  0  0  0  0 
  3  4  1  0  0  0  0 
 10 25  1  0  0  0  0 
 11 12  1  0  0  0  0 
 25 26  1  0  0  0  0 
  4  5  1  0  0  0  0 
 26 27  1  0  0  0  0 
 11 13  1  0  0  0  0 
 27 28  1  0  0  0  0 
  5  6  1  0  0  0  0 
 28 29  2  0  0  0  0 
 11 14  1  0  0  0  0 
 29 30  1  0  0  0  0 
  6  7  1  0  0  0  0 
 30 31  2  0  0  0  0 
 14 15  2  0  0  0  0 
 31 32  1  0  0  0  0 
 32 33  2  0  0  0  0 
 33 28  1  0  0  0  0 
M  CHG  1   1  -1
M  CHG  1   7   1
M  END