
  SciTegic11201309402D

 48 53  0  0  0  0            999 V2000
    2.9167  -17.4042    0.0000 C   0  0  1  0  0  0
    3.6250  -16.9875    0.0000 C   0  0  1  0  0  0
    2.9208  -18.2292    0.0000 C   0  0
    1.5000  -18.2375    0.0000 C   0  0
    2.2083  -18.6417    0.0000 C   0  0
    1.4917  -17.4125    0.0000 C   0  0
    5.4250  -16.5708    0.0000 C   0  0  2  0  0  0
    2.2000  -16.9958    0.0000 O   0  0
    0.0667  -17.4167    0.0000 C   0  0
    0.0708  -18.2417    0.0000 C   0  0
    4.0333  -16.2708    0.0000 O   0  0
    0.7792  -18.6500    0.0000 C   0  0
    0.7792  -17.0000    0.0000 C   0  0
    3.6292  -18.6333    0.0000 C   0  0
    4.3375  -17.3958    0.0000 C   0  0
    4.8292  -16.0542    0.0000 C   0  0
    4.3417  -18.2208    0.0000 C   0  0  1  0  0  0
    5.4250  -17.6042    0.0000 C   0  0
   -0.6458  -18.6500    0.0000 C   0  0
   -0.6458  -17.0000    0.0000 O   0  0
    3.6167  -16.1625    0.0000 C   0  0
    2.9000  -15.7542    0.0000 C   0  0
    0.7750  -16.1750    0.0000 C   0  0
    3.6042  -14.5125    0.0000 C   0  0
    2.8917  -14.9292    0.0000 C   0  0
   -1.3542  -18.2417    0.0000 C   0  0
   -1.3542  -17.4167    0.0000 C   0  0  1  0  0  0
    0.0583  -15.7625    0.0000 C   0  0
    2.2125  -19.4667    0.0000 O   0  0
    5.0542  -16.9792    0.0000 O   0  0
    4.3208  -14.9208    0.0000 O   0  0
    0.0583  -14.9375    0.0000 C   0  0
   -3.8208  -18.8625    0.0000 C   0  0
   -3.4125  -18.1417    0.0000 C   0  0
    0.7792  -19.4750    0.0000 O   0  0
    3.6000  -13.6875    0.0000 O   0  0
    5.4125  -15.4667    0.0000 C   0  0
    4.4125  -15.3375    0.0000 C   0  0
   -2.5875  -18.1375    0.0000 C   0  0
   -2.1792  -17.4208    0.0000 C   0  0
    2.1750  -14.5208    0.0000 C   0  0
   -1.7708  -16.7000    0.0000 C   0  0
   -0.6583  -14.5292    0.0000 C   0  0
    0.7708  -14.5250    0.0000 C   0  0
   -4.6458  -18.8667    0.0000 C   0  0
   -3.4042  -19.5708    0.0000 C   0  0
    6.1792  -16.2417    0.0000 H   0  0
    4.0625  -18.9958    0.0000 H   0  0
  2  1  1  0
  3  1  1  0
  4  5  1  0
  5  3  1  0
  6  8  1  0
  7  1  1  0
  1  8  1  1
  9 13  1  0
 10 12  1  0
  2 11  1  0
 12  4  2  0
 13  6  2  0
 14  3  2  0
 15  2  1  0
 16  7  1  0
 17 14  1  0
 18  7  1  0
 19 10  1  0
 20  9  1  0
  2 21  1  6
 22 21  1  0
 23 13  1  0
 24 25  1  0
 25 22  2  0
 26 19  2  0
 27 20  1  0
 28 23  1  0
 29  5  2  0
 30 15  2  0
 31 24  2  0
 32 28  2  0
 33 34  2  0
 34 39  1  0
 35 12  1  0
 36 24  1  0
 37 16  1  0
 38 16  1  0
 39 40  1  0
 40 27  1  0
 41 25  1  0
 27 42  1  6
 43 32  1  0
 44 32  1  0
 45 33  1  0
 46 33  1  0
  7 47  1  1
 17 48  1  6
 16 11  1  0
 18 17  1  0
  4  6  1  0
 15 17  1  0
 10  9  2  0
 26 27  1  0
M  END