
  SciTegic01161211262D

 43 44  0  0  0  0            999 V2000
   13.9323  -16.4843    0.0000 C   0  0  1  0  0  0
   13.9323  -17.3134    0.0000 C   0  0  2  0  0  0
   14.6444  -17.7237    0.0000 C   0  0  2  0  0  0
   15.3607  -17.3134    0.0000 C   0  0
   15.3607  -16.4843    0.0000 C   0  0  2  0  0  0
   14.6444  -16.0655    0.0000 O   0  0
   16.0728  -16.9010    0.0000 O   0  0
   15.7662  -15.7694    0.0000 C   0  0
   16.5952  -15.7580    0.0000 O   0  0
   15.3481  -15.0551    0.0000 O   0  5
   13.2147  -16.0750    0.0000 C   0  0  2  0  0  0
   12.4966  -16.4906    0.0000 C   0  0  2  0  0  0
   11.0710  -17.3238    0.0000 C   0  0
   10.3529  -17.7394    0.0000 C   0  0
   11.0673  -16.4946    0.0000 O   0  0
    9.6403  -17.3245    0.0000 C   0  0
    8.9229  -17.7391    0.0000 C   0  0
    8.9259  -18.5695    0.0000 C   0  0
    9.6511  -18.9786    0.0000 C   0  0
   10.3599  -18.5603    0.0000 C   0  0
   13.2132  -17.7274    0.0000 N   0  0
   12.4965  -17.3165    0.0000 C   0  0
   13.9110  -15.6597    0.0000 H   0  0
   16.0681  -17.7258    0.0000 C   0  0
   16.7801  -18.1424    0.0000 C   0  0
   16.7708  -18.9661    0.0000 C   0  0
   17.4820  -19.3826    0.0000 C   0  0
   17.4901  -17.7322    0.0000 C   0  0
    8.2143  -18.9869    0.0000 Cl  0  0
   18.2019  -18.1450    0.0000 C   0  0
   18.1965  -18.9715    0.0000 C   0  0
   17.4908  -16.9073    0.0000 F   0  0
   18.9180  -17.7355    0.0000 F   0  0
   13.2123  -18.5524    0.0000 C   0  0
   12.4974  -18.9640    0.0000 C   0  0
   13.9262  -18.9657    0.0000 O   0  0
   12.4964  -19.7890    0.0000 O   0  0
   11.7815  -20.2006    0.0000 C   0  0
   17.3738  -14.4240    0.0000 Na  0  3
   13.2110  -15.2459    0.0000 O   0  0
   11.7786  -16.0774    0.0000 O   0  0
   11.7859  -17.7356    0.0000 N   0  0
   14.6444  -18.5487    0.0000 O   0  0
 13 15  2  0
 14 16  2  0
 16 17  1  0
 17 18  2  0
 18 19  1  0
 19 20  2  0
 20 14  1  0
  2 21  1  1
  1 23  1  1
  7 24  1  0
 24 25  1  0
  1  2  1  0
 25 26  2  0
  1  6  1  0
 26 27  1  0
 27 31  2  0
  2  3  1  0
 30 28  2  0
 28 25  1  0
  3  4  1  0
 18 29  1  0
  4  5  1  0
  5  6  1  0
 30 31  1  0
  5  7  1  0
 28 32  1  0
  5  8  1  1
 30 33  1  0
  8  9  2  0
 21 34  1  0
  8 10  1  0
 34 35  1  0
  1 11  1  0
 34 36  2  0
 35 37  1  0
 11 12  1  0
 37 38  1  0
 12 22  1  0
 13 14  1  0
 12 41  1  1
 22 42  1  0
 42 13  1  0
 11 40  1  6
  3 43  1  6
M  CHG  2  10  -1  39   1
M  END