
          11280715522D 1   1.00000     0.00000     0

 43 46  0     0  0            999 V2000
    3.9986    2.2667    0.0000 C   0  0  0  0  0  0           0  0  0
    3.9974    1.4393    0.0000 C   0  0  0  0  0  0           0  0  0
    4.7122    1.0265    0.0000 C   0  0  0  0  0  0           0  0  0
    4.7104    2.6795    0.0000 C   0  0  0  0  0  0           0  0  0
    5.4258    2.2703    0.0000 C   0  0  0  0  0  0           0  0  0
    5.4266    1.4435    0.0000 C   0  0  0  0  0  0           0  0  0
    6.1419    1.0325    0.0000 N   0  0  0  0  0  0           0  0  0
    6.8569    1.4473    0.0000 C   0  0  0  0  0  0           0  0  0
    6.8521    2.2773    0.0000 C   0  0  0  0  0  0           0  0  0
    6.1362    2.6845    0.0000 C   0  0  0  0  0  0           0  0  0
    4.7141    0.2015    0.0000 O   0  0  0  0  0  0           0  0  0
    5.4296   -0.2094    0.0000 C   0  0  0  0  0  0           0  0  0
    5.4315   -1.0344    0.0000 C   0  0  0  0  0  0           0  0  0
    4.7154   -1.4442    0.0000 C   0  0  0  0  0  0           0  0  0
    4.7169   -2.2684    0.0000 C   0  0  0  0  0  0           0  0  0
    5.4329   -2.6801    0.0000 C   0  0  0  0  0  0           0  0  0
    6.1488   -2.2615    0.0000 C   0  0  0  0  0  0           0  0  0
    6.1437   -1.4386    0.0000 C   0  0  0  0  0  0           0  0  0
    4.0013   -1.0310    0.0000 Cl  0  0  0  0  0  0           0  0  0
    6.8554   -1.0213    0.0000 Cl  0  0  0  0  0  0           0  0  0
    7.5730    1.0376    0.0000 C   0  0  0  0  0  0           0  0  0
    6.8656   -2.6698    0.0000 S   0  0  3  0  0  0           0  0  0
    7.5750   -3.0792    0.0000 N   0  0  0  0  0  0           0  0  0
    7.2135   -2.1103    0.0000 O   0  0  0  0  0  0           0  0  0
    6.4918   -3.2948    0.0000 O   0  0  0  0  0  0           0  0  0
    8.2894   -2.6978    0.0000 C   0  0  3  0  0  0           0  0  0
    9.0000   -2.2458    0.0000 C   0  0  0  0  0  0           0  0  0
    8.4872   -3.3162    0.0000 C   0  0  0  0  0  0           0  0  0
    8.0597   -2.1111    0.0000 C   0  0  0  0  0  0           0  0  0
    8.9910   -1.4209    0.0000 O   0  0  0  0  0  0           0  0  0
    9.7189   -2.6505    0.0000 N   0  0  3  0  0  0           0  0  0
    9.7235   -3.4759    0.0000 C   0  0  0  0  0  0           0  0  0
   10.4384   -3.8805    0.0000 C   0  0  0  0  0  0           0  0  0
   11.1507   -3.4637    0.0000 N   0  0  3  0  0  0           0  0  0
   11.1437   -2.6378    0.0000 C   0  0  0  0  0  0           0  0  0
   10.4242   -2.2286    0.0000 C   0  0  0  0  0  0           0  0  0
   11.8681   -3.8711    0.0000 C   0  0  0  0  0  0           0  0  0
   11.8741   -4.6960    0.0000 N   0  0  0  0  0  0           0  0  0
   12.5796   -3.4534    0.0000 N   0  0  0  0  0  0           0  0  0
   13.2970   -3.8608    0.0000 C   0  0  0  0  0  0           0  0  0
   14.0085   -3.4432    0.0000 C   0  0  0  0  0  0           0  0  0
   14.7260   -3.8506    0.0000 C   0  0  0  0  0  0           0  0  0
   15.4374   -3.4329    0.0000 N   0  0  0  0  0  0           0  0  0
  9 10  2  0     0  0
  8 21  1  0     0  0
 10  5  1  0     0  0
 17 22  1  0     0  0
 22 23  1  0     0  0
  3 11  1  0     0  0
 22 24  2  0     0  0
  2  3  1  0     0  0
 22 25  2  0     0  0
 11 12  1  0     0  0
 23 26  1  0     0  0
  5  6  1  0     0  0
 26 27  1  0     0  0
 12 13  1  0     0  0
 26 28  1  0     0  0
  3  6  2  0     0  0
 26 29  1  0     0  0
 13 14  2  0     0  0
 27 30  2  0     0  0
  6  7  1  0     0  0
 27 31  1  0     0  0
 31 32  1  0     0  0
 14 15  1  0     0  0
  1  2  2  0     0  0
 15 16  2  0     0  0
  7  8  2  0     0  0
 16 17  1  0     0  0
 31 36  1  0     0  0
 32 33  1  0     0  0
 33 34  1  0     0  0
 34 35  1  0     0  0
 35 36  1  0     0  0
  5  4  2  0     0  0
 34 37  1  0     0  0
 17 18  2  0     0  0
 37 38  2  0     0  0
 18 13  1  0     0  0
 37 39  1  0     0  0
  8  9  1  0     0  0
 39 40  1  0     0  0
 14 19  1  0     0  0
 40 41  1  0     0  0
  4  1  1  0     0  0
 41 42  1  0     0  0
 18 20  1  0     0  0
 42 43  1  0     0  0
M  END