
  CDK    12/20/10,14:45

 56 57  0  0  0  0  0  0  0  0999 V2000
   -3.1542   -5.6000    0.0000 C   0  0  0  0  0  0  0  0  0  0  0  0
    6.8375   -5.6292    0.0000 C   0  0  0  0  0  0  0  0  0  0  0  0
   -3.1542   -4.7750    0.0000 C   0  0  0  0  0  0  0  0  0  0  0  0
    6.8417   -4.8042    0.0000 C   0  0  0  0  0  0  0  0  0  0  0  0
   -1.7292   -5.6000    0.0000 C   0  0  0  0  0  0  0  0  0  0  0  0
    5.4083   -5.6208    0.0000 C   0  0  0  0  0  0  0  0  0  0  0  0
   -2.4417   -6.0083    0.0000 C   0  0  0  0  0  0  0  0  0  0  0  0
    6.1167   -6.0375    0.0000 C   0  0  0  0  0  0  0  0  0  0  0  0
   -2.4417   -4.3583    0.0000 C   0  0  0  0  0  0  0  0  0  0  0  0
    6.1250   -4.3833    0.0000 C   0  0  0  0  0  0  0  0  0  0  0  0
    5.4167   -4.7917    0.0000 C   0  0  0  0  0  0  0  0  0  0  0  0
   -1.7292   -4.7750    0.0000 C   0  0  0  0  0  0  0  0  0  0  0  0
   -3.8708   -3.5375    0.0000 P   0  0  0  0  0  0  0  0  0  0  0  0
   -4.5792   -5.6000    0.0000 P   0  0  0  0  0  0  0  0  0  0  0  0
    7.5625   -3.5708    0.0000 P   0  0  0  0  0  0  0  0  0  0  0  0
    4.6875   -6.8542    0.0000 P   0  0  0  0  0  0  0  0  0  0  0  0
   -1.0167   -6.8375    0.0000 P   0  0  0  0  0  0  0  0  0  0  0  0
    8.2625   -5.6375    0.0000 P   0  0  0  0  0  0  0  0  0  0  0  0
   -3.8708   -4.3625    0.0000 O   0  0  0  0  0  0  0  0  0  0  0  0
    7.5583   -4.3958    0.0000 O   0  0  0  0  0  0  0  0  0  0  0  0
   -3.8667   -6.0125    0.0000 O   0  0  0  0  0  0  0  0  0  0  0  0
   -1.0167   -6.0125    0.0000 O   0  0  0  0  0  0  0  0  0  0  0  0
    4.6917   -6.0292    0.0000 O   0  0  0  0  0  0  0  0  0  0  0  0
    7.5458   -6.0458    0.0000 O   0  0  0  0  0  0  0  0  0  0  0  0
    1.8417   -4.3667    0.0000 C   0  0  0  0  0  0  0  0  0  0  0  0
   -3.1583   -3.1250    0.0000 O   0  0  0  0  0  0  0  0  0  0  0  0
   -1.7333   -7.2500    0.0000 O   0  0  0  0  0  0  0  0  0  0  0  0
    5.3958   -7.2708    0.0000 O   0  0  0  0  0  0  0  0  0  0  0  0
    6.8500   -3.1542    0.0000 O   0  0  0  0  0  0  0  0  0  0  0  0
   -5.2917   -6.0125    0.0000 O   0  0  0  0  0  0  0  0  0  0  0  0
    1.8458   -3.5417    0.0000 O   0  0  0  0  0  0  0  0  0  0  0  0
    2.5583   -4.7833    0.0000 N   0  0  0  0  0  0  0  0  0  0  0  0
    1.1292   -4.7792    0.0000 N   0  0  0  0  0  0  0  0  0  0  0  0
   -0.1917   -6.8625    0.0000 O   0  0  0  0  0  0  0  0  0  0  0  0
    3.9583   -6.4625    0.0000 O   0  0  0  0  0  0  0  0  0  0  0  0
   -4.2833   -2.8208    0.0000 O   0  0  0  0  0  0  0  0  0  0  0  0
   -4.9875   -4.8833    0.0000 O   0  0  0  0  0  0  0  0  0  0  0  0
   -0.6250   -7.5625    0.0000 O   0  0  0  0  0  0  0  0  0  0  0  0
    4.0958   -7.4375    0.0000 O   0  0  0  0  0  0  0  0  0  0  0  0
   -4.1625   -4.8875    0.0000 O   0  0  0  0  0  0  0  0  0  0  0  0
   -4.6958   -3.5375    0.0000 O   0  0  0  0  0  0  0  0  0  0  0  0
    8.3458   -3.3125    0.0000 O   0  0  0  0  0  0  0  0  0  0  0  0
    7.7292   -2.7625    0.0000 O   0  0  0  0  0  0  0  0  0  0  0  0
    6.1125   -6.8625    0.0000 O   0  0  0  0  0  0  0  0  0  0  0  0
   -2.4417   -6.8333    0.0000 O   0  0  0  0  0  0  0  0  0  0  0  0
    6.1292   -3.5583    0.0000 O   0  0  0  0  0  0  0  0  0  0  0  0
   -2.4417   -3.5333    0.0000 O   0  0  0  0  0  0  0  0  0  0  0  0
    4.7000   -4.3750    0.0000 O   0  0  0  0  0  0  0  0  0  0  0  0
   -1.0125   -4.3625    0.0000 O   0  0  0  0  0  0  0  0  0  0  0  0
    8.9750   -6.0583    0.0000 O   0  0  0  0  0  0  0  0  0  0  0  0
    7.8833   -4.9083    0.0000 O   0  0  0  0  0  0  0  0  0  0  0  0
    8.7083   -4.9458    0.0000 O   0  0  0  0  0  0  0  0  0  0  0  0
    3.2708   -4.3708    0.0000 C   0  0  0  0  0  0  0  0  0  0  0  0
    0.4167   -4.3625    0.0000 C   0  0  0  0  0  0  0  0  0  0  0  0
    3.9875   -4.7875    0.0000 C   0  0  0  0  0  0  0  0  0  0  0  0
   -0.3000   -4.7750    0.0000 C   0  0  0  0  0  0  0  0  0  0  0  0
  2  4  1  0  0  0  0 
  3  1  1  0  0  0  0 
  4 10  1  0  0  0  0 
  5  7  1  0  0  0  0 
  6 11  1  0  0  0  0 
  7  1  1  0  0  0  0 
  8  6  1  0  0  0  0 
  9  3  1  0  0  0  0 
 10 11  1  0  0  0  0 
 11 48  1  1  0  0  0 
 12  5  1  0  0  0  0 
 13 19  1  0  0  0  0 
 14 21  1  0  0  0  0 
 15 20  1  0  0  0  0 
 16 23  1  0  0  0  0 
 17 22  1  0  0  0  0 
 18 24  1  0  0  0  0 
  3 19  1  6  0  0  0 
  4 20  1  6  0  0  0 
  1 21  1  1  0  0  0 
  5 22  1  1  0  0  0 
  6 23  1  1  0  0  0 
  2 24  1  1  0  0  0 
 25 33  1  0  0  0  0 
 26 13  2  0  0  0  0 
 27 17  2  0  0  0  0 
 28 16  2  0  0  0  0 
 29 15  2  0  0  0  0 
 30 14  2  0  0  0  0 
 31 25  2  0  0  0  0 
 32 25  1  0  0  0  0 
 33 54  1  0  0  0  0 
 34 17  1  0  0  0  0 
 35 16  1  0  0  0  0 
 36 13  1  0  0  0  0 
 37 14  1  0  0  0  0 
 38 17  1  0  0  0  0 
 39 16  1  0  0  0  0 
 40 14  1  0  0  0  0 
 41 13  1  0  0  0  0 
 42 15  1  0  0  0  0 
 43 15  1  0  0  0  0 
  8 44  1  6  0  0  0 
  7 45  1  6  0  0  0 
 10 46  1  1  0  0  0 
  9 47  1  1  0  0  0 
 48 55  1  0  0  0  0 
 12 49  1  1  0  0  0 
 50 18  1  0  0  0  0 
 51 18  1  0  0  0  0 
 52 18  1  0  0  0  0 
 53 32  1  0  0  0  0 
 54 56  1  0  0  0  0 
 55 53  1  0  0  0  0 
 56 49  1  0  0  0  0 
  9 12  1  0  0  0  0 
  2  8  1  0  0  0  0 
M  END