
          11280715122D 1   1.00000     0.00000     0

 35 38  0     0  0            999 V2000
    5.9917   -5.2667    0.0000 C   0  0  0  0  0  0           0  0  0
    5.2792   -6.5042    0.0000 C   0  0  0  0  0  0           0  0  0
    5.9875   -4.4417    0.0000 C   0  0  0  0  0  0           0  0  0
    5.2792   -5.6792    0.0000 C   0  0  0  0  0  0           0  0  0
    6.0042   -6.8292    0.0000 C   0  0  0  0  0  0           0  0  0
    6.7042   -6.5042    0.0000 N   0  0  0  0  0  0           0  0  0
    0.9792   -5.7375    0.0000 N   0  0  3  0  0  0           0  0  0
    6.0917   -7.6292    0.0000 N   0  0  0  0  0  0           0  0  0
    0.2667   -5.3292    0.0000 C   0  0  0  0  0  0           0  0  0
    6.7042   -5.6792    0.0000 C   0  0  0  0  0  0           0  0  0
    0.2667   -4.5000    0.0000 C   0  0  0  0  0  0           0  0  0
    4.6292   -6.9792    0.0000 C   0  0  0  0  0  0           0  0  0
    2.4250   -6.5292    0.0000 N   0  0  3  0  0  0           0  0  0
   -0.4458   -4.0875    0.0000 C   0  0  0  0  0  0           0  0  0
    6.7042   -4.0292    0.0000 N   0  0  3  0  0  0           0  0  0
   -0.4458   -5.7417    0.0000 C   0  0  0  0  0  0           0  0  0
    5.2750   -4.0292    0.0000 O   0  0  0  0  0  0           0  0  0
    1.6917   -5.3125    0.0000 C   0  0  0  0  0  0           0  0  0
    0.9917   -6.5625    0.0000 C   0  0  0  0  0  0           0  0  0
    4.5667   -5.2667    0.0000 N   0  0  0  0  0  0           0  0  0
    5.4500   -8.1000    0.0000 C   0  0  0  0  0  0           0  0  0
   -1.1583   -4.5042    0.0000 C   0  0  0  0  0  0           0  0  0
    2.4042   -5.7042    0.0000 C   0  0  0  0  0  0           0  0  0
    1.7167   -6.9542    0.0000 C   0  0  0  0  0  0           0  0  0
    4.7167   -7.7750    0.0000 C   0  0  0  0  0  0           0  0  0
   -1.1583   -5.3292    0.0000 C   0  0  0  0  0  0           0  0  0
    0.9792   -4.0875    0.0000 O   0  0  0  0  0  0           0  0  0
   -1.8708   -4.0917    0.0000 F   0  0  0  0  0  0           0  0  0
    3.1500   -6.9292    0.0000 C   0  0  0  0  0  0           0  0  0
    3.8625   -6.5125    0.0000 C   0  0  0  0  0  0           0  0  0
    3.8542   -5.6875    0.0000 C   0  0  0  0  0  0           0  0  0
    7.4167   -4.4375    0.0000 C   0  0  0  0  0  0           0  0  0
    6.7000   -3.2042    0.0000 C   0  0  0  0  0  0           0  0  0
    5.5417   -8.9167    0.0000 C   0  0  0  0  0  0           0  0  0
    1.6917   -4.4917    0.0000 C   0  0  0  0  0  0           0  0  0
  2  4  2  0     0  0
  3  1  1  0     0  0
  4  1  1  0     0  0
  5  6  2  0     0  0
  6 10  1  0     0  0
  7 19  1  0     0  0
  8  5  1  0     0  0
  9  7  1  0     0  0
 10  1  2  0     0  0
 11  9  1  0     0  0
 12  2  1  0     0  0
 13 29  1  0     0  0
 14 11  2  0     0  0
 15  3  1  0     0  0
 16  9  2  0     0  0
 17  3  2  0     0  0
 18 23  1  0     0  0
 19 24  1  0     0  0
 20  4  1  0     0  0
 21  8  2  0     0  0
 22 26  2  0     0  0
 23 13  1  0     0  0
 24 13  1  0     0  0
 25 12  2  0     0  0
 26 16  1  0     0  0
 27 11  1  0     0  0
 28 22  1  0     0  0
 29 30  1  0     0  0
 30 31  1  0     0  0
 31 20  1  0     0  0
 32 15  1  0     0  0
 33 15  1  0     0  0
 34 21  1  0     0  0
 35 27  1  0     0  0
  5  2  1  0     0  0
 21 25  1  0     0  0
  7 18  1  0     0  0
 22 14  1  0     0  0
M  END