
          11280715442D 1   1.00000     0.00000     0

 35 40  0     1  0            999 V2000
    0.9792   -3.1042    0.0000 N   0  0  3  0  0  0           0  0  0
    0.2667   -3.5167    0.0000 C   0  0  3  0  0  0           0  0  0
    1.7000   -3.5042    0.0000 C   0  0  0  0  0  0           0  0  0
    0.9875   -2.2750    0.0000 C   0  0  0  0  0  0           0  0  0
    2.4167   -3.1000    0.0000 C   0  0  1  0  0  0           0  0  0
    5.3417   -2.0542    0.0000 C   0  0  3  0  0  0           0  0  0
    0.2667   -4.3417    0.0000 C   0  0  3  0  0  0           0  0  0
    4.5542   -2.6667    0.0000 N   0  0  3  0  0  0           0  0  0
    6.0125   -1.5750    0.0000 N   0  0  3  0  0  0           0  0  0
    2.4167   -3.9250    0.0000 C   0  0  0  0  0  0           0  0  0
   -0.1583   -5.0542    0.0000 C   0  0  0  0  0  0           0  0  0
    0.6667   -5.0625    0.0000 C   0  0  0  0  0  0           0  0  0
    4.5500   -1.8417    0.0000 C   0  0  0  0  0  0           0  0  0
    5.2750   -3.0792    0.0000 C   0  0  0  0  0  0           0  0  0
    3.1375   -5.1667    0.0000 C   0  0  0  0  0  0           0  0  0
    3.1375   -4.3375    0.0000 C   0  0  0  0  0  0           0  0  0
    2.4167   -5.5792    0.0000 C   0  0  0  0  0  0           0  0  0
    2.4167   -2.2750    0.0000 C   0  0  0  0  0  0           0  0  0
    1.7000   -1.8625    0.0000 C   0  0  0  0  0  0           0  0  0
    0.2667   -1.8625    0.0000 O   0  0  0  0  0  0           0  0  0
    3.1292   -2.6792    0.0000 C   0  0  0  0  0  0           0  0  0
    1.7042   -4.3375    0.0000 C   0  0  0  0  0  0           0  0  0
    1.7042   -5.1667    0.0000 C   0  0  0  0  0  0           0  0  0
    3.8417   -3.0875    0.0000 C   0  0  0  0  0  0           0  0  0
    7.3542   -0.6250    0.0000 O   0  0  0  0  0  0           0  0  0
    3.8542   -5.5792    0.0000 Cl  0  0  0  0  0  0           0  0  0
    2.4167   -6.4042    0.0000 Cl  0  0  0  0  0  0           0  0  0
   -0.3500   -4.0000    0.0000 C   0  0  0  0  0  0           0  0  0
    0.0917   -2.7417    0.0000 C   0  0  0  0  0  0           0  0  0
    5.9292   -0.7625    0.0000 C   0  0  0  0  0  0           0  0  0
    6.7667   -1.9167    0.0000 C   0  0  0  0  0  0           0  0  0
    7.4292   -1.4417    0.0000 C   0  0  0  0  0  0           0  0  0
    6.6042   -0.2792    0.0000 C   0  0  0  0  0  0           0  0  0
   -0.6458   -2.7417    0.0000 C   0  0  0  0  0  0           0  0  0
   -0.9208   -3.5167    0.0000 C   0  0  0  0  0  0           0  0  0
  2  1  1  0     0  0
  3  1  1  0     0  0
  4  1  1  0     0  0
  5  3  1  0     0  0
  6 14  1  0     0  0
  7  2  1  0     0  0
  8 24  1  0     0  0
  9  6  1  0     0  0
  5 10  1  6     0  0
 11  7  1  0     0  0
 12  7  1  0     0  0
 13  8  1  0     0  0
 14  8  1  0     0  0
 15 16  1  0     0  0
 16 10  2  0     0  0
 17 23  1  0     0  0
 18 19  1  0     0  0
 19  4  1  0     0  0
 20  4  2  0     0  0
  5 21  1  1     0  0
 22 10  1  0     0  0
 23 22  2  0     0  0
 24 21  1  0     0  0
 25 32  1  0     0  0
 26 15  1  0     0  0
 27 17  1  0     0  0
 28  2  1  0     0  0
 29  2  1  0     0  0
 30  9  1  0     0  0
 31  9  1  0     0  0
 32 31  1  0     0  0
 33 30  1  0     0  0
 34 29  1  0     0  0
 35 28  1  0     0  0
  5 18  1  0     0  0
 34 35  1  0     0  0
 12 11  1  0     0  0
 13  6  1  0     0  0
 17 15  2  0     0  0
 33 25  1  0     0  0
M  END