
          11280715092D 1   1.00000     0.00000     0

 35 37  0     1  0            999 V2000
    8.7042   -4.7167    0.0000 C   0  0  0  0  0  0           0  0  0
    8.2250   -5.3792    0.0000 N   0  0  3  0  0  0           0  0  0
    9.4917   -4.9667    0.0000 C   0  0  0  0  0  0           0  0  0
   13.7792   -4.9500    0.0000 C   0  0  1  0  0  0           0  0  0
    9.4917   -5.7917    0.0000 C   0  0  0  0  0  0           0  0  0
   10.2042   -4.5500    0.0000 C   0  0  0  0  0  0           0  0  0
   11.6375   -4.5417    0.0000 C   0  0  0  0  0  0           0  0  0
    8.7125   -6.0500    0.0000 C   0  0  0  0  0  0           0  0  0
   14.4917   -4.5292    0.0000 C   0  0  0  0  0  0           0  0  0
   14.1917   -5.6625    0.0000 N   0  0  0  0  0  0           0  0  0
   10.9250   -4.9625    0.0000 C   0  0  0  0  0  0           0  0  0
   12.3542   -4.9542    0.0000 N   0  0  0  0  0  0           0  0  0
   13.7750   -6.3750    0.0000 C   0  0  0  0  0  0           0  0  0
    8.4500   -3.9292    0.0000 O   0  0  0  0  0  0           0  0  0
    7.5125   -4.9667    0.0000 C   0  0  0  0  0  0           0  0  0
   13.0667   -4.5417    0.0000 C   0  0  0  0  0  0           0  0  0
    4.6542   -4.1417    0.0000 N   0  0  0  0  0  0           0  0  0
   10.2042   -6.2042    0.0000 C   0  0  0  0  0  0           0  0  0
   11.6292   -3.7167    0.0000 O   0  0  0  0  0  0           0  0  0
   14.4917   -3.7042    0.0000 O   0  0  0  0  0  0           0  0  0
   10.9250   -5.7917    0.0000 C   0  0  0  0  0  0           0  0  0
   12.9500   -6.3667    0.0000 O   0  0  0  0  0  0           0  0  0
   15.2125   -4.9417    0.0000 O   0  0  0  0  0  0           0  0  0
    6.7917   -5.3792    0.0000 C   0  0  0  0  0  0           0  0  0
    6.0792   -4.9667    0.0000 C   0  0  3  0  0  0           0  0  0
   14.1875   -7.0875    0.0000 C   0  0  0  0  0  0           0  0  0
    4.6542   -4.9667    0.0000 C   0  0  0  0  0  0           0  0  0
    5.3792   -3.7292    0.0000 C   0  0  0  0  0  0           0  0  0
    5.3667   -5.3875    0.0000 C   0  0  0  0  0  0           0  0  0
    6.0875   -4.1500    0.0000 C   0  0  0  0  0  0           0  0  0
   13.7667   -7.8042    0.0000 C   0  0  0  0  0  0           0  0  0
   13.7667   -9.2292    0.0000 C   0  0  0  0  0  0           0  0  0
   14.1792   -8.5167    0.0000 C   0  0  0  0  0  0           0  0  0
   14.1792   -9.9417    0.0000 C   0  0  0  0  0  0           0  0  0
   13.3667   -5.6625    0.0000 H   0  0  0  0  0  0           0  0  0
  2  1  1  0     0  0
  3  1  1  0     0  0
  4 16  1  0     0  0
  5  3  2  0     0  0
  6  3  1  0     0  0
  7 11  1  0     0  0
  8  2  1  0     0  0
  9  4  1  0     0  0
  4 10  1  1     0  0
 11  6  2  0     0  0
 12  7  1  0     0  0
 13 10  1  0     0  0
 14  1  2  0     0  0
 15  2  1  0     0  0
 16 12  1  0     0  0
 17 28  1  0     0  0
 18  5  1  0     0  0
 19  7  2  0     0  0
 20  9  2  0     0  0
 21 11  1  0     0  0
 22 13  2  0     0  0
 23  9  1  0     0  0
 24 15  1  0     0  0
 25 24  1  0     0  0
 26 13  1  0     0  0
 27 29  1  0     0  0
 28 30  1  0     0  0
 29 25  1  0     0  0
 30 25  1  0     0  0
 31 26  1  0     0  0
 32 33  1  0     0  0
 33 31  1  0     0  0
 34 32  1  0     0  0
  4 35  1  6     0  0
  8  5  1  0     0  0
 18 21  2  0     0  0
 27 17  1  0     0  0
M  END