
  SciTegic12191611322D

 24 26  0  0  0  0            999 V2000
   -4.2095    7.5228    0.0000 C   0  0
   -4.6551    0.8818    0.0000 O   0  0
   -3.6202    1.4892    0.0000 S   0  0
   -4.6637    2.0816    0.0000 O   0  0
   -6.1654    6.0856    0.0000 N   0  0
   -4.9473    5.2323    0.0000 N   0  0
   -3.7383    6.0987    0.0000 C   0  0
   -5.7095    7.5147    0.0000 C   0  0
   -4.9361    3.7316    0.0000 C   0  0
   -3.6313    2.9900    0.0000 N   0  0
   -2.3155    0.7475    0.0000 C   0  0
   -1.0028    1.5132    0.0000 C   0  0
   -1.0028   -1.5132    0.0000 C   0  0
   -2.3155   -0.7475    0.0000 C   0  0
   -6.2290    2.9693    0.0000 N   0  0
   -6.2162    1.4685    0.0000 C   0  0
   -7.2499    0.8590    0.0000 C   0  0
    0.2917   -0.7475    0.0000 C   0  0
    0.2917    0.7475    0.0000 C   0  0
    1.7138    1.2033    0.0000 N   0  0
    2.5889    0.0182    0.0000 C   0  0
    1.7138   -1.2033    0.0000 C   0  0
   -3.3379    8.7414    0.0000 C   0  0
   -3.8335    9.8343    0.0000 C   0  0
  3  2  2  0
  4  3  2  0
  5  6  1  0
  6  7  1  0
  7  1  1  0
  1  8  1  0
  8  5  2  0
  6  9  1  0
  9 10  2  0
 10  3  1  0
  3 11  1  0
 11 12  2  0
 12 19  1  0
 18 13  1  0
 13 14  2  0
 14 11  1  0
  9 15  1  0
 15 16  1  0
 16 17  1  0
 18 19  2  0
 19 20  1  0
 20 21  1  0
 21 22  2  0
 22 18  1  0
  1 23  1  0
 23 24  1  0
M  END