
  CDK    9/16/09,9:45

 25 26  0  0  0  0  0  0  0  0999 V2000
   -2.8936  -17.5581    0.0000 C   0  0  0  0  0  0  0  0  0  0  0  0
   -2.8949  -18.3856    0.0000 C   0  0  0  0  0  0  0  0  0  0  0  0
   -2.1819  -18.7985    0.0000 C   0  0  0  0  0  0  0  0  0  0  0  0
   -1.4626  -18.3852    0.0000 C   0  0  0  0  0  0  0  0  0  0  0  0
   -1.4657  -17.5540    0.0000 C   0  0  0  0  0  0  0  0  0  0  0  0
   -2.1839  -17.1453    0.0000 C   0  0  0  0  0  0  0  0  0  0  0  0
   -3.6083  -17.1462    0.0000 O   0  0  0  0  0  0  0  0  0  0  0  0
   -2.1833  -19.6235    0.0000 O   0  0  0  0  0  0  0  0  0  0  0  0
   -0.7534  -17.1380    0.0000 C   0  0  0  0  0  0  0  0  0  0  0  0
   -0.0368  -17.5470    0.0000 C   0  0  0  0  0  0  0  0  0  0  0  0
    0.6756  -17.1310    0.0000 C   0  0  0  0  0  0  0  0  0  0  0  0
    1.3878  -17.5426    0.0000 C   0  0  0  0  0  0  0  0  0  0  0  0
    2.0997  -17.1274    0.0000 C   0  0  0  0  0  0  0  0  0  0  0  0
    2.0961  -16.3015    0.0000 C   0  0  0  0  0  0  0  0  0  0  0  0
    1.3746  -15.8927    0.0000 C   0  0  0  0  0  0  0  0  0  0  0  0
    0.6657  -16.3104    0.0000 C   0  0  0  0  0  0  0  0  0  0  0  0
    2.8080  -15.8845    0.0000 O   0  0  0  0  0  0  0  0  0  0  0  0
    3.5249  -16.2925    0.0000 C   0  0  0  0  0  0  0  0  0  0  0  0
    4.2368  -15.8755    0.0000 C   0  0  0  0  0  0  0  0  0  0  0  0
    4.9539  -16.2835    0.0000 C   0  0  0  0  0  0  0  0  0  0  0  0
    5.6657  -15.8666    0.0000 C   0  0  0  0  0  0  0  0  0  0  0  0
    6.3827  -16.2746    0.0000 C   0  0  0  0  0  0  0  0  0  0  0  0
    7.0945  -15.8576    0.0000 C   0  0  0  0  0  0  0  0  0  0  0  0
    7.8116  -16.2656    0.0000 O   0  0  0  0  0  0  0  0  0  0  0  0
    7.0894  -15.0326    0.0000 O   0  0  0  0  0  0  0  0  0  0  0  0
  6  1  1  0  0  0  0 
 12 13  1  0  0  0  0 
  1  2  2  0  0  0  0 
 13 14  2  0  0  0  0 
  1  7  1  0  0  0  0 
 14 15  1  0  0  0  0 
  3  4  2  0  0  0  0 
 15 16  2  0  0  0  0 
 16 11  1  0  0  0  0 
  3  8  1  0  0  0  0 
 14 17  1  0  0  0  0 
 17 18  1  0  0  0  0 
  5  9  1  0  0  0  0 
 18 19  1  0  0  0  0 
  4  5  1  0  0  0  0 
 19 20  1  0  0  0  0 
  9 10  2  0  0  0  0 
 20 21  1  0  0  0  0 
  2  3  1  0  0  0  0 
 21 22  1  0  0  0  0 
 10 11  1  0  0  0  0 
 22 23  1  0  0  0  0 
  5  6  2  0  0  0  0 
 23 24  1  0  0  0  0 
 11 12  2  0  0  0  0 
 23 25  2  0  0  0  0 
M  END