
  SciTegic01181116592D

 55 60  0  0  0  0            999 V2000
    9.5456   -6.7486    0.0000 C   0  0
    9.9668   -7.4608    0.0000 C   0  0
    9.5607   -8.1795    0.0000 C   0  0
    8.7336   -8.1872    0.0000 C   0  0
    8.3143   -7.4703    0.0000 C   0  0
    8.7228   -6.7546    0.0000 C   0  0
    8.3055   -6.0430    0.0000 N   0  0
    7.4845   -5.9617    0.0000 N   0  0
    7.3081   -5.1558    0.0000 C   0  0
    8.0201   -4.7389    0.0000 C   0  0
    8.6364   -5.2873    0.0000 C   0  0
    9.4569   -5.2889    0.0000 C   0  0
    9.8693   -4.5731    0.0000 C   0  0
   10.6935   -4.5734    0.0000 C   0  0
   11.1063   -5.2887    0.0000 C   0  0
   10.6888   -6.0052    0.0000 C   0  0
    9.8660   -6.0014    0.0000 C   0  0
    8.1014   -3.9179    0.0000 C   0  0
    6.5884   -4.7519    0.0000 C   0  0
    5.8789   -5.1728    0.0000 N   0  0
    6.5787   -3.9269    0.0000 O   0  0
    7.4893   -7.4747    0.0000 Cl  0  0
    9.9798   -8.8901    0.0000 Cl  0  0
   11.9313   -5.2904    0.0000 Cl  0  0
    5.1596   -4.7687    0.0000 C   0  0
    4.4500   -5.1896    0.0000 C   0  0
    3.7307   -4.7855    0.0000 C   0  0
   -3.5029   -6.6475    0.0000 C   0  0
   -3.9241   -7.3596    0.0000 C   0  0
   -3.5180   -8.0783    0.0000 C   0  0
   -2.6909   -8.0861    0.0000 C   0  0
   -2.2715   -7.3692    0.0000 C   0  0
   -2.6800   -6.6534    0.0000 C   0  0
   -2.2628   -5.9418    0.0000 N   0  0
   -1.4418   -5.8605    0.0000 N   0  0
   -1.2654   -5.0546    0.0000 C   0  0
   -1.9774   -4.6377    0.0000 C   0  0
   -2.5937   -5.1861    0.0000 C   0  0
   -3.4141   -5.1877    0.0000 C   0  0
   -3.8266   -4.4719    0.0000 C   0  0
   -4.6508   -4.4722    0.0000 C   0  0
   -5.0636   -5.1875    0.0000 C   0  0
   -4.6461   -5.9041    0.0000 C   0  0
   -3.8232   -5.9002    0.0000 C   0  0
   -2.0586   -3.8168    0.0000 C   0  0
   -0.5457   -4.6507    0.0000 C   0  0
    0.1639   -5.0716    0.0000 N   0  0
   -0.5360   -3.8258    0.0000 O   0  0
   -1.4466   -7.3736    0.0000 Cl  0  0
   -3.9371   -8.7889    0.0000 Cl  0  0
   -5.8886   -5.1893    0.0000 Cl  0  0
    0.8831   -4.6675    0.0000 C   0  0
    1.5927   -5.0884    0.0000 C   0  0
    2.3120   -4.6844    0.0000 C   0  0
    3.0215   -5.1053    0.0000 N   0  0
 12 13  2  0
 26 27  1  0
  7  8  1  0
 13 14  1  0
 28 29  2  0
  1  2  2  0
 29 30  1  0
 14 15  2  0
 30 31  2  0
  3  4  2  0
 31 32  1  0
 15 16  1  0
 32 33  2  0
 33 28  1  0
 34 35  1  0
 16 17  2  0
 17 12  1  0
 11 12  1  0
  4  5  1  0
 35 36  2  0
 36 37  1  0
 37 38  2  0
 38 34  1  0
 33 34  1  0
 10 18  1  0
  2  3  1  0
 39 40  2  0
  9 19  1  0
 40 41  1  0
  8  9  2  0
 41 42  2  0
 19 20  1  0
 42 43  1  0
  9 10  1  0
 43 44  2  0
 44 39  1  0
 38 39  1  0
 19 21  2  0
 37 45  1  0
 10 11  2  0
 36 46  1  0
  5 22  1  0
 46 47  1  0
 11  7  1  0
 46 48  2  0
  3 23  1  0
 32 49  1  0
  6  7  1  0
 30 50  1  0
 15 24  1  0
 42 51  1  0
  5  6  2  0
 47 52  1  0
 20 25  1  0
 52 53  1  0
  6  1  1  0
 53 54  1  0
 25 26  1  0
 54 55  1  0
 55 27  1  0
M  END