
          11280715292D 1   1.00000     0.00000     0

 28 29  0     0  0            999 V2000
    5.9000   -3.8292    0.0000 N   0  0  3  0  0  0           0  0  0
    3.9917   -2.0167    0.0000 C   0  0  0  0  0  0           0  0  0
    6.1542   -2.8917    0.0000 N   0  0  0  0  0  0           0  0  0
    5.5542   -2.9167    0.0000 C   0  0  0  0  0  0           0  0  0
    4.5167   -2.9167    0.0000 C   0  0  0  0  0  0           0  0  0
    6.3667   -3.4542    0.0000 C   0  0  0  0  0  0           0  0  0
    5.0375   -2.6167    0.0000 N   0  0  0  0  0  0           0  0  0
    3.9917   -2.6167    0.0000 C   0  0  0  0  0  0           0  0  0
    5.3917   -3.4917    0.0000 C   0  0  0  0  0  0           0  0  0
    4.4167   -1.5792    0.0000 C   0  0  0  0  0  0           0  0  0
    6.4125   -4.7292    0.0000 C   0  0  0  0  0  0           0  0  0
    5.8917   -4.4167    0.0000 C   0  0  3  0  0  0           0  0  0
    3.4750   -1.7167    0.0000 C   0  0  0  0  0  0           0  0  0
    4.5167   -3.5167    0.0000 O   0  0  0  0  0  0           0  0  0
    5.1167   -1.5542    0.0000 O   0  0  0  0  0  0           0  0  0
    6.4042   -5.3292    0.0000 O   0  0  0  0  0  0           0  0  0
    4.2500   -1.0042    0.0000 O   0  0  0  0  0  0           0  0  0
    6.9292   -4.4292    0.0000 O   0  0  0  0  0  0           0  0  0
    3.4667   -1.1167    0.0000 O   0  0  0  0  0  0           0  0  0
    3.4750   -2.9167    0.0000 C   0  0  0  0  0  0           0  0  0
    2.9542   -2.6167    0.0000 C   0  0  0  0  0  0           0  0  0
    5.3667   -4.7167    0.0000 C   0  0  0  0  0  0           0  0  0
    2.9542   -2.0167    0.0000 C   0  0  0  0  0  0           0  0  0
    4.8542   -4.4167    0.0000 C   0  0  0  0  0  0           0  0  0
    3.2917   -4.7042    0.0000 C   0  0  0  0  0  0           0  0  0
    3.8167   -4.4042    0.0000 C   0  0  0  0  0  0           0  0  0
    4.3292   -4.7167    0.0000 C   0  0  0  0  0  0           0  0  0
    2.7792   -4.4042    0.0000 C   0  0  0  0  0  0           0  0  0
  2  8  2  0     0  0
  3  6  2  0     0  0
  4  9  2  0     0  0
  5  7  1  0     0  0
  6  1  1  0     0  0
  7  4  1  0     0  0
  8  5  1  0     0  0
  9  1  1  0     0  0
 10  2  1  0     0  0
 11 12  1  0     0  0
 12  1  1  0     0  0
 13  2  1  0     0  0
 14  5  2  0     0  0
 15 10  2  0     0  0
 16 11  2  0     0  0
 17 10  1  0     0  0
 18 11  1  0     0  0
 19 13  1  0     0  0
 20  8  1  0     0  0
 21 20  2  0     0  0
 22 12  1  0     0  0
 23 21  1  0     0  0
 24 22  1  0     0  0
 25 26  1  0     0  0
 26 27  1  0     0  0
 27 24  1  0     0  0
 28 25  1  0     0  0
  4  3  1  0     0  0
 13 23  2  0     0  0
M  END