
  SciTegic01181116592D

 68 73  0  0  0  0            999 V2000
   18.4190  -18.4450    0.0000 C   0  0
   18.8402  -19.1572    0.0000 C   0  0
   18.4341  -19.8758    0.0000 C   0  0
   17.6070  -19.8836    0.0000 C   0  0
   17.1877  -19.1667    0.0000 C   0  0
   17.5962  -18.4509    0.0000 C   0  0
   17.1789  -17.7393    0.0000 N   0  0
   16.3579  -17.6581    0.0000 N   0  0
   16.1815  -16.8521    0.0000 C   0  0
   16.8935  -16.4353    0.0000 C   0  0
   17.5098  -16.9836    0.0000 C   0  0
   18.3303  -16.9852    0.0000 C   0  0
   18.7427  -16.2694    0.0000 C   0  0
   19.5670  -16.2697    0.0000 C   0  0
   19.9797  -16.9851    0.0000 C   0  0
   19.5622  -17.7016    0.0000 C   0  0
   18.7394  -17.6978    0.0000 C   0  0
   16.9748  -15.6143    0.0000 C   0  0
   15.4618  -16.4482    0.0000 C   0  0
   14.7523  -16.8691    0.0000 N   0  0
   15.4521  -15.6233    0.0000 O   0  0
   16.3627  -19.1711    0.0000 Cl  0  0
   18.8533  -20.5864    0.0000 Cl  0  0
   20.8047  -16.9868    0.0000 Cl  0  0
   -3.2029  -18.2766    0.0000 C   0  0
   -3.6241  -18.9888    0.0000 C   0  0
   -3.2180  -19.7075    0.0000 C   0  0
   -2.3909  -19.7152    0.0000 C   0  0
   -1.9715  -18.9983    0.0000 C   0  0
   -2.3800  -18.2826    0.0000 C   0  0
   -1.9628  -17.5710    0.0000 N   0  0
   -1.1418  -17.4897    0.0000 N   0  0
   -0.9654  -16.6838    0.0000 C   0  0
   -1.6774  -16.2669    0.0000 C   0  0
   -2.2937  -16.8153    0.0000 C   0  0
   -3.1141  -16.8169    0.0000 C   0  0
   -3.5266  -16.1011    0.0000 C   0  0
   -4.3508  -16.1014    0.0000 C   0  0
   -4.7636  -16.8167    0.0000 C   0  0
   -4.3461  -17.5332    0.0000 C   0  0
   -3.5232  -17.5294    0.0000 C   0  0
   -1.7586  -15.4459    0.0000 C   0  0
   -0.2457  -16.2799    0.0000 C   0  0
    0.4639  -16.7008    0.0000 N   0  0
   -0.2360  -15.4549    0.0000 O   0  0
   -1.1466  -19.0027    0.0000 Cl  0  0
   -3.6371  -20.4181    0.0000 Cl  0  0
   -5.5886  -16.8184    0.0000 Cl  0  0
    1.1831  -16.2967    0.0000 C   0  0
    1.8927  -16.7176    0.0000 C   0  0
    2.6120  -16.3135    0.0000 C   0  0
    3.3215  -16.7344    0.0000 C   0  0
    4.0408  -16.3304    0.0000 C   0  0
    4.7504  -16.7513    0.0000 C   0  0
    5.4697  -16.3472    0.0000 C   0  0
    6.1792  -16.7681    0.0000 C   0  0
    6.8985  -16.3641    0.0000 C   0  0
    7.6081  -16.7849    0.0000 N   0  0
    8.3274  -16.3809    0.0000 C   0  0
    9.0369  -16.8018    0.0000 C   0  0
    9.7562  -16.3977    0.0000 C   0  0
   10.4658  -16.8186    0.0000 C   0  0
   11.1850  -16.4146    0.0000 C   0  0
   11.8946  -16.8354    0.0000 C   0  0
   12.6139  -16.4314    0.0000 C   0  0
   13.3234  -16.8523    0.0000 C   0  0
   14.0427  -16.4482    0.0000 C   0  0
    7.5984  -17.6099    0.0000 C   0  0
 16 17  2  0
 32 33  2  0
 33 34  1  0
 34 35  2  0
 35 31  1  0
 30 31  1  0
 17 12  1  0
 11 12  1  0
 36 37  2  0
  4  5  1  0
 37 38  1  0
 10 18  1  0
 38 39  2  0
  2  3  1  0
 39 40  1  0
  9 19  1  0
 40 41  2  0
 41 36  1  0
 35 36  1  0
  8  9  2  0
 34 42  1  0
 19 20  1  0
 33 43  1  0
  9 10  1  0
 43 44  1  0
 19 21  2  0
 43 45  2  0
 10 11  2  0
 29 46  1  0
  5 22  1  0
 27 47  1  0
 11  7  1  0
 39 48  1  0
  3 23  1  0
 44 49  1  0
  6  7  1  0
 49 50  1  0
 15 24  1  0
 50 51  1  0
  5  6  2  0
 51 52  1  0
  6  1  1  0
 52 53  1  0
 25 26  2  0
 53 54  1  0
 12 13  2  0
 54 55  1  0
 26 27  1  0
 55 56  1  0
  7  8  1  0
 56 57  1  0
 27 28  2  0
 57 58  1  0
 13 14  1  0
 58 59  1  0
 28 29  1  0
 59 60  1  0
  1  2  2  0
 60 61  1  0
 29 30  2  0
 61 62  1  0
 30 25  1  0
 62 63  1  0
 31 32  1  0
 63 64  1  0
 14 15  2  0
 64 65  1  0
  3  4  2  0
 65 66  1  0
 15 16  1  0
 66 67  1  0
 67 20  1  0
 58 68  1  0
M  END