
          11280715362D 1   1.00000     0.00000     0

 35 37  0     0  0            999 V2000
    3.3417    0.3458    0.0000 S   0  0  3  0  0  0           0  0  0
    6.6417    0.3583    0.0000 N   0  3  0  0  0  0           0  0  0
   -0.2333   -1.7292    0.0000 C   0  0  0  0  0  0           0  0  0
   -0.2333   -0.9042    0.0000 C   0  0  0  0  0  0           0  0  0
    4.1667    0.3500    0.0000 C   0  0  0  0  0  0           0  0  0
    5.8167    0.3500    0.0000 C   0  0  0  0  0  0           0  0  0
    3.3417   -0.4750    0.0000 O   0  0  0  0  0  0           0  0  0
    3.3417    1.1750    0.0000 O   0  0  0  0  0  0           0  0  0
    7.0542   -0.3542    0.0000 O   0  5  0  0  0  0           0  0  0
    2.6292    0.7583    0.0000 N   0  0  0  0  0  0           0  0  0
    7.1667    1.3208    0.0000 O   0  0  0  0  0  0           0  0  0
    3.3417   -2.1417    0.0000 C   0  0  0  0  0  0           0  0  0
    0.4875   -0.4917    0.0000 C   0  0  0  0  0  0           0  0  0
   -0.9458   -2.1417    0.0000 C   0  0  0  0  0  0           0  0  0
    0.4875   -2.1417    0.0000 C   0  0  0  0  0  0           0  0  0
   -1.6500   -3.3792    0.0000 N   0  0  0  0  0  0           0  0  0
    3.3417   -2.9667    0.0000 O   0  0  0  0  0  0           0  0  0
    4.5750    1.0583    0.0000 C   0  0  0  0  0  0           0  0  0
    4.5792   -0.3667    0.0000 C   0  0  0  0  0  0           0  0  0
    5.4042   -0.3667    0.0000 C   0  0  0  0  0  0           0  0  0
    5.3917    1.0708    0.0000 C   0  0  0  0  0  0           0  0  0
    4.0542   -1.7292    0.0000 O   0  0  0  0  0  0           0  0  0
    0.4875    0.3333    0.0000 C   0  0  0  0  0  0           0  0  0
    1.9167    0.3458    0.0000 C   0  0  0  0  0  0           0  0  0
   -0.9375   -2.9667    0.0000 C   0  0  0  0  0  0           0  0  0
   -0.9458   -0.4917    0.0000 C   0  0  0  0  0  0           0  0  0
   -0.9458    0.3333    0.0000 C   0  0  0  0  0  0           0  0  0
    2.6292   -1.7292    0.0000 C   0  0  0  0  0  0           0  0  0
   -2.3708   -2.9667    0.0000 C   0  0  0  0  0  0           0  0  0
    1.2000   -1.7292    0.0000 C   0  0  0  0  0  0           0  0  0
    1.2000    0.7500    0.0000 C   0  0  0  0  0  0           0  0  0
   -1.6583   -1.7292    0.0000 C   0  0  0  0  0  0           0  0  0
   -0.2333    0.7458    0.0000 C   0  0  0  0  0  0           0  0  0
    1.9167   -2.1417    0.0000 C   0  0  0  0  0  0           0  0  0
   -2.3708   -2.1417    0.0000 C   0  0  0  0  0  0           0  0  0
  2  6  1  0     0  0
  3  4  1  0     0  0
  4 13  2  0     0  0
  5  1  1  0     0  0
  6 20  2  0     0  0
  7  1  2  0     0  0
  8  1  2  0     0  0
  9  2  1  0     0  0
 10  1  1  0     0  0
 11  2  2  0     0  0
 12 28  1  0     0  0
 13 23  1  0     0  0
 14  3  1  0     0  0
 15  3  2  0     0  0
 16 25  2  0     0  0
 17 12  2  0     0  0
 18  5  1  0     0  0
 19  5  2  0     0  0
 20 19  1  0     0  0
 21 18  2  0     0  0
 22 12  1  0     0  0
 23 31  1  0     0  0
 24 10  1  0     0  0
 25 14  1  0     0  0
 26 27  2  0     0  0
 27 33  1  0     0  0
 28 34  1  0     0  0
 29 35  2  0     0  0
 15 30  1  0     0  0
 31 24  1  0     0  0
 32 14  2  0     0  0
 33 23  2  0     0  0
 34 30  1  0     0  0
 35 32  1  0     0  0
  6 21  1  0     0  0
  4 26  1  0     0  0
 16 29  1  0     0  0
M  CHG  2   2   1   9  -1
M  END