
  Mrv0541 12291415502D          

 36 40  0  0  0  0            999 V2000
   14.8787   -3.7021    0.0000 C   0  0  2  0  0  0  0  0  0  0  0  0
   15.3038   -4.3996    0.0000 C   0  0  0  0  0  0  0  0  0  0  0  0
   14.2843   -4.2469    0.0000 O   0  0  0  0  0  0  0  0  0  0  0  0
    7.3960   -3.1161    0.0000 N   0  0  0  0  0  0  0  0  0  0  0  0
   14.5567   -2.9551    0.0000 O   0  0  0  0  0  0  0  0  0  0  0  0
    9.0428   -3.1161    0.0000 N   0  0  0  0  0  0  0  0  0  0  0  0
   14.9034   -5.1054    0.0000 C   0  0  0  0  0  0  0  0  0  0  0  0
   15.7330   -2.5506    0.0000 N   0  0  0  0  0  0  0  0  0  0  0  0
   15.4606   -1.2506    0.0000 N   0  0  0  0  0  0  0  0  0  0  0  0
    6.5747   -3.1243    0.0000 C   0  0  0  0  0  0  0  0  0  0  0  0
   15.6339   -3.3637    0.0000 C   0  0  0  0  0  0  0  0  0  0  0  0
   16.1251   -4.3872    0.0000 C   0  0  0  0  0  0  0  0  0  0  0  0
   15.1263   -2.0058    0.0000 C   0  0  0  0  0  0  0  0  0  0  0  0
   15.3285   -5.8029    0.0000 C   0  0  0  0  0  0  0  0  0  0  0  0
    9.8599   -3.1243    0.0000 C   0  0  0  0  0  0  0  0  0  0  0  0
   13.5703   -3.8383    0.0000 C   0  0  2  0  0  0  0  0  0  0  0  0
   16.2819   -1.3455    0.0000 C   0  0  0  0  0  0  0  0  0  0  0  0
    7.8128   -3.8259    0.0000 C   0  0  0  0  0  0  0  0  0  0  0  0
    7.8128   -2.4062    0.0000 C   0  0  0  0  0  0  0  0  0  0  0  0
    8.6342   -2.4062    0.0000 C   0  0  0  0  0  0  0  0  0  0  0  0
    8.6342   -3.8259    0.0000 C   0  0  0  0  0  0  0  0  0  0  0  0
   16.4429   -2.1544    0.0000 C   0  0  0  0  0  0  0  0  0  0  0  0
    6.1661   -2.4062    0.0000 O   0  0  0  0  0  0  0  0  0  0  0  0
   13.7437   -3.0294    0.0000 C   0  0  0  0  0  0  0  0  0  0  0  0
   10.2768   -3.8383    0.0000 C   0  0  0  0  0  0  0  0  0  0  0  0
   10.2768   -2.4062    0.0000 C   0  0  0  0  0  0  0  0  0  0  0  0
   16.1498   -5.7905    0.0000 C   0  0  0  0  0  0  0  0  0  0  0  0
   14.0821   -5.1178    0.0000 Cl  0  0  0  0  0  0  0  0  0  0  0  0
   12.3239   -3.1243    0.0000 O   0  0  0  0  0  0  0  0  0  0  0  0
   16.5337   -5.0682    0.0000 C   0  0  0  0  0  0  0  0  0  0  0  0
   11.5026   -3.1243    0.0000 C   0  0  0  0  0  0  0  0  0  0  0  0
   12.7408   -3.8383    0.0000 C   0  0  0  0  0  0  0  0  0  0  0  0
   11.0981   -3.8383    0.0000 C   0  0  0  0  0  0  0  0  0  0  0  0
   11.0981   -2.4062    0.0000 C   0  0  0  0  0  0  0  0  0  0  0  0
   16.5667   -6.4963    0.0000 Cl  0  0  0  0  0  0  0  0  0  0  0  0
    6.1661   -3.8383    0.0000 C   0  0  0  0  0  0  0  0  0  0  0  0
  2  1  1  0  0  0  0
  3  1  1  0  0  0  0
  4 18  1  0  0  0  0
  5  1  1  0  0  0  0
  6 15  1  0  0  0  0
  7  2  2  0  0  0  0
  8 11  1  0  0  0  0
  9 13  2  0  0  0  0
 10  4  1  0  0  0  0
  1 11  1  1  0  0  0
 12  2  1  0  0  0  0
 13  8  1  0  0  0  0
 14  7  1  0  0  0  0
 15 26  1  0  0  0  0
 16  3  1  0  0  0  0
 17 22  2  0  0  0  0
 18 21  1  0  0  0  0
 19 20  1  0  0  0  0
 20  6  1  0  0  0  0
 21  6  1  0  0  0  0
 22  8  1  0  0  0  0
 23 10  2  0  0  0  0
 24  5  1  0  0  0  0
 25 33  1  0  0  0  0
 26 34  2  0  0  0  0
 27 30  1  0  0  0  0
 28  7  1  0  0  0  0
 29 32  1  0  0  0  0
 30 12  2  0  0  0  0
 31 29  1  0  0  0  0
 16 32  1  1  0  0  0
 33 31  2  0  0  0  0
 34 31  1  0  0  0  0
 35 27  1  0  0  0  0
 36 10  1  0  0  0  0
 16 24  1  0  0  0  0
  9 17  1  0  0  0  0
 27 14  2  0  0  0  0
 25 15  2  0  0  0  0
  4 19  1  0  0  0  0
M  END