
  SciTegic11081110012D

 24 26  0  0  0  0            999 V2000
   11.8972  -12.5248    0.0000 C   0  0
   11.1886  -12.9472    0.0000 C   0  0
   11.2000  -13.7722    0.0000 C   0  0
   11.9202  -14.1746    0.0000 C   0  0
   12.6288  -13.7522    0.0000 N   0  0
   12.6174  -12.9273    0.0000 C   0  0
   13.3261  -12.5049    0.0000 C   0  0
   14.0462  -12.9074    0.0000 N   0  0
   13.3145  -11.6799    0.0000 O   0  0
   14.0577  -13.7324    0.0000 C   0  0
   14.7778  -14.1348    0.0000 C   0  0
   15.4865  -13.7124    0.0000 N   0  0
   15.4750  -12.8875    0.0000 C   0  0
   14.7549  -12.4850    0.0000 C   0  0
   16.2066  -14.1149    0.0000 C   0  0
   16.2182  -14.9398    0.0000 C   0  0
   16.9153  -13.6925    0.0000 C   0  0
   10.4914  -14.1946    0.0000 C   0  0
    9.7753  -13.7849    0.0000 N   0  0
    9.7721  -12.9599    0.0000 C   0  0
    9.0561  -12.5502    0.0000 C   0  0
    8.3432  -12.9655    0.0000 C   0  0
    8.3464  -13.7905    0.0000 C   0  0
    9.0624  -14.2002    0.0000 C   0  0
  1  2  2  0
  2  3  1  0
  3  4  2  0
  4  5  1  0
  5  6  2  0
  6  1  1  0
  6  7  1  0
  7  8  1  0
  7  9  2  0
  8 10  1  0
  8 14  1  0
 10 11  1  0
 11 12  1  0
 12 13  1  0
 13 14  1  0
 12 15  1  0
 15 16  1  0
 15 17  1  0
  3 18  1  0
 18 19  1  0
 19 20  1  0
 19 24  1  0
 20 21  1  0
 21 22  1  0
 22 23  1  0
 23 24  1  0
M  END