
  SciTegic03211117492D

 26 24  0  0  0  0            999 V2000
    3.7083  -12.2417    0.0000 C   0  0
    4.4125  -14.4458    0.0000 N   0  0
    2.9417   -4.7792    0.0000 C   0  0
    3.2542  -13.5917    0.0000 C   0  0
    0.1583    1.3667    0.0000 N   0  0
    4.3667   -4.6333    0.0000 S   0  3
    5.1292  -12.2208    0.0000 N   0  0
    5.5708  -13.5917    0.0000 C   0  0
    0.8750    3.5917    0.0000 N   0  0
   -0.2917    2.7375    0.0000 C   0  0
    1.5917    1.3667    0.0000 C   0  0
    2.0333    2.7375    0.0000 C   0  0
    2.3583   -6.0958    0.0000 N   0  0
    2.1000   -3.6083    0.0000 N   0  0
    2.8625  -11.0667    0.0000 C   0  0
    3.4500   -9.7500    0.0000 S   0  0
    5.0375   -5.5667    0.0000 C   0  0
    2.1583  -13.9500    0.0000 C   0  0
    2.4292    0.2000    0.0000 C   0  0
    3.1958   -7.2667    0.0000 C   0  0
    2.6833   -2.2875    0.0000 C   0  0
    2.6125   -8.5875    0.0000 C   0  0
    1.8458   -1.1167    0.0000 C   0  0
    1.0208   -5.8667    0.0000 Cl  0  5
   -1.3667   -5.8667    0.0000 Cl  0  0
    1.4792   -4.7125    0.0000 Cl  0  0
  2  4  1  0
  3 13  1  0
  4  1  2  0
  5 11  1  0
  6  3  2  0
  7  1  1  0
  8  7  1  0
  9 12  1  0
 10  5  2  0
 11 19  1  0
 12 11  2  0
 13 20  1  0
 14  3  1  0
 15  1  1  0
 16 15  1  0
 17  6  1  0
 18  4  1  0
 19 23  1  0
 20 22  1  0
 21 14  1  0
 22 16  1  0
 23 21  1  0
  8  2  2  0
  9 10  1  0
M  CHG  2   6   1  24  -1
M  END