
          11280715462D 1   1.00000     0.00000     0

 39 41  0     1  0            999 V2000
    9.1792    1.1458    0.0000 C   0  0  0  0  0  0           0  0  0
    9.8917    1.5583    0.0000 N   0  0  3  0  0  0           0  0  0
    8.4667    1.5583    0.0000 C   0  0  2  0  0  0           0  0  0
    9.1750    3.6333    0.0000 P   0  0  3  0  0  0           0  0  0
   10.6125    1.1458    0.0000 C   0  0  2  0  0  0           0  0  0
    8.4667    2.3958    0.0000 C   0  0  2  0  0  0           0  0  0
    7.7500    1.1500    0.0000 N   0  0  0  0  0  0           0  0  0
    6.3042   -1.3250    0.0000 C   0  0  3  0  0  0           0  0  0
   10.6917    0.3208    0.0000 C   0  0  0  0  0  0           0  0  0
    9.1792    2.8000    0.0000 O   0  0  0  0  0  0           0  0  0
    7.7500    0.3125    0.0000 C   0  0  0  0  0  0           0  0  0
    7.0250   -0.9167    0.0000 C   0  0  0  0  0  0           0  0  0
    9.1792    0.3208    0.0000 O   0  0  0  0  0  0           0  0  0
    6.3042   -2.1500    0.0000 C   0  0  0  0  0  0           0  0  0
    5.5917   -0.9042    0.0000 C   0  0  0  0  0  0           0  0  0
   10.0042    3.6333    0.0000 O   0  0  0  0  0  0           0  0  0
   11.2292    1.7083    0.0000 C   0  0  0  0  0  0           0  0  0
   10.8875    2.4583    0.0000 C   0  0  0  0  0  0           0  0  0
   10.0167   -0.1542    0.0000 O   0  0  0  0  0  0           0  0  0
    8.4542   -0.1042    0.0000 O   0  0  0  0  0  0           0  0  0
   10.0667    2.3708    0.0000 C   0  0  0  0  0  0           0  0  0
    8.3542    3.6333    0.0000 O   0  0  0  0  0  0           0  0  0
    9.1750    4.4542    0.0000 O   0  0  0  0  0  0           0  0  0
    5.6042   -0.0875    0.0000 C   0  0  0  0  0  0           0  0  0
    4.8792   -1.3167    0.0000 C   0  0  0  0  0  0           0  0  0
    5.5792   -2.5542    0.0000 C   0  0  0  0  0  0           0  0  0
    7.0125   -2.5625    0.0000 C   0  0  0  0  0  0           0  0  0
    7.0292   -0.0917    0.0000 C   0  0  0  0  0  0           0  0  0
   11.4542   -0.0167    0.0000 N   0  0  0  0  0  0           0  0  0
    4.1750   -0.0792    0.0000 C   0  0  0  0  0  0           0  0  0
    6.2917   -3.8000    0.0000 C   0  0  0  0  0  0           0  0  0
    7.0125   -3.3875    0.0000 C   0  0  0  0  0  0           0  0  0
    4.8917    0.3333    0.0000 C   0  0  0  0  0  0           0  0  0
    4.1750   -0.9042    0.0000 C   0  0  0  0  0  0           0  0  0
    5.5792   -3.3792    0.0000 C   0  0  0  0  0  0           0  0  0
    3.4625    0.3458    0.0000 O   0  0  0  0  0  0           0  0  0
    6.2792   -4.6167    0.0000 O   0  0  0  0  0  0           0  0  0
    6.3000   -0.5000    0.0000 C   0  0  0  0  0  0           0  0  0
    7.7500    2.8000    0.0000 C   0  0  0  0  0  0           0  0  0
  2  1  1  0     0  0
  3  1  1  1     0  0
  4 10  1  0     0  0
  5  2  1  0     0  0
  6  3  1  0     0  0
  7  3  1  0     0  0
  8 12  1  0     0  0
  5  9  1  1     0  0
  6 10  1  1     0  0
 11  7  1  0     0  0
 12 28  1  0     0  0
 13  1  2  0     0  0
 14  8  1  0     0  0
 15  8  1  0     0  0
 16  4  2  0     0  0
 17  5  1  0     0  0
 18 21  1  0     0  0
 19  9  2  0     0  0
 20 11  2  0     0  0
 21  2  1  0     0  0
 22  4  1  0     0  0
 23  4  1  0     0  0
 24 15  2  0     0  0
 25 15  1  0     0  0
 26 14  2  0     0  0
 27 14  1  0     0  0
 28 11  1  0     0  0
 29  9  1  0     0  0
 30 34  1  0     0  0
 31 32  1  0     0  0
 32 27  2  0     0  0
 33 24  1  0     0  0
 34 25  2  0     0  0
 35 26  1  0     0  0
 36 30  1  0     0  0
 37 31  1  0     0  0
 38  8  1  0     0  0
 39  6  1  0     0  0
 18 17  2  0     0  0
 30 33  2  0     0  0
 31 35  2  0     0  0
M  END