
  SciTegic01181116592D

 29 32  0  0  0  0            999 V2000
   -2.9014  -19.6500    0.0000 N   0  0
   -2.9026  -20.4773    0.0000 C   0  0
   -2.1878  -20.8902    0.0000 N   0  0
   -2.1896  -19.2372    0.0000 C   0  0
   -1.4742  -19.6463    0.0000 C   0  0
   -1.4694  -20.4728    0.0000 C   0  0
   -0.6813  -20.7232    0.0000 N   0  0
   -0.1999  -20.0521    0.0000 N   0  0
   -0.6897  -19.3864    0.0000 C   0  0
   -2.1920  -18.4122    0.0000 N   0  0
   -2.9077  -18.0018    0.0000 C   0  0
   -2.9068  -17.1776    0.0000 C   0  0
   -3.6217  -16.7673    0.0000 C   0  0
   -4.3359  -17.1820    0.0000 C   0  0
   -4.3308  -18.0112    0.0000 C   0  0
   -3.6154  -18.4178    0.0000 C   0  0
   -5.0522  -16.7726    0.0000 O   0  0
   -5.0557  -15.9476    0.0000 C   0  0
   -5.7720  -15.5382    0.0000 F   0  0
   -4.3430  -15.5320    0.0000 F   0  0
   -5.0625  -15.1208    0.0000 F   0  0
   -0.2634  -21.4345    0.0000 C   0  0
    0.5616  -21.4283    0.0000 C   0  0
    1.0523  -22.0870    0.0000 S   0  0
    1.8350  -21.8261    0.0000 C   0  0
    1.8287  -21.0010    0.0000 N   0  0
    1.0422  -20.7522    0.0000 C   0  0
    0.7801  -19.9699    0.0000 C   0  0
    2.5061  -22.3059    0.0000 C   0  0
 13 14  2  0
  1  2  2  0
 14 15  1  0
  5  4  2  0
 15 16  2  0
 16 11  1  0
  6  7  1  0
 14 17  1  0
  7  8  1  0
 17 18  1  0
  8  9  2  0
 18 19  1  0
  9  5  1  0
 18 20  1  0
  4  1  1  0
 18 21  1  0
  4 10  1  0
  7 22  1  0
  5  6  1  0
 22 23  1  0
 23 24  1  0
 10 11  1  0
 11 12  2  0
  2  3  1  0
 24 25  1  0
 25 26  2  0
 26 27  1  0
 27 23  2  0
 12 13  1  0
 27 28  1  0
  3  6  2  0
 25 29  1  0
M  END