
  SciTegic05191616102D

 24 24  0  0  0  0            999 V2000
    6.6074   -3.3078    0.0000 S   0  0
    7.3217   -2.8954    0.0000 C   0  0
    8.0361   -3.3078    0.0000 N   0  0
    7.3217   -2.0705    0.0000 N   0  0
    8.7505   -2.8954    0.0000 C   0  0
    5.8930   -2.8954    0.0000 C   0  0
    5.1787   -3.3078    0.0000 C   0  0
    4.4643   -2.8954    0.0000 C   0  0
    3.7502   -3.3078    0.0000 N   0  0
    9.4648   -3.3078    0.0000 C   0  0
   10.1792   -2.8954    0.0000 C   0  0
   10.8960   -3.3142    0.0000 C   0  0
    3.0342   -2.8966    0.0000 C   0  0
    2.3221   -3.3055    0.0000 C   0  0
    2.3180   -4.1305    0.0000 C   0  0
    3.0321   -4.5450    0.0000 C   0  0
    3.7503   -4.1344    0.0000 C   0  0
   11.6102   -2.9011    0.0000 N   0  0
   12.3255   -3.3202    0.0000 C   0  0
   13.0376   -2.9106    0.0000 C   0  0
   13.0413   -2.0852    0.0000 C   0  0
   12.3266   -1.6710    0.0000 C   0  0
   11.6082   -2.0822    0.0000 C   0  0
    7.7405   -4.7784    0.0000 Cl  0  0
  1  2  1  0
  2  3  1  0
  2  4  2  0
  3  5  1  0
  1  6  1  0
  6  7  1  0
  7  8  1  0
  8  9  1  0
  5 10  1  0
 10 11  1  0
 11 12  1  0
  9 13  1  0
  9 17  1  0
 13 14  1  0
 14 15  1  0
 15 16  1  0
 16 17  1  0
 18 12  1  0
 18 19  1  0
 18 23  1  0
 19 20  1  0
 20 21  1  0
 21 22  1  0
 22 23  1  0
M  END