
  SciTegic12231509382D

 31 33  0  0  1  0            999 V2000
    3.2914   -3.1078    0.0000 C   0  0
    2.4756   -3.2308    0.0000 O   0  0
    1.9612   -2.5858    0.0000 C   0  0
    1.1454   -2.7087    0.0000 C   0  0
    0.6311   -2.0637    0.0000 C   0  0
    0.9325   -1.2958    0.0000 C   0  0
    1.7483   -1.1728    0.0000 C   0  0
    2.2626   -1.8178    0.0000 C   0  0
    0.4181   -0.6507    0.0000 C   0  0  2  0  0  0
   -0.3862   -0.8343    0.0000 C   0  0
   -1.0312   -0.3200    0.0000 C   0  0
   -1.7457   -0.7325    0.0000 C   0  0
   -2.4602   -0.3200    0.0000 C   0  0
   -3.1746   -0.7325    0.0000 O   0  0
   -3.8891   -0.3200    0.0000 C   0  0
   -2.4602    0.5050    0.0000 C   0  0
   -1.7457    0.9175    0.0000 C   0  0
   -1.0312    0.5050    0.0000 C   0  0
   -0.3862    1.0194    0.0000 N   0  0
   -0.5698    1.8237    0.0000 C   0  0
   -1.3581    2.0669    0.0000 C   0  0
   -1.5417    2.8712    0.0000 N   0  0
   -2.3301    3.1144    0.0000 C   0  0
   -0.9370    3.4324    0.0000 C   0  0
    0.4181    0.8358    0.0000 C   0  0
    0.9325    1.4809    0.0000 O   0  0
    0.7761    0.0925    0.0000 C   0  0  2  0  0  0
    1.6011    0.0925    0.0000 O   0  0
    2.0136    0.8070    0.0000 C   0  0
    1.6011    1.5215    0.0000 O   0  0
    2.8386    0.8070    0.0000 C   0  0
  1  2  1  0
  2  3  1  0
  3  4  2  0
  4  5  1  0
  5  6  2  0
  6  7  1  0
  7  8  2  0
  3  8  1  0
  9  6  1  6
  9 10  1  0
 10 11  1  0
 11 12  2  0
 12 13  1  0
 13 14  1  0
 14 15  1  0
 13 16  2  0
 16 17  1  0
 17 18  2  0
 11 18  1  0
 18 19  1  0
 19 20  1  0
 20 21  1  0
 21 22  1  0
 22 23  1  0
 22 24  1  0
 19 25  1  0
 25 26  2  0
 25 27  1  0
  9 27  1  0
 27 28  1  6
 28 29  1  0
 29 30  2  0
 29 31  1  0
M  END