
          11280714532D 1   1.00000     0.00000     0

 17 19  0     0  0            999 V2000
    1.2542   -6.1292    0.0000 C   0  0  0  0  0  0           0  0  0
    1.7750   -6.4292    0.0000 C   0  0  0  0  0  0           0  0  0
    0.7417   -6.4375    0.0000 C   0  0  0  0  0  0           0  0  0
    3.3625   -6.1750    0.0000 N   0  0  0  0  0  0           0  0  0
    2.8167   -6.4167    0.0000 C   0  0  0  0  0  0           0  0  0
    2.8792   -7.0167    0.0000 N   0  0  0  0  0  0           0  0  0
    2.2917   -6.1250    0.0000 C   0  0  0  0  0  0           0  0  0
    0.7417   -7.0375    0.0000 C   0  0  0  0  0  0           0  0  0
    1.7792   -7.0292    0.0000 C   0  0  0  0  0  0           0  0  0
    3.7667   -6.6167    0.0000 C   0  0  0  0  0  0           0  0  0
    3.4667   -7.1375    0.0000 C   0  0  0  0  0  0           0  0  0
    1.2667   -7.3292    0.0000 C   0  0  0  0  0  0           0  0  0
    1.2500   -5.5292    0.0000 C   0  0  0  0  0  0           0  0  0
    0.2250   -6.1417    0.0000 C   0  0  0  0  0  0           0  0  0
    0.2292   -7.3375    0.0000 C   0  0  0  0  0  0           0  0  0
   -0.2958   -6.4417    0.0000 C   0  0  0  0  0  0           0  0  0
   -0.2875   -7.0417    0.0000 C   0  0  0  0  0  0           0  0  0
  2  1  2  0     0  0
  3  1  1  0     0  0
  4  5  2  0     0  0
  5  7  1  0     0  0
  6  5  1  0     0  0
  7  2  1  0     0  0
  8  3  2  0     0  0
  9  2  1  0     0  0
 10  4  1  0     0  0
 11  6  1  0     0  0
 12  8  1  0     0  0
 13  1  1  0     0  0
 14  3  1  0     0  0
 15  8  1  0     0  0
 16 14  2  0     0  0
 17 16  1  0     0  0
  9 12  1  0     0  0
 15 17  2  0     0  0
 10 11  2  0     0  0
M  END