
          11280714542D 1   1.00000     0.00000     0

 16 18  0     0  0            999 V2000
    4.8250   -3.9625    0.0000 C   0  0  0  0  0  0           0  0  0
    4.8250   -4.7917    0.0000 C   0  0  0  0  0  0           0  0  0
    5.5375   -3.5417    0.0000 C   0  0  3  0  0  0           0  0  0
    5.3292   -4.3667    0.0000 C   0  0  3  0  0  0           0  0  0
    5.3167   -2.7417    0.0000 C   0  0  3  0  0  0           0  0  0
    2.6792   -3.5542    0.0000 C   0  0  3  0  0  0           0  0  0
    4.1042   -3.5500    0.0000 C   0  0  0  0  0  0           0  0  0
    3.3917   -3.9625    0.0000 C   0  0  0  0  0  0           0  0  0
    6.2542   -3.9542    0.0000 C   0  0  0  0  0  0           0  0  0
    6.2667   -4.6500    0.0000 C   0  0  0  0  0  0           0  0  0
    4.1042   -5.2042    0.0000 C   0  0  0  0  0  0           0  0  0
    3.3917   -4.7917    0.0000 C   0  0  0  0  0  0           0  0  0
    2.6792   -2.7292    0.0000 F   0  0  0  0  0  0           0  0  0
    1.9667   -3.9667    0.0000 F   0  0  0  0  0  0           0  0  0
    1.8792   -3.3375    0.0000 F   0  0  0  0  0  0           0  0  0
    5.7292   -2.0292    0.0000 N   0  0  0  0  0  0           0  0  0
  2  1  1  0     0  0
  3  1  1  0     0  0
  4  2  1  0     0  0
  5  3  1  0     0  0
  6  8  1  0     0  0
  7  1  2  0     0  0
  8  7  1  0     0  0
  9  3  1  0     0  0
 10  9  1  0     0  0
 11  2  2  0     0  0
 12  8  2  0     0  0
 13  6  1  0     0  0
 14  6  1  0     0  0
 15  6  1  0     0  0
 16  5  1  0     0  0
  4  5  1  0     0  0
 11 12  1  0     0  0
 10  4  1  0     0  0
M  END