
  SciTegic09261414462D

112119  0  0  0  0            999 V2000
   17.4933  -21.5797    0.0000 C   0  0  2  0  0  0
    8.9335  -19.2204    0.0000 N   0  0
   15.3383  -19.5538    0.0000 O   0  0
   16.0667  -21.5975    0.0000 O   0  0
   16.0534  -20.7694    0.0000 H   0  0
   15.4184  -23.6431    0.0000 O   0  0
   13.9204  -20.4019    0.0000 C   0  0  1  0  0  0
   10.3282  -17.5640    0.0000 C   0  0  2  0  0  0
   10.3656  -20.0205    0.0000 O   0  0
   10.3121  -16.7423    0.0000 O   0  0
   16.0819  -22.3845    0.0000 C   0  0
    7.5144  -19.2411    0.0000 C   0  0
   15.3453  -20.3778    0.0000 O   0  0
   12.5123  -20.4102    0.0000 O   0  0
   14.6601  -22.4360    0.0000 N   0  0
    8.2172  -18.8220    0.0000 C   0  0
   18.9094  -21.5711    0.0000 O   0  0
   17.4995  -22.3993    0.0000 O   0  0
   11.8129  -22.4694    0.0000 O   0  0
   18.9041  -19.9217    0.0000 O   0  0
   11.0613  -18.7849    0.0000 O   0  0
   14.6095  -19.1586    0.0000 C   0  0
   18.1957  -21.1682    0.0000 C   0  0  1  0  0  0
   12.4682  -17.9387    0.0000 O   0  0
   11.0957  -21.2445    0.0000 C   0  0  1  0  0  0
   13.2165  -20.8147    0.0000 H   0  0
   14.6262  -19.9802    0.0000 C   0  0  2  0  0  0
   15.3141  -18.7388    0.0000 O   0  0
   12.4895  -18.7711    0.0000 O   0  0
   15.3512  -21.1975    0.0000 C   0  0  2  0  0  0
   11.0493  -17.9655    0.0000 C   0  0  2  0  0  0
   10.3567  -19.2008    0.0000 C   0  0  2  0  0  0
   11.7500  -17.5392    0.0000 C   0  0
    8.2071  -18.0024    0.0000 O   0  0
   12.5139  -21.2299    0.0000 C   0  0  1  0  0  0
   18.1896  -20.3486    0.0000 C   0  0  1  0  0  0
   14.6489  -21.6172    0.0000 C   0  0  1  0  0  0
    9.6274  -17.9860    0.0000 C   0  0  1  0  0  0
   13.2031  -20.0010    0.0000 O   0  0
   11.7792  -18.3652    0.0000 O   0  0
   16.7773  -21.1820    0.0000 C   0  0  2  0  0  0
   16.7718  -20.3601    0.0000 C   0  0  1  0  0  0
   10.3856  -21.6622    0.0000 O   0  0
   15.3856  -22.8218    0.0000 C   0  0
   11.7827  -19.1873    0.0000 C   0  0
   13.2311  -21.6370    0.0000 O   0  0
   16.0434  -19.1367    0.0000 O   0  0
   16.0520  -19.9563    0.0000 C   0  0
   11.0831  -20.4271    0.0000 C   0  0  1  0  0  0
    9.6398  -18.8035    0.0000 C   0  0  1  0  0  0
   13.9370  -21.2193    0.0000 C   0  0  1  0  0  0
    8.9105  -17.5845    0.0000 O   0  0
   11.7954  -20.0090    0.0000 C   0  0  2  0  0  0
   17.4775  -19.9383    0.0000 O   0  0
   11.8095  -21.6460    0.0000 C   0  0  2  0  0  0
   11.0772  -19.5958    0.0000 H   0  0
   18.2878  -10.4748    0.0000 C   0  0  2  0  0  0
   20.3290  -19.1160    0.0000 N   0  0
   17.5457  -13.3380    0.0000 O   0  0
   18.9885  -11.7176    0.0000 O   0  0
   18.2686  -12.1269    0.0000 H   0  0
   21.0941  -11.3040    0.0000 O   0  0
   18.9705  -14.1744    0.0000 C   0  0  1  0  0  0
   18.2063  -18.6881    0.0000 C   0  0  2  0  0  0
   20.3431  -17.4756    0.0000 O   0  0
   17.4933  -19.0968    0.0000 O   0  0
   19.6715  -11.3263    0.0000 C   0  0
   21.0286  -20.3508    0.0000 C   0  0
   18.2652  -12.9361    0.0000 O   0  0
   19.6540  -15.4055    0.0000 O   0  0
   20.3995  -12.5487    0.0000 N   0  0
   20.3235  -19.9357    0.0000 C   0  0
   17.6003   -9.2368    0.0000 O   0  0
   19.0038  -10.0758    0.0000 O   0  0
   21.7961  -15.0302    0.0000 O   0  0
   16.1574  -10.0331    0.0000 O   0  0
   18.9251  -17.4587    0.0000 O   0  0
   17.5491  -14.1670    0.0000 C   0  0
   17.5896  -10.0563    0.0000 C   0  0  1  0  0  0
   17.5073  -16.6311    0.0000 O   0  0
   21.0661  -16.2474    0.0000 C   0  0  1  0  0  0
   19.6706  -14.5936    0.0000 H   0  0
   18.2617  -13.7578    0.0000 C   0  0  2  0  0  0
   16.8425  -13.7505    0.0000 O   0  0
   18.2272  -16.2126    0.0000 O   0  0
   18.9813  -12.5372    0.0000 C   0  0  2  0  0  0
   18.2122  -17.8628    0.0000 C   0  0  2  0  0  0
   19.6283  -17.8770    0.0000 C   0  0  2  0  0  0
   17.5018  -17.4528    0.0000 C   0  0
   19.6094  -20.3381    0.0000 O   0  0
   20.3722  -15.0104    0.0000 C   0  0  1  0  0  0
   16.8736  -10.4553    0.0000 C   0  0  1  0  0  0
   19.6867  -12.9518    0.0000 C   0  0  1  0  0  0
   18.9130  -19.1001    0.0000 C   0  0  1  0  0  0
   18.9633  -14.9961    0.0000 O   0  0
   18.2123  -17.0306    0.0000 O   0  0
   18.2828  -11.2939    0.0000 C   0  0  2  0  0  0
   17.5646  -11.6934    0.0000 C   0  0  1  0  0  0
   21.7735  -16.6697    0.0000 O   0  0
   20.3896  -11.7271    0.0000 C   0  0
   18.9317  -16.6328    0.0000 C   0  0
   20.3849  -14.1859    0.0000 O   0  0
   16.8412  -12.9197    0.0000 O   0  0
   17.5560  -12.5187    0.0000 C   0  0
   20.3551  -16.6510    0.0000 C   0  0  1  0  0  0
   19.6241  -18.6967    0.0000 C   0  0  1  0  0  0
   19.6795  -13.7673    0.0000 C   0  0  1  0  0  0
   19.6463  -16.2270    0.0000 C   0  0  2  0  0  0
   16.8557  -11.2769    0.0000 O   0  0
   21.0755  -15.4285    0.0000 C   0  0  2  0  0  0
   19.6288  -17.0554    0.0000 H   0  0
   18.1846  -19.5300    0.0000 H   0  0
 25 55  1  0
 53 49  1  0
 35 46  1  0
 32 56  1  6
 41  1  1  0
  7 39  1  6
 51 46  1  1
 37 30  1  0
 27  7  1  0
 36 20  1  0
 31 21  1  0
 27 22  1  1
 44 11  1  0
  1 23  1  0
 35 14  1  0
 32 21  1  0
 42 48  1  1
 49  9  1  6
  8 38  1  0
 42 54  1  0
 44  6  2  0
 38 50  1  0
 48  3  2  0
 25 43  1  1
 31  8  1  0
 38 52  1  1
 30  5  1  6
 55 35  1  0
 30  4  1  0
  2 16  1  0
 37 15  1  6
 45 40  2  0
 41  4  1  6
 51 37  1  0
 36 54  1  0
 55 19  1  6
  8 10  1  6
 42 41  1  0
 48 47  1  0
 53 14  1  0
 35 26  1  6
 23 36  1  0
 30 13  1  0
 50 32  1  0
  7 51  1  0
 16 12  1  0
 16 34  2  0
 27 13  1  0
 45 29  1  0
 49 25  1  0
 53 45  1  1
  1 18  1  1
 31 33  1  1
 15 44  1  0
 23 17  1  6
 32  9  1  0
 22 28  1  0
 50  2  1  6
 33 24  1  0
 81110  1  0
108105  1  0
 91102  1  0
 88111  1  6
 97 57  1  0
 63 95  1  6
107102  1  1
 93 86  1  0
 83 63  1  0
 92 76  1  1
 87 77  1  0
 83 78  1  1
100 67  1  0
 57 79  1  0
 91 70  1  0
 88 77  1  0
 98104  1  1
105 65  1  6
 64 94  1  0
 98109  1  0
100 62  2  0
 94106  1  0
104 59  2  0
 81 99  1  1
 87 64  1  0
 94 20  1  1
 86 61  1  6
110 91  1  0
 86 60  1  0
 58 72  1  0
 93 71  1  6
101 96  2  0
 97 60  1  6
107 93  1  0
 92109  1  0
110 75  1  6
 64 66  1  6
 98 97  1  0
104103  1  0
108 70  1  0
 91 82  1  6
 79 92  1  0
 86 69  1  0
106 88  1  0
 63107  1  0
 72 68  1  0
 72 90  2  0
 83 69  1  0
101 85  1  0
105 81  1  0
108101  1  1
 57 74  1  1
 87 89  1  1
 71100  1  0
 79 73  1  6
 88 65  1  0
 78 84  1  0
106 58  1  6
 89 80  1  0
 36112  1  6
M  END