
  SciTegic03291108502D

 21 24  0  0  0  0            999 V2000
    0.3136   -0.4483    0.0000 S   0  0
   -1.1855    1.8691    0.0000 S   0  0
    1.0281    0.7892    0.0000 N   0  0
    0.3136    2.0267    0.0000 N   0  0
    1.7818   -0.5253    0.0000 N   0  0
    1.1143   -1.6813    0.0000 N   0  0
   -2.2250   -0.5053    0.0000 N   0  0
    2.3338   -1.1384    0.0000 N   0  0
    1.9213   -1.8528    0.0000 N   0  0
   -0.4009    0.7892    0.0000 C   0  0
   -1.1855    0.5342    0.0000 C   0  0
    0.3136    0.3767    0.0000 C   0  0
   -0.4009    1.6142    0.0000 C   0  0
   -1.4404   -0.2504    0.0000 C   0  0
   -1.6704    1.2017    0.0000 C   0  0
    1.0281   -0.8608    0.0000 C   0  0
    1.0281    1.6142    0.0000 C   0  0
   -0.9555   -0.9178    0.0000 C   0  0
   -2.2250   -1.3303    0.0000 C   0  0
   -1.4404   -1.5853    0.0000 C   0  0
    1.9533    0.2817    0.0000 C   0  0
  1 12  1  0
  1 16  1  0
  2 13  1  0
  2 15  1  0
  3 12  1  0
  3 17  2  0
  4 13  2  0
  4 17  1  0
  5  8  1  0
  5 16  1  0
  5 21  1  0
  6  9  1  0
  6 16  2  0
  7 14  1  0
  7 19  1  0
  8  9  2  0
 10 11  1  0
 10 12  2  0
 10 13  1  0
 11 14  1  0
 11 15  2  0
 14 18  2  0
 18 20  1  0
 19 20  2  0
M  END