
  SciTegic12171313022D

 32 35  0  0  0  0            999 V2000
   36.0655   -9.1392    0.0000 C   0  0
   36.0643   -9.9665    0.0000 C   0  0
   36.7791  -10.3794    0.0000 C   0  0
   37.4956   -9.9661    0.0000 C   0  0
   37.4927   -9.1355    0.0000 C   0  0
   36.7773   -8.7264    0.0000 C   0  0
   35.3495  -10.3785    0.0000 N   0  0
   35.3489  -11.2035    0.0000 C   0  0
   34.6341  -11.6154    0.0000 N   0  0
   36.0630  -11.6165    0.0000 O   0  0
   34.6334  -12.4404    0.0000 C   0  0
   33.9700  -12.9232    0.0000 N   0  0
   34.2243  -13.7081    0.0000 N   0  0
   35.0493  -13.7087    0.0000 C   0  0
   35.3048  -12.9243    0.0000 C   0  0
   35.5338  -14.3765    0.0000 C   0  0
   35.1977  -15.1299    0.0000 C   0  0
   36.3543  -14.2909    0.0000 C   0  0
   35.9419  -15.0850    0.0000 C   0  0
   33.1741  -12.7060    0.0000 C   0  0
   32.9693  -11.9099    0.0000 C   0  0
   32.1742  -11.6927    0.0000 C   0  0
   31.5873  -12.2738    0.0000 C   0  0
   31.8009  -13.0750    0.0000 C   0  0
   32.5956  -13.2885    0.0000 C   0  0
   30.7911  -12.0577    0.0000 C   0  0
   38.1666   -8.6595    0.0000 N   0  0
   38.9471   -8.9225    0.0000 N   0  0
   39.4410   -8.2616    0.0000 N   0  0
   38.9650   -7.5877    0.0000 N   0  0
   38.1771   -7.8322    0.0000 C   0  0
   37.5160   -7.3386    0.0000 C   0  0
  1  2  2  0
  2  3  1  0
  3  4  2  0
  4  5  1  0
  5  6  2  0
  6  1  1  0
  2  7  1  0
  7  8  1  0
  8  9  1  0
  8 10  2  0
  9 11  1  0
 11 12  1  0
 12 13  1  0
 13 14  2  0
 14 15  1  0
 15 11  2  0
 14 16  1  0
 16 17  1  0
 16 18  1  0
 16 19  1  0
 12 20  1  0
 20 21  2  0
 21 22  1  0
 22 23  2  0
 23 24  1  0
 24 25  2  0
 25 20  1  0
 23 26  1  0
  5 27  1  0
 27 28  1  0
 28 29  2  0
 29 30  1  0
 30 31  2  0
 31 27  1  0
 31 32  1  0
M  END