
  SciTegic01161211222D

 17 18  0  0  0  0            999 V2000
   -0.9264   -0.7542    0.0000 C   0  0
   -0.2120   -0.3417    0.0000 C   0  0
   -0.2120    0.4833    0.0000 C   0  0
    0.5025    0.8958    0.0000 O   0  0
    1.2170    0.4833    0.0000 C   0  0
    1.9314    0.8958    0.0000 C   0  0
    2.6459    0.4833    0.0000 C   0  0
    2.6459   -0.3417    0.0000 C   0  0
    1.9314   -0.7542    0.0000 C   0  0
    1.2170   -0.3417    0.0000 C   0  0
    0.5025   -0.7542    0.0000 O   0  0
   -1.6409   -0.3417    0.0000 C   0  0
   -2.3946   -0.6772    0.0000 N   0  0
   -2.9466   -0.0641    0.0000 C   0  0
   -2.5341    0.6503    0.0000 C   0  0
   -1.7271    0.4788    0.0000 N   0  0
    4.8852    0.0000    0.0000 Cl  0  0
  1  2  1  0
  2  3  1  0
  3  4  1  0
  4  5  1  0
  5  6  2  0
  6  7  1  0
  7  8  2  0
  8  9  1  0
  9 10  2  0
  5 10  1  0
 10 11  1  0
  2 11  1  0
  1 12  1  0
 12 13  2  0
 13 14  1  0
 14 15  2  0
 15 16  1  0
 12 16  1  0
M  END