
  Mrv0541 04051115152D          

 16 17  0  0  0  0            999 V2000
    0.7131   -2.0659    0.0000 C   0  0  0  0  0  0  0  0  0  0  0  0
   -0.0013   -2.4784    0.0000 C   0  0  0  0  0  0  0  0  0  0  0  0
   -0.7158   -2.0659    0.0000 C   0  0  0  0  0  0  0  0  0  0  0  0
   -0.7158   -1.2409    0.0000 C   0  0  0  0  0  0  0  0  0  0  0  0
   -0.0013   -0.8284    0.0000 C   0  0  0  0  0  0  0  0  0  0  0  0
    0.7131   -1.2409    0.0000 C   0  0  0  0  0  0  0  0  0  0  0  0
    0.7131    0.4091    0.0000 C   0  0  0  0  0  0  0  0  0  0  0  0
   -0.0013   -0.0034    0.0000 C   0  0  0  0  0  0  0  0  0  0  0  0
   -0.7158    0.4091    0.0000 C   0  0  0  0  0  0  0  0  0  0  0  0
   -0.7158    1.2341    0.0000 C   0  0  0  0  0  0  0  0  0  0  0  0
   -0.0013    1.6466    0.0000 C   0  0  0  0  0  0  0  0  0  0  0  0
    0.7131    1.2341    0.0000 C   0  0  0  0  0  0  0  0  0  0  0  0
   -0.0013   -3.3034    0.0000 F   0  0  0  0  0  0  0  0  0  0  0  0
   -0.0013    2.4716    0.0000 C   0  0  0  0  0  0  0  0  0  0  0  0
   -0.7158    2.8841    0.0000 O   0  0  0  0  0  0  0  0  0  0  0  0
    0.7131    2.8841    0.0000 O   0  0  0  0  0  0  0  0  0  0  0  0
  1  2  2  0  0  0  0
  1  6  1  0  0  0  0
  2  3  1  0  0  0  0
  2 13  1  0  0  0  0
  3  4  2  0  0  0  0
  4  5  1  0  0  0  0
  5  6  2  0  0  0  0
  5  8  1  0  0  0  0
  7  8  2  0  0  0  0
 12  7  1  0  0  0  0
  8  9  1  0  0  0  0
 10  9  2  0  0  0  0
 10 11  1  0  0  0  0
 11 12  2  0  0  0  0
 11 14  1  0  0  0  0
 14 15  1  0  0  0  0
 14 16  2  0  0  0  0
M  END