
          11280714582D 1   1.00000     0.00000     0

 29 32  0     0  0            999 V2000
    6.9625   -3.3667    0.0000 C   0  0  0  0  0  0           0  0  0
    6.2375   -2.9750    0.0000 C   0  0  0  0  0  0           0  0  0
    5.5542   -4.2292    0.0000 C   0  0  0  0  0  0           0  0  0
    5.5375   -3.4042    0.0000 C   0  0  0  0  0  0           0  0  0
    6.9792   -4.1917    0.0000 C   0  0  0  0  0  0           0  0  0
   -1.5458   -6.0375    0.0000 C   0  0  0  0  0  0           0  0  0
    6.2792   -4.6250    0.0000 O   0  0  0  0  0  0           0  0  0
   -0.8458   -5.6042    0.0000 N   0  0  3  0  0  0           0  0  0
    4.8500   -4.6625    0.0000 C   0  0  0  0  0  0           0  0  0
    0.5667   -4.7542    0.0000 N   0  0  3  0  0  0           0  0  0
    4.8042   -3.0125    0.0000 C   0  0  0  0  0  0           0  0  0
   -2.2750   -5.6292    0.0000 N   0  0  0  0  0  0           0  0  0
   -1.5333   -6.8542    0.0000 N   0  0  0  0  0  0           0  0  0
   -0.1208   -6.0000    0.0000 C   0  0  0  0  0  0           0  0  0
   -0.8625   -4.7792    0.0000 C   0  0  0  0  0  0           0  0  0
    7.7042   -4.5917    0.0000 O   0  0  0  0  0  0           0  0  0
    0.5792   -5.5667    0.0000 C   0  0  0  0  0  0           0  0  0
   -0.1583   -4.3542    0.0000 C   0  0  0  0  0  0           0  0  0
    4.1250   -4.2542    0.0000 C   0  0  0  0  0  0           0  0  0
    6.2167   -2.1542    0.0000 O   0  0  0  0  0  0           0  0  0
    4.1042   -3.4417    0.0000 C   0  0  0  0  0  0           0  0  0
    1.2667   -4.3167    0.0000 C   0  0  0  0  0  0           0  0  0
    1.9917   -4.7167    0.0000 C   0  0  0  0  0  0           0  0  0
    3.4250   -4.6917    0.0000 O   0  0  0  0  0  0           0  0  0
   -2.9583   -6.8917    0.0000 C   0  0  0  0  0  0           0  0  0
   -2.9750   -6.0625    0.0000 C   0  0  0  0  0  0           0  0  0
   -2.2333   -7.2792    0.0000 C   0  0  0  0  0  0           0  0  0
    2.6917   -4.2917    0.0000 C   0  0  0  0  0  0           0  0  0
    5.4917   -1.7625    0.0000 C   0  0  0  0  0  0           0  0  0
  2  1  2  0     0  0
  3  7  1  0     0  0
  4  2  1  0     0  0
  5  1  1  0     0  0
  6  8  1  0     0  0
  7  5  1  0     0  0
  8 15  1  0     0  0
  9  3  1  0     0  0
 10 22  1  0     0  0
 11  4  1  0     0  0
 12  6  2  0     0  0
 13  6  1  0     0  0
 14 17  1  0     0  0
 15 18  1  0     0  0
 16  5  2  0     0  0
 17 10  1  0     0  0
 18 10  1  0     0  0
 19  9  2  0     0  0
 20  2  1  0     0  0
 21 11  2  0     0  0
 22 23  1  0     0  0
 23 28  1  0     0  0
 24 19  1  0     0  0
 25 27  1  0     0  0
 26 12  1  0     0  0
 27 13  2  0     0  0
 28 24  1  0     0  0
 29 20  1  0     0  0
  4  3  2  0     0  0
 21 19  1  0     0  0
 14  8  1  0     0  0
 26 25  2  0     0  0
M  END