
  SciTegic01091216402D

 22 24  0  0  0  0            999 V2000
   -3.3109    0.2310    0.0000 N   0  0
   -2.5961   -0.1819    0.0000 C   0  0
   -1.8797    0.2315    0.0000 N   0  0
   -1.8825    1.0620    0.0000 C   0  0
   -2.5963   -1.0069    0.0000 N   0  0
   -1.1696    1.4772    0.0000 N   0  0
   -0.4536    1.0674    0.0000 C   0  0
   -0.4538    0.2447    0.0000 C   0  0
    0.2613   -0.1650    0.0000 C   0  0
    0.9752    0.2503    0.0000 C   0  0
    0.9695    1.0795    0.0000 C   0  0
    0.2537    1.4855    0.0000 C   0  0
   -3.3098    1.0584    0.0000 C   0  0
   -2.5958    1.4719    0.0000 C   0  0
   -2.7684    2.2788    0.0000 N   0  0
   -3.5892    2.3639    0.0000 C   0  0
   -3.9237    1.6097    0.0000 N   0  0
    0.2640   -0.9900    0.0000 C   0  0
   -0.4491   -1.4048    0.0000 O   0  0
    0.9799   -1.4001    0.0000 O   0  0
    0.9826   -2.2251    0.0000 C   0  0
    1.6984   -2.6353    0.0000 C   0  0
  1  2  1  0
 10 11  1  0
  2  5  1  0
 11 12  2  0
 12  7  1  0
 13 14  1  0
 13  1  2  0
  4  6  1  0
  2  3  2  0
  6  7  1  0
 14 15  1  0
 15 16  2  0
 16 17  1  0
 17 13  1  0
  7  8  2  0
  9 18  1  0
  3  4  1  0
 18 19  2  0
  8  9  1  0
 18 20  1  0
  4 14  2  0
 20 21  1  0
  9 10  2  0
 21 22  1  0
M  END