
          11280714582D 1   1.00000     0.00000     0

 38 39  0     1  0            999 V2000
    2.9042   -4.3542    0.0000 C   0  0  0  0  0  0           0  0  0
    3.4292   -4.0542    0.0000 N   0  0  0  0  0  0           0  0  0
    4.4667   -4.0542    0.0000 C   0  0  0  0  0  0           0  0  0
    2.3792   -4.0542    0.0000 C   0  0  1  0  0  0           0  0  0
    1.8667   -4.3542    0.0000 N   0  0  0  0  0  0           0  0  0
    0.3125   -1.6542    0.0000 C   0  0  0  0  0  0           0  0  0
    3.9417   -4.3542    0.0000 C   0  0  2  0  0  0           0  0  0
    4.9875   -4.3542    0.0000 N   0  0  0  0  0  0           0  0  0
    1.8667   -4.9542    0.0000 C   0  0  0  0  0  0           0  0  0
    0.3125   -2.2542    0.0000 C   0  0  3  0  0  0           0  0  0
    3.4292   -5.8542    0.0000 C   0  0  0  0  0  0           0  0  0
    0.8292   -2.5500    0.0000 C   0  0  0  0  0  0           0  0  0
    2.9042   -4.9542    0.0000 O   0  0  0  0  0  0           0  0  0
    2.3792   -3.4542    0.0000 C   0  0  0  0  0  0           0  0  0
    4.4667   -3.4542    0.0000 O   0  0  0  0  0  0           0  0  0
   -0.2083   -1.3542    0.0000 O   0  0  0  0  0  0           0  0  0
    1.3500   -5.2542    0.0000 O   0  0  0  0  0  0           0  0  0
    2.9042   -6.1542    0.0000 O   0  0  0  0  0  0           0  0  0
    3.9417   -4.9542    0.0000 C   0  0  0  0  0  0           0  0  0
    1.3500   -2.2500    0.0000 C   0  0  0  0  0  0           0  0  0
    0.8292   -3.1542    0.0000 C   0  0  0  0  0  0           0  0  0
    3.4292   -5.2542    0.0000 C   0  0  0  0  0  0           0  0  0
    1.8667   -3.1542    0.0000 C   0  0  0  0  0  0           0  0  0
    5.5042   -4.0542    0.0000 C   0  0  0  0  0  0           0  0  0
    0.8292   -1.3500    0.0000 O   0  0  0  0  0  0           0  0  0
    6.0250   -4.3542    0.0000 C   0  0  0  0  0  0           0  0  0
    7.0625   -4.9542    0.0000 C   0  0  0  0  0  0           0  0  0
    3.9417   -6.1542    0.0000 O   0  0  0  0  0  0           0  0  0
   -0.2083   -2.5542    0.0000 O   0  0  0  0  0  0           0  0  0
    1.3542   -3.4500    0.0000 C   0  0  0  0  0  0           0  0  0
    1.8667   -2.5500    0.0000 C   0  0  0  0  0  0           0  0  0
    6.5417   -4.0542    0.0000 C   0  0  0  0  0  0           0  0  0
    6.0250   -4.9542    0.0000 C   0  0  0  0  0  0           0  0  0
    6.5417   -5.2542    0.0000 C   0  0  0  0  0  0           0  0  0
    7.0625   -4.3500    0.0000 C   0  0  0  0  0  0           0  0  0
    7.5792   -5.2542    0.0000 O   0  0  0  0  0  0           0  0  0
    2.3792   -5.2542    0.0000 C   0  0  0  0  0  0           0  0  0
    7.5792   -5.8542    0.0000 C   0  0  0  0  0  0           0  0  0
  2  1  1  0     0  0
  3  7  1  0     0  0
  4  1  1  0     0  0
  5  4  1  0     0  0
  6 10  1  0     0  0
  7  2  1  0     0  0
  8  3  1  0     0  0
  9  5  1  0     0  0
 10 12  1  0     0  0
 11 22  1  0     0  0
 12 20  2  0     0  0
 13  1  2  0     0  0
  4 14  1  1     0  0
 15  3  2  0     0  0
 16  6  2  0     0  0
 17  9  2  0     0  0
 18 11  2  0     0  0
  7 19  1  6     0  0
 20 31  1  0     0  0
 21 30  2  0     0  0
 22 19  1  0     0  0
 23 14  1  0     0  0
 24  8  1  0     0  0
 25  6  1  0     0  0
 26 24  1  0     0  0
 27 34  2  0     0  0
 28 11  1  0     0  0
 10 29  1  0     0  0
 30 23  1  0     0  0
 31 23  2  0     0  0
 32 26  1  0     0  0
 33 26  2  0     0  0
 34 33  1  0     0  0
 35 32  2  0     0  0
 36 27  1  0     0  0
 37  9  1  0     0  0
 38 36  1  0     0  0
 12 21  1  0     0  0
 35 27  1  0     0  0
M  END