
  SciTegic09081514192D

 22 23  0  0  0  0            999 V2000
   -4.9503    0.9000    0.0000 O   0  0
   -3.9106    1.4992    0.0000 S   0  0
   -3.9101    2.6992    0.0000 O   0  0
    0.0000   -0.7486    0.0000 C   0  0
    0.0000    0.7486    0.0000 C   0  0
   -1.2964   -1.4973    0.0000 C   0  0
   -2.6111    0.7486    0.0000 C   0  0
   -1.2964    1.4973    0.0000 C   0  0
   -2.6111   -0.7486    0.0000 C   0  0
    1.2964   -1.4973    0.0000 O   0  0
    1.2964    1.4973    0.0000 C   0  0
    2.5929   -0.7486    0.0000 C   0  0
    2.5929    0.7486    0.0000 C   0  0
    2.5565   -2.2286    0.0000 C   0  0
    1.2571   -2.9796    0.0000 C   0  0
    3.6170   -0.1233    0.0000 C   0  0
   -0.0428   -6.4315    0.0000 C   0  0
    1.2568   -4.4805    0.0000 C   0  0
   -0.0426   -5.2315    0.0000 C   0  0
   -1.0819   -4.6316    0.0000 C   0  0
   -1.2928   -2.6973    0.0000 F   0  0
   -4.9495    2.0999    0.0000 N   0  0
  2  1  2  0
  3  2  2  0
  5  4  1  0
  6  4  2  0
  7  9  2  0
  8  5  2  0
  9  6  1  0
 10  4  1  0
 11  5  1  0
 12 10  1  0
 13 12  1  0
 14 12  1  0
 15 14  1  0
 12 16  1  0
 17 19  1  0
 18 15  1  0
 19 18  1  0
 19 20  1  0
  8  7  1  0
 11 13  1  0
  6 21  1  0
  7  2  1  0
  2 22  1  0
M  END