
  SciTegic01161211212D

 20 22  0  0  0  0            999 V2000
    1.6625   -5.8922    0.0000 C   0  0
    1.6613   -6.7162    0.0000 C   0  0
    2.3733   -7.1274    0.0000 C   0  0
    2.3715   -5.4812    0.0000 C   0  0
    3.0838   -5.8886    0.0000 C   0  0
    3.0873   -6.7183    0.0000 C   0  0
    3.8035   -7.1279    0.0000 C   0  0
    4.5209   -6.7124    0.0000 C   0  0
    3.7967   -5.4686    0.0000 C   0  0  1  0  0  0
    4.5180   -5.8846    0.0000 C   0  0  2  0  0  0
    5.1366   -5.3272    0.0000 N   0  0
    4.7976   -4.5666    0.0000 C   0  0
    3.9696   -4.6540    0.0000 C   0  0
    2.3690   -4.6596    0.0000 O   0  0
    5.9589   -5.3208    0.0000 C   0  0
    6.3648   -4.6065    0.0000 C   0  0
    7.1864   -4.6010    0.0000 C   0  0
    3.0790   -5.0541    0.0000 H   0  0
    5.3072   -6.0956    0.0000 H   0  0
    1.6562   -4.2509    0.0000 C   0  0
  5  4  2  0
  4  1  1  0
  5  6  1  0
  2  3  1  0
 10 11  1  0
 11 12  1  0
 12 13  1  0
 13  9  1  0
  3  6  2  0
  4 14  1  0
  1  2  2  0
 11 15  1  0
  5  9  1  0
 15 16  1  0
  6  7  1  0
 16 17  2  0
  7  8  1  0
  9 18  1  1
  8 10  1  0
 10 19  1  1
  9 10  1  0
 14 20  1  0
M  END