
  SciTegic06051315212D

 23 24  0  0  0  0            999 V2000
   13.4533  -16.1746    0.0000 C   0  0
   13.4522  -16.9941    0.0000 C   0  0
   14.1602  -17.4031    0.0000 C   0  0
   14.8699  -16.9936    0.0000 C   0  0
   14.8671  -16.1710    0.0000 C   0  0
   14.1585  -15.7657    0.0000 C   0  0
   14.1560  -14.9485    0.0000 S   0  0
   14.8625  -14.5378    0.0000 N   0  0
   13.3598  -15.1552    0.0000 O   0  0
   13.7395  -14.2348    0.0000 O   0  0
   15.5732  -15.7597    0.0000 F   0  0
   12.7455  -15.7661    0.0000 F   0  0
   12.7442  -17.4021    0.0000 F   0  0
   15.5783  -17.4011    0.0000 F   0  0
   14.1600  -18.2203    0.0000 S   0  0
   13.4522  -18.6287    0.0000 C   0  0
   13.4520  -19.4459    0.0000 C   0  0
   12.7442  -19.8543    0.0000 C   0  0
   12.0388  -19.4443    0.0000 C   0  0
   11.3314  -19.8521    0.0000 C   0  0
   11.3308  -20.6701    0.0000 C   0  0
   12.0434  -21.0788    0.0000 C   0  0
   12.7478  -20.6687    0.0000 C   0  0
  1  2  2  0
  2  3  1  0
  3  4  2  0
  4  5  1  0
  5  6  2  0
  6  1  1  0
  6  7  1  0
  7  8  1  0
  7  9  2  0
  7 10  2  0
  5 11  1  0
  1 12  1  0
  2 13  1  0
  4 14  1  0
  3 15  1  0
 15 16  1  0
 16 17  1  0
 17 18  1  0
 18 19  2  0
 19 20  1  0
 20 21  2  0
 21 22  1  0
 22 23  2  0
 23 18  1  0
M  END