
  CDK    8/10/10,12:22

 26 29  0  0  0  0  0  0  0  0999 V2000
   -4.3923  -24.7194    0.0000 C   0  0  0  0  0  0  0  0  0  0  0  0
   -4.3923  -23.8944    0.0000 C   0  0  0  0  0  0  0  0  0  0  0  0
   -3.6806  -23.4819    0.0000 C   0  0  0  0  0  0  0  0  0  0  0  0
   -3.6806  -25.1319    0.0000 C   0  0  0  0  0  0  0  0  0  0  0  0
   -2.9648  -24.7194    0.0000 C   0  0  0  0  0  0  0  0  0  0  0  0
   -2.2489  -25.1319    0.0000 C   0  0  0  0  0  0  0  0  0  0  0  0
   -1.5372  -24.7194    0.0000 C   0  0  0  0  0  0  0  0  0  0  0  0
   -1.5372  -23.8944    0.0000 C   0  0  0  0  0  0  0  0  0  0  0  0
   -0.8213  -23.4819    0.0000 C   0  0  0  0  0  0  0  0  0  0  0  0
   -0.0367  -23.7348    0.0000 C   0  0  0  0  0  0  0  0  0  0  0  0
    0.4481  -23.0694    0.0000 C   0  0  0  0  0  0  0  0  0  0  0  0
   -0.0367  -22.4039    0.0000 C   0  0  0  0  0  0  0  0  0  0  0  0
   -0.8213  -22.6569    0.0000 C   0  0  0  0  0  0  0  0  0  0  0  0
   -0.8213  -21.8319    0.0000 C   0  0  0  0  0  0  0  0  0  0  0  0
   -1.5372  -22.2444    0.0000 C   0  0  0  0  0  0  0  0  0  0  0  0
   -2.2489  -22.6569    0.0000 C   0  0  0  0  0  0  0  0  0  0  0  0
   -2.2489  -23.4819    0.0000 C   0  0  0  0  0  0  0  0  0  0  0  0
   -2.9648  -23.8944    0.0000 C   0  0  0  0  0  0  0  0  0  0  0  0
   -5.1082  -25.1319    0.0000 O   0  0  0  0  0  0  0  0  0  0  0  0
   -0.0270  -21.5795    0.0000 C   0  0  0  0  0  0  0  0  0  0  0  0
   -1.5372  -23.0694    0.0000 H   0  0  0  0  0  0  0  0  0  0  0  0
   -0.8213  -24.3069    0.0000 H   0  0  0  0  0  0  0  0  0  0  0  0
    0.7583  -22.1833    0.0000 C   0  0  0  0  0  0  0  0  0  0  0  0
    0.6927  -21.1763    0.0000 C   0  0  0  0  0  0  0  0  0  0  0  0
   -0.7361  -21.1578    0.0000 O   0  0  0  0  0  0  0  0  0  0  0  0
    1.4018  -21.5980    0.0000 C   0  0  0  0  0  0  0  0  0  0  0  0
  4  5  2  0  0  0  0 
  5  6  1  0  0  0  0 
  6  7  1  0  0  0  0 
  7  8  1  0  0  0  0 
  8  9  1  0  0  0  0 
  9 10  1  0  0  0  0 
 10 11  1  0  0  0  0 
 11 12  1  0  0  0  0 
 12 13  1  0  0  0  0 
  9 13  1  0  0  0  0 
 13 14  1  1  0  0  0 
 13 15  1  0  0  0  0 
 15 16  1  0  0  0  0 
 16 17  1  0  0  0  0 
  8 17  1  0  0  0  0 
 17 18  2  0  0  0  0 
  3 18  1  0  0  0  0 
  5 18  1  0  0  0  0 
  1 19  2  0  0  0  0 
 12 20  1  1  0  0  0 
  8 21  1  1  0  0  0 
  9 22  1  6  0  0  0 
 12 23  1  0  0  0  0 
  1  2  1  0  0  0  0 
 20 24  1  0  0  0  0 
  2  3  1  0  0  0  0 
 20 25  2  0  0  0  0 
  1  4  1  0  0  0  0 
 24 26  1  0  0  0  0 
M  END