
  SciTegic01161211242D

 52 57  0  0  0  0            999 V2000
    3.1208   -9.5875    0.0000 C   0  0
    3.1208  -10.4125    0.0000 C   0  0
    3.8329  -10.8208    0.0000 C   0  0
    3.8329   -9.1708    0.0000 C   0  0
    4.5449   -9.5875    0.0000 C   0  0  1  0  0  0
    4.5414  -10.4125    0.0000 C   0  0  1  0  0  0
    5.2501  -10.8257    0.0000 C   0  0
    5.9669  -10.4185    0.0000 C   0  0
    5.2571   -9.1757    0.0000 C   0  0  2  0  0  0
    5.9705   -9.5984    0.0000 C   0  0  2  0  0  0
    5.9875   -7.9431    0.0000 C   0  0
    5.2625   -8.3489    0.0000 C   0  0
    6.7008   -8.3658    0.0000 C   0  0  1  0  0  0
    6.6874   -9.1923    0.0000 C   0  0  1  0  0  0
    7.4693   -9.4605    0.0000 C   0  0
    7.9661   -8.7997    0.0000 C   0  0
    7.4911   -8.1232    0.0000 C   0  0  2  0  0  0
    2.4070  -10.8260    0.0000 O   0  0
    4.5375   -8.7625    0.0000 C   0  0
    6.6958   -7.5375    0.0000 C   0  0
    7.7587   -7.3428    0.0000 O   0  0
    8.5684   -7.1844    0.0000 C   0  0
    8.8360   -6.4040    0.0000 C   0  0
    9.1104   -7.8064    0.0000 O   0  0
    9.6457   -6.2456    0.0000 C   0  0
    9.9133   -5.4653    0.0000 C   0  0
   10.7230   -5.3069    0.0000 O   0  0
    9.3713   -4.8433    0.0000 O   0  0
   10.9906   -4.5265    0.0000 C   0  0  1  0  0  0
   11.7768   -4.2882    0.0000 C   0  0
   11.7902   -3.4633    0.0000 C   0  0  1  0  0  0
   11.0098   -3.1956    0.0000 O   0  0
   10.5142   -3.8551    0.0000 C   0  0  2  0  0  0
   12.4934   -3.0321    0.0000 N   0  0
    9.6893   -3.8439    0.0000 C   0  0
    9.2865   -3.1239    0.0000 O   0  0
   13.2193   -3.4317    0.0000 C   0  0
   13.9205   -3.0039    0.0000 C   0  0
   13.9028   -2.1787    0.0000 C   0  0
   13.1777   -1.7832    0.0000 N   0  0
   12.4703   -2.2128    0.0000 C   0  0
   11.7457   -1.8185    0.0000 O   0  0
   14.6077   -1.7500    0.0000 O   0  0
    5.2500  -10.0000    0.0000 H   0  0
    6.6792  -10.0167    0.0000 H   0  0
    5.9625   -8.7708    0.0000 H   0  0
    4.5333  -11.2333    0.0000 H   0  0
   14.6442   -3.4000    0.0000 I   0  0
    8.4616   -3.1126    0.0000 P   0  0
    8.0589   -2.3926    0.0000 O   0  0
    7.8708   -3.6958    0.0000 O   0  0
    8.4542   -3.9375    0.0000 O   0  0
  9 12  1  0
 23 25  1  0
 10 14  1  0
 25 26  1  0
 13 11  1  0
 26 27  1  0
 11 12  1  0
 26 28  2  0
 13 14  1  0
 29 27  1  6
 29 30  1  0
  1  2  1  0
  1  4  1  0
  2  3  1  0
  5  9  1  0
 30 31  1  0
 31 32  1  0
 32 33  1  0
 33 29  1  0
  6  7  1  0
 31 34  1  1
 14 15  1  0
 33 35  1  1
 15 16  1  0
 35 36  1  0
 34 37  1  0
 16 17  1  0
 17 13  1  0
  7  8  1  0
  2 18  2  0
  8 10  1  0
 34 41  1  0
 37 38  2  0
 38 39  1  0
 39 40  1  0
 40 41  1  0
  5 19  1  1
 41 42  2  0
  9 10  1  0
 39 43  2  0
 13 20  1  1
  9 44  1  6
  3  6  1  0
 14 45  1  6
 17 21  1  1
 10 46  1  1
  5  4  1  0
  6 47  1  6
 21 22  1  0
 38 48  1  0
  5  6  1  0
 36 49  1  0
 22 23  1  0
 49 50  1  0
 49 51  1  0
 22 24  2  0
 49 52  2  0
M  ISO  1  48 125
M  END