
  SciTegic02011310452D

 24 26  0  0  0  0            999 V2000
    1.4500  -29.2328    0.0000 C   0  0
    1.4488  -30.0609    0.0000 N   0  0
    2.1644  -30.4742    0.0000 C   0  0
    2.8815  -30.0605    0.0000 N   0  0
    2.8786  -29.2291    0.0000 C   0  0
    2.1626  -28.8196    0.0000 C   0  0
    3.5923  -28.8136    0.0000 N   0  0
    4.3090  -29.2238    0.0000 C   0  0
    4.3087  -30.0472    0.0000 C   0  0
    5.0246  -30.4574    0.0000 C   0  0
    5.7392  -30.0417    0.0000 C   0  0
    5.7334  -29.2117    0.0000 C   0  0
    5.0170  -28.8052    0.0000 C   0  0
    2.1642  -31.3001    0.0000 N   0  0
    1.4488  -31.7128    0.0000 C   0  0
    0.7352  -31.3003    0.0000 C   0  0
    0.0204  -31.7123    0.0000 C   0  0
    0.0197  -32.5390    0.0000 C   0  0
    0.7398  -32.9519    0.0000 C   0  0
    1.4517  -32.5375    0.0000 C   0  0
   -0.6979  -32.9513    0.0000 C   0  0
   -1.4139  -32.5383    0.0000 O   0  0
   -0.6964  -33.7771    0.0000 O   0  0
    5.0096  -27.9795    0.0000 Cl  0  0
  1  2  2  0
  2  3  1  0
  3  4  2  0
  4  5  1  0
  5  6  2  0
  6  1  1  0
  5  7  1  0
  7  8  1  0
  8  9  2  0
  9 10  1  0
 10 11  2  0
 11 12  1  0
 12 13  2  0
 13  8  1  0
  3 14  1  0
 14 15  1  0
 15 16  2  0
 16 17  1  0
 17 18  2  0
 18 19  1  0
 19 20  2  0
 20 15  1  0
 21 22  1  0
 21 23  2  0
 18 21  1  0
 13 24  1  0
M  END