
  SciTegic01061111512D

 24 25  0  0  0  0            999 V2000
    3.4080  -17.9814    0.0000 C   0  0  2  0  0  0
    3.4080  -18.8065    0.0000 C   0  0  1  0  0  0
    4.1207  -19.2127    0.0000 C   0  0  1  0  0  0
    4.8334  -18.8065    0.0000 C   0  0  2  0  0  0
    4.8334  -17.9814    0.0000 C   0  0  1  0  0  0
    4.1207  -17.5626    0.0000 O   0  0
    5.5496  -17.5689    0.0000 S   0  0
    6.2634  -17.9855    0.0000 C   0  0
    5.5478  -19.2179    0.0000 O   0  0
    4.1207  -20.0378    0.0000 N   0  0
    3.4547  -20.5285    0.0000 N   0  0
    3.7125  -21.3134    0.0000 N   0  0
    4.5376  -21.3134    0.0000 C   0  0
    4.7912  -20.5285    0.0000 C   0  0
    5.0202  -21.9775    0.0000 C   0  0
    4.6864  -22.7315    0.0000 O   0  0
    5.8407  -21.8916    0.0000 N   0  0
    6.3275  -22.5598    0.0000 C   0  0
    2.6936  -19.2179    0.0000 O   0  0
    2.6918  -17.5689    0.0000 C   0  0
    2.6893  -16.7438    0.0000 O   0  0
    7.1480  -22.4739    0.0000 C   0  0
    7.6306  -23.1422    0.0000 C   0  0
    8.4512  -23.0563    0.0000 C   0  0
  5  6  1  0
 11 12  2  0
 12 13  1  0
 13 14  2  0
 14 10  1  0
  5  7  1  1
 13 15  1  0
  1  2  1  0
 15 16  2  0
  7  8  1  0
 15 17  1  0
  1  6  1  0
 17 18  1  0
  4  9  1  6
  2 19  1  1
  2  3  1  0
  1 20  1  1
  3 10  1  1
 20 21  1  0
 10 11  1  0
 18 22  1  0
  3  4  1  0
 22 23  1  0
  4  5  1  0
 23 24  1  0
M  END