
          11280714542D 1   1.00000     0.00000     0

 34 36  0     0  0            999 V2000
   13.2542   -2.9375    0.0000 C   0  0  0  0  0  0           0  0  0
   12.8417   -3.6542    0.0000 C   0  0  0  0  0  0           0  0  0
    8.6375   -1.8167    0.0000 C   0  0  0  0  0  0           0  0  0
    1.4917   -4.2917    0.0000 N   0  0  3  0  0  0           0  0  0
    7.9167   -2.2375    0.0000 C   0  0  0  0  0  0           0  0  0
   12.8417   -2.2167    0.0000 O   0  0  0  0  0  0           0  0  0
   13.2542   -4.3792    0.0000 O   0  0  0  0  0  0           0  0  0
    8.6375   -0.9917    0.0000 O   0  0  0  0  0  0           0  0  0
    9.3542   -2.2292    0.0000 C   0  0  3  0  0  0           0  0  0
    2.2042   -4.7042    0.0000 C   0  0  0  0  0  0           0  0  0
    7.2000   -1.8250    0.0000 C   0  0  0  0  0  0           0  0  0
    7.9167   -3.0667    0.0000 C   0  0  0  0  0  0           0  0  0
    5.7792   -3.4750    0.0000 O   0  0  0  0  0  0           0  0  0
    6.4917   -3.0625    0.0000 C   0  0  0  0  0  0           0  0  0
   14.0875   -2.9375    0.0000 O   0  0  0  0  0  0           0  0  0
   12.0125   -3.6542    0.0000 O   0  0  0  0  0  0           0  0  0
    2.9167   -4.2917    0.0000 C   0  0  0  0  0  0           0  0  0
    4.3500   -3.4750    0.0000 C   0  0  0  0  0  0           0  0  0
    5.0667   -3.0625    0.0000 C   0  0  0  0  0  0           0  0  0
    6.4917   -2.2417    0.0000 C   0  0  0  0  0  0           0  0  0
    7.2042   -3.4750    0.0000 C   0  0  0  0  0  0           0  0  0
    2.9167   -3.4750    0.0000 C   0  0  0  0  0  0           0  0  0
    3.6292   -4.7042    0.0000 C   0  0  0  0  0  0           0  0  0
    4.3500   -4.3000    0.0000 C   0  0  0  0  0  0           0  0  0
    3.6292   -3.0542    0.0000 C   0  0  0  0  0  0           0  0  0
    0.7792   -4.7042    0.0000 C   0  0  0  0  0  0           0  0  0
    1.4917   -3.4667    0.0000 C   0  0  0  0  0  0           0  0  0
    9.4375   -3.0542    0.0000 C   0  0  0  0  0  0           0  0  0
   10.1042   -1.9000    0.0000 C   0  0  0  0  0  0           0  0  0
    0.0667   -4.2917    0.0000 C   0  0  0  0  0  0           0  0  0
    0.7792   -3.0542    0.0000 C   0  0  0  0  0  0           0  0  0
   10.6542   -2.5042    0.0000 C   0  0  0  0  0  0           0  0  0
   10.2417   -3.2250    0.0000 C   0  0  0  0  0  0           0  0  0
    0.0667   -3.4667    0.0000 C   0  0  0  0  0  0           0  0  0
  2  1  1  0     0  0
  4 10  1  0     0  0
  5  3  1  0     0  0
  6  1  2  0     0  0
  7  2  2  0     0  0
  8  3  2  0     0  0
  9  3  1  0     0  0
 10 17  1  0     0  0
 11  5  1  0     0  0
 12  5  2  0     0  0
 13 14  1  0     0  0
 14 21  2  0     0  0
 15  1  1  0     0  0
 16  2  1  0     0  0
 17 22  1  0     0  0
 18 19  1  0     0  0
 19 13  1  0     0  0
 20 11  2  0     0  0
 21 12  1  0     0  0
 22 25  2  0     0  0
 23 24  1  0     0  0
 24 18  2  0     0  0
 25 18  1  0     0  0
 26  4  1  0     0  0
 27  4  1  0     0  0
 28  9  1  0     0  0
 29  9  1  0     0  0
 30 26  1  0     0  0
 31 27  1  0     0  0
 32 29  1  0     0  0
 33 28  1  0     0  0
 34 31  1  0     0  0
 32 33  1  0     0  0
 14 20  1  0     0  0
 23 17  2  0     0  0
 30 34  1  0     0  0
M  END