
  SciTegic12211613262D

 15 16  0  0  0  0            999 V2000
   -1.2964    1.4973    0.0000 N   0  0
   -2.6111    0.7486    0.0000 C   0  0
   -2.6111   -0.7486    0.0000 N   0  0
   -1.2964   -1.4973    0.0000 C   0  0
    0.0000    0.7486    0.0000 C   0  0
    0.0000   -0.7486    0.0000 C   0  0
    1.2964   -1.4973    0.0000 C   0  0
    2.5929   -0.7486    0.0000 N   0  0
    2.5929    0.7486    0.0000 C   0  0
    1.2964    1.4973    0.0000 C   0  0
    1.2964   -2.6973    0.0000 O   0  0
    3.6321   -1.3486    0.0000 C   0  0
   -3.9122    1.4966    0.0000 N   0  0
   -4.9506    0.8952    0.0000 C   0  0
   -3.9141    2.6966    0.0000 C   0  0
  5  1  1  0
  1  2  2  0
  2  3  1  0
  3  4  2  0
  4  6  1  0
  5  6  2  0
  5 10  1  0
  6  7  1  0
  7  8  1  0
  8  9  1  0
  9 10  2  0
  7 11  2  0
  8 12  1  0
  2 13  1  0
 13 14  1  0
 13 15  1  0
M  END