
          11280714572D 1   1.00000     0.00000     0

 39 42  0     0  0            999 V2000
    9.3667    0.7125    0.0000 C   0  0  0  0  0  0           0  0  0
   10.0917    0.3083    0.0000 C   0  0  0  0  0  0           0  0  0
    8.6542    0.2958    0.0000 C   0  0  0  0  0  0           0  0  0
   10.8042    0.7333    0.0000 N   0  3  0  0  0  0           0  0  0
    9.1875    1.5208    0.0000 N   0  0  0  0  0  0           0  0  0
   10.1000   -0.5167    0.0000 C   0  0  0  0  0  0           0  0  0
    8.0417    0.8375    0.0000 N   0  0  0  0  0  0           0  0  0
    8.3667    1.5958    0.0000 O   0  0  0  0  0  0           0  0  0
    4.3792    0.2750    0.0000 N   0  0  0  0  0  0           0  0  0
    8.6667   -0.5292    0.0000 C   0  0  0  0  0  0           0  0  0
    5.0917    0.6875    0.0000 C   0  0  0  0  0  0           0  0  0
    4.3792   -0.5500    0.0000 C   0  0  0  0  0  0           0  0  0
    9.3875   -0.9417    0.0000 C   0  0  0  0  0  0           0  0  0
    5.8042    1.1000    0.0000 N   0  0  0  0  0  0           0  0  0
   -2.7708   -0.5542    0.0000 N   0  0  3  0  0  0           0  0  0
   11.5250    0.3250    0.0000 O   0  5  0  0  0  0           0  0  0
   10.8000    1.5583    0.0000 O   0  0  0  0  0  0           0  0  0
   -2.0500   -0.9667    0.0000 C   0  0  0  0  0  0           0  0  0
    5.0917   -0.9625    0.0000 N   0  0  0  0  0  0           0  0  0
    3.6667   -0.9625    0.0000 N   0  0  0  0  0  0           0  0  0
    7.9542   -0.9500    0.0000 N   0  0  0  0  0  0           0  0  0
   -1.3375   -0.5542    0.0000 C   0  0  0  0  0  0           0  0  0
   -0.6208   -0.9667    0.0000 C   0  0  0  0  0  0           0  0  0
    0.0917   -0.5542    0.0000 C   0  0  0  0  0  0           0  0  0
    6.5250   -0.9542    0.0000 C   0  0  0  0  0  0           0  0  0
    2.2375   -0.9667    0.0000 C   0  0  0  0  0  0           0  0  0
    0.8042   -0.9667    0.0000 O   0  0  0  0  0  0           0  0  0
   -3.4833   -0.9667    0.0000 C   0  0  0  0  0  0           0  0  0
   -2.7708    0.2750    0.0000 C   0  0  0  0  0  0           0  0  0
   -0.6250    0.6833    0.0000 C   0  0  0  0  0  0           0  0  0
    2.9500   -0.5500    0.0000 C   0  0  0  0  0  0           0  0  0
    5.8125   -0.5417    0.0000 C   0  0  0  0  0  0           0  0  0
    7.2417   -0.5375    0.0000 C   0  0  0  0  0  0           0  0  0
   -1.3333    0.2708    0.0000 C   0  0  0  0  0  0           0  0  0
    1.5167   -0.5542    0.0000 C   0  0  0  0  0  0           0  0  0
    0.0917    0.2750    0.0000 C   0  0  0  0  0  0           0  0  0
   -4.1958   -0.5417    0.0000 C   0  0  0  0  0  0           0  0  0
   -3.4708    0.6875    0.0000 C   0  0  0  0  0  0           0  0  0
   -4.1875    0.2833    0.0000 C   0  0  0  0  0  0           0  0  0
  2  1  1  0     0  0
  3  1  1  0     0  0
  4  2  1  0     0  0
  5  1  2  0     0  0
  6  2  2  0     0  0
  7  3  2  0     0  0
  8  5  1  0     0  0
  9 12  1  0     0  0
 10  3  1  0     0  0
 11  9  1  0     0  0
 12 19  2  0     0  0
 13 10  2  0     0  0
 14 11  3  0     0  0
 15 18  1  0     0  0
 16  4  1  0     0  0
 17  4  2  0     0  0
 18 22  1  0     0  0
 19 32  1  0     0  0
 20 12  1  0     0  0
 21 10  1  0     0  0
 22 23  1  0     0  0
 23 24  2  0     0  0
 24 27  1  0     0  0
 25 33  1  0     0  0
 26 31  1  0     0  0
 27 35  1  0     0  0
 28 15  1  0     0  0
 29 15  1  0     0  0
 30 36  2  0     0  0
 31 20  1  0     0  0
 32 25  1  0     0  0
 33 21  1  0     0  0
 34 30  1  0     0  0
 35 26  1  0     0  0
 36 24  1  0     0  0
 37 28  1  0     0  0
 38 29  1  0     0  0
 39 38  1  0     0  0
  7  8  1  0     0  0
  6 13  1  0     0  0
 22 34  2  0     0  0
 39 37  1  0     0  0
M  CHG  2   4   1  16  -1
M  END