
  SciTegic01161211252D

 43 48  0  0  0  0            999 V2000
   -0.9135   -6.8593    0.0000 N   0  0
    0.5113   -6.8665    0.0000 C   0  0  1  0  0  0
   -0.1992   -6.4495    0.0000 C   0  0
   -2.2900   -5.1680    0.0000 C   0  0
   -1.5859   -5.6035    0.0000 C   0  0  1  0  0  0
   -1.6096   -6.4294    0.0000 C   0  0
    1.2455   -6.5110    0.0000 C   0  0
    1.9454   -6.9424    0.0000 N   0  0
    1.2650   -5.6851    0.0000 O   0  0
    1.9176   -7.7646    0.0000 C   0  0
    2.6093   -8.1998    0.0000 C   0  0
    3.3391   -7.8088    0.0000 N   0  0
    3.3647   -6.9820    0.0000 C   0  0
    2.6604   -6.5462    0.0000 C   0  0
    4.0345   -8.2460    0.0000 C   0  0
    4.0064   -9.0729    0.0000 C   0  0
    4.7080   -9.5109    0.0000 C   0  0
    5.4340   -9.1190    0.0000 C   0  0
    5.4581   -8.2888    0.0000 C   0  0
    4.7599   -7.8587    0.0000 C   0  0
   -0.8625   -5.2089    0.0000 C   0  0
   -3.0094   -5.5626    0.0000 C   0  0
   -3.7098   -5.1250    0.0000 C   0  0
   -3.7520   -6.7770    0.0000 C   0  0
   -3.0277   -6.3848    0.0000 C   0  0
   -4.4569   -6.3457    0.0000 C   0  0
   -4.4337   -5.5208    0.0000 C   0  0
   -5.2113   -5.2409    0.0000 N   0  0
   -5.7126   -5.8955    0.0000 C   0  0
   -5.2488   -6.5772    0.0000 O   0  0
   -0.9176   -7.6856    0.0000 C   0  0
    0.5065   -6.0372    0.0000 H   0  0
    0.5071   -7.6928    0.0000 C   0  0  2  0  0  0
   -0.2103   -8.1035    0.0000 C   0  0  1  0  0  0
   -0.2147   -8.9242    0.0000 C   0  0
    0.4966   -9.3402    0.0000 C   0  0
    1.2140   -8.9336    0.0000 C   0  0
    1.2201   -8.1068    0.0000 C   0  0
   -0.9300   -8.5077    0.0000 H   0  0
    1.2207   -7.2745    0.0000 H   0  0
   -6.5407   -5.8721    0.0000 C   0  0
    6.1864   -7.8995    0.0000 F   0  0
    6.1374   -9.5554    0.0000 F   0  0
 12 15  1  0
  8 10  1  0
  5 21  1  6
  4 22  1  0
  4  5  1  0
 22 23  2  0
 23 27  1  0
  1  3  1  0
 26 24  1  0
  5  6  1  0
 24 25  2  0
 25 22  1  0
 26 27  2  0
  6  1  1  0
  8 14  1  0
 10 11  1  0
 11 12  1  0
 12 13  1  0
 27 28  1  0
 28 29  2  0
 29 30  1  0
 30 26  1  0
 34 31  1  0
 13 14  1  0
 33  2  1  0
  2 32  1  6
 33 34  1  0
  2  7  1  0
 15 16  2  0
  2  3  1  0
 16 17  1  0
  7  8  1  0
 17 18  2  0
 33 38  1  0
 34 35  1  0
 35 36  1  0
 36 37  1  0
 37 38  1  0
  1 31  1  0
 34 39  1  6
 18 19  1  0
 33 40  1  6
  7  9  2  0
 29 41  1  0
 19 20  2  0
 19 42  1  0
 20 15  1  0
 18 43  1  0
M  END