
  SciTegic12171313022D

 13 13  0  0  0  0            999 V2000
    7.3038   -6.5003    0.0000 C   0  0
    7.3026   -7.3199    0.0000 C   0  0
    8.0107   -7.7288    0.0000 C   0  0
    8.7203   -7.3194    0.0000 C   0  0
    8.7175   -6.4967    0.0000 C   0  0
    8.0089   -6.0915    0.0000 C   0  0
    6.5946   -7.7279    0.0000 C   0  0
    5.8872   -7.3188    0.0000 C   0  0
    6.5940   -8.5451    0.0000 C   0  0
    5.8813   -8.1306    0.0000 C   0  0
    9.4237   -6.0855    0.0000 C   0  0
   10.1329   -6.4914    0.0000 N   0  0
    9.4206   -5.2683    0.0000 O   0  0
  1  2  2  0
  2  3  1  0
  3  4  2  0
  4  5  1  0
  5  6  2  0
  6  1  1  0
  2  7  1  0
  7  8  1  0
  7  9  1  0
  7 10  1  0
  5 11  1  0
 11 12  1  0
 11 13  2  0
M  END