
  SciTegic12171312552D

 57 61  0  0  0  0            999 V2000
   23.8543  -15.0082    0.0000 N   0  0
   23.8523  -15.8358    0.0000 C   0  0
   24.5695  -16.2491    0.0000 N   0  0
   24.5640  -14.5954    0.0000 C   0  0
   25.2828  -15.0026    0.0000 C   0  0
   25.2860  -15.8294    0.0000 C   0  0
   26.0746  -16.0801    0.0000 N   0  0
   26.5545  -15.4052    0.0000 C   0  0
   26.0669  -14.7465    0.0000 N   0  0
   23.1411  -16.2481    0.0000 O   0  0
   24.5640  -13.7708    0.0000 O   0  0
   27.3791  -15.4052    0.0000 C   0  0
   27.7968  -16.1200    0.0000 C   0  0
   28.6202  -16.1131    0.0000 C   0  0
   29.0274  -15.3928    0.0000 C   0  0
   28.6103  -14.6820    0.0000 C   0  0
   27.7848  -14.6900    0.0000 C   0  0
   29.8520  -15.3928    0.0000 O   0  0
   23.1430  -14.5959    0.0000 C   0  0
   22.4274  -15.0083    0.0000 C   0  0
   21.7118  -14.5960    0.0000 C   0  0
   24.5695  -17.0737    0.0000 C   0  0
   23.8546  -17.4856    0.0000 C   0  0
   23.8546  -18.3106    0.0000 C   0  0
   30.2662  -14.6781    0.0000 C   0  0
   31.0908  -14.6781    0.0000 C   0  0
   31.5031  -13.9625    0.0000 N   0  0
   31.5031  -15.3894    0.0000 O   0  0
   32.3277  -13.9625    0.0000 C   0  0
   32.7400  -14.6781    0.0000 C   0  0
   33.5646  -14.6781    0.0000 N   0  0
   33.9769  -15.3894    0.0000 C   0  0
   34.8015  -15.3894    0.0000 C   0  0
   33.5646  -16.1050    0.0000 O   0  0
   35.2138  -16.1050    0.0000 C   0  0
   34.8015  -16.8205    0.0000 C   0  0
   35.2138  -17.5318    0.0000 C   0  0
   34.8015  -18.2473    0.0000 C   0  0
   33.9769  -18.2473    0.0000 C   0  0
   33.5646  -18.9628    0.0000 C   0  0
   32.7400  -18.9628    0.0000 N   0  0
   32.3277  -19.6742    0.0000 S   0  0
   31.5031  -19.6742    0.0000 C   0  0
   31.0908  -18.9628    0.0000 C   0  0
   30.2662  -18.9628    0.0000 C   0  0
   29.8539  -19.6742    0.0000 C   0  0
   30.2662  -20.3897    0.0000 C   0  0
   31.0908  -20.3897    0.0000 C   0  0
   29.8539  -21.1052    0.0000 C   0  0
   30.2662  -21.8165    0.0000 C   0  0
   31.0908  -21.8165    0.0000 C   0  0
   31.5031  -21.1052    0.0000 C   0  0
   29.0293  -21.1052    0.0000 N   0  0
   28.6170  -20.3897    0.0000 C   0  0
   28.6170  -21.8165    0.0000 C   0  0
   32.3277  -20.4988    0.0000 O   0  0
   33.0432  -20.0865    0.0000 O   0  0
  1  2  1  0
  2  3  1  0
  3  6  1  0
  5  4  1  0
  4  1  1  0
  5  6  2  0
  6  7  1  0
  7  8  2  0
  8  9  1  0
  9  5  1  0
  2 10  2  0
  4 11  2  0
 12 13  2  0
 13 14  1  0
 14 15  2  0
 15 16  1  0
 16 17  2  0
 17 12  1  0
  8 12  1  0
 15 18  1  0
  1 19  1  0
 19 20  1  0
 20 21  1  0
  3 22  1  0
 22 23  1  0
 23 24  1  0
 18 25  1  0
 25 26  1  0
 26 27  1  0
 26 28  2  0
 27 29  1  0
 29 30  1  0
 30 31  1  0
 31 32  1  0
 32 33  1  0
 32 34  2  0
 33 35  1  0
 35 36  1  0
 36 37  1  0
 37 38  1  0
 38 39  1  0
 39 40  1  0
 40 41  1  0
 41 42  1  0
 42 43  1  0
 43 44  1  0
 44 45  2  0
 45 46  1  0
 46 47  2  0
 47 48  1  0
 48 43  2  0
 47 49  1  0
 49 50  2  0
 50 51  1  0
 51 52  2  0
 52 48  1  0
 49 53  1  0
 53 54  1  0
 53 55  1  0
 42 56  2  0
 57 42  2  0
M  END