
  Mrv0541 04051115152D          

 11 12  0  0  0  0            999 V2000
   -3.3680    0.6438    0.0000 N   0  0  0  0  0  0  0  0  0  0  0  0
   -2.6535    1.0563    0.0000 C   0  0  0  0  0  0  0  0  0  0  0  0
   -2.6535    1.8813    0.0000 C   0  0  0  0  0  0  0  0  0  0  0  0
   -1.9391    2.2938    0.0000 C   0  0  0  0  0  0  0  0  0  0  0  0
   -1.2246    1.8813    0.0000 C   0  0  0  0  0  0  0  0  0  0  0  0
   -0.5101    2.2938    0.0000 C   0  0  0  0  0  0  0  0  0  0  0  0
    0.2043    1.8813    0.0000 C   0  0  0  0  0  0  0  0  0  0  0  0
    0.2043    1.0563    0.0000 C   0  0  0  0  0  0  0  0  0  0  0  0
   -0.5101    0.6438    0.0000 C   0  0  0  0  0  0  0  0  0  0  0  0
   -1.2246    1.0563    0.0000 C   0  0  0  0  0  0  0  0  0  0  0  0
   -1.9391    0.6438    0.0000 N   0  0  0  0  0  0  0  0  0  0  0  0
  2  1  1  0  0  0  0
  2 11  2  0  0  0  0
  2  3  1  0  0  0  0
  3  4  2  0  0  0  0
  4  5  1  0  0  0  0
 10  5  1  0  0  0  0
  5  6  2  0  0  0  0
  6  7  1  0  0  0  0
  7  8  2  0  0  0  0
  8  9  1  0  0  0  0
 10  9  2  0  0  0  0
 10 11  1  0  0  0  0
M  END