
  SciTegic12231509382D

 25 27  0  0  0  0            999 V2000
    1.4250   -0.1781    0.0000 C   0  0
    2.1984    0.1091    0.0000 N   0  0
    2.1643    0.9334    0.0000 C   0  0
    1.3698    1.1557    0.0000 N   0  0
    0.9129    0.4688    0.0000 C   0  0
    2.8853   -0.3479    0.0000 C   0  0
    2.8331   -1.1712    0.0000 C   0  0
    3.5199   -1.6281    0.0000 O   0  0
    4.2591   -1.2617    0.0000 C   0  0
    2.0939   -1.5376    0.0000 C   0  0
    1.4120   -1.0778    0.0000 C   0  0
    0.6733   -1.4436    0.0000 C   0  0
    0.6205   -2.2678    0.0000 C   0  0
    1.3126   -2.7248    0.0000 C   0  0
    2.0483   -2.3565    0.0000 C   0  0
    2.7379   -2.8094    0.0000 Cl  0  0
   -0.1181   -2.6352    0.0000 Cl  0  0
    4.9460   -1.7187    0.0000 C   0  0
    4.8903   -2.5407    0.0000 C   0  0
    5.5763   -2.9975    0.0000 C   0  0
    6.3165   -2.6311    0.0000 C   0  0
    6.3664   -1.8034    0.0000 C   0  0
    5.6795   -1.3502    0.0000 C   0  0
    7.0040   -3.0871    0.0000 Cl  0  0
    4.1503   -2.9053    0.0000 Cl  0  0
  4  5  1  0
 12 13  2  0
  5  1  2  0
 13 14  1  0
 14 15  2  0
 15 10  1  0
  2  6  1  0
 15 16  1  0
 13 17  1  0
  6  7  1  0
  9 18  1  0
 18 19  2  0
  7  8  1  0
 19 20  1  0
 20 21  2  0
  8  9  1  0
 21 22  1  0
  1  2  1  0
 22 23  2  0
 23 18  1  0
  7 10  1  0
  2  3  1  0
 21 24  1  0
 19 25  1  0
 10 11  2  0
  3  4  2  0
 11 12  1  0
M  END