
  SciTegic12231509382D

 13 14  0  0  0  0            999 V2000
   18.7376  -14.5955    0.0000 C   0  0
   18.7364  -15.4224    0.0000 C   0  0
   19.4508  -15.8351    0.0000 C   0  0
   20.1668  -15.4219    0.0000 C   0  0
   20.1639  -14.5919    0.0000 C   0  0
   19.4490  -14.1831    0.0000 C   0  0
   19.4466  -13.3585    0.0000 Cl  0  0
   18.0220  -15.8341    0.0000 N   0  0
   17.3120  -15.4168    0.0000 C   0  0
   16.5997  -15.8250    0.0000 C   0  0
   16.5948  -16.6498    0.0000 N   0  0
   17.3084  -17.0649    0.0000 C   0  0
   18.0269  -16.6550    0.0000 C   0  0
  1  2  2  0
  6  7  1  0
  3  4  2  0
  2  8  1  0
  8  9  1  0
  4  5  1  0
  2  3  1  0
  5  6  2  0
  6  1  1  0
  8 13  1  0
  9 10  1  0
 10 11  1  0
 11 12  1  0
 12 13  1  0
M  END