
  SciTegic05051610082D

 12 13  0  0  0  0            999 V2000
   -0.5958   -5.5737    0.0000 C   0  0
   -0.5958   -4.7487    0.0000 C   0  0
    0.1187   -4.3362    0.0000 C   0  0
   -1.8653   -5.1612    0.0000 C   0  0
    0.8332   -4.7487    0.0000 N   0  0
    1.5477   -5.9862    0.0000 N   0  0
    0.1187   -5.9862    0.0000 N   0  0
    0.8332   -5.5737    0.0000 C   0  0
   -1.3804   -5.8286    0.0000 N   0  0
   -1.3804   -4.4937    0.0000 N   0  0
    0.1187   -3.5112    0.0000 S   0  0
    0.8332   -3.0987    0.0000 C   0  0
  1  2  2  0
  1  7  1  0
  1  9  1  0
  2  3  1  0
  2 10  1  0
  3  5  2  0
  3 11  1  0
  4  9  1  0
  4 10  2  0
  8  5  1  0
  8  6  1  0
  8  7  2  0
 11 12  1  0
M  END