
  SciTegic06271217572D

 26 27  0  0  0  0            999 V2000
    4.6919   -4.9677    0.0000 C   0  0
    5.4079   -5.3774    0.0000 C   0  0
    4.6888   -4.1427    0.0000 O   0  0
    6.1208   -4.9624    0.0000 S   0  0
    6.8368   -5.3721    0.0000 C   0  0
    6.8368   -6.1959    0.0000 N   0  0
    7.5519   -6.6056    0.0000 C   0  0
    8.2657   -6.1904    0.0000 C   0  0
    8.2600   -5.3611    0.0000 C   0  0
    7.5443   -4.9553    0.0000 N   0  0
    8.9714   -4.9435    0.0000 O   0  0
    8.9823   -6.5993    0.0000 C   0  0
    8.9865   -7.4241    0.0000 O   0  0
    9.6946   -6.1831    0.0000 O   0  0
   10.4111   -6.5920    0.0000 C   0  0
   11.1234   -6.1758    0.0000 C   0  0
    1.8339   -6.6273    0.0000 S   0  0
    1.4079   -7.3337    0.0000 O   0  0
    2.2326   -7.3495    0.0000 O   0  0
    1.1276   -6.2012    0.0000 N   0  0
    2.5520   -5.3865    0.0000 C   0  0
    2.5508   -6.2138    0.0000 C   0  0
    3.2655   -6.6267    0.0000 C   0  0
    3.9820   -6.2134    0.0000 C   0  0
    3.9791   -5.3828    0.0000 C   0  0
    3.2637   -4.9738    0.0000 C   0  0
  5  6  2  0
 12 13  2  0
  1  3  2  0
 12 14  1  0
  6  7  1  0
 14 15  1  0
 15 16  1  0
 18 17  2  0
 17 19  2  0
  7  8  2  0
  2  4  1  0
  8  9  1  0
  1  2  1  0
 17 20  1  0
  9 10  1  0
 10  5  1  0
 21 22  2  0
  4  5  1  0
 22 23  1  0
  9 11  2  0
 23 24  2  0
 25  1  1  0
 24 25  1  0
  8 12  1  0
 25 26  2  0
 26 21  1  0
 22 17  1  0
M  END