
  Mrv0541 04051115152D          

 10 10  0  0  0  0            999 V2000
   -0.0771   -0.0411    0.0000 C   0  0  0  0  0  0  0  0  0  0  0  0
    0.6374   -0.4536    0.0000 C   0  0  0  0  0  0  0  0  0  0  0  0
    0.6374   -1.2786    0.0000 C   0  0  0  0  0  0  0  0  0  0  0  0
   -0.0771   -1.6911    0.0000 C   0  0  0  0  0  0  0  0  0  0  0  0
   -0.7915   -1.2786    0.0000 C   0  0  0  0  0  0  0  0  0  0  0  0
   -0.7915   -0.4536    0.0000 C   0  0  0  0  0  0  0  0  0  0  0  0
   -0.0771    0.7839    0.0000 C   0  0  0  0  0  0  0  0  0  0  0  0
   -0.7915    1.1964    0.0000 O   0  0  0  0  0  0  0  0  0  0  0  0
    0.6374    1.1964    0.0000 N   0  0  0  0  0  0  0  0  0  0  0  0
    0.6374    2.0214    0.0000 O   0  0  0  0  0  0  0  0  0  0  0  0
  1  2  2  0  0  0  0
  1  6  1  0  0  0  0
  7  1  1  0  0  0  0
  2  3  1  0  0  0  0
  3  4  2  0  0  0  0
  4  5  1  0  0  0  0
  5  6  2  0  0  0  0
  7  8  2  0  0  0  0
  7  9  1  0  0  0  0
  9 10  1  0  0  0  0
M  END