
  SciTegic01161211252D

 18 18  0  0  0  0            999 V2000
   13.5334   -5.7804    0.0000 C   0  0
   14.2466   -5.3675    0.0000 C   0  0
   14.9598   -5.7804    0.0000 C   0  0
   15.6729   -5.3675    0.0000 C   0  0
   16.3861   -5.7804    0.0000 C   0  0
   17.0993   -5.3675    0.0000 C   0  0
   17.8149   -5.7795    0.0000 C   0  0
   18.5296   -5.3658    0.0000 O   0  0
   19.2452   -5.7778    0.0000 C   0  0
   19.2412   -6.6031    0.0000 C   0  0
   19.9560   -7.0151    0.0000 C   0  0
   20.6716   -6.6013    0.0000 C   0  0
   20.6680   -5.7712    0.0000 C   0  0
   19.9525   -5.3630    0.0000 C   0  0
   21.3878   -7.0124    0.0000 C   0  0
   21.3899   -7.8381    0.0000 C   0  0
   22.1061   -8.2492    0.0000 O   0  0
   20.6758   -8.2528    0.0000 O   0  0
  4  5  1  0
  9 10  2  0
  2  3  1  0
 10 11  1  0
  5  6  1  0
 11 12  2  0
  1  2  1  0
 12 13  1  0
  6  7  1  0
 13 14  2  0
 14  9  1  0
  3  4  1  0
 12 15  1  0
  7  8  1  0
 15 16  1  0
 16 17  2  0
  8  9  1  0
 16 18  1  0
M  END