
  Mrv0541 04051115152D          

 24 25  0  0  0  0            999 V2000
    2.0769    3.5607    0.0000 O   0  0  0  0  0  0  0  0  0  0  0  0
    1.3624    3.1482    0.0000 C   0  0  0  0  0  0  0  0  0  0  0  0
    0.6479    3.5607    0.0000 O   0  0  0  0  0  0  0  0  0  0  0  0
    1.3624    2.3232    0.0000 C   0  0  1  0  0  0  0  0  0  0  0  0
    2.0769    1.9107    0.0000 N   0  0  0  0  0  0  0  0  0  0  0  0
    0.6479    1.9107    0.0000 C   0  0  0  0  0  0  0  0  0  0  0  0
    0.6479    1.0857    0.0000 N   0  0  0  0  0  0  0  0  0  0  0  0
   -0.0665    0.6732    0.0000 C   0  0  0  0  0  0  0  0  0  0  0  0
   -0.7810    1.0857    0.0000 O   0  0  0  0  0  0  0  0  0  0  0  0
   -0.0665   -0.1518    0.0000 N   0  0  0  0  0  0  0  0  0  0  0  0
    0.6479   -0.5643    0.0000 C   0  0  0  0  0  0  0  0  0  0  0  0
    0.6479   -1.3893    0.0000 O   0  0  0  0  0  0  0  0  0  0  0  0
    1.3624   -0.1518    0.0000 C   0  0  0  0  0  0  0  0  0  0  0  0
    2.0769   -0.5643    0.0000 C   0  0  0  0  0  0  0  0  0  0  0  0
    1.3624    0.6732    0.0000 C   0  0  0  0  0  0  0  0  0  0  0  0
   -0.7810   -0.5643    0.0000 C   0  0  0  0  0  0  0  0  0  0  0  0
   -0.7810   -1.3893    0.0000 C   0  0  0  0  0  0  0  0  0  0  0  0
   -0.1136   -1.8743    0.0000 C   0  0  0  0  0  0  0  0  0  0  0  0
   -0.3685   -2.6589    0.0000 C   0  0  0  0  0  0  0  0  0  0  0  0
   -1.1935   -2.6589    0.0000 S   0  0  0  0  0  0  0  0  0  0  0  0
   -1.4484   -1.8743    0.0000 C   0  0  0  0  0  0  0  0  0  0  0  0
   -2.2331   -1.6193    0.0000 C   0  0  0  0  0  0  0  0  0  0  0  0
   -2.8462   -2.1713    0.0000 O   0  0  0  0  0  0  0  0  0  0  0  0
   -2.4046   -0.8123    0.0000 O   0  0  0  0  0  0  0  0  0  0  0  0
  2  1  2  0  0  0  0
  2  3  1  0  0  0  0
  2  4  1  0  0  0  0
  4  5  1  1  0  0  0
  4  6  1  0  0  0  0
  6  7  1  0  0  0  0
  8  7  1  0  0  0  0
 15  7  1  0  0  0  0
  8  9  2  0  0  0  0
  8 10  1  0  0  0  0
 11 10  1  0  0  0  0
 16 10  1  0  0  0  0
 11 12  2  0  0  0  0
 11 13  1  0  0  0  0
 13 14  1  0  0  0  0
 13 15  2  0  0  0  0
 16 17  1  0  0  0  0
 17 18  1  0  0  0  0
 17 21  2  0  0  0  0
 19 18  2  0  0  0  0
 19 20  1  0  0  0  0
 21 20  1  0  0  0  0
 22 21  1  0  0  0  0
 22 23  1  0  0  0  0
 22 24  2  0  0  0  0
M  END