
  SciTegic04191613082D

 33 36  0  0  0  0            999 V2000
   14.8153    2.5246    0.0000 O   0  0
   12.3718    1.0292    0.0000 O   0  0
    9.6532    1.9171    0.0000 O   0  0
    9.5800    4.7810    0.0000 O   0  0
   13.2623    4.6064    0.0000 O   0  0
   12.6780    7.4070    0.0000 O   0  0
   13.4361    3.1165    0.0000 C   0  0  1  0  0  0
   12.2327    2.2211    0.0000 C   0  0  1  0  0  0
   10.8555    2.8155    0.0000 C   0  0  2  0  0  0
   10.6817    4.3054    0.0000 C   0  0  2  0  0  0
   11.8851    5.2009    0.0000 C   0  0  1  0  0  0
   11.7143    6.6920    0.0000 C   0  0
   15.7770    3.2423    0.0000 C   0  0
    9.8292    0.4266    0.0000 C   0  0
    8.6290   -0.4703    0.0000 C   0  0
    8.6461   -1.9702    0.0000 N   0  0
    7.2249   -2.4499    0.0000 N   0  0
    6.3513   -1.2462    0.0000 N   0  0
    7.1973   -0.0230    0.0000 C   0  0
    4.8506   -1.2602    0.0000 C   0  0  1  0  0  0
    4.0872    0.0320    0.0000 C   0  0
    4.1154   -2.5686    0.0000 C   0  0
    2.5889    0.0182    0.0000 C   0  0
    2.9155   -2.5823    0.0000 O   0  0
    4.7268   -3.6012    0.0000 O   0  0
    1.7138    1.2033    0.0000 C   0  0
    1.7138   -1.2033    0.0000 N   0  0
    0.2917   -0.7475    0.0000 C   0  0
    0.2917    0.7475    0.0000 C   0  0
   -1.0028    1.5132    0.0000 C   0  0
   -2.3155    0.7475    0.0000 C   0  0
   -2.3155   -0.7475    0.0000 C   0  0
   -1.0028   -1.5132    0.0000 C   0  0
  6 12  1  0
 11  5  1  0
  5  7  1  0
  7  8  1  0
  8  9  1  0
  9 10  1  0
 10 11  1  0
 11 12  1  1
  7  1  1  6
  8  2  1  6
  9  3  1  1
 10  4  1  1
  1 13  1  0
  3 14  1  0
 14 15  1  0
 15 16  1  0
 16 17  2  0
 17 18  1  0
 18 19  1  0
 19 15  2  0
 18 20  1  0
 20 21  1  6
 20 22  1  0
 21 23  1  0
 22 24  1  0
 22 25  2  0
 23 26  2  0
 26 29  1  0
 28 27  1  0
 27 23  1  0
 28 29  2  0
 29 30  1  0
 30 31  2  0
 31 32  1  0
 32 33  2  0
 33 28  1  0
M  END