
  CDK    9/16/09,9:46

 16 16  0  0  0  0  0  0  0  0999 V2000
    6.0043  -19.4108    0.0000 C   0  0  0  0  0  0  0  0  0  0  0  0
    6.0043  -20.2359    0.0000 C   0  0  0  0  0  0  0  0  0  0  0  0
    6.8293  -19.4108    0.0000 N   0  0  0  0  0  0  0  0  0  0  0  0
    6.8338  -20.2359    0.0000 C   0  0  0  0  0  0  0  0  0  0  0  0
    7.6198  -20.4866    0.0000 O   0  0  0  0  0  0  0  0  0  0  0  0
    8.1011  -19.8164    0.0000 C   0  0  0  0  0  0  0  0  0  0  0  0
    7.6125  -19.1517    0.0000 C   0  0  0  0  0  0  0  0  0  0  0  0
    8.9240  -19.8142    0.0000 C   0  0  0  0  0  0  0  0  0  0  0  0
    9.3383  -20.5276    0.0000 C   0  0  0  0  0  0  0  0  0  0  0  0
   10.1634  -20.5254    0.0000 O   0  0  0  0  0  0  0  0  0  0  0  0
    6.8248  -21.0564    0.0000 H   0  0  0  0  0  0  0  0  0  0  0  0
    7.8632  -18.3657    0.0000 C   0  0  0  0  0  0  0  0  0  0  0  0
    8.6692  -18.1897    0.0000 O   0  0  0  0  0  0  0  0  0  0  0  0
    7.3078  -17.7556    0.0000 O   0  0  0  0  0  0  0  0  0  0  0  0
    5.4209  -18.8275    0.0000 O   0  0  0  0  0  0  0  0  0  0  0  0
    9.2952  -17.0000    0.0000 Li  0  0  0  0  0  0  0  0  0  0  0  0
  7  3  1  0  0  0  0 
  3  4  1  0  0  0  0 
  6  8  2  0  0  0  0 
  1  2  1  0  0  0  0 
  8  9  1  0  0  0  0 
  9 10  1  0  0  0  0 
  4 11  1  1  0  0  0 
  2  4  1  0  0  0  0 
  7 12  1  1  0  0  0 
  3  1  1  0  0  0  0 
 12 13  2  0  0  0  0 
  4  5  1  0  0  0  0 
 12 14  1  0  0  0  0 
  5  6  1  0  0  0  0 
  1 15  2  0  0  0  0 
  6  7  1  0  0  0  0 
M  CHG  1  14  -1
M  CHG  1  16   1
M  END