
  -ISIS-  04291017112D

 37 41  0  0  0  0  0  0  0  0999 V2000
    3.2042  -11.6708    0.0000 C   0  0  0  0  0  0  0  0  0  0  0  0
   10.7500  -10.4917    0.0000 C   0  0  0  0  0  0  0  0  0  0  0  0
    3.6875  -11.0042    0.0000 N   0  0  0  0  0  0  0  0  0  0  0  0
   10.2083  -11.1167    0.0000 N   0  0  0  0  0  0  0  0  0  0  0  0
    3.6917  -12.3333    0.0000 N   0  0  3  0  0  0  0  0  0  0  0  0
    9.4500  -10.7917    0.0000 C   0  0  0  0  0  0  0  0  0  0  0  0
    4.4708  -11.2542    0.0000 C   0  0  0  0  0  0  0  0  0  0  0  0
    9.5208   -9.9708    0.0000 N   0  0  0  0  0  0  0  0  0  0  0  0
    4.4708  -12.0792    0.0000 C   0  0  0  0  0  0  0  0  0  0  0  0
   10.3250   -9.7833    0.0000 C   0  0  0  0  0  0  0  0  0  0  0  0
    2.3833  -11.6750    0.0000 N   0  0  0  0  0  0  0  0  0  0  0  0
    8.7417  -11.2167    0.0000 C   0  0  0  0  0  0  0  0  0  0  0  0
    5.1792  -10.8458    0.0000 C   0  0  0  0  0  0  0  0  0  0  0  0
    8.0250  -10.8167    0.0000 C   0  0  0  0  0  0  0  0  0  0  0  0
    5.1833  -12.4917    0.0000 C   0  0  0  0  0  0  0  0  0  0  0  0
    1.1458   -9.5375    0.0000 C   0  0  0  0  0  0  0  0  0  0  0  0
    8.7542  -12.0458    0.0000 N   0  0  0  0  0  0  0  0  0  0  0  0
    5.8917  -11.2500    0.0000 C   0  0  0  0  0  0  0  0  0  0  0  0
    7.3208  -11.2333    0.0000 C   0  0  0  0  0  0  0  0  0  0  0  0
    6.6042  -10.8333    0.0000 O   0  0  0  0  0  0  0  0  0  0  0  0
    1.9708  -10.9583    0.0000 C   0  0  0  0  0  0  0  0  0  0  0  0
    0.7375  -10.2500    0.0000 C   0  0  0  0  0  0  0  0  0  0  0  0
    1.9708   -9.5333    0.0000 C   0  0  0  0  0  0  0  0  0  0  0  0
    5.8958  -12.0792    0.0000 C   0  0  0  0  0  0  0  0  0  0  0  0
    3.4375  -13.1208    0.0000 C   0  0  0  0  0  0  0  0  0  0  0  0
    8.0458  -12.4667    0.0000 C   0  0  0  0  0  0  0  0  0  0  0  0
    7.3250  -12.0625    0.0000 C   0  0  0  0  0  0  0  0  0  0  0  0
    1.1458  -10.9583    0.0000 C   0  0  0  0  0  0  0  0  0  0  0  0
    2.3833  -10.2458    0.0000 C   0  0  0  0  0  0  0  0  0  0  0  0
    0.7304   -8.8247    0.0000 C   0  0  3  0  0  0  0  0  0  0  0  0
    1.1399   -8.1086    0.0000 F   0  0  0  0  0  0  0  0  0  0  0  0
   -0.0946   -8.8281    0.0000 F   0  0  0  0  0  0  0  0  0  0  0  0
    1.5264   -8.6079    0.0000 F   0  0  0  0  0  0  0  0  0  0  0  0
   11.5719  -10.5632    0.0000 C   0  0  3  0  0  0  0  0  0  0  0  0
   11.9209  -11.3108    0.0000 F   0  0  0  0  0  0  0  0  0  0  0  0
   12.0448   -9.8872    0.0000 F   0  0  0  0  0  0  0  0  0  0  0  0
   11.2901  -11.3386    0.0000 F   0  0  0  0  0  0  0  0  0  0  0  0
  9  5  1  0  0  0  0
 10  8  1  0  0  0  0
 11  1  1  0  0  0  0
 12 14  2  0  0  0  0
 13  7  1  0  0  0  0
 14 19  1  0  0  0  0
 15  9  1  0  0  0  0
 16 22  1  0  0  0  0
 17 12  1  0  0  0  0
 18 13  2  0  0  0  0
 19 20  1  0  0  0  0
 20 18  1  0  0  0  0
 21 11  1  0  0  0  0
 22 28  2  0  0  0  0
 23 29  1  0  0  0  0
 24 15  2  0  0  0  0
 25  5  1  0  0  0  0
 26 27  1  0  0  0  0
 27 19  2  0  0  0  0
 28 21  1  0  0  0  0
 29 21  2  0  0  0  0
  9  7  2  0  0  0  0
 16 23  2  0  0  0  0
 18 24  1  0  0  0  0
 17 26  2  0  0  0  0
 10  2  2  0  0  0  0
 16 30  1  0  0  0  0
  2  4  1  0  0  0  0
 30 31  1  0  0  0  0
  3  1  2  0  0  0  0
 30 32  1  0  0  0  0
  4  6  1  0  0  0  0
 30 33  1  0  0  0  0
  5  1  1  0  0  0  0
  2 34  1  0  0  0  0
  6 12  1  0  0  0  0
 34 35  1  0  0  0  0
  7  3  1  0  0  0  0
 34 36  1  0  0  0  0
  8  6  2  0  0  0  0
 34 37  1  0  0  0  0
M  END