
  SciTegic09291413392D

 28 30  0  0  0  0            999 V2000
   10.4281  -22.8854    0.0000 C   0  0
   10.4269  -23.7050    0.0000 C   0  0
   11.1350  -24.1139    0.0000 C   0  0
   11.1332  -22.4766    0.0000 C   0  0
   11.8418  -22.8818    0.0000 C   0  0
   11.8426  -23.7009    0.0000 C   0  0
   12.5511  -24.1079    0.0000 N   0  0
   13.2594  -23.6971    0.0000 C   0  0
   13.2546  -22.8750    0.0000 C   0  0
   12.5455  -22.4716    0.0000 C   0  0
   12.5407  -21.6595    0.0000 C   0  0
   13.2478  -21.2477    0.0000 C   0  0
   13.2438  -20.4313    0.0000 C   0  0
   12.5334  -20.0257    0.0000 C   0  0
   11.8256  -20.4424    0.0000 C   0  0
   11.8330  -21.2575    0.0000 C   0  0
   13.9599  -22.4621    0.0000 C   0  0  1  0  0  0
   14.6700  -22.8664    0.0000 C   0  0
   14.6763  -23.6842    0.0000 O   0  0
   15.3765  -22.4541    0.0000 O   0  0
   13.9687  -24.1029    0.0000 C   0  0
   12.5280  -19.2085    0.0000 Cl  0  0
   13.9549  -21.6449    0.0000 O   0  0
   14.6601  -21.2320    0.0000 C   0  0
   14.6551  -20.4148    0.0000 C   0  0
   15.3703  -21.6363    0.0000 C   0  0
   15.3657  -20.8177    0.0000 C   0  0
    9.7189  -24.1130    0.0000 F   0  0
  1  2  2  0
  2  3  1  0
  3  6  2  0
  5  4  2  0
  4  1  1  0
  5  6  1  0
  6  7  1  0
  7  8  2  0
  8  9  1  0
  9 10  2  0
 10  5  1  0
 11 12  2  0
 12 13  1  0
 13 14  2  0
 14 15  1  0
 15 16  2  0
 16 11  1  0
 10 11  1  0
  9 17  1  0
 17 18  1  0
 18 19  1  0
 18 20  2  0
  8 21  1  0
 14 22  1  0
 17 23  1  6
 23 24  1  0
 24 25  1  0
 24 26  1  0
 24 27  1  0
  2 28  1  0
M  END