
          11280715572D 1   1.00000     0.00000     0

 75 80  0     1  0            999 V2000
   10.8792   -5.3250    0.0000 N   0  0  3  0  0  0           0  0  0
   10.3667   -5.0250    0.0000 C   0  0  0  0  0  0           0  0  0
    7.2542   -6.2375    0.0000 C   0  0  0  0  0  0           0  0  0
    4.1167   -5.0625    0.0000 C   0  0  0  0  0  0           0  0  0
    7.2417   -5.0375    0.0000 C   0  0  0  0  0  0           0  0  0
    5.6875   -5.3500    0.0000 C   0  0  0  0  0  0           0  0  0
    8.8042   -5.3250    0.0000 C   0  0  0  0  0  0           0  0  0
   11.4417   -5.5417    0.0000 C   0  0  3  0  0  0           0  0  0
    8.2042   -6.4292    0.0000 N   0  0  0  0  0  0           0  0  0
    4.6417   -5.3542    0.0000 N   0  0  0  0  0  0           0  0  0
    6.2042   -5.0417    0.0000 N   0  0  0  0  0  0           0  0  0
    3.6042   -5.3667    0.0000 C   0  0  1  0  0  0           0  0  0
    7.7667   -5.3292    0.0000 N   0  0  0  0  0  0           0  0  0
    9.3250   -5.0167    0.0000 N   0  0  0  0  0  0           0  0  0
    7.8042   -5.9917    0.0000 C   0  0  0  0  0  0           0  0  0
    6.7292   -5.3417    0.0000 C   0  0  2  0  0  0           0  0  0
    5.1542   -5.0542    0.0000 C   0  0  1  0  0  0           0  0  0
    8.2875   -5.0292    0.0000 C   0  0  1  0  0  0           0  0  0
   11.6000   -6.1250    0.0000 C   0  0  0  0  0  0           0  0  0
    9.8500   -5.3250    0.0000 C   0  0  1  0  0  0           0  0  0
   10.8542   -7.7375    0.0000 C   0  0  0  0  0  0           0  0  0
    3.0792   -5.0667    0.0000 N   0  0  0  0  0  0           0  0  0
    7.3167   -6.8292    0.0000 C   0  0  0  0  0  0           0  0  0
    6.7292   -5.9417    0.0000 C   0  0  0  0  0  0           0  0  0
    2.5542   -5.3750    0.0000 C   0  0  0  0  0  0           0  0  0
    7.9125   -6.9542    0.0000 C   0  0  0  0  0  0           0  0  0
   10.3292   -8.0292    0.0000 N   0  0  0  0  0  0           0  0  0
   10.3750   -4.4250    0.0000 O   0  0  0  0  0  0           0  0  0
    1.5042   -3.5875    0.0000 C   0  0  0  0  0  0           0  0  0
    4.1167   -4.4625    0.0000 O   0  0  0  0  0  0           0  0  0
    7.2417   -4.4375    0.0000 O   0  0  0  0  0  0           0  0  0
    8.8167   -5.9250    0.0000 O   0  0  0  0  0  0           0  0  0
    5.6917   -5.9500    0.0000 O   0  0  0  0  0  0           0  0  0
    5.1542   -4.4417    0.0000 C   0  0  0  0  0  0           0  0  0
    1.5125   -4.1792    0.0000 C   0  0  0  0  0  0           0  0  0
   11.1667   -6.5417    0.0000 O   0  0  0  0  0  0           0  0  0
    8.2792   -4.4292    0.0000 C   0  0  0  0  0  0           0  0  0
    2.5667   -5.9792    0.0000 O   0  0  0  0  0  0           0  0  0
   10.8667   -7.1375    0.0000 N   0  0  0  0  0  0           0  0  0
    2.0292   -4.4792    0.0000 C   0  0  0  0  0  0           0  0  0
   12.1792   -6.2792    0.0000 N   0  0  0  0  0  0           0  0  0
   11.3750   -8.0417    0.0000 N   0  0  0  0  0  0           0  0  0
   10.9167   -4.7250    0.0000 C   0  0  0  0  0  0           0  0  0
    0.9875   -3.2917    0.0000 C   0  0  0  0  0  0           0  0  0
    2.0375   -5.0792    0.0000 C   0  0  0  0  0  0           0  0  0
    5.6750   -4.1417    0.0000 C   0  0  0  0  0  0           0  0  0
    6.7125   -3.5375    0.0000 C   0  0  0  0  0  0           0  0  0
    3.6042   -5.9667    0.0000 C   0  0  0  0  0  0           0  0  0
    5.6667   -3.5417    0.0000 C   0  0  0  0  0  0           0  0  0
    6.2000   -4.4417    0.0000 C   0  0  0  0  0  0           0  0  0
    6.1917   -3.2417    0.0000 C   0  0  0  0  0  0           0  0  0
    6.7167   -4.1292    0.0000 C   0  0  0  0  0  0           0  0  0
   11.8250   -5.0792    0.0000 C   0  0  0  0  0  0           0  0  0
    7.2292   -3.2292    0.0000 O   0  0  0  0  0  0           0  0  0
    4.1292   -6.2625    0.0000 O   0  0  0  0  0  0           0  0  0
   11.5000   -4.5750    0.0000 C   0  0  0  0  0  0           0  0  0
    9.8417   -5.9250    0.0000 C   0  0  0  0  0  0           0  0  0
    6.9250   -7.2875    0.0000 C   0  0  0  0  0  0           0  0  0
    0.4792   -4.1917    0.0000 C   0  0  0  0  0  0           0  0  0
    8.7917   -4.1250    0.0000 C   0  0  3  0  0  0           0  0  0
    1.0000   -4.4875    0.0000 C   0  0  0  0  0  0           0  0  0
    2.0167   -3.2792    0.0000 C   0  0  0  0  0  0           0  0  0
    8.1042   -7.5292    0.0000 C   0  0  0  0  0  0           0  0  0
    0.4750   -3.5917    0.0000 C   0  0  0  0  0  0           0  0  0
   12.3292   -6.8625    0.0000 C   0  0  0  0  0  0           0  0  0
   10.3500   -6.8292    0.0000 C   0  0  0  0  0  0           0  0  0
    0.9792   -2.7042    0.0000 C   0  0  0  0  0  0           0  0  0
   10.3542   -6.2292    0.0000 C   0  0  0  0  0  0           0  0  0
    9.3167   -4.4167    0.0000 C   0  0  0  0  0  0           0  0  0
    8.7917   -3.5250    0.0000 C   0  0  0  0  0  0           0  0  0
   12.9042   -7.0167    0.0000 C   0  0  0  0  0  0           0  0  0
    7.1125   -7.8542    0.0000 C   0  0  0  0  0  0           0  0  0
    2.0042   -2.6917    0.0000 C   0  0  0  0  0  0           0  0  0
    7.7042   -7.9750    0.0000 C   0  0  0  0  0  0           0  0  0
    1.4917   -2.4000    0.0000 C   0  0  0  0  0  0           0  0  0
  2  1  1  0     0  0
  3 24  1  0     0  0
  4 10  1  0     0  0
  5 13  1  0     0  0
  6 11  1  0     0  0
  7 14  1  0     0  0
  8  1  1  0     0  0
  9 15  1  0     0  0
 10 17  1  0     0  0
 11 16  1  0     0  0
 12  4  1  0     0  0
 13 18  1  0     0  0
 14 20  1  0     0  0
 15  3  2  0     0  0
 16  5  1  0     0  0
 17  6  1  0     0  0
 18  7  1  0     0  0
 19  8  1  0     0  0
 20  2  1  0     0  0
 21 39  2  0     0  0
 22 12  1  0     0  0
 23  3  1  0     0  0
 16 24  1  1     0  0
 25 22  1  0     0  0
 26 23  2  0     0  0
 27 21  1  0     0  0
 28  2  2  0     0  0
 29 35  2  0     0  0
 30  4  2  0     0  0
 31  5  2  0     0  0
 32  7  2  0     0  0
 33  6  2  0     0  0
 17 34  1  1     0  0
 35 40  1  0     0  0
 36 19  2  0     0  0
 18 37  1  1     0  0
 38 25  2  0     0  0
 39 66  1  0     0  0
 40 45  1  0     0  0
 41 19  1  0     0  0
 42 21  1  0     0  0
 43  1  1  0     0  0
 44 29  1  0     0  0
 45 25  1  0     0  0
 46 34  1  0     0  0
 47 52  2  0     0  0
 12 48  1  6     0  0
 49 46  1  0     0  0
 50 46  2  0     0  0
 51 49  2  0     0  0
 52 50  1  0     0  0
 53  8  1  0     0  0
 54 47  1  0     0  0
 55 48  1  0     0  0
 56 43  1  0     0  0
 20 57  1  6     0  0
 58 23  1  0     0  0
 59 61  2  0     0  0
 60 37  1  0     0  0
 61 35  1  0     0  0
 62 29  1  0     0  0
 63 26  1  0     0  0
 64 59  1  0     0  0
 65 41  1  0     0  0
 66 68  1  0     0  0
 67 44  1  0     0  0
 68 57  1  0     0  0
 69 60  1  0     0  0
 70 60  1  0     0  0
 71 65  1  0     0  0
 72 58  2  0     0  0
 73 62  2  0     0  0
 74 72  1  0     0  0
 75 73  1  0     0  0
 56 53  1  0     0  0
 26  9  1  0     0  0
 63 74  2  0     0  0
 51 47  1  0     0  0
 44 64  2  0     0  0
 75 67  2  0     0  0
M  END