
  CDK    6/4/10,11:41

 17 17  0  0  0  0  0  0  0  0999 V2000
    9.6849  -18.7936    0.0000 O   0  0  0  0  0  0  0  0  0  0  0  0
    8.9690  -19.2061    0.0000 C   0  0  0  0  0  0  0  0  0  0  0  0
    8.9690  -20.0311    0.0000 C   0  0  0  0  0  0  0  0  0  0  0  0
    9.6849  -20.4436    0.0000 O   0  0  0  0  0  0  0  0  0  0  0  0
    8.2531  -20.4436    0.0000 C   0  0  0  0  0  0  0  0  0  0  0  0
    8.2531  -21.2686    0.0000 O   0  0  0  0  0  0  0  0  0  0  0  0
    7.5414  -20.0311    0.0000 C   0  0  0  0  0  0  0  0  0  0  0  0
    6.8256  -20.4436    0.0000 O   0  0  0  0  0  0  0  0  0  0  0  0
    7.5414  -19.2061    0.0000 C   0  0  0  0  0  0  0  0  0  0  0  0
    8.2531  -18.7936    0.0000 O   0  0  0  0  0  0  0  0  0  0  0  0
    6.8256  -18.7936    0.0000 C   0  0  0  0  0  0  0  0  0  0  0  0
    6.8256  -17.9686    0.0000 O   0  0  0  0  0  0  0  0  0  0  0  0
    6.1111  -17.5561    0.0000 C   0  0  0  0  0  0  0  0  0  0  0  0
    6.1114  -20.0305    0.0000 C   0  0  0  0  0  0  0  0  0  0  0  0
    8.9676  -21.6811    0.0000 C   0  0  0  0  0  0  0  0  0  0  0  0
    9.6856  -21.2686    0.0000 C   0  0  0  0  0  0  0  0  0  0  0  0
    9.6856  -17.9686    0.0000 C   0  0  0  0  0  0  0  0  0  0  0  0
  5  6  1  1  0  0  0 
  5  7  1  0  0  0  0 
  7  8  1  1  0  0  0 
  7  9  1  0  0  0  0 
  9 10  1  0  0  0  0 
  9 11  1  1  0  0  0 
 11 12  1  0  0  0  0 
  2 10  1  0  0  0  0 
 12 13  1  0  0  0  0 
  2  1  1  6  0  0  0 
  8 14  1  0  0  0  0 
  2  3  1  0  0  0  0 
  6 15  1  0  0  0  0 
  3  4  1  6  0  0  0 
  4 16  1  0  0  0  0 
  3  5  1  0  0  0  0 
  1 17  1  0  0  0  0 
M  END