
          02060813482D 1   1.00000     0.00000     0

 28 30  0     0  0            999 V2000
    3.6069  -19.9041    0.0000 C   0  0  0  0  0  0           0  0  0
    3.6057  -20.7315    0.0000 C   0  0  0  0  0  0           0  0  0
    4.3206  -21.1444    0.0000 C   0  0  0  0  0  0           0  0  0
    5.0370  -20.7310    0.0000 C   0  0  0  0  0  0           0  0  0
    5.0341  -19.9005    0.0000 C   0  0  0  0  0  0           0  0  0
    4.3188  -19.4914    0.0000 C   0  0  0  0  0  0           0  0  0
    5.7471  -19.4853    0.0000 O   0  0  0  0  0  0           0  0  0
    5.7521  -21.1424    0.0000 C   0  0  0  0  0  0           0  0  0
    5.7485  -21.9678    0.0000 C   0  0  0  0  0  0           0  0  0
    6.4628  -22.3791    0.0000 C   0  0  0  0  0  0           0  0  0
    7.1776  -21.9654    0.0000 C   0  0  0  0  0  0           0  0  0
    7.1737  -21.1361    0.0000 C   0  0  0  0  0  0           0  0  0
    6.4588  -20.7285    0.0000 N   0  0  0  0  0  0           0  0  0
    7.8860  -20.7200    0.0000 O   0  0  0  0  0  0           0  0  0
    7.8933  -22.3758    0.0000 C   0  0  0  0  0  0           0  0  0
    8.6042  -22.7875    0.0000 N   0  0  0  0  0  0           0  0  0
    6.4637  -23.2041    0.0000 C   0  0  0  0  0  0           0  0  0
    5.7502  -23.6124    0.0000 C   0  0  0  0  0  0           0  0  0
    5.7508  -24.4366    0.0000 C   0  0  0  0  0  0           0  0  0
    6.4662  -24.8492    0.0000 C   0  0  0  0  0  0           0  0  0
    7.1826  -24.4315    0.0000 C   0  0  0  0  0  0           0  0  0
    7.1786  -23.6086    0.0000 C   0  0  0  0  0  0           0  0  0
    2.8909  -21.1434    0.0000 Cl  0  0  0  0  0  0           0  0  0
    7.8902  -23.1913    0.0000 Cl  0  0  0  0  0  0           0  0  0
    5.0366  -24.8496    0.0000 C   0  0  3  0  0  0           0  0  0
    4.3167  -25.2542    0.0000 F   0  0  0  0  0  0           0  0  0
    5.4451  -25.5663    0.0000 F   0  0  0  0  0  0           0  0  0
    4.6287  -24.1324    0.0000 F   0  0  0  0  0  0           0  0  0
  1  2  2  0     0  0
 12 14  2  0     0  0
  5  7  1  0     0  0
 11 15  1  0     0  0
  3  4  2  0     0  0
 15 16  3  0     0  0
  4  8  1  0     0  0
 10 17  1  0     0  0
 17 18  2  0     0  0
  8  9  2  0     0  0
 18 19  1  0     0  0
  4  5  1  0     0  0
 19 20  2  0     0  0
  9 10  1  0     0  0
 20 21  1  0     0  0
  2  3  1  0     0  0
 21 22  2  0     0  0
 22 17  1  0     0  0
 10 11  2  0     0  0
  2 23  1  0     0  0
  5  6  2  0     0  0
 22 24  1  0     0  0
 11 12  1  0     0  0
 19 25  1  0     0  0
  6  1  1  0     0  0
 25 26  1  0     0  0
 12 13  1  0     0  0
 25 27  1  0     0  0
 13  8  1  0     0  0
 25 28  1  0     0  0
M  END