
  SciTegic01161211252D

 32 35  0  0  0  0            999 V2000
   -1.6566   -0.6863    0.0000 N   0  0
   -0.9949   -0.1930    0.0000 C   0  0
   -1.2595    0.5888    0.0000 C   0  0
   -2.0849    0.5787    0.0000 N   0  0
   -2.3301   -0.2087    0.0000 C   0  0
   -3.0445   -0.6144    0.0000 C   0  0
   -3.7555   -0.1938    0.0000 C   0  0
   -4.4731   -0.5993    0.0000 C   0  0
   -4.4809   -1.4251    0.0000 C   0  0
   -3.7651   -1.8439    0.0000 C   0  0
   -3.0504   -1.4360    0.0000 C   0  0
   -0.8554    1.3085    0.0000 C   0  0
   -0.0304    1.3185    0.0000 N   0  0
   -1.2765    2.0180    0.0000 O   0  0
    0.3734    2.0379    0.0000 N   0  0
   -1.6444   -1.5092    0.0000 C   0  0
   -2.3554   -1.9298    0.0000 C   0  0
   -2.3457   -2.7539    0.0000 C   0  0
   -1.6258   -3.1585    0.0000 C   0  0
   -0.9140   -2.7329    0.0000 C   0  0
   -0.9272   -1.9101    0.0000 C   0  0
   -5.1985   -1.8322    0.0000 Cl  0  0
   -1.6146   -3.9834    0.0000 Cl  0  0
   -3.7473    0.6311    0.0000 Cl  0  0
   -0.2072   -0.4384    0.0000 S   0  0
   -0.0258   -1.2432    0.0000 C   0  0
    1.2210    1.9900    0.0000 C   0  0
    1.7483    2.6005    0.0000 C   0  0
   -0.0999    2.7213    0.0000 C   0  0
    0.1519    3.5050    0.0000 C   0  0
    0.9551    3.8094    0.0000 C   0  0
    1.6342    3.4042    0.0000 C   0  0
  7  8  1  0
  3  4  1  0
 16 17  2  0
  8  9  2  0
 17 18  1  0
  4  5  2  0
 18 19  2  0
  9 10  1  0
 19 20  1  0
  5  1  1  0
 20 21  2  0
 21 16  1  0
  1 16  1  0
 10 11  2  0
  9 22  1  0
 11  6  1  0
 19 23  1  0
  5  6  1  0
  7 24  1  0
  1  2  1  0
  2 25  1  0
  3 12  1  0
 25 26  1  0
 12 13  1  0
  6  7  2  0
 12 14  2  0
  2  3  2  0
 13 15  1  0
 15 27  1  0
 27 28  1  0
 15 29  1  0
 30 31  1  0
 31 32  1  0
 32 28  1  0
 29 30  1  0
M  END