
  SciTegic02271514512D

 28 31  0  0  0  0            999 V2000
    4.4650   -7.0797    0.0000 N   0  0
    2.6439   -8.2464    0.0000 C   0  0
    3.4386   -8.0550    0.0000 N   0  0
    3.6702   -7.2711    0.0000 C   0  0
    3.1071   -6.6785    0.0000 C   0  0
    2.3124   -6.8699    0.0000 C   0  0
    2.0807   -7.6539    0.0000 N   0  0
    3.3387   -5.8945    0.0000 F   0  0
    1.6639  -10.1210    0.0000 C   0  0
    1.6419   -9.3038    0.0000 C   0  0
    0.9232   -8.9143    0.0000 C   0  0
    0.2265   -9.3419    0.0000 C   0  0
    0.2485  -10.1591    0.0000 C   0  0
    0.9671  -10.5486    0.0000 N   0  0
    2.4478  -10.3526    0.0000 N   0  0
    2.4123   -9.0304    0.0000 C   0  0
    2.9104   -9.6786    0.0000 C   0  0
   -0.4983   -8.9524    0.0000 Cl  0  0
    5.0279   -7.6720    0.0000 C   0  0  1  0  0  0
    4.7931   -8.4563    0.0000 C   0  0
    5.3521   -9.0474    0.0000 C   0  0
    6.1479   -8.8601    0.0000 C   0  0
    6.3816   -8.0761    0.0000 C   0  0
    5.8195   -7.4793    0.0000 C   0  0  2  0  0  0
    6.0518   -6.6958    0.0000 N   0  0
    6.8465   -6.5053    0.0000 C   0  0
    7.0788   -5.7218    0.0000 C   0  0
    7.4088   -7.0982    0.0000 O   0  0
  2  3  1  0
  3  4  2  0
  4  5  1  0
  5  6  2  0
  6  7  1  0
  2  7  2  0
  5  8  1  0
  9 10  1  0
 10 11  2  0
 11 12  1  0
 12 13  2  0
 13 14  1  0
  9 14  2  0
 16 17  2  0
 15 17  1  0
  9 15  1  0
 10 16  1  0
 12 18  1  0
  2 16  1  0
  1  4  1  0
 19  1  1  6
 19 20  1  0
 19 24  1  0
 20 21  1  0
 21 22  1  0
 22 23  1  0
 23 24  1  0
 24 25  1  1
 25 26  1  0
 26 27  1  0
 26 28  2  0
M  END