
  SciTegic11201309402D

 90 95  0  0  1  0            999 V2000
   13.0667   -4.2542    0.0000 N   0  0
   13.8542   -2.9375    0.0000 C   0  0
    6.3292   -4.7625    0.0000 C   0  0
    4.8375   -4.7625    0.0000 N   0  0
    4.0875   -4.3292    0.0000 C   0  0
    1.8375   -4.7625    0.0000 C   0  0
   13.8000   -3.8000    0.0000 C   0  0  1  0  0  0
   12.4792   -1.1042    0.0000 C   0  0
    7.0792   -4.3292    0.0000 N   0  0
   -0.4250   -6.9542    0.0000 C   0  0
    2.5875   -4.3292    0.0000 N   0  0
    5.5875   -4.3292    0.0000 C   0  0  1  0  0  0
   13.1417   -2.4500    0.0000 N   0  0
   12.5417   -0.2417    0.0000 N   0  0
    7.8292   -4.7625    0.0000 C   0  0  1  0  0  0
   12.3292   -4.7042    0.0000 C   0  0
    7.8292   -5.6292    0.0000 C   0  0
    3.3375   -4.7625    0.0000 C   0  0  1  0  0  0
    1.0917   -4.3292    0.0000 C   0  0  2  0  0  0
    8.0542    0.0625    0.0000 C   0  0
   15.6500    1.2833    0.0000 C   0  0
    0.3417   -5.6292    0.0000 C   0  0
    8.5792   -4.3292    0.0000 C   0  0
    0.3417   -4.7625    0.0000 N   0  0
   11.8792    1.1000    0.0000 C   0  0
    8.5792   -6.0625    0.0000 C   0  0
   13.2000   -1.5875    0.0000 C   0  0  1  0  0  0
   11.8167    0.2375    0.0000 C   0  0  2  0  0  0
   15.7042    2.1458    0.0000 N   0  0
    7.3375    0.5458    0.0000 N   0  0
   -1.1458   -8.0042    0.0000 C   0  0  2  0  0  0
   -0.9833   -8.4750    0.0000 C   0  0  2  0  0  0
    0.3167   -8.0875    0.0000 C   0  0  1  0  0  0
   14.6375   -2.5542    0.0000 O   0  0
    6.3292   -5.6292    0.0000 O   0  0
   -0.4250   -6.0667    0.0000 C   0  0
    4.0875   -3.4667    0.0000 O   0  0
    1.8375   -5.6292    0.0000 O   0  0
   11.7042   -1.4875    0.0000 O   0  0
    0.3292   -7.2625    0.0000 C   0  0
   -0.9833   -7.6167    0.0000 C   0  0
   -1.1500   -7.2125    0.0000 C   0  0
    1.0917   -3.4667    0.0000 C   0  0
    3.3375   -5.6292    0.0000 C   0  0
   12.3417   -5.5667    0.0000 O   0  0
    8.5792   -3.4667    0.0000 O   0  0
   12.6542    1.4833    0.0000 O   0  0
    1.0917   -6.0625    0.0000 O   0  0
    8.5792   -6.9250    0.0000 O   0  0
   -0.2250   -8.7750    0.0000 C   0  0
   -1.7958   -8.7000    0.0000 C   0  0
   -0.4333   -8.2750    0.0000 C   0  0
   14.8667    0.8958    0.0000 N   0  0
    8.8292    0.4458    0.0000 N   0  0
    9.3292   -4.7625    0.0000 N   0  0
   16.3667    0.7958    0.0000 N   0  0
    8.0000   -0.8000    0.0000 N   0  0
   11.1625    1.5833    0.0000 N   0  0
    5.5875   -3.4667    0.0000 C   0  0
    9.3292   -5.6292    0.0000 N   0  0
    1.8375   -3.0292    0.0000 C   0  0
   13.2792   -5.0917    0.0000 C   0  0
    3.3375   -2.1667    0.0000 C   0  0
    4.0875   -6.0625    0.0000 C   0  0
    2.5875   -3.4667    0.0000 C   0  0
    1.8375   -2.1667    0.0000 C   0  0
    3.3375   -3.0292    0.0000 C   0  0
    2.5875   -1.7375    0.0000 C   0  0
   14.4667   -4.3542    0.0000 C   0  0
    4.0875   -1.7375    0.0000 O   0  0
   11.5667   -4.2875    0.0000 C   0  0
   14.1417   -5.1542    0.0000 C   0  0
   13.9792   -1.2125    0.0000 C   0  0
   11.0417   -0.1417    0.0000 C   0  0
   14.8125    0.0333    0.0000 C   0  0
    9.5500   -0.0417    0.0000 C   0  0
   10.0667   -4.3167    0.0000 C   0  0
    6.3292   -3.0292    0.0000 C   0  0
    4.8375   -3.0292    0.0000 C   0  0
    4.8375   -5.6292    0.0000 C   0  0
    4.0875   -6.9250    0.0000 C   0  0
   10.8292   -4.7375    0.0000 C   0  0
   14.0375   -0.3417    0.0000 C   0  0
   10.3292    0.3375    0.0000 C   0  0
    5.5875   -6.0625    0.0000 C   0  0
    4.8375   -7.3542    0.0000 C   0  0
    5.5875   -6.9250    0.0000 C   0  0
   -1.9083   -7.7042    0.0000 H   0  0
    1.1042   -8.3667    0.0000 H   0  0
   -1.0250   -9.3000    0.0000 H   0  0
  7  2  1  1
  3  9  1  0
 12  4  1  1
  5  4  1  0
  6 11  1  0
  7  1  1  0
  8 27  1  0
 15  9  1  6
 10 36  1  0
 18 11  1  6
 12  3  1  0
 13  2  1  0
 14  8  1  0
 15 23  1  0
 16  1  1  0
 15 17  1  0
 18  5  1  0
 19  6  1  0
 20 54  2  0
 21 53  2  0
 22 24  1  0
 23 55  1  0
 19 24  1  6
 25 28  1  0
 26 17  1  0
 27 13  1  6
 28 14  1  1
 29 21  1  0
 30 20  1  0
 31 42  1  0
 32 41  1  0
 33 40  1  0
 34  2  2  0
 35  3  2  0
 36 22  1  0
 37  5  2  0
 38  6  2  0
 39  8  2  0
 40 10  1  0
 41 10  1  0
 42 10  1  0
 19 43  1  0
 18 44  1  0
 45 16  2  0
 46 23  2  0
 47 25  2  0
 48 22  2  0
 49 26  2  0
 50 32  1  0
 51 31  1  0
 52 31  1  0
 53 75  1  0
 54 76  1  0
 55 77  1  0
 56 21  1  0
 57 20  1  0
 58 25  1  0
 12 59  1  0
 60 26  1  0
 61 43  1  0
 62  1  1  0
 63 68  1  0
 64 44  1  0
 65 61  2  0
 66 61  1  0
 67 65  1  0
 68 66  2  0
  7 69  1  0
 70 63  1  0
 71 16  1  0
 72 62  1  0
 27 73  1  0
 28 74  1  0
 75 83  1  0
 76 84  1  0
 77 82  1  0
 78 59  1  0
 79 59  1  0
 80 64  1  0
 81 64  2  0
 82 71  1  0
 83 73  1  0
 84 74  1  0
 85 80  2  0
 86 81  1  0
 87 86  2  0
 31 88  1  6
 33 89  1  6
 32 90  1  1
 72 69  1  0
 85 87  1  0
 63 67  2  0
 52 33  1  0
 51 32  1  0
 33 50  1  0
M  END