
  Mrv0541 05211314572D          

 24 24  0  0  0  0            999 V2000
   -2.2456    0.8351    0.0000 C   0  0  0  0  0  0  0  0  0  0  0  0
   -1.7606    0.1677    0.0000 N   0  0  0  0  0  0  0  0  0  0  0  0
   -2.0962   -0.5860    0.0000 C   0  0  0  0  0  0  0  0  0  0  0  0
   -2.9167   -0.6723    0.0000 C   0  0  0  0  0  0  0  0  0  0  0  0
   -3.4016   -0.0048    0.0000 N   0  0  0  0  0  0  0  0  0  0  0  0
   -3.0660    0.7489    0.0000 C   0  0  0  0  0  0  0  0  0  0  0  0
   -0.9402    0.2539    0.0000 C   0  0  0  0  0  0  0  0  0  0  0  0
   -0.3881   -0.3592    0.0000 S   0  0  0  0  0  0  0  0  0  0  0  0
    0.3656   -0.0236    0.0000 C   0  0  0  0  0  0  0  0  0  0  0  0
    0.2793    0.7968    0.0000 C   0  0  0  0  0  0  0  0  0  0  0  0
   -0.5277    0.9684    0.0000 N   0  0  0  0  0  0  0  0  0  0  0  0
    1.0800   -0.4361    0.0000 C   0  0  0  0  0  0  0  0  0  0  0  0
    1.7945   -0.0236    0.0000 C   0  0  0  0  0  0  0  0  0  0  0  0
    2.5090   -0.4361    0.0000 N   0  0  0  0  0  0  0  0  0  0  0  0
   -4.2221   -0.0910    0.0000 C   0  0  0  0  0  0  0  0  0  0  0  0
   -4.7070    0.5764    0.0000 C   0  0  0  0  0  0  0  0  0  0  0  0
   -5.5275    0.4902    0.0000 C   0  0  0  0  0  0  0  0  0  0  0  0
    2.5090   -1.2611    0.0000 C   0  0  0  0  0  0  0  0  0  0  0  0
    3.2234   -0.0236    0.0000 C   0  0  0  0  0  0  0  0  0  0  0  0
    3.9379   -0.4361    0.0000 C   0  0  0  0  0  0  0  0  0  0  0  0
    4.6524   -0.0236    0.0000 C   0  0  0  0  0  0  0  0  0  0  0  0
    8.3206    0.0000    0.0000 Br  0  0  0  0  0  0  0  0  0  0  0  0
    5.3668   -0.4361    0.0000 C   0  0  0  0  0  0  0  0  0  0  0  0
    6.0813   -0.0236    0.0000 C   0  0  0  0  0  0  0  0  0  0  0  0
 10 11  1  0  0  0  0
 11  7  2  0  0  0  0
  4  5  1  0  0  0  0
  9 12  1  0  0  0  0
  5  6  1  0  0  0  0
 12 13  1  0  0  0  0
 13 14  1  0  0  0  0
  2  7  1  0  0  0  0
  5 15  1  0  0  0  0
  7  8  1  0  0  0  0
 15 16  1  0  0  0  0
  1  2  1  0  0  0  0
 16 17  1  0  0  0  0
  1  6  1  0  0  0  0
 14 18  1  0  0  0  0
  2  3  1  0  0  0  0
 14 19  1  0  0  0  0
  3  4  1  0  0  0  0
 19 20  1  0  0  0  0
  8  9  1  0  0  0  0
 20 21  1  0  0  0  0
  9 10  2  0  0  0  0
 21 23  1  0  0  0  0
 23 24  1  0  0  0  0
M  END