
  Mrv0541 09091310062D          

 41 43  0  0  0  0            999 V2000
   -1.9979    0.6207    0.0000 C   0  0  0  0  0  0  0  0  0  0  0  0
   -1.2834    0.2082    0.0000 C   0  0  0  0  0  0  0  0  0  0  0  0
   -1.2834   -0.6168    0.0000 C   0  0  0  0  0  0  0  0  0  0  0  0
   -0.5689    0.6207    0.0000 C   0  0  0  0  0  0  0  0  0  0  0  0
   -1.9979   -1.0293    0.0000 O   0  0  0  0  0  0  0  0  0  0  0  0
   -0.5689   -1.0293    0.0000 N   0  0  0  0  0  0  0  0  0  0  0  0
   -0.5689   -1.8543    0.0000 C   0  0  1  0  0  0  0  0  0  0  0  0
   -1.2834   -2.2668    0.0000 C   0  0  0  0  0  0  0  0  0  0  0  0
    0.1456   -2.2668    0.0000 C   0  0  0  0  0  0  0  0  0  0  0  0
   -1.9979   -1.8543    0.0000 N   0  0  0  0  0  0  0  0  0  0  0  0
   -1.2834   -3.0918    0.0000 O   0  0  0  0  0  0  0  0  0  0  0  0
   -2.7123   -2.2668    0.0000 C   0  0  0  0  0  0  0  0  0  0  0  0
   -3.4268   -1.8543    0.0000 C   0  0  0  0  0  0  0  0  0  0  0  0
   -4.1413   -2.2668    0.0000 C   0  0  0  0  0  0  0  0  0  0  0  0
   -4.8557   -1.8543    0.0000 C   0  0  0  0  0  0  0  0  0  0  0  0
   -4.8557   -1.0293    0.0000 C   0  0  0  0  0  0  0  0  0  0  0  0
   -4.1413   -0.6168    0.0000 C   0  0  0  0  0  0  0  0  0  0  0  0
   -3.4268   -1.0293    0.0000 C   0  0  0  0  0  0  0  0  0  0  0  0
   -5.5702   -0.6168    0.0000 O   0  0  0  0  0  0  0  0  0  0  0  0
    0.1456    0.2082    0.0000 C   0  0  0  0  0  0  0  0  0  0  0  0
    0.8600    0.6207    0.0000 C   0  0  0  0  0  0  0  0  0  0  0  0
    0.8600    1.4457    0.0000 C   0  0  0  0  0  0  0  0  0  0  0  0
    0.1456    1.8582    0.0000 C   0  0  0  0  0  0  0  0  0  0  0  0
   -0.5689    1.4457    0.0000 C   0  0  0  0  0  0  0  0  0  0  0  0
   -2.7123    0.2082    0.0000 C   0  0  0  0  0  0  0  0  0  0  0  0
   -3.4268    0.6207    0.0000 C   0  0  0  0  0  0  0  0  0  0  0  0
   -3.4268    1.4457    0.0000 C   0  0  0  0  0  0  0  0  0  0  0  0
   -2.7123    1.8582    0.0000 C   0  0  0  0  0  0  0  0  0  0  0  0
   -1.9979    1.4457    0.0000 C   0  0  0  0  0  0  0  0  0  0  0  0
    0.8600   -1.8543    0.0000 C   0  0  0  0  0  0  0  0  0  0  0  0
    1.5745   -2.2668    0.0000 C   0  0  0  0  0  0  0  0  0  0  0  0
    2.2890   -1.8543    0.0000 N   0  0  0  0  0  0  0  0  0  0  0  0
    3.0034   -2.2668    0.0000 C   0  0  0  0  0  0  0  0  0  0  0  0
    3.7179   -1.8543    0.0000 N   0  0  0  0  0  0  0  0  0  0  0  0
    3.0034   -3.0918    0.0000 N   0  0  0  0  0  0  0  0  0  0  0  0
    3.7179   -1.0293    0.0000 C   0  0  0  0  0  0  0  0  0  0  0  0
    4.4324   -0.6168    0.0000 C   0  0  0  0  0  0  0  0  0  0  0  0
    3.0034   -0.6168    0.0000 O   0  0  0  0  0  0  0  0  0  0  0  0
    5.1469   -1.0293    0.0000 C   0  0  0  0  0  0  0  0  0  0  0  0
    4.4324    0.2082    0.0000 H   0  0  0  0  0  0  0  0  0  0  0  0
    5.1469   -1.8543    0.0000 H   0  0  0  0  0  0  0  0  0  0  0  0
 21 22  2  0  0  0  0
  3  6  1  0  0  0  0
 22 23  1  0  0  0  0
 10 12  1  0  0  0  0
 23 24  2  0  0  0  0
 24  4  1  0  0  0  0
  1  2  1  0  0  0  0
  1 25  2  0  0  0  0
 12 13  1  0  0  0  0
 25 26  1  0  0  0  0
  6  7  1  0  0  0  0
 26 27  2  0  0  0  0
 13 14  2  0  0  0  0
 27 28  1  0  0  0  0
  2  4  1  0  0  0  0
 28 29  2  0  0  0  0
 29  1  1  0  0  0  0
 14 15  1  0  0  0  0
  9 30  1  0  0  0  0
  7  8  1  0  0  0  0
 30 31  1  0  0  0  0
 15 16  2  0  0  0  0
 31 32  1  0  0  0  0
 32 33  1  0  0  0  0
 16 17  1  0  0  0  0
 33 34  2  0  0  0  0
  7  9  1  6  0  0  0
 33 35  1  0  0  0  0
 17 18  2  0  0  0  0
 34 36  1  0  0  0  0
 18 13  1  0  0  0  0
 36 37  1  0  0  0  0
  3  5  2  0  0  0  0
 36 38  2  0  0  0  0
 16 19  1  0  0  0  0
 37 39  1  0  0  0  0
  8 10  1  0  0  0  0
  4 20  2  0  0  0  0
 37 40  1  0  0  0  0
  2  3  1  0  0  0  0
 20 21  1  0  0  0  0
  8 11  2  0  0  0  0
 39 41  1  0  0  0  0
M  ISO  2  40   3  41   3
M  END