
  SciTegic11081110012D

  8  8  0  0  0  0            999 V2000
   -4.5299  -11.8548    0.0000 C   0  0
   -3.8553  -12.3276    0.0000 N   0  0
   -3.1942  -11.8240    0.0000 C   0  0  2  0  0  0
   -3.4662  -11.0555    0.0000 C   0  0
   -4.2889  -11.0655    0.0000 C   0  0
   -2.4036  -12.0597    0.0000 C   0  0
   -2.2124  -12.8623    0.0000 N   0  0
   -1.8041  -11.4929    0.0000 N   0  0
  3  4  1  0
  4  5  1  0
  5  1  1  0
  1  2  1  0
  3  6  1  6
  6  7  2  0
  2  3  1  0
  6  8  1  0
M  END