
  SciTegic11201309402D

 94 99  0  0  1  0            999 V2000
    7.6657   -6.5200    0.0000 N   0  0
    6.9616   -6.9456    0.0000 C   0  0
    9.0500   -5.5533    0.0000 C   0  0
    2.6653   -6.9735    0.0000 C   0  0
    1.2411   -6.9735    0.0000 N   0  0
    0.5251   -6.5637    0.0000 C   0  0
    8.3658   -6.0784    0.0000 C   0  0  1  0  0  0
    4.8134   -6.5637    0.0000 C   0  0
   -1.6230   -6.9735    0.0000 C   0  0
    9.6944   -3.4887    0.0000 C   0  0
    3.3813   -6.5637    0.0000 N   0  0
   -3.7791   -9.0619    0.0000 C   0  0
   -0.9070   -6.5637    0.0000 N   0  0
    1.9572   -6.5637    0.0000 C   0  0  1  0  0  0
    5.5295   -6.9735    0.0000 N   0  0
    8.8829   -4.6662    0.0000 N   0  0
    4.0974   -6.9735    0.0000 C   0  0  1  0  0  0
   10.4463   -3.1387    0.0000 N   0  0
    4.0974   -7.7969    0.0000 C   0  0
   -0.1909   -6.9735    0.0000 C   0  0  1  0  0  0
    6.2336   -6.5439    0.0000 C   0  0  1  0  0  0
   -2.3351   -6.5637    0.0000 C   0  0  2  0  0  0
    8.6084    0.7399    0.0000 C   0  0
   13.1553   -5.0242    0.0000 C   0  0
    4.8134   -3.4251    0.0000 C   0  0
   -3.0511   -7.7969    0.0000 C   0  0
   -3.0511   -6.9735    0.0000 N   0  0
   11.2578   -1.9612    0.0000 C   0  0
    3.8905   -8.5607    0.0000 C   0  0
    9.6228   -4.3122    0.0000 C   0  0  1  0  0  0
   10.5060   -2.3152    0.0000 C   0  0  2  0  0  0
    8.6801    1.5593    0.0000 N   0  0
   13.9072   -4.6702    0.0000 N   0  0
    4.1213   -3.0472    0.0000 N   0  0
   -4.3161  -10.5179    0.0000 C   0  0
   -3.0670  -10.1479    0.0000 C   0  0
   -4.4713  -10.0723    0.0000 C   0  0
    6.9735   -7.7731    0.0000 O   0  0
    9.8257   -5.8835    0.0000 O   0  0
    2.6653   -7.7969    0.0000 O   0  0
   -3.7791   -8.2225    0.0000 C   0  0
    0.5251   -5.7323    0.0000 O   0  0
    4.8134   -5.7323    0.0000 O   0  0
   -1.6230   -7.7969    0.0000 O   0  0
    9.0142   -3.0193    0.0000 O   0  0
   -3.0630   -9.3603    0.0000 C   0  0
   -4.3161   -9.6944    0.0000 C   0  0
   -4.4713   -9.3126    0.0000 C   0  0
   -2.3351   -5.7323    0.0000 C   0  0
   -0.1909   -7.7969    0.0000 C   0  0
   11.9380   -2.4345    0.0000 O   0  0
   -2.3351   -8.2146    0.0000 O   0  0
    3.1307   -8.7517    0.0000 O   0  0
   -5.0918  -10.7327    0.0000 C   0  0
   -3.7831  -10.3269    0.0000 C   0  0
   -3.5881  -10.8043    0.0000 C   0  0
    4.8254   -4.2127    0.0000 N   0  0
   12.4751   -4.5509    0.0000 N   0  0
    9.2887    0.2705    0.0000 N   0  0
    7.8685    0.3898    0.0000 N   0  0
   13.0837   -5.8477    0.0000 N   0  0
    5.4817   -3.0193    0.0000 N   0  0
   11.3294   -1.1377    0.0000 N   0  0
    7.8685   -7.3196    0.0000 C   0  0
    1.9572   -5.7323    0.0000 C   0  0
    4.4435   -9.1216    0.0000 N   0  0
   -1.6230   -5.3226    0.0000 C   0  0
   -0.1909   -4.4991    0.0000 C   0  0
    0.5251   -8.2146    0.0000 C   0  0
   -0.9070   -5.7323    0.0000 C   0  0
   -1.6230   -4.4991    0.0000 C   0  0
   -0.1909   -5.3226    0.0000 C   0  0
   -0.9070   -4.0854    0.0000 C   0  0
    9.0023   -6.6115    0.0000 C   0  0
    0.5251   -4.0854    0.0000 O   0  0
    8.6920   -7.3752    0.0000 C   0  0
    6.2216   -5.7562    0.0000 C   0  0
   10.3031   -4.7855    0.0000 C   0  0
    9.8336   -1.8419    0.0000 C   0  0
    9.2250   -0.5490    0.0000 C   0  0
    5.5175   -4.5946    0.0000 C   0  0
   11.7312   -4.9049    0.0000 C   0  0
    2.6653   -5.3226    0.0000 C   0  0
    1.2411   -5.3226    0.0000 C   0  0
    0.5251   -3.2580    0.0000 C   0  0
    0.5251   -9.0381    0.0000 C   0  0
    1.2411   -7.7969    0.0000 C   0  0
    5.5295   -5.3822    0.0000 C   0  0
   11.0509   -4.4315    0.0000 C   0  0
    9.8973   -1.0184    0.0000 C   0  0
    1.2411   -2.8443    0.0000 C   0  0
    1.9572   -8.2146    0.0000 C   0  0
    1.2411   -9.4518    0.0000 C   0  0
    1.9572   -9.0381    0.0000 C   0  0
  2  1  1  0
  7  3  1  1
  4 11  1  0
 14  5  1  1
  6  5  1  0
  7  1  1  0
  8 15  1  0
  9 13  1  0
 10 30  1  0
 17 11  1  6
 12 41  1  0
 20 13  1  6
 14  4  1  0
 21 15  1  1
 16  3  1  0
 17  8  1  0
 18 10  1  0
 17 19  1  0
 20  6  1  0
 21  2  1  0
 22  9  1  0
 23 59  2  0
 24 58  2  0
 25 57  2  0
 26 27  1  0
 22 27  1  6
 28 31  1  0
 29 19  1  0
 30 16  1  6
 31 18  1  1
 32 23  1  0
 33 24  1  0
 34 25  1  0
 35 47  1  0
 36 46  1  0
 37 48  1  0
 38  2  2  0
 39  3  2  0
 40  4  2  0
 41 26  1  0
 42  6  2  0
 43  8  2  0
 44  9  2  0
 45 10  2  0
 46 12  1  0
 47 12  1  0
 48 12  1  0
 22 49  1  0
 20 50  1  0
 51 28  2  0
 52 26  2  0
 53 29  2  0
 37 54  1  0
 37 55  1  0
 56 35  1  0
 57 81  1  0
 58 82  1  0
 59 80  1  0
 60 23  1  0
 61 24  1  0
 62 25  1  0
 63 28  1  0
 64  1  1  0
 14 65  1  0
 66 29  1  0
 67 49  1  0
 68 73  1  0
 69 50  1  0
 70 67  2  0
 71 67  1  0
 72 70  1  0
 73 71  2  0
  7 74  1  0
 75 68  1  0
 76 64  1  0
 21 77  1  0
 30 78  1  0
 31 79  1  0
 80 90  1  0
 81 88  1  0
 82 89  1  0
 83 65  1  0
 84 65  1  0
 85 75  1  0
 86 69  2  0
 87 69  1  0
 88 77  1  0
 89 78  1  0
 90 79  1  0
 91 85  1  0
 92 87  2  0
 93 86  1  0
 94 92  1  0
 76 74  1  0
 94 93  2  0
 68 72  2  0
 36 55  1  0
 54 35  1  0
 36 56  1  0
M  END