
  Mrv0541 04051115152D          

 30 33  0  0  0  0            999 V2000
    0.5251    2.1163    0.0000 C   0  0  0  0  0  0  0  0  0  0  0  0
   -0.1893    1.7038    0.0000 C   0  0  0  0  0  0  0  0  0  0  0  0
   -0.9038    2.1163    0.0000 C   0  0  0  0  0  0  0  0  0  0  0  0
   -0.9038    2.9413    0.0000 C   0  0  0  0  0  0  0  0  0  0  0  0
   -0.1893    3.3538    0.0000 C   0  0  0  0  0  0  0  0  0  0  0  0
    0.5251    2.9413    0.0000 C   0  0  0  0  0  0  0  0  0  0  0  0
    1.2396    3.3538    0.0000 C   0  0  0  0  0  0  0  0  0  0  0  0
    1.9541    2.9413    0.0000 C   0  0  0  0  0  0  0  0  0  0  0  0
    1.9541    2.1163    0.0000 C   0  0  0  0  0  0  0  0  0  0  0  0
    1.2396    1.7038    0.0000 C   0  0  0  0  0  0  0  0  0  0  0  0
    1.2396    0.8788    0.0000 N   0  0  0  0  0  0  0  0  0  0  0  0
    0.5251    0.4663    0.0000 C   0  0  0  0  0  0  0  0  0  0  0  0
   -0.1893    0.8788    0.0000 O   0  0  0  0  0  0  0  0  0  0  0  0
    0.5251   -0.3587    0.0000 N   0  0  0  0  0  0  0  0  0  0  0  0
   -0.1893   -0.7712    0.0000 C   0  0  0  0  0  0  0  0  0  0  0  0
   -0.9430   -0.4356    0.0000 C   0  0  0  0  0  0  0  0  0  0  0  0
   -1.4950   -1.0487    0.0000 C   0  0  0  0  0  0  0  0  0  0  0  0
   -2.3155   -0.9625    0.0000 C   0  0  0  0  0  0  0  0  0  0  0  0
   -2.4018   -1.7830    0.0000 C   0  0  0  0  0  0  0  0  0  0  0  0
   -3.1360   -0.8762    0.0000 C   0  0  0  0  0  0  0  0  0  0  0  0
   -2.2293   -0.1420    0.0000 C   0  0  0  0  0  0  0  0  0  0  0  0
   -1.0825   -1.7632    0.0000 N   0  0  0  0  0  0  0  0  0  0  0  0
   -0.2756   -1.5917    0.0000 N   0  0  0  0  0  0  0  0  0  0  0  0
    0.3375   -2.1437    0.0000 C   0  0  0  0  0  0  0  0  0  0  0  0
    1.1221   -1.8888    0.0000 C   0  0  0  0  0  0  0  0  0  0  0  0
    0.1660   -2.9507    0.0000 C   0  0  0  0  0  0  0  0  0  0  0  0
    0.7791   -3.5027    0.0000 C   0  0  0  0  0  0  0  0  0  0  0  0
    1.5637   -3.2478    0.0000 C   0  0  0  0  0  0  0  0  0  0  0  0
    1.7352   -2.4408    0.0000 C   0  0  0  0  0  0  0  0  0  0  0  0
    2.5199   -2.1858    0.0000 N   0  0  0  0  0  0  0  0  0  0  0  0
 10  1  2  0  0  0  0
  6  1  1  0  0  0  0
  2  1  1  0  0  0  0
  3  2  2  0  0  0  0
  4  3  1  0  0  0  0
  4  5  2  0  0  0  0
  5  6  1  0  0  0  0
  7  6  2  0  0  0  0
  8  7  1  0  0  0  0
  8  9  2  0  0  0  0
  9 10  1  0  0  0  0
 10 11  1  0  0  0  0
 12 11  1  0  0  0  0
 12 13  2  0  0  0  0
 12 14  1  0  0  0  0
 15 14  1  0  0  0  0
 16 15  2  0  0  0  0
 15 23  1  0  0  0  0
 16 17  1  0  0  0  0
 17 18  1  0  0  0  0
 17 22  2  0  0  0  0
 20 18  1  0  0  0  0
 19 18  1  0  0  0  0
 21 18  1  0  0  0  0
 22 23  1  0  0  0  0
 24 23  1  0  0  0  0
 26 24  2  0  0  0  0
 25 24  1  0  0  0  0
 25 29  2  0  0  0  0
 27 26  1  0  0  0  0
 27 28  2  0  0  0  0
 28 29  1  0  0  0  0
 29 30  1  0  0  0  0
M  END