
  SciTegic10021217542D

 58 62  0  0  0  0            999 V2000
    3.0359   -5.3065    0.0000 N   0  0
    1.9754   -4.3084    0.0000 C   0  0
    3.4808   -2.8071    0.0000 C   0  0
    2.2499   -5.0820    0.0000 C   0  0  2  0  0  0
    5.6434   -3.0234    0.0000 C   0  0
    2.6948   -3.9092    0.0000 N   0  0
    4.2211   -3.1565    0.0000 N   0  0
    4.8948   -2.6824    0.0000 C   0  0  1  0  0  0
    3.8593   -5.3065    0.0000 C   0  0
    2.6948   -3.0858    0.0000 C   0  0  1  0  0  0
    6.6664   -0.6612    0.0000 N   0  0
    9.5858   -3.5599    0.0000 C   0  0
    6.3171   -2.5493    0.0000 N   0  0
    5.4770   -1.2643    0.0000 C   0  0
    4.8948   -1.8507    0.0000 C   0  0
    5.3440   -0.4533    0.0000 N   0  0
   10.4093   -3.5599    0.0000 N   0  0
    6.0801   -0.0790    0.0000 C   0  0
    9.3114   -2.7739    0.0000 C   0  0  1  0  0  0
    8.4879   -2.7697    0.0000 N   0  0
    6.2921   -1.3973    0.0000 C   0  0
    1.1478   -4.1463    0.0000 O   0  0
    3.4850   -2.0586    0.0000 O   0  0
    5.7182   -3.8468    0.0000 O   0  0
    2.0627   -2.5451    0.0000 C   0  0
    4.2710   -4.5954    0.0000 O   0  0
    9.7355   -4.0464    0.0000 O   0  0
    9.8478   -2.1376    0.0000 C   0  0
    7.0657   -2.8986    0.0000 C   0  0  2  0  0  0
    7.7394   -2.4246    0.0000 C   0  0
    3.0608   -6.1300    0.0000 C   0  0
    7.1405   -3.7179    0.0000 C   0  0
   10.8210   -2.8446    0.0000 C   0  0
    2.2125   -1.7342    0.0000 C   0  0
    9.4361   -1.4223    0.0000 C   0  0
    7.8891   -4.0589    0.0000 C   0  0
    1.7841   -5.7640    0.0000 C   0  0
    4.2710   -6.0177    0.0000 C   0  0
    2.2748   -6.3920    0.0000 C   0  0
   11.6444   -2.8446    0.0000 C   0  0
    2.9860   -1.4639    0.0000 C   0  0
    1.5887   -1.2019    0.0000 C   0  0
    8.6002   -1.4223    0.0000 C   0  0
    9.8478   -0.7029    0.0000 C   0  0
    7.9597   -4.8823    0.0000 C   0  0
    8.5503   -3.5848    0.0000 C   0  0
   12.0519   -2.1251    0.0000 C   0  0
   12.0561   -3.5557    0.0000 C   0  0
   12.8753   -2.1251    0.0000 C   0  0
    3.1440   -0.6529    0.0000 C   0  0
    1.7384   -0.3992    0.0000 C   0  0
    8.1885   -0.7029    0.0000 C   0  0
    9.4361    0.0208    0.0000 C   0  0
    8.7000   -5.2275    0.0000 C   0  0
    9.2989   -3.9300    0.0000 C   0  0
    2.5119   -0.1165    0.0000 C   0  0
    9.3737   -4.7534    0.0000 C   0  0
    8.6002    0.0208    0.0000 C   0  0
  4  2  1  1
  3 10  1  0
  4  1  1  0
  5  8  1  0
  6  2  1  0
  7  3  1  0
  8  7  1  0
  9  1  1  0
 10  6  1  0
 11 21  1  0
 12 19  1  0
 13  5  1  0
 14 15  1  0
  8 15  1  1
 16 14  1  0
 17 12  1  0
 18 16  2  0
 19 20  1  0
 20 30  1  0
 21 14  2  0
 22  2  2  0
 23  3  2  0
 24  5  2  0
 10 25  1  1
 26  9  2  0
 27 12  2  0
 19 28  1  1
 29 13  1  0
 30 29  1  0
 31  1  1  0
 29 32  1  6
 33 17  1  0
 34 25  1  0
 35 28  1  0
 36 32  1  0
 37  4  1  0
 38  9  1  0
 39 31  1  0
 40 33  1  0
 41 34  2  0
 42 34  1  0
 43 35  1  0
 44 35  2  0
 45 36  2  0
 46 36  1  0
 47 40  1  0
 48 40  1  0
 49 47  1  0
 50 41  1  0
 51 42  2  0
 52 43  2  0
 53 44  1  0
 54 45  1  0
 55 46  2  0
 56 51  1  0
 57 55  1  0
 58 53  2  0
 39 37  1  0
 56 50  2  0
 18 11  1  0
 57 54  2  0
 58 52  1  0
M  END