
  SciTegic04191613082D

177186  0  0  1  0            999 V2000
   21.3708   -2.3294    0.0000 C   0  0
   20.2058   -2.0419    0.0000 C   0  0
   19.8726   -0.8891    0.0000 C   0  0
   19.1569   -3.1320    0.0000 C   0  0  1  0  0  0
   20.1363   -4.2682    0.0000 N   0  0
   20.8828   -5.5693    0.0000 C   0  0
   21.3697   -6.9880    0.0000 C   0  0
   19.6777   -7.2586    0.0000 C   0  0
   18.9868   -8.5900    0.0000 C   0  0
   19.7945   -9.8540    0.0000 C   0  0
   21.5040   -9.9714    0.0000 C   0  0
   21.1465  -11.4282    0.0000 C   0  0
   20.5198  -12.7910    0.0000 N   0  0
   19.6465  -14.0106    0.0000 C   0  0
   18.5582  -15.0429    0.0000 C   0  0  1  0  0  0
   17.9619  -16.9189    0.0000 C   0  0
   16.7180  -17.7571    0.0000 N   0  0
   15.3308  -18.3278    0.0000 C   0  0  1  0  0  0
   15.7646  -19.7769    0.0000 C   0  0
   17.2248  -20.1239    0.0000 C   0  0
   17.6571  -21.5603    0.0000 C   0  0
   19.1171  -21.9041    0.0000 C   0  0
   20.1450  -20.8116    0.0000 C   0  0
   19.7127  -19.3752    0.0000 C   0  0
   18.2527  -19.0314    0.0000 C   0  0
   13.8571  -18.6076    0.0000 C   0  0
   12.3573  -18.5850    0.0000 N   0  0
   10.8927  -18.2610    0.0000 C   0  0  2  0  0  0
    9.5233  -17.6487    0.0000 C   0  0
    8.9252  -18.6890    0.0000 O   0  0
    8.3052  -16.7734    0.0000 N   0  0
    7.2883  -15.6707    0.0000 C   0  0  1  0  0  0
    6.0801  -16.5808    0.0000 C   0  0
    6.2618  -18.0706    0.0000 C   0  0
    5.0631  -18.9736    0.0000 C   0  0
    5.2448  -20.4634    0.0000 N   0  0
    4.0460  -21.3664    0.0000 C   0  0
    4.1913  -22.5576    0.0000 N   0  0
    2.9416  -20.8970    0.0000 N   0  0
    6.5141  -14.3860    0.0000 C   0  0
    5.4289  -14.8981    0.0000 O   0  0
    6.0144  -12.9716    0.0000 N   0  0
    5.8096  -11.4857    0.0000 C   0  0  2  0  0  0
    5.9082   -9.9889    0.0000 C   0  0
    4.7249   -9.7894    0.0000 O   0  0
    6.3060   -8.5426    0.0000 N   0  0
    6.9868   -7.2060    0.0000 C   0  0  1  0  0  0
    5.7138   -6.3892    0.0000 C   0  0
    4.3798   -7.0770    0.0000 C   0  0
    3.1167   -6.2664    0.0000 C   0  0
    1.7828   -6.9543    0.0000 N   0  0
    0.5196   -6.1437    0.0000 C   0  0
   -0.5470   -6.6937    0.0000 N   0  0
    0.5762   -4.9451    0.0000 N   0  0
    7.9227   -6.0338    0.0000 C   0  0
    9.0754   -5.0740    0.0000 N   0  0
   10.3978   -4.3659    0.0000 C   0  0  1  0  0  0
    9.8196   -2.9682    0.0000 C   0  0
   10.7331   -1.7774    0.0000 C   0  0
   10.1594   -0.3906    0.0000 C   0  0
    8.6716   -0.1930    0.0000 N   0  0
    8.0980    1.1939    0.0000 C   0  0
    6.9084    1.3518    0.0000 N   0  0
    8.8292    2.1453    0.0000 N   0  0
   11.8356   -3.9385    0.0000 C   0  0
   13.3300   -3.8092    0.0000 N   0  0
   14.8199   -3.9835    0.0000 C   0  0  2  0  0  0
   15.1495   -2.5072    0.0000 C   0  0
   14.2657   -1.6955    0.0000 O   0  0
   16.5812   -2.0572    0.0000 N   0  0
   16.9083   -0.5925    0.0000 C   0  0  1  0  0  0
   16.2182    0.7403    0.0000 C   0  0
   17.0265    2.0048    0.0000 C   0  0
   18.5259    1.9380    0.0000 C   0  0
   19.3342    3.2025    0.0000 C   0  0
   20.5330    3.1491    0.0000 N   0  0
   18.3396   -0.1409    0.0000 C   0  0
   18.5998    1.0306    0.0000 O   0  0
   19.2242   -0.9517    0.0000 O   0  0
   16.2441   -4.4540    0.0000 C   0  0
   17.5445   -5.2016    0.0000 N   0  0
   18.6678   -6.1957    0.0000 C   0  0
   19.7270   -5.6316    0.0000 O   0  0
   11.6118   -2.7596    0.0000 O   0  0
    7.0655   -5.1941    0.0000 O   0  0
    4.2981  -11.5424    0.0000 C   0  0
    3.5962  -12.8690    0.0000 C   0  0
    2.0964  -12.9254    0.0000 C   0  0
    1.3945  -14.2519    0.0000 N   0  0
    2.1916  -15.5236    0.0000 C   0  0
    1.6304  -16.5843    0.0000 N   0  0
    3.3908  -15.4797    0.0000 N   0  0
    9.9579  -19.4501    0.0000 C   0  0
   10.5151  -20.8436    0.0000 C   0  0
    9.5915  -22.0225    0.0000 C   0  0
   10.1659  -23.4221    0.0000 C   0  0
   11.6483  -23.6311    0.0000 C   0  0
   12.2083  -25.0194    0.0000 C   0  0
   13.6907  -25.2284    0.0000 C   0  0
   14.6131  -24.0490    0.0000 C   0  0
   14.0531  -22.6606    0.0000 C   0  0
   12.5707  -22.4517    0.0000 C   0  0
   12.0107  -21.0633    0.0000 C   0  0
   13.9605  -19.8032    0.0000 O   0  0
   18.9224  -17.6382    0.0000 O   0  0
   17.2942  -15.8505    0.0000 N   0  0
   15.9002  -16.4043    0.0000 C   0  0
   14.4265  -16.6843    0.0000 C   0  0  1  0  0  0
   14.5375  -17.8792    0.0000 C   0  0
   12.9265  -16.6804    0.0000 N   0  0
   11.4544  -16.3927    0.0000 C   0  0
   11.1133  -17.5432    0.0000 O   0  0
   10.0633  -15.8315    0.0000 C   0  0  1  0  0  0
    8.8036  -15.0172    0.0000 N   0  0
    7.7207  -13.9793    0.0000 C   0  0
    6.8538  -12.7551    0.0000 C   0  0  1  0  0  0
    6.2343  -11.3891    0.0000 N   0  0
    5.8845   -9.9304    0.0000 C   0  0
    5.8170   -8.4319    0.0000 C   0  0  1  0  0  0
    6.0344   -6.9478    0.0000 N   0  0
    6.5287   -5.5316    0.0000 C   0  0
    5.4385   -5.0302    0.0000 O   0  0
    7.2821   -4.2345    0.0000 C   0  0  1  0  0  0
    5.8024   -3.9401    0.0000 C   0  0
    5.3155   -2.5214    0.0000 C   0  0
    6.3008   -1.3903    0.0000 C   0  0
    7.7729   -1.6781    0.0000 C   0  0
    8.2674   -3.1034    0.0000 N   0  0
    9.4489   -2.1793    0.0000 C   0  0
    8.8028   -1.1681    0.0000 O   0  0
   10.7840   -1.4955    0.0000 C   0  0  2  0  0  0
   12.2243   -1.0766    0.0000 N   0  0
   13.7179   -0.9380    0.0000 C   0  0
   13.7210    0.2620    0.0000 O   0  0
   15.2107   -1.0845    0.0000 C   0  0  2  0  0  0
   15.4980    0.4007    0.0000 C   0  0
   14.3651    1.3850    0.0000 C   0  0
   14.6478    2.8582    0.0000 C   0  0
   13.5135    3.8397    0.0000 C   0  0
   12.0963    3.3480    0.0000 C   0  0
   11.8135    1.8749    0.0000 C   0  0
   12.9478    0.8935    0.0000 C   0  0
   11.1889    4.1332    0.0000 F   0  0
   16.6488   -1.5109    0.0000 N   0  0
   17.9803   -2.2017    0.0000 C   0  0
   18.6317   -1.1939    0.0000 O   0  0
   11.2577   -0.0588    0.0000 C   0  0  2  0  0  0
   10.4584    0.8362    0.0000 C   0  0
   12.4325    0.1863    0.0000 O   0  0
    4.3061   -8.3589    0.0000 C   0  0
    3.4930   -9.6204    0.0000 C   0  0
    4.1744  -10.9539    0.0000 C   0  0
    3.3433  -12.2181    0.0000 C   0  0
    1.8483  -12.1401    0.0000 C   0  0
    1.1681  -10.8063    0.0000 C   0  0
   -0.3269  -10.7283    0.0000 C   0  0
   -1.1417  -11.9842    0.0000 C   0  0
   -0.4615  -13.3180    0.0000 C   0  0
    1.0335  -13.3960    0.0000 C   0  0
    1.9830   -9.5504    0.0000 C   0  0
    4.6962  -10.0981    0.0000 O   0  0
    5.5432  -13.5106    0.0000 C   0  0
    5.5412  -15.0114    0.0000 C   0  0
    4.2410  -15.7609    0.0000 C   0  0
    4.2390  -17.2618    0.0000 N   0  0
    2.9388  -18.0113    0.0000 C   0  0
    1.9001  -17.4103    0.0000 N   0  0
    2.9372  -19.2113    0.0000 N   0  0
    6.8117  -14.7627    0.0000 O   0  0
    9.5106  -16.8967    0.0000 C   0  0
   16.2352  -17.5566    0.0000 O   0  0
   22.2795  -11.8237    0.0000 O   0  0
   21.5793   -8.4733    0.0000 C   0  0
   21.9757   -5.0736    0.0000 O   0  0
   11.5035   -0.8011    0.0000 H   0  0
    6.3707   -4.6460    0.0000 H   0  0
   17.9490  -15.8359    0.0000 H   0  0
  2  1  1  0
  2  3  1  0
  4  2  1  1
  5  4  1  0
  5  6  1  0
  6  7  1  0
  7  8  2  0
  8  9  1  0
  9 10  2  0
 10 11  1  0
 11 12  1  0
 12 13  1  0
 14 13  1  0
 15 14  1  0
 15 16  1  0
 16 17  1  0
 17 18  1  0
 18 19  1  1
 19 20  1  0
 21 20  1  0
 22 21  2  0
 23 22  1  0
 24 23  2  0
 25 24  1  0
 20 25  2  0
 18 26  1  0
 26 27  1  0
 27 28  1  0
 28 29  1  0
 29 30  2  0
 29 31  1  0
 31 32  1  0
 32 33  1  1
 33 34  1  0
 34 35  1  0
 35 36  1  0
 36 37  1  0
 37 38  2  0
 37 39  1  0
 32 40  1  0
 40 41  2  0
 40 42  1  0
 42 43  1  0
 43 44  1  0
 44 45  2  0
 44 46  1  0
 47 46  1  0
 47 48  1  1
 48 49  1  0
 49 50  1  0
 50 51  1  0
 51 52  1  0
 52 53  2  0
 52 54  1  0
 55 47  1  0
 56 55  1  0
 57 56  1  0
 57 58  1  1
 58 59  1  0
 59 60  1  0
 60 61  1  0
 61 62  1  0
 62 63  2  0
 62 64  1  0
 65 57  1  0
 66 65  1  0
 67 66  1  0
 67 68  1  6
 68 69  2  0
 68 70  1  0
 71 70  1  1
 71 72  1  0
 72 73  1  0
 73 74  1  0
 74 75  1  0
 75 76  1  0
 71 77  1  0
 77 78  2  0
 77 79  1  0
 67 80  1  0
 81 80  1  0
 82 81  1  0
 82 83  2  0
  9 82  1  0
 65 84  2  0
 55 85  2  0
 43 86  1  1
 86 87  1  0
 87 88  1  0
 88 89  1  0
 89 90  1  0
 90 91  2  0
 90 92  1  0
 28 93  1  1
 93 94  1  0
 95 94  1  0
 96 95  2  0
 97 96  1  0
 98 97  2  0
 99 98  1  0
100 99  2  0
101100  1  0
102101  2  0
 97102  1  0
103102  1  0
 94103  2  0
 26104  2  0
 16105  2  0
106 15  1  0
107106  1  0
108107  1  0
108109  1  1
110108  1  0
111110  1  0
111112  2  0
113111  1  0
114113  1  0
115114  1  0
116115  1  0
117116  1  0
118117  1  0
119118  1  0
119120  1  0
120121  1  0
121122  2  0
123121  1  0
123124  1  0
124125  1  0
125126  1  0
126127  1  0
127128  1  0
128129  1  0
129130  2  0
129131  1  0
131132  1  0
132133  1  0
133134  2  0
133135  1  0
135136  1  6
136137  1  0
137138  2  0
138139  1  0
139140  2  0
140141  1  0
141142  2  0
142137  1  0
140143  1  0
135144  1  0
144145  1  0
145146  2  0
  4145  1  0
131147  1  0
147148  1  6
147149  1  0
123128  1  0
119150  1  6
150151  1  0
152151  1  0
153152  2  0
154153  1  0
154155  1  0
155156  2  0
156157  1  0
157158  2  0
158159  1  0
159154  2  0
160155  1  0
151160  2  0
118161  2  0
116162  1  6
162163  1  0
163164  1  0
164165  1  0
165166  1  0
166167  1  0
166168  2  0
115169  2  0
113170  1  6
107171  2  0
 12172  2  0
 11173  2  0
173  7  1  0
  6174  2  0
131175  1  6
123176  1  6
 15177  1  6
M  END