
          11280715462D 1   1.00000     0.00000     0

 25 27  0     0  0            999 V2000
    2.6542    0.8625    0.0000 N   0  0  3  0  0  0           0  0  0
    1.9417    0.4500    0.0000 C   0  0  0  0  0  0           0  0  0
    1.9500   -0.3667    0.0000 C   0  0  0  0  0  0           0  0  0
    6.9375    1.7583    0.0000 C   0  0  0  0  0  0           0  0  0
    4.0792    1.7000    0.0000 N   0  0  3  0  0  0           0  0  0
    1.2292    0.8583    0.0000 C   0  0  0  0  0  0           0  0  0
    1.2417   -0.7917    0.0000 C   0  0  0  0  0  0           0  0  0
    3.3625    0.4708    0.0000 C   0  0  0  0  0  0           0  0  0
    2.6542    1.7000    0.0000 C   0  0  0  0  0  0           0  0  0
    6.9542    0.9333    0.0000 O   0  0  0  0  0  0           0  0  0
    9.0667    3.0208    0.0000 N   0  0  0  0  0  0           0  0  0
    7.6417    2.1750    0.0000 C   0  0  0  0  0  0           0  0  0
    6.2167    2.1583    0.0000 N   0  0  0  0  0  0           0  0  0
    3.3625    2.1125    0.0000 C   0  0  0  0  0  0           0  0  0
    4.0792    0.8625    0.0000 C   0  0  0  0  0  0           0  0  0
    0.5167    0.4458    0.0000 C   0  0  0  0  0  0           0  0  0
    0.5167   -0.3792    0.0000 C   0  0  0  0  0  0           0  0  0
    5.5042    1.7333    0.0000 C   0  0  0  0  0  0           0  0  0
    4.8042    2.1208    0.0000 C   0  0  0  0  0  0           0  0  0
    2.6667   -0.7792    0.0000 C   0  0  0  0  0  0           0  0  0
    9.0792    2.1958    0.0000 C   0  0  0  0  0  0           0  0  0
    8.3375    3.4208    0.0000 C   0  0  0  0  0  0           0  0  0
    8.3667    1.7708    0.0000 C   0  0  0  0  0  0           0  0  0
    7.6292    2.9958    0.0000 C   0  0  0  0  0  0           0  0  0
   -0.1958   -0.8000    0.0000 C   0  0  0  0  0  0           0  0  0
  2  1  1  0     0  0
  3  2  1  0     0  0
  4 13  1  0     0  0
  5 14  1  0     0  0
  6  2  2  0     0  0
  7  3  2  0     0  0
  8  1  1  0     0  0
  9  1  1  0     0  0
 10  4  2  0     0  0
 11 22  1  0     0  0
 12  4  1  0     0  0
 13 18  1  0     0  0
 14  9  1  0     0  0
 15  8  1  0     0  0
 16  6  1  0     0  0
 17 16  2  0     0  0
 18 19  1  0     0  0
 19  5  1  0     0  0
 20  3  1  0     0  0
 21 23  1  0     0  0
 22 24  2  0     0  0
 23 12  2  0     0  0
 24 12  1  0     0  0
 25 17  1  0     0  0
  5 15  1  0     0  0
  7 17  1  0     0  0
 11 21  2  0     0  0
M  END