
  SciTegic11201309402D

111117  0  0  1  0            999 V2000
   15.0086   -5.8188    0.0000 N   0  0
    9.9084   -1.3495    0.0000 N   0  0
   10.3290   -8.9911    0.0000 N   0  0
   14.3717   -5.2989    0.0000 C   0  0
   10.7438   -1.3554    0.0000 C   0  0
   10.5685   -9.7857    0.0000 C   0  0
    9.6630   -0.5492    0.0000 C   0  0
   11.0067   -8.5062    0.0000 C   0  0
   11.0125   -0.5667    0.0000 N   0  0
   11.3981   -9.7973    0.0000 N   0  0
    5.8247   -4.3290    0.0000 C   0  0
    3.6981   -4.7380    0.0000 C   0  0
   12.2920   -4.5569    0.0000 C   0  0
    1.5657   -4.3290    0.0000 C   0  0
   -0.5725   -4.7380    0.0000 C   0  0
   10.3465   -0.0701    0.0000 N   0  0
   11.6727   -9.0086    0.0000 N   0  0
   10.2881   -3.9084    0.0000 C   0  0
    8.1148   -4.3290    0.0000 C   0  0
   15.8323   -6.0000    0.0000 C   0  0  1  0  0  0
    4.4050   -4.3290    0.0000 N   0  0
    5.1177   -4.7380    0.0000 C   0  0  1  0  0  0
    2.2668   -4.7380    0.0000 N   0  0
    0.1461   -4.3290    0.0000 N   0  0
   11.0125   -4.3290    0.0000 N   0  0
   13.2034   -4.6679    0.0000 N   0  0
    6.6660   -4.3290    0.0000 N   0  0
    8.8334   -3.9084    0.0000 N   0  0
   16.4633   -5.4566    0.0000 C   0  0
    2.9854   -4.3290    0.0000 C   0  0  2  0  0  0
    0.8588   -4.7380    0.0000 C   0  0  1  0  0  0
   11.7077   -3.9435    0.0000 C   0  0  1  0  0  0
   14.0271   -4.5744    0.0000 C   0  0  1  0  0  0
   -1.2794   -4.3290    0.0000 C   0  0  2  0  0  0
   -1.9921   -4.7380    0.0000 N   0  0
   16.7963   -4.6855    0.0000 N   0  0
    7.3846   -3.9084    0.0000 C   0  0  1  0  0  0
    9.5578   -4.3290    0.0000 C   0  0  1  0  0  0
   -2.5705   -5.3105    0.0000 C   0  0
   17.9881   -5.2814    0.0000 C   0  0
   13.8869   -5.9824    0.0000 O   0  0
   -1.2794   -3.5112    0.0000 C   0  0
    5.8247   -3.5112    0.0000 O   0  0
    3.6981   -5.5559    0.0000 O   0  0
   12.0116   -5.1937    0.0000 O   0  0
   -0.5725   -5.5559    0.0000 O   0  0
    1.5657   -3.5112    0.0000 O   0  0
    8.1148   -5.1587    0.0000 O   0  0
   10.2881   -3.0671    0.0000 O   0  0
   -1.1333   -1.3320    0.0000 C   0  0
    0.8588   -5.5559    0.0000 C   0  0
   -1.5014   -2.7050    0.0000 C   0  0
    2.9854   -3.5112    0.0000 C   0  0
   -0.9114   -2.1266    0.0000 C   0  0
   16.8605   -6.1402    0.0000 O   0  0
   11.6785   -3.0906    0.0000 C   0  0
    4.9250   -2.5472    0.0000 N   0  0
   -3.3592   -5.0886    0.0000 O   0  0
   11.0125   -7.6766    0.0000 N   0  0
    8.8217   -0.5492    0.0000 N   0  0
   18.7593   -5.1878    0.0000 O   0  0
   11.3280   -1.9513    0.0000 N   0  0
    9.9785  -10.3757    0.0000 N   0  0
   -1.9396   -1.1276    0.0000 C   0  0
   17.6200   -4.5803    0.0000 C   0  0
   -2.5179   -1.7060    0.0000 C   0  0
   14.5704   -6.5258    0.0000 C   0  0
   17.6376   -6.0525    0.0000 N   0  0
    1.5657   -5.9649    0.0000 C   0  0
   -2.2960   -2.5063    0.0000 C   0  0
    2.9854   -6.7886    0.0000 C   0  0
    3.5638   -2.9269    0.0000 C   0  0
   15.0261   -1.1451    0.0000 N   0  0
    3.6865   -7.1918    0.0000 Cl  0  0
    5.1177   -5.5559    0.0000 C   0  0
    2.2668   -5.5559    0.0000 C   0  0
    1.5657   -6.7886    0.0000 C   0  0
    2.9854   -5.9649    0.0000 C   0  0
    2.2668   -7.1918    0.0000 C   0  0
   15.8965   -6.8412    0.0000 C   0  0
    5.8247   -5.9649    0.0000 O   0  0
    4.3525   -3.1256    0.0000 C   0  0
   15.1137   -7.1567    0.0000 C   0  0
   14.4243   -3.8734    0.0000 C   0  0
   12.3796   -2.6290    0.0000 C   0  0
   -2.3661   -6.0992    0.0000 C   0  0
    4.7030   -1.7585    0.0000 C   0  0
    7.3846   -3.0671    0.0000 C   0  0
    9.5578   -5.1587    0.0000 C   0  0
   16.0076   -1.2853    0.0000 C   0  0
   -0.5550   -0.7420    0.0000 C   0  0
   11.0125   -6.8353    0.0000 C   0  0
    8.8334   -1.3905    0.0000 C   0  0
   18.4087   -6.3855    0.0000 C   0  0
   14.3251   -1.8462    0.0000 C   0  0
   -2.1499   -0.3214    0.0000 C   0  0
    3.3359   -2.1382    0.0000 C   0  0
   14.0797   -3.1431    0.0000 C   0  0
    8.1148   -2.6465    0.0000 C   0  0
   10.2881   -5.5793    0.0000 C   0  0
   14.6581   -2.5823    0.0000 C   0  0
   10.2881   -6.4206    0.0000 C   0  0
    8.1148   -1.8111    0.0000 C   0  0
   12.3446   -1.7761    0.0000 C   0  0
   13.1332   -3.0321    0.0000 C   0  0
   16.5159   -0.6544    0.0000 C   0  0
   16.3522   -1.9163    0.0000 C   0  0
   18.4964   -7.2268    0.0000 C   0  0
    3.9143   -1.5599    0.0000 C   0  0
   -0.7653    0.0526    0.0000 C   0  0
   -1.5599    0.2745    0.0000 C   0  0
  2  7  1  0
  3  8  1  0
  4  1  1  0
  5  2  2  0
  6  3  2  0
  7 60  1  0
  8 59  1  0
  9 16  1  0
 10 17  1  0
 11 27  1  0
 12 21  1  0
 13 26  1  0
 14 23  1  0
 15 24  1  0
 16  7  2  0
 17  8  2  0
 18 25  1  0
 19 28  1  0
 20  1  1  0
 22 21  1  6
 22 11  1  0
 30 23  1  6
 31 24  1  6
 32 25  1  1
 33 26  1  1
 37 27  1  1
 38 28  1  6
 20 29  1  1
 30 12  1  0
 31 14  1  0
 32 13  1  0
 33  4  1  0
 34 15  1  0
 34 35  1  6
 36 29  1  0
 37 19  1  0
 38 18  1  0
 39 35  1  0
 40 65  1  0
 41  4  2  0
 34 42  1  0
 43 11  2  0
 44 12  2  0
 45 13  2  0
 46 15  2  0
 47 14  2  0
 48 19  2  0
 49 18  2  0
 50 54  1  0
 31 51  1  0
 52 42  1  0
 30 53  1  0
 54 52  2  0
 55 29  2  0
 32 56  1  0
 57 82  2  0
 58 39  2  0
 59 92  1  0
 60 93  1  0
 61 40  2  0
 62  5  1  0
 63  6  1  0
 64 66  1  0
 65 36  1  0
 66 70  2  0
 67  1  1  0
 68 40  1  0
 69 51  1  0
 70 52  1  0
 71 79  2  0
 72 53  1  0
 73 95  1  0
 74 71  1  0
 22 75  1  0
 76 69  1  0
 77 69  2  0
 78 76  2  0
 79 77  1  0
 20 80  1  0
 81 75  1  0
 82 72  1  0
 83 67  1  0
 33 84  1  0
 85 56  1  0
 86 39  1  0
 87109  2  0
 37 88  1  0
 38 89  1  0
 90 73  1  0
 91 50  1  0
 92102  1  0
 93103  1  0
 94 68  1  0
 95101  1  0
 96 64  1  0
 97 72  2  0
 98 84  1  0
 99 88  1  0
100 89  1  0
101 98  1  0
102100  1  0
103 99  1  0
104 85  1  0
105 85  1  0
106 90  1  0
107 90  1  0
108 94  1  0
109 97  1  0
110 91  2  0
111 96  2  0
 80 83  1  0
 10  6  1  0
  9  5  1  0
 87 57  1  0
 71 78  1  0
 64 50  2  0
110111  1  0
M  END