
  SciTegic01161211262D

124115  0  0  0  0            999 V2000
   -6.7518    3.6919    0.0000 Na  0  3
   -7.4662   -0.0206    0.0000 Na  0  3
   -6.0373   -1.6706    0.0000 Na  0  3
   -6.0373   -4.6406    0.0000 Na  0  3
   -3.6795   -5.7544    0.0000 Na  0  3
   -1.5361    0.4331    0.0000 Na  0  3
    2.0362    1.9181    0.0000 Na  0  3
    2.7507    0.4331    0.0000 Na  0  3
    2.0362   -5.7544    0.0000 Na  0  3
    4.6264    1.9703    0.0000 Na  0  3
    6.5603    0.0566    0.0000 Na  0  3
    7.4662   -2.8669    0.0000 Na  0  3
    5.3228   -5.7544    0.0000 Na  0  3
   -2.4649    1.2169    0.0000 O   0  0
   -3.1794    0.8044    0.0000 C   0  0  2  0  0  0
   -3.1794   -0.0206    0.0000 C   0  0  2  0  0  0
   -2.2506   -0.5569    0.0000 O   0  0
   -3.8939   -0.4331    0.0000 C   0  0  2  0  0  0
   -3.8939   -1.2581    0.0000 O   0  0
   -4.6083   -0.0206    0.0000 C   0  0  2  0  0  0
   -5.3228   -0.4331    0.0000 O   0  0
   -4.6083    0.8044    0.0000 C   0  0  2  0  0  0
   -3.8939    1.2169    0.0000 O   0  0
   -5.3228    1.2169    0.0000 C   0  0
   -5.3228    2.0419    0.0000 O   0  0
   -6.0373    2.4544    0.0000 S   0  0
   -6.4498    1.7399    0.0000 O   0  0
   -5.6248    3.1688    0.0000 O   0  0
   -6.7518    2.8669    0.0000 O   0  5
   -6.0373   -0.0206    0.0000 S   0  0
   -6.4498   -0.7351    0.0000 O   0  0
   -5.6248    0.6938    0.0000 O   0  0
   -6.7518    0.3919    0.0000 O   0  5
   -4.6083   -1.6706    0.0000 S   0  0
   -4.1958   -2.3851    0.0000 O   0  0
   -5.0208   -0.9562    0.0000 O   0  0
   -5.3228   -2.0831    0.0000 O   0  5
   -2.2506   -1.6294    0.0000 C   0  0  2  0  0  0
   -1.5361   -2.0419    0.0000 C   0  0  2  0  0  0
   -0.8216   -1.6294    0.0000 O   0  0
   -1.5361   -2.8669    0.0000 C   0  0  2  0  0  0
   -0.8216   -3.2794    0.0000 O   0  0
   -2.2506   -3.2794    0.0000 C   0  0  2  0  0  0
   -2.2506   -4.1044    0.0000 O   0  0
   -2.9651   -2.8669    0.0000 C   0  0  2  0  0  0
   -2.9651   -2.0419    0.0000 O   0  0
   -3.8939   -3.4031    0.0000 C   0  0
   -4.6083   -2.9906    0.0000 O   0  0
   -5.3228   -3.4031    0.0000 S   0  0
   -5.7353   -2.6887    0.0000 O   0  0
   -4.9103   -4.1176    0.0000 O   0  0
   -6.0373   -3.8156    0.0000 O   0  5
   -2.9651   -4.5169    0.0000 S   0  0
   -2.5526   -5.2313    0.0000 O   0  0
   -3.3776   -3.8024    0.0000 O   0  0
   -3.6795   -4.9294    0.0000 O   0  5
   -0.8216   -0.8044    0.0000 S   0  0
   -1.6466   -0.8044    0.0000 O   0  0
    0.0034   -0.8044    0.0000 O   0  0
   -0.8216    0.0206    0.0000 O   0  5
   -0.1072   -2.8669    0.0000 C   0  0  2  0  0  0
    0.6073   -3.2794    0.0000 C   0  0  2  0  0  0
    0.6073   -4.1044    0.0000 O   0  0
    1.3218   -2.8669    0.0000 C   0  0  2  0  0  0
    2.2506   -3.4031    0.0000 O   0  0
    1.3218   -2.0419    0.0000 C   0  0  2  0  0  0
    2.0362   -1.6294    0.0000 O   0  0
    0.6073   -1.6294    0.0000 C   0  0  2  0  0  0
   -0.1072   -2.0419    0.0000 O   0  0
    0.6073   -0.5569    0.0000 C   0  0
    1.3218   -0.1444    0.0000 O   0  0
    1.3218    0.6806    0.0000 S   0  0
    0.4968    0.6806    0.0000 O   0  0
    2.1468    0.6806    0.0000 O   0  0
    1.3218    1.5056    0.0000 O   0  5
    2.0362   -0.8044    0.0000 S   0  0
    2.8612   -0.8044    0.0000 O   0  0
    1.2112   -0.8044    0.0000 O   0  0
    2.0362    0.0206    0.0000 O   0  5
    1.3218   -4.5169    0.0000 S   0  0
    1.7343   -3.8024    0.0000 O   0  0
    0.9093   -5.2313    0.0000 O   0  0
    2.0362   -4.9294    0.0000 O   0  5
    3.1794   -2.8669    0.0000 C   0  0  2  0  0  0
    3.8939   -3.2794    0.0000 C   0  0  2  0  0  0
    3.8939   -4.1044    0.0000 O   0  0
    4.6083   -2.8669    0.0000 C   0  0  2  0  0  0
    5.3228   -3.2794    0.0000 O   0  0
    4.6083   -2.0419    0.0000 C   0  0  2  0  0  0
    5.3836   -1.7597    0.0000 O   0  0
    3.8939   -1.6294    0.0000 C   0  0  2  0  0  0
    3.1794   -2.0419    0.0000 O   0  0
    3.7506   -0.8169    0.0000 C   0  0
    4.2809   -0.1849    0.0000 O   0  0
    4.1376    0.6275    0.0000 S   0  0
    4.9501    0.7708    0.0000 O   0  0
    3.3252    0.4843    0.0000 O   0  0
    3.9944    1.4400    0.0000 O   0  5
    5.5268   -0.9472    0.0000 S   0  0
    4.7516   -0.6651    0.0000 O   0  0
    6.3296   -1.1375    0.0000 O   0  0
    5.7635   -0.1569    0.0000 O   0  5
    6.0373   -2.8669    0.0000 S   0  0
    6.4498   -3.5813    0.0000 O   0  0
    5.6248   -2.1524    0.0000 O   0  0
    6.7518   -2.4544    0.0000 O   0  5
    4.6083   -4.5169    0.0000 S   0  0
    5.0208   -3.8024    0.0000 O   0  0
    4.1958   -5.2313    0.0000 O   0  0
    5.3228   -4.9294    0.0000 O   0  5
   -2.4649    2.0419    0.0000 C   0  0
   -1.7505    2.4544    0.0000 C   0  0
   -1.7505    3.2794    0.0000 C   0  0
   -1.0360    3.6919    0.0000 C   0  0
   -0.3215    3.2794    0.0000 C   0  0
   -0.3215    2.4544    0.0000 C   0  0
   -1.0360    2.0419    0.0000 C   0  0
    0.3930    3.6919    0.0000 C   0  0
    0.3930    4.5169    0.0000 C   0  0
   -0.3215    4.9294    0.0000 C   0  0
   -0.3215    5.7544    0.0000 C   0  0
   -0.1678   -3.6896    0.0000 H   0  0
    3.1875   -3.6918    0.0000 H   0  0
   -2.9207   -1.1482    0.0000 H   0  0
 15 14  1  6
 15 16  1  0
 16 17  1  1
 16 18  1  0
 18 19  1  1
 18 20  1  0
 20 21  1  6
 20 22  1  0
 22 23  1  0
 22 24  1  1
 24 25  1  0
 15 23  1  0
 26 27  2  0
 26 28  2  0
 26 29  1  0
 25 26  1  0
 30 31  2  0
 30 32  2  0
 30 33  1  0
 21 30  1  0
 34 35  2  0
 34 36  2  0
 34 37  1  0
 19 34  1  0
 38 39  1  0
 39 40  1  1
 39 41  1  0
 41 42  1  1
 41 43  1  0
 43 44  1  6
 43 45  1  0
 45 46  1  0
 45 47  1  1
 47 48  1  0
 38 46  1  0
 49 50  2  0
 49 51  2  0
 49 52  1  0
 48 49  1  0
 53 54  2  0
 53 55  2  0
 53 56  1  0
 44 53  1  0
 57 58  2  0
 57 59  2  0
 57 60  1  0
 40 57  1  0
 61 62  1  0
 62 63  1  6
 62 64  1  0
 64 65  1  6
 64 66  1  0
 66 67  1  1
 66 68  1  0
 68 69  1  0
 68 70  1  6
 70 71  1  0
 61 69  1  0
 72 73  2  0
 72 74  2  0
 72 75  1  0
 71 72  1  0
 76 77  2  0
 76 78  2  0
 76 79  1  0
 67 76  1  0
 80 81  2  0
 80 82  2  0
 80 83  1  0
 63 80  1  0
 84 85  1  0
 85 86  1  6
 85 87  1  0
 87 88  1  6
 87 89  1  0
 89 90  1  1
 89 91  1  0
 91 92  1  0
 91 93  1  6
 93 94  1  0
 84 92  1  0
 95 96  2  0
 95 97  2  0
 95 98  1  0
 94 95  1  0
 99100  2  0
 99101  2  0
 99102  1  0
 90 99  1  0
103104  2  0
103105  2  0
103106  1  0
 88103  1  0
107108  2  0
107109  2  0
107110  1  0
 86107  1  0
 65 84  1  0
 42 61  1  0
 17 38  1  0
111112  1  0
112113  1  0
113114  2  0
114115  1  0
115116  2  0
116117  1  0
112117  2  0
118119  1  0
119120  1  0
120121  1  0
115118  1  0
 14111  1  0
 61122  1  6
 84123  1  6
 38124  1  1
M  CHG  8   1   1   2   1   3   1   4   1   5   1   6   1   7   1   8   1
M  CHG  8   9   1  10   1  11   1  12   1  13   1  29  -1  33  -1  37  -1
M  CHG  8  52  -1  56  -1  60  -1  75  -1  79  -1  83  -1  98  -1 102  -1
M  CHG  2 106  -1 110  -1
M  END