
  SciTegic01161211212D

 18 17  0  0  0  0            999 V2000
    7.4875   -2.6542    0.0000 P   0  0
    2.6042   -3.0792    0.0000 P   0  0
    3.3042   -2.6750    0.0000 C   0  0
    6.7917   -3.0625    0.0000 C   0  0
    8.0875   -2.9917    0.0000 O   0  0
    8.2542   -2.1542    0.0000 O   0  0
    1.9042   -2.2375    0.0000 O   0  0
    1.6917   -3.0750    0.0000 O   0  0
    7.4792   -1.8417    0.0000 O   0  0
    2.6000   -3.8792    0.0000 O   0  0
    6.2167   -3.6292    0.0000 F   0  0
    7.1792   -3.7542    0.0000 F   0  0
    3.7042   -1.9750    0.0000 F   0  0
    2.8917   -1.9750    0.0000 F   0  0
    4.0042   -3.0792    0.0000 C   0  0
    6.0917   -2.6542    0.0000 C   0  0
    5.4000   -3.0667    0.0000 C   0  0
    4.7042   -2.6667    0.0000 C   0  0
  2  3  1  0
  3 15  1  0
  4  1  1  0
  5  1  1  0
  6  1  1  0
  7  2  1  0
  8  2  1  0
  9  1  2  0
 10  2  2  0
 11  4  1  0
 12  4  1  0
 13  3  1  0
 14  3  1  0
 15 18  1  0
 16  4  1  0
 17 16  1  0
 18 17  1  0
M  END