
  CDK    9/16/09,9:48

 46 43  0  0  0  0  0  0  0  0999 V2000
   17.1120  -18.8178    0.0000 C   0  0  0  0  0  0  0  0  0  0  0  0
   16.3972  -19.2296    0.0000 O   0  0  0  0  0  0  0  0  0  0  0  0
   16.3972  -20.0576    0.0000 C   0  0  0  0  0  0  0  0  0  0  0  0
   17.1120  -20.4695    0.0000 C   0  0  0  0  0  0  0  0  0  0  0  0
   17.1120  -21.2973    0.0000 C   0  0  0  0  0  0  0  0  0  0  0  0
   16.3972  -21.7092    0.0000 C   0  0  0  0  0  0  0  0  0  0  0  0
   15.6783  -21.2973    0.0000 C   0  0  0  0  0  0  0  0  0  0  0  0
   15.6783  -20.4695    0.0000 C   0  0  0  0  0  0  0  0  0  0  0  0
   14.9634  -20.0576    0.0000 C   0  0  0  0  0  0  0  0  0  0  0  0
   14.2486  -20.4695    0.0000 N   0  0  0  0  0  0  0  0  0  0  0  0
   13.5339  -20.0576    0.0000 C   0  0  0  0  0  0  0  0  0  0  0  0
   12.8149  -20.4695    0.0000 C   0  0  0  0  0  0  0  0  0  0  0  0
   12.1001  -20.0576    0.0000 C   0  0  0  0  0  0  0  0  0  0  0  0
   11.3853  -20.4695    0.0000 C   0  0  0  0  0  0  0  0  0  0  0  0
   10.6705  -20.0576    0.0000 C   0  0  0  0  0  0  0  0  0  0  0  0
    9.9558  -20.4695    0.0000 C   0  0  0  0  0  0  0  0  0  0  0  0
    9.2367  -20.0576    0.0000 N   0  0  0  0  0  0  0  0  0  0  0  0
    8.5220  -20.4695    0.0000 C   0  0  0  0  0  0  0  0  0  0  0  0
    7.8072  -20.0576    0.0000 C   0  0  0  0  0  0  0  0  0  0  0  0
    7.0924  -20.4695    0.0000 C   0  0  0  0  0  0  0  0  0  0  0  0
    6.3734  -20.0576    0.0000 C   0  0  0  0  0  0  0  0  0  0  0  0
    5.6586  -20.4695    0.0000 C   0  0  0  0  0  0  0  0  0  0  0  0
    4.9439  -20.0576    0.0000 C   0  0  0  0  0  0  0  0  0  0  0  0
    4.2291  -20.4695    0.0000 C   0  0  0  0  0  0  0  0  0  0  0  0
    3.5101  -20.0576    0.0000 C   0  0  0  0  0  0  0  0  0  0  0  0
    2.7953  -20.4695    0.0000 N   0  0  0  0  0  0  0  0  0  0  0  0
    2.0806  -20.0576    0.0000 C   0  0  0  0  0  0  0  0  0  0  0  0
    1.3658  -20.4695    0.0000 C   0  0  0  0  0  0  0  0  0  0  0  0
    0.6468  -20.0576    0.0000 C   0  0  0  0  0  0  0  0  0  0  0  0
   -0.0680  -20.4695    0.0000 C   0  0  0  0  0  0  0  0  0  0  0  0
   -0.7828  -20.0576    0.0000 C   0  0  0  0  0  0  0  0  0  0  0  0
   -1.5017  -20.4695    0.0000 C   0  0  0  0  0  0  0  0  0  0  0  0
   -2.2166  -20.0576    0.0000 N   0  0  0  0  0  0  0  0  0  0  0  0
   -2.9313  -20.4695    0.0000 C   0  0  0  0  0  0  0  0  0  0  0  0
   -3.6461  -20.0576    0.0000 C   0  0  0  0  0  0  0  0  0  0  0  0
   -4.3610  -20.4695    0.0000 C   0  0  0  0  0  0  0  0  0  0  0  0
   -5.0799  -20.0576    0.0000 C   0  0  0  0  0  0  0  0  0  0  0  0
   -5.0799  -19.2296    0.0000 C   0  0  0  0  0  0  0  0  0  0  0  0
   -4.3610  -18.8178    0.0000 C   0  0  0  0  0  0  0  0  0  0  0  0
   -3.6461  -19.2296    0.0000 C   0  0  0  0  0  0  0  0  0  0  0  0
   -2.9313  -18.8178    0.0000 O   0  0  0  0  0  0  0  0  0  0  0  0
   -2.9313  -17.9898    0.0000 C   0  0  0  0  0  0  0  0  0  0  0  0
    5.8329  -18.1063    0.0000 Cl  0  0  0  0  0  0  0  0  0  0  0  0
    4.6972  -18.0814    0.0000 Cl  0  0  0  0  0  0  0  0  0  0  0  0
    7.4721  -18.0190    0.0000 Cl  0  0  0  0  0  0  0  0  0  0  0  0
    3.2326  -17.9274    0.0000 Cl  0  0  0  0  0  0  0  0  0  0  0  0
  1  2  1  0  0  0  0 
  2  3  1  0  0  0  0 
  3  4  2  0  0  0  0 
  4  5  1  0  0  0  0 
  5  6  2  0  0  0  0 
  6  7  1  0  0  0  0 
  7  8  2  0  0  0  0 
  3  8  1  0  0  0  0 
  8  9  1  0  0  0  0 
  9 10  1  0  0  0  0 
 10 11  1  0  0  0  0 
 11 12  1  0  0  0  0 
 12 13  1  0  0  0  0 
 13 14  1  0  0  0  0 
 14 15  1  0  0  0  0 
 15 16  1  0  0  0  0 
 16 17  1  0  0  0  0 
 17 18  1  0  0  0  0 
 18 19  1  0  0  0  0 
 19 20  1  0  0  0  0 
 20 21  1  0  0  0  0 
 21 22  1  0  0  0  0 
 22 23  1  0  0  0  0 
 23 24  1  0  0  0  0 
 24 25  1  0  0  0  0 
 25 26  1  0  0  0  0 
 26 27  1  0  0  0  0 
 27 28  1  0  0  0  0 
 28 29  1  0  0  0  0 
 29 30  1  0  0  0  0 
 30 31  1  0  0  0  0 
 31 32  1  0  0  0  0 
 32 33  1  0  0  0  0 
 33 34  1  0  0  0  0 
 34 35  1  0  0  0  0 
 35 36  2  0  0  0  0 
 36 37  1  0  0  0  0 
 37 38  2  0  0  0  0 
 38 39  1  0  0  0  0 
 39 40  2  0  0  0  0 
 35 40  1  0  0  0  0 
 40 41  1  0  0  0  0 
 41 42  1  0  0  0  0 
M  END