
  SciTegic10301317112D

 32 32  0  0  0  0            999 V2000
   -0.0708   -2.2250    0.0000 S   0  0
    3.2250   -2.2042    0.0000 C   0  0
   11.2042   -2.6917    0.0000 C   0  0
    0.7542   -2.2167    0.0000 C   0  0
    8.7417   -5.5667    0.0000 C   0  0
    7.5042   -4.8667    0.0000 N   0  0
    7.0167   -4.1917    0.0000 C   0  0
    3.6417   -2.9167    0.0000 N   0  0
   -0.0708   -3.0417    0.0000 O   0  0
   -0.0708   -1.4000    0.0000 O   0  0
    4.8792   -3.6250    0.0000 C   0  0
    8.3292   -4.8542    0.0000 C   0  0  1  0  0  0
   12.0292   -2.6917    0.0000 N   0  0
    2.4000   -2.2125    0.0000 C   0  0
   -0.8958   -2.2167    0.0000 N   0  0
    5.7042   -3.6167    0.0000 N   0  0
    3.6292   -1.4917    0.0000 O   0  0
    8.3375   -6.2875    0.0000 O   0  0
    7.3500   -3.4417    0.0000 O   0  0
    4.4750   -4.3417    0.0000 O   0  0
    1.1542   -1.5042    0.0000 C   0  0
    1.1667   -2.9292    0.0000 C   0  0
    1.9917   -2.9292    0.0000 C   0  0
    1.9792   -1.5000    0.0000 C   0  0
   10.7917   -3.4167    0.0000 N   0  0
    4.4667   -2.9125    0.0000 C   0  0
   10.7875   -1.9875    0.0000 N   0  0
    6.1917   -4.2875    0.0000 C   0  0
    9.5667   -5.5667    0.0000 O   0  0
    8.7375   -4.1417    0.0000 C   0  0
    9.9667   -3.4167    0.0000 C   0  0
    9.5625   -4.1292    0.0000 C   0  0
  2 14  1  0
  3 25  1  0
  4  1  1  0
  5 12  1  0
  6  7  1  0
  7 28  1  0
  8  2  1  0
  9  1  2  0
 10  1  2  0
 11 26  1  0
 12  6  1  0
 13  3  2  0
 14 23  2  0
 15  1  1  0
 16 11  1  0
 17  2  2  0
 18  5  2  0
 19  7  2  0
 20 11  2  0
 21  4  1  0
 22  4  2  0
 23 22  1  0
 24 21  2  0
 25 31  1  0
 26  8  1  0
 27  3  1  0
 28 16  1  0
 29  5  1  0
 12 30  1  1
 31 32  1  0
 32 30  1  0
 24 14  1  0
M  END