
  SciTegic04091511462D

 82 86  0  0  1  0            999 V2000
    5.1142   -1.0118    0.0000 N   0  0
    3.4721   -7.0161    0.0000 N   0  0
    2.8253   -0.3981    0.0000 N   0  0
    0.9842   -1.9130    0.0000 N   0  0
    4.0858   -6.4521    0.0000 C   0  0
    5.6284   -1.6752    0.0000 C   0  0  2  0  0  0
    5.9269   -2.4548    0.0000 C   0  0
    2.0623   -0.6966    0.0000 C   0  0
    4.4286   -0.5639    0.0000 C   0  0
    0.7686   -2.7368    0.0000 C   0  0
    3.9034   -5.6394    0.0000 C   0  0  2  0  0  0
    4.6774   -5.3298    0.0000 N   0  0
    5.9711   -3.3007    0.0000 N   0  0
    1.4264   -1.2164    0.0000 C   0  0  2  0  0  0
    5.3077   -4.7991    0.0000 C   0  0
    4.2683   -8.2601    0.0000 C   0  0
    3.6490   -0.3483    0.0000 C   0  0  2  0  0  0
    5.7611   -4.0969    0.0000 C   0  0  2  0  0  0
    3.5551   -7.8510    0.0000 C   0  0  2  0  0  0
    4.9649  -10.3555    0.0000 C   0  0
    0.8183   -3.5661    0.0000 C   0  0
    4.2683   -9.1060    0.0000 N   0  0
    5.6781  -10.7812    0.0000 N   0  0
    6.5075   -4.4452    0.0000 C   0  0
    5.6781  -11.6161    0.0000 C   0  0  2  0  0  0
    6.3914  -12.0418    0.0000 C   0  0
    2.3055   -5.4570    0.0000 S   0  0
    1.6145   -5.0091    0.0000 S   0  0
    6.5848   -5.2801    0.0000 C   0  0
    1.1003   -4.3512    0.0000 C   0  0
    4.9649   -9.5206    0.0000 C   0  0  1  0  0  0
    4.8598   -6.7065    0.0000 O   0  0
    6.7231   -2.2779    0.0000 O   0  0
    1.7472    0.0000    0.0000 O   0  0
    0.8183   -0.6635    0.0000 C   0  0
   -0.0442   -2.6428    0.0000 O   0  0
    4.7603    0.1990    0.0000 O   0  0
    3.0907   -5.6726    0.0000 C   0  0
    4.9649   -7.8510    0.0000 O   0  0
    5.9214   -5.3740    0.0000 O   0  0
    4.2683  -10.7812    0.0000 O   0  0
    4.9649  -12.0308    0.0000 C   0  0
    6.3416   -1.2496    0.0000 C   0  0  2  0  0  0
    7.0990  -11.6161    0.0000 O   0  0
    5.9269   -5.7721    0.0000 O   0  0
    6.3914  -12.8711    0.0000 N   0  0
    3.7209    0.4810    0.0000 C   0  0  2  0  0  0
    2.6760   -6.8392    0.0000 C   0  0
    7.3312   -5.6228    0.0000 N   0  0
    0.9952    0.1659    0.0000 C   0  0
    4.1522  -12.0308    0.0000 C   0  0
    0.2212   -1.5813    0.0000 C   0  0
    2.5101  -12.0252    0.0000 C   0  0
    1.3269    1.8024    0.0000 C   0  0
    3.7485  -11.3010    0.0000 C   0  0
    0.3871    0.7242    0.0000 C   0  0
    3.7485  -12.7440    0.0000 C   0  0
    1.7637    0.4257    0.0000 C   0  0
    7.8122   -9.5206    0.0000 N   0  0
    0.5529    1.5370    0.0000 C   0  0
    2.9248  -12.7440    0.0000 C   0  0
    1.9296    1.2440    0.0000 C   0  0
    2.9248  -11.2954    0.0000 C   0  0
    6.3416   -0.4147    0.0000 O   0  0
    2.8087   -8.1827    0.0000 C   0  0
    1.7140  -12.0252    0.0000 O   0  0
    1.4984    2.6207    0.0000 O   0  0
    2.2613   -7.5634    0.0000 C   0  0
    1.1998   -5.1308    0.0000 C   0  0
    0.4976   -3.8812    0.0000 C   0  0
    5.6781   -9.1060    0.0000 C   0  0
    7.0990   -9.1060    0.0000 C   0  0
    4.4673    0.8238    0.0000 C   0  0
    7.0493   -1.6752    0.0000 C   0  0
    3.0685    0.9786    0.0000 C   0  0
    6.3914   -9.5206    0.0000 C   0  0
    4.5613    1.6586    0.0000 C   0  0
   -0.2156   -4.2959    0.0000 C   0  0
    0.4976   -5.5455    0.0000 C   0  0
   -0.2156   -5.1308    0.0000 C   0  0
    2.7231    0.6022    0.0000 H   0  0
    5.8747   -0.3714    0.0000 H   0  0
  2  5  1  0
  3 17  1  0
  4 14  1  0
 11  5  1  1
  6  1  1  0
  7  6  1  0
  8  3  1  0
  9  1  1  0
 10  4  1  0
 11 12  1  0
 12 15  1  0
 13  7  1  0
 14  8  1  0
 15 18  1  0
 19 16  1  6
 17  9  1  0
 18 13  1  0
 19  2  1  0
 20 31  1  0
 21 10  1  0
 22 16  1  0
 23 20  1  0
 18 24  1  1
 25 23  1  6
 26 25  1  0
 27 38  1  0
 28 30  1  0
 29 24  1  0
 30 21  1  0
 31 22  1  1
 32  5  2  0
 33  7  2  0
 34  8  2  0
 14 35  1  1
 36 10  2  0
 37  9  2  0
 11 38  1  0
 39 16  2  0
 40 15  2  0
 41 20  2  0
 25 42  1  0
  6 43  1  0
 44 26  2  0
 45 29  2  0
 46 26  1  0
 17 47  1  0
 48  2  1  0
 49 29  1  0
 50 35  1  0
 51 42  1  0
 52  4  1  0
 53 61  1  0
 54 62  2  0
 55 51  2  0
 56 50  1  0
 57 51  1  0
 58 50  2  0
 59 72  1  0
 60 56  2  0
 61 57  2  0
 62 58  1  0
 63 55  1  0
 43 64  1  6
 19 65  1  0
 66 53  1  0
 67 54  1  0
 68 48  1  0
 69 30  1  0
 70 30  1  0
 31 71  1  0
 72 76  1  0
 73 47  1  0
 43 74  1  0
 47 75  1  1
 76 71  1  0
 77 73  1  0
 78 70  1  0
 79 69  1  0
 80 78  1  0
 54 60  1  0
 28 27  1  0
 65 68  1  0
 80 79  1  0
 53 63  2  0
 17 81  1  6
  6 82  1  6
M  END