
  CDK    6/4/10,11:42

 18 19  0  0  0  0  0  0  0  0999 V2000
    7.0916   -9.9083    0.0000 N   0  0  0  0  0  0  0  0  0  0  0  0
    7.9166   -9.9083    0.0000 N   0  0  0  0  0  0  0  0  0  0  0  0
    8.1734  -10.6924    0.0000 C   0  0  0  0  0  0  0  0  0  0  0  0
    7.5041  -11.1792    0.0000 S   0  0  0  0  0  0  0  0  0  0  0  0
    6.8391  -10.6924    0.0000 C   0  0  0  0  0  0  0  0  0  0  0  0
    8.8833  -11.1042    0.0000 S   0  0  0  0  0  0  0  0  0  0  0  0
    9.5983  -10.6936    0.0000 C   0  0  0  0  0  0  0  0  0  0  0  0
   10.2646  -11.1748    0.0000 S   0  0  0  0  0  0  0  0  0  0  0  0
   10.9315  -10.6891    0.0000 C   0  0  0  0  0  0  0  0  0  0  0  0
   10.6758   -9.9047    0.0000 C   0  0  0  0  0  0  0  0  0  0  0  0
    9.8508   -9.9057    0.0000 N   0  0  0  0  0  0  0  0  0  0  0  0
    6.1208  -11.1000    0.0000 N   0  0  0  0  0  0  0  0  0  0  0  0
    5.4095  -10.6822    0.0000 C   0  0  0  0  0  0  0  0  0  0  0  0
    4.6919  -11.0893    0.0000 C   0  0  0  0  0  0  0  0  0  0  0  0
   11.7208  -10.9417    0.0000 N   0  0  0  0  0  0  0  0  0  0  0  0
   12.3333  -10.3890    0.0000 O   0  0  0  0  0  0  0  0  0  0  0  0
   11.8932  -11.7484    0.0000 O   0  0  0  0  0  0  0  0  0  0  0  0
    3.9806  -10.6715    0.0000 C   0  0  0  0  0  0  0  0  0  0  0  0
  4  5  1  0  0  0  0 
  5  1  2  0  0  0  0 
  8  9  1  0  0  0  0 
  9 10  2  0  0  0  0 
 10 11  1  0  0  0  0 
 11  7  2  0  0  0  0 
  1  2  1  0  0  0  0 
  5 12  1  0  0  0  0 
  3  6  1  0  0  0  0 
 12 13  1  0  0  0  0 
 13 14  1  0  0  0  0 
  6  7  1  0  0  0  0 
  7  8  1  0  0  0  0 
  2  3  2  0  0  0  0 
 15 16  2  0  0  0  0 
 15 17  1  0  0  0  0 
  9 15  1  0  0  0  0 
  3  4  1  0  0  0  0 
 14 18  1  0  0  0  0 
M  CHG  1  15   1
M  CHG  1  17  -1
M  END