
  SciTegic10301317112D

 31 31  0  0  0  0            999 V2000
   -0.6708   -0.4500    0.0000 S   0  0
    9.4375   -4.4667    0.0000 C   0  0  1  0  0  0
   10.2625   -4.3917    0.0000 C   0  0
    2.6250   -0.4292    0.0000 C   0  0
    8.9667   -3.7917    0.0000 N   0  0
    0.1542   -0.4417    0.0000 C   0  0
    8.1417   -3.8000    0.0000 C   0  0
    3.0417   -1.1417    0.0000 N   0  0
   -0.6708   -1.2667    0.0000 O   0  0
   -0.6708    0.3750    0.0000 O   0  0
    4.2792   -1.8500    0.0000 C   0  0
    6.4167   -2.4250    0.0000 C   0  0
    1.8000   -0.4375    0.0000 C   0  0
   -1.4958   -0.4417    0.0000 N   0  0
    6.9000   -3.0917    0.0000 N   0  0
    5.1042   -1.8417    0.0000 N   0  0
   10.6042   -3.6417    0.0000 O   0  0
    3.0292    0.2833    0.0000 O   0  0
    7.7375   -4.5167    0.0000 O   0  0
    3.8750   -2.5667    0.0000 O   0  0
    6.7500   -1.6667    0.0000 O   0  0
    0.5542    0.2708    0.0000 C   0  0
    0.5667   -1.1542    0.0000 C   0  0
    1.3917   -1.1542    0.0000 C   0  0
    1.3792    0.2750    0.0000 C   0  0
    3.8667   -1.1375    0.0000 C   0  0
    7.7250   -3.0875    0.0000 C   0  0
    5.5917   -2.5125    0.0000 C   0  0
   10.7292   -5.0667    0.0000 O   0  0
    9.0917   -5.2125    0.0000 C   0  0
    9.5667   -5.8917    0.0000 O   0  0
  2  5  1  0
  3  2  1  0
  4 13  1  0
  5  7  1  0
  6  1  1  0
  7 27  1  0
  8  4  1  0
  9  1  2  0
 10  1  2  0
 11 26  1  0
 12 28  1  0
 13 24  2  0
 14  1  1  0
 15 12  1  0
 16 11  1  0
 17  3  2  0
 18  4  2  0
 19  7  2  0
 20 11  2  0
 21 12  2  0
 22  6  1  0
 23  6  2  0
 24 23  1  0
 25 22  2  0
 26  8  1  0
 27 15  1  0
 28 16  1  0
 29  3  1  0
  2 30  1  6
 31 30  1  0
 25 13  1  0
M  END