
  Mrv0541 04051115152D          

 29 31  0  0  0  0            999 V2000
   -2.4197    3.2653    0.0000 C   0  0  0  0  0  0  0  0  0  0  0  0
   -1.7053    3.6778    0.0000 C   0  0  0  0  0  0  0  0  0  0  0  0
    1.1526   -2.9222    0.0000 C   0  0  0  0  0  0  0  0  0  0  0  0
    1.1526   -3.7472    0.0000 C   0  0  0  0  0  0  0  0  0  0  0  0
    2.5816   -2.9222    0.0000 C   0  0  0  0  0  0  0  0  0  0  0  0
    1.1526    1.2028    0.0000 C   0  0  0  0  0  0  0  0  0  0  0  0
   -3.1342    2.0278    0.0000 F   0  0  0  0  0  0  0  0  0  0  0  0
   -2.4197    2.4403    0.0000 C   0  0  0  0  0  0  0  0  0  0  0  0
   -1.7053    4.5028    0.0000 F   0  0  0  0  0  0  0  0  0  0  0  0
   -0.9908    3.2653    0.0000 C   0  0  0  0  0  0  0  0  0  0  0  0
   -0.9908    2.4403    0.0000 C   0  0  0  0  0  0  0  0  0  0  0  0
   -1.7053    2.0278    0.0000 C   0  0  0  0  0  0  0  0  0  0  0  0
   -1.7053    1.2028    0.0000 O   0  0  0  0  0  0  0  0  0  0  0  0
   -0.9908    0.7903    0.0000 C   0  0  0  0  0  0  0  0  0  0  0  0
   -0.9908   -0.0347    0.0000 C   0  0  0  0  0  0  0  0  0  0  0  0
   -0.2763   -0.4472    0.0000 C   0  0  0  0  0  0  0  0  0  0  0  0
   -0.2763   -1.2722    0.0000 C   0  0  0  0  0  0  0  0  0  0  0  0
    0.4381   -1.6847    0.0000 N   0  0  0  0  0  0  0  0  0  0  0  0
   -0.2763    1.2028    0.0000 C   0  0  0  0  0  0  0  0  0  0  0  0
   -0.2763    2.0278    0.0000 O   0  0  0  0  0  0  0  0  0  0  0  0
    0.4381    0.7903    0.0000 N   0  0  0  0  0  0  0  0  0  0  0  0
    0.4381   -0.0347    0.0000 C   0  0  0  0  0  0  0  0  0  0  0  0
    1.1526   -0.4472    0.0000 N   0  0  0  0  0  0  0  0  0  0  0  0
    1.1526   -1.2722    0.0000 C   0  0  0  0  0  0  0  0  0  0  0  0
    1.8671   -1.6847    0.0000 N   0  0  0  0  0  0  0  0  0  0  0  0
    1.8671   -2.5097    0.0000 C   0  0  0  0  0  0  0  0  0  0  0  0
    2.5816   -3.7472    0.0000 C   0  0  0  0  0  0  0  0  0  0  0  0
    3.2960   -4.1597    0.0000 O   0  0  0  0  0  0  0  0  0  0  0  0
    0.4381   -4.1597    0.0000 O   0  0  0  0  0  0  0  0  0  0  0  0
  1  2  2  0  0  0  0
  8  1  1  0  0  0  0
  2  9  1  0  0  0  0
  2 10  1  0  0  0  0
  3  4  1  0  0  0  0
 26  3  1  0  0  0  0
  4 29  1  0  0  0  0
 26  5  1  0  0  0  0
  5 27  1  0  0  0  0
  6 21  1  0  0  0  0
  8  7  1  0  0  0  0
 12  8  2  0  0  0  0
 10 11  2  0  0  0  0
 12 11  1  0  0  0  0
 12 13  1  0  0  0  0
 14 13  1  0  0  0  0
 15 14  2  0  0  0  0
 19 14  1  0  0  0  0
 15 16  1  0  0  0  0
 17 16  2  0  0  0  0
 16 22  1  0  0  0  0
 17 18  1  0  0  0  0
 24 18  2  0  0  0  0
 19 20  2  0  0  0  0
 19 21  1  0  0  0  0
 22 21  1  0  0  0  0
 22 23  2  0  0  0  0
 24 23  1  0  0  0  0
 24 25  1  0  0  0  0
 26 25  1  0  0  0  0
 27 28  1  0  0  0  0
M  END