
  SciTegic09261414482D

 18 18  0  0  0  0            999 V2000
    8.7482   -8.5288    0.0000 C   0  0
    8.7470   -9.3561    0.0000 C   0  0
    9.4619   -9.7689    0.0000 C   0  0
   10.1782   -9.3557    0.0000 C   0  0
   10.1754   -8.5251    0.0000 C   0  0
    9.4600   -8.1160    0.0000 C   0  0
   10.8883   -8.1099    0.0000 O   0  0
   11.6042   -8.5198    0.0000 C   0  0
   12.3172   -8.1046    0.0000 C   0  0
   13.0331   -8.5143    0.0000 C   0  0
   12.3140   -7.2796    0.0000 O   0  0
   13.7460   -8.0992    0.0000 N   0  0
   14.4620   -8.5090    0.0000 C   0  0
   15.1749   -8.0938    0.0000 C   0  0
   14.4651   -9.3339    0.0000 C   0  0
    8.0323   -9.7680    0.0000 C   0  0
    7.3182   -9.3549    0.0000 N   0  0
    8.0316  -10.5930    0.0000 O   0  0
  1  2  2  0
  2  3  1  0
  3  4  2  0
  4  5  1  0
  5  6  2  0
  6  1  1  0
  5  7  1  0
  7  8  1  0
  8  9  1  0
  9 10  1  0
  9 11  1  0
 10 12  1  0
 12 13  1  0
 13 14  1  0
 13 15  1  0
  2 16  1  0
 16 17  1  0
 16 18  2  0
M  END