
          08180812492D 1   1.00000     0.00000     0

 30 33  0     0  0            999 V2000
   12.7361   -0.5083    0.0000 C   0  0  0  0  0  0           0  0  0
   12.7349   -1.3357    0.0000 C   0  0  0  0  0  0           0  0  0
   13.4497   -1.7485    0.0000 C   0  0  0  0  0  0           0  0  0
   14.1662   -1.3352    0.0000 C   0  0  0  0  0  0           0  0  0
   14.1633   -0.5047    0.0000 C   0  0  0  0  0  0           0  0  0
   13.4479   -0.0955    0.0000 C   0  0  0  0  0  0           0  0  0
   12.0202   -1.7473    0.0000 C   0  0  0  0  0  0           0  0  0
   11.2777   -1.3877    0.0000 N   0  0  3  0  0  0           0  0  0
   12.0195   -2.5726    0.0000 O   0  0  0  0  0  0           0  0  0
   14.8762   -0.0895    0.0000 O   0  0  0  0  0  0           0  0  0
   14.8731    0.7355    0.0000 C   0  0  0  0  0  0           0  0  0
   15.5878    1.1459    0.0000 C   0  0  0  0  0  0           0  0  0
   15.5850    1.9701    0.0000 C   0  0  0  0  0  0           0  0  0
   14.8685    2.3807    0.0000 C   0  0  0  0  0  0           0  0  0
   14.1532    1.9611    0.0000 C   0  0  0  0  0  0           0  0  0
   14.1595    1.1383    0.0000 C   0  0  0  0  0  0           0  0  0
   14.8813   -1.7466    0.0000 C   0  0  0  0  0  0           0  0  0
   15.5951   -1.3329    0.0000 N   0  0  0  0  0  0           0  0  0
   16.3102   -1.7443    0.0000 C   0  0  0  0  0  0           0  0  0
   10.6339   -1.9004    0.0000 C   0  0  0  0  0  0           0  0  0
    9.8277   -1.7163    0.0000 C   0  0  0  0  0  0           0  0  0
   11.2785   -0.5636    0.0000 C   0  0  0  0  0  0           0  0  0
    9.4675   -0.9755    0.0000 C   0  0  0  0  0  0           0  0  0
   10.6324   -0.0485    0.0000 C   0  0  0  0  0  0           0  0  0
    9.8276   -0.2345    0.0000 N   0  0  3  0  0  0           0  0  0
    9.3135    0.4107    0.0000 C   0  0  3  0  0  0           0  0  0
    9.1883    1.2297    0.0000 C   0  0  0  0  0  0           0  0  0
    8.5431    0.7156    0.0000 C   0  0  0  0  0  0           0  0  0
   14.8643    3.2057    0.0000 Cl  0  0  0  0  0  0           0  0  0
   16.3025    0.7337    0.0000 F   0  0  0  0  0  0           0  0  0
 14 15  1  0     0  0
  3  4  2  0     0  0
 15 16  2  0     0  0
 16 11  1  0     0  0
  7  8  1  0     0  0
  4 17  1  0     0  0
 17 18  1  0     0  0
  7  9  2  0     0  0
 18 19  1  0     0  0
  4  5  1  0     0  0
  8 20  1  0     0  0
  5 10  1  0     0  0
 20 21  1  0     0  0
  2  3  1  0     0  0
  8 22  1  0     0  0
 10 11  1  0     0  0
 21 23  1  0     0  0
  5  6  2  0     0  0
 22 24  1  0     0  0
 11 12  2  0     0  0
 23 25  1  0     0  0
 24 25  1  0     0  0
  6  1  1  0     0  0
 25 26  1  0     0  0
 27 26  1  0     0  0
 28 27  1  0     0  0
 26 28  1  0     0  0
 12 13  1  0     0  0
  1  2  2  0     0  0
 13 14  2  0     0  0
 14 29  1  0     0  0
  2  7  1  0     0  0
 12 30  1  0     0  0
M  END