
  Mrv0541 04051115152D          

 67 69  0  0  0  0            999 V2000
   -8.4148   -3.3436    0.0000 N   0  0  0  0  0  0  0  0  0  0  0  0
   -7.8627   -2.7305    0.0000 C   0  0  0  0  0  0  0  0  0  0  0  0
   -8.1177   -1.9459    0.0000 N   0  0  0  0  0  0  0  0  0  0  0  0
   -8.9246   -1.7744    0.0000 C   0  0  0  0  0  0  0  0  0  0  0  0
   -9.4767   -2.3875    0.0000 C   0  0  0  0  0  0  0  0  0  0  0  0
   -9.2217   -3.1721    0.0000 C   0  0  0  0  0  0  0  0  0  0  0  0
   -9.7738   -3.7852    0.0000 N   0  0  0  0  0  0  0  0  0  0  0  0
  -10.2304   -2.0519    0.0000 N   0  0  0  0  0  0  0  0  0  0  0  0
  -10.1441   -1.2314    0.0000 C   0  0  0  0  0  0  0  0  0  0  0  0
   -9.3371   -1.0599    0.0000 N   0  0  0  0  0  0  0  0  0  0  0  0
   -7.3939    1.9233    0.0000 O   0  0  0  0  0  0  0  0  0  0  0  0
   -9.0336    1.8283    0.0000 O   0  0  0  0  0  0  0  0  0  0  0  0
  -10.2346    0.4945    0.0000 O   0  0  0  0  0  0  0  0  0  0  0  0
   -8.1946   -0.1347    0.0000 O   0  0  0  0  0  0  0  0  0  0  0  0
   -7.3939    1.0983    0.0000 C   0  0  0  0  0  0  0  0  0  0  0  0
   -8.8621    1.0213    0.0000 C   0  0  1  0  0  0  0  0  0  0  0  0
   -9.4141    0.4082    0.0000 C   0  0  2  0  0  0  0  0  0  0  0  0
   -8.1084    0.6858    0.0000 C   0  0  2  0  0  0  0  0  0  0  0  0
   -9.0016   -0.3062    0.0000 C   0  0  2  0  0  0  0  0  0  0  0  0
   -2.3926    0.6858    0.0000 C   0  0  0  0  0  0  0  0  0  0  0  0
   -2.3926   -0.1392    0.0000 O   0  0  0  0  0  0  0  0  0  0  0  0
   -3.1071    1.0983    0.0000 C   0  0  0  0  0  0  0  0  0  0  0  0
   -3.8216    0.6858    0.0000 C   0  0  0  0  0  0  0  0  0  0  0  0
   -4.5360    1.0983    0.0000 C   0  0  0  0  0  0  0  0  0  0  0  0
   -5.2505    0.6858    0.0000 C   0  0  0  0  0  0  0  0  0  0  0  0
   -5.9650    1.0983    0.0000 C   0  0  0  0  0  0  0  0  0  0  0  0
   -6.6794    0.6858    0.0000 N   0  0  0  0  0  0  0  0  0  0  0  0
   -1.6781    1.0983    0.0000 N   0  0  0  0  0  0  0  0  0  0  0  0
   -0.9637    0.6858    0.0000 C   0  0  1  0  0  0  0  0  0  0  0  0
   -0.2492    1.0983    0.0000 C   0  0  0  0  0  0  0  0  0  0  0  0
   -0.2492    1.9233    0.0000 O   0  0  0  0  0  0  0  0  0  0  0  0
   -0.9637   -0.1392    0.0000 C   0  0  0  0  0  0  0  0  0  0  0  0
   -0.2492   -0.5517    0.0000 C   0  0  0  0  0  0  0  0  0  0  0  0
   -0.2492   -1.3767    0.0000 C   0  0  0  0  0  0  0  0  0  0  0  0
    0.4653   -1.7892    0.0000 C   0  0  0  0  0  0  0  0  0  0  0  0
    0.4653   -2.6142    0.0000 N   0  0  0  0  0  0  0  0  0  0  0  0
    4.7521    0.6858    0.0000 C   0  0  0  0  0  0  0  0  0  0  0  0
    4.7521   -0.1392    0.0000 O   0  0  0  0  0  0  0  0  0  0  0  0
    4.0376    1.0983    0.0000 C   0  0  0  0  0  0  0  0  0  0  0  0
    3.3232    0.6858    0.0000 C   0  0  0  0  0  0  0  0  0  0  0  0
    2.6087    1.0983    0.0000 C   0  0  0  0  0  0  0  0  0  0  0  0
    1.8942    0.6858    0.0000 C   0  0  0  0  0  0  0  0  0  0  0  0
    1.1797    1.0983    0.0000 C   0  0  0  0  0  0  0  0  0  0  0  0
    0.4653    0.6858    0.0000 N   0  0  0  0  0  0  0  0  0  0  0  0
    5.4666    1.0983    0.0000 N   0  0  0  0  0  0  0  0  0  0  0  0
    6.1810    0.6858    0.0000 C   0  0  2  0  0  0  0  0  0  0  0  0
    6.1810   -0.1392    0.0000 C   0  0  0  0  0  0  0  0  0  0  0  0
    5.4666   -0.5517    0.0000 C   0  0  0  0  0  0  0  0  0  0  0  0
    5.4666   -1.3767    0.0000 C   0  0  0  0  0  0  0  0  0  0  0  0
    4.7521   -1.7892    0.0000 N   0  0  0  0  0  0  0  0  0  0  0  0
    4.7521   -2.6142    0.0000 C   0  0  0  0  0  0  0  0  0  0  0  0
    5.4666   -3.0267    0.0000 N   0  0  0  0  0  0  0  0  0  0  0  0
    4.0376   -3.0267    0.0000 N   0  0  0  0  0  0  0  0  0  0  0  0
    6.8955    1.0983    0.0000 C   0  0  0  0  0  0  0  0  0  0  0  0
    6.8955    1.9233    0.0000 O   0  0  0  0  0  0  0  0  0  0  0  0
    7.6100    0.6858    0.0000 N   0  0  0  0  0  0  0  0  0  0  0  0
    8.3245    1.0983    0.0000 C   0  0  2  0  0  0  0  0  0  0  0  0
    9.0389    0.6858    0.0000 C   0  0  0  0  0  0  0  0  0  0  0  0
    9.7534    1.0983    0.0000 C   0  0  0  0  0  0  0  0  0  0  0  0
   10.4679    0.6858    0.0000 C   0  0  0  0  0  0  0  0  0  0  0  0
   11.1823    1.0983    0.0000 N   0  0  0  0  0  0  0  0  0  0  0  0
   11.8968    0.6858    0.0000 C   0  0  0  0  0  0  0  0  0  0  0  0
   12.6113    1.0983    0.0000 N   0  0  0  0  0  0  0  0  0  0  0  0
   11.8968   -0.1392    0.0000 N   0  0  0  0  0  0  0  0  0  0  0  0
    8.3245    1.9233    0.0000 C   0  0  0  0  0  0  0  0  0  0  0  0
    9.0389    2.3358    0.0000 O   0  0  0  0  0  0  0  0  0  0  0  0
    7.6100    2.3358    0.0000 N   0  0  0  0  0  0  0  0  0  0  0  0
  2  1  2  0  0  0  0
  6  1  1  0  0  0  0
  2  3  1  0  0  0  0
  4  3  2  0  0  0  0
  4  5  1  0  0  0  0
  4 10  1  0  0  0  0
  5  6  2  0  0  0  0
  5  8  1  0  0  0  0
  6  7  1  0  0  0  0
  9  8  2  0  0  0  0
  9 10  1  0  0  0  0
 19 10  1  1  0  0  0
 15 11  2  0  0  0  0
 16 12  1  6  0  0  0
 17 13  1  6  0  0  0
 18 14  1  0  0  0  0
 19 14  1  0  0  0  0
 18 15  1  1  0  0  0
 16 17  1  0  0  0  0
 16 18  1  0  0  0  0
 17 19  1  0  0  0  0
 20 21  2  0  0  0  0
 22 20  1  0  0  0  0
 23 22  1  0  0  0  0
 24 23  1  0  0  0  0
 24 25  1  0  0  0  0
 25 26  1  0  0  0  0
 26 27  1  0  0  0  0
 29 28  1  1  0  0  0
 30 29  1  0  0  0  0
 32 29  1  0  0  0  0
 30 31  2  0  0  0  0
 33 32  1  0  0  0  0
 34 33  1  0  0  0  0
 35 34  1  0  0  0  0
 35 36  1  0  0  0  0
 37 38  2  0  0  0  0
 39 37  1  0  0  0  0
 40 39  1  0  0  0  0
 41 40  1  0  0  0  0
 41 42  1  0  0  0  0
 42 43  1  0  0  0  0
 43 44  1  0  0  0  0
 46 45  1  1  0  0  0
 47 46  1  0  0  0  0
 54 46  1  0  0  0  0
 48 47  1  0  0  0  0
 48 49  1  0  0  0  0
 49 50  1  0  0  0  0
 51 50  1  0  0  0  0
 51 52  1  0  0  0  0
 51 53  2  0  0  0  0
 54 55  2  0  0  0  0
 57 56  1  1  0  0  0
 57 58  1  0  0  0  0
 65 57  1  0  0  0  0
 58 59  1  0  0  0  0
 60 59  1  0  0  0  0
 60 61  1  0  0  0  0
 62 61  1  0  0  0  0
 62 63  1  0  0  0  0
 62 64  2  0  0  0  0
 65 66  2  0  0  0  0
 15 27  1  0  0  0  0
 20 28  1  0  0  0  0
 30 44  1  0  0  0  0
 37 45  1  0  0  0  0
 54 56  1  0  0  0  0
 65 67  1  0  0  0  0
M  END