
          11280715182D 1   1.00000     0.00000     0

 18 19  0     0  0            999 V2000
    2.3042   -2.5500    0.0000 C   0  0  0  0  0  0           0  0  0
    2.3042   -3.1500    0.0000 O   0  0  0  0  0  0           0  0  0
   -0.8125   -1.3542    0.0000 O   0  0  0  0  0  0           0  0  0
   -0.2958   -1.6542    0.0000 C   0  0  0  0  0  0           0  0  0
    1.7875   -2.2500    0.0000 C   0  0  0  0  0  0           0  0  0
    0.7417   -2.2542    0.0000 C   0  0  0  0  0  0           0  0  0
    2.8250   -2.2500    0.0000 O   0  0  0  0  0  0           0  0  0
   -1.3333   -1.6542    0.0000 C   0  0  0  0  0  0           0  0  0
    1.2667   -2.5542    0.0000 C   0  0  0  0  0  0           0  0  0
   -0.2958   -2.2542    0.0000 C   0  0  0  0  0  0           0  0  0
    0.2250   -1.3500    0.0000 C   0  0  0  0  0  0           0  0  0
    0.7417   -1.6500    0.0000 C   0  0  0  0  0  0           0  0  0
    0.2250   -2.5542    0.0000 C   0  0  0  0  0  0           0  0  0
   -1.8500   -1.3542    0.0000 C   0  0  0  0  0  0           0  0  0
   -1.3333   -2.2500    0.0000 C   0  0  0  0  0  0           0  0  0
   -1.8500   -2.5542    0.0000 C   0  0  0  0  0  0           0  0  0
   -2.3708   -1.6500    0.0000 C   0  0  0  0  0  0           0  0  0
   -2.3708   -2.2542    0.0000 C   0  0  0  0  0  0           0  0  0
  2  1  2  0     0  0
  3  4  1  0     0  0
  4 10  2  0     0  0
  5  1  1  0     0  0
  6  9  1  0     0  0
  7  1  1  0     0  0
  8  3  1  0     0  0
  9  5  1  0     0  0
 10 13  1  0     0  0
 11 12  2  0     0  0
 12  6  1  0     0  0
 13  6  2  0     0  0
 14  8  1  0     0  0
 15  8  2  0     0  0
 16 15  1  0     0  0
 17 14  2  0     0  0
 18 16  2  0     0  0
 11  4  1  0     0  0
 17 18  1  0     0  0
M  END