
  SciTegic04091511462D

 58 61  0  0  1  0            999 V2000
    3.9413   -2.2677    0.0000 N   0  0
    4.5446   -2.8601    0.0000 C   0  0
    5.2234   -1.2430    0.0000 C   0  0
    4.4155   -1.5384    0.0000 C   0  0  2  0  0  0
    4.8650   -4.1300    0.0000 N   0  0
    7.2817   -4.1220    0.0000 N   0  0
    6.0792   -1.3019    0.0000 N   0  0
    9.6241   -4.7570    0.0000 N   0  0
    5.6620   -4.3322    0.0000 C   0  0
    7.9708   -4.5742    0.0000 C   0  0
    3.2170   -2.7109    0.0000 C   0  0
    4.2034   -3.6235    0.0000 C   0  0  2  0  0  0
   10.3679   -4.3729    0.0000 C   0  0
    3.3739   -3.5220    0.0000 C   0  0
   10.0773   -2.7627    0.0000 N   0  0
    8.8087   -4.5803    0.0000 C   0  0  2  0  0  0
    6.4880   -4.3395    0.0000 C   0  0  2  0  0  0
    7.5567   -1.4961    0.0000 C   0  0
    8.3207   -1.8270    0.0000 N   0  0
   10.4370   -3.5291    0.0000 C   0  0  1  0  0  0
    6.7761   -1.7956    0.0000 C   0  0  2  0  0  0
    9.8109   -1.9614    0.0000 C   0  0
   12.3399   -2.4598    0.0000 C   0  0
    5.3552   -2.7066    0.0000 O   0  0
    5.1075   -0.4262    0.0000 O   0  0
    3.9017   -0.8929    0.0000 C   0  0
    5.5561   -5.1504    0.0000 O   0  0
    7.7318   -5.3638    0.0000 O   0  0
   11.0544   -4.8305    0.0000 O   0  0
    8.7178   -5.4002    0.0000 C   0  0
    6.5943   -5.1576    0.0000 C   0  0
    7.5741   -0.6713    0.0000 O   0  0
    9.0958   -1.5192    0.0000 C   0  0
   10.4581   -1.4498    0.0000 O   0  0
   12.6189   -1.6834    0.0000 O   0  0
   11.2489   -3.3826    0.0000 C   0  0
   11.5280   -2.6063    0.0000 C   0  0
    9.3825   -5.8889    0.0000 C   0  0
   12.8727   -3.0897    0.0000 N   0  0
    6.8790   -0.9770    0.0000 C   0  0
   10.7119   -6.8663    0.0000 C   0  0
    5.9390   -5.6588    0.0000 C   0  0
    6.3244    0.3399    0.0000 S   0  0
    9.2916   -6.7089    0.0000 C   0  0
   10.1381   -5.5576    0.0000 C   0  0
   10.8027   -6.0463    0.0000 C   0  0
    9.9563   -7.1976    0.0000 C   0  0
   11.3766   -7.3549    0.0000 O   0  0
    4.2037   -0.1252    0.0000 C   0  0
    6.2215   -0.4787    0.0000 C   0  0
    5.6669    0.8382    0.0000 C   0  0
    5.1773   -5.3418    0.0000 C   0  0
    6.0454   -6.4769    0.0000 C   0  0
    3.6899    0.5202    0.0000 C   0  0
    5.0196   -0.0029    0.0000 C   0  0
    5.3901   -6.9781    0.0000 C   0  0
    4.5220   -5.8430    0.0000 C   0  0
    4.6284   -6.6611    0.0000 C   0  0
  2  1  1  0
  3  4  1  0
  4  1  1  0
 12  5  1  6
  6 17  1  0
  7  3  1  0
  8 16  1  0
  9  5  1  0
 10  6  1  0
 11  1  1  0
 12  2  1  0
 13  8  1  0
 14 11  2  0
 15 22  1  0
 16 10  1  0
 17  9  1  0
 18 21  1  0
 19 18  1  0
 20 15  1  0
 21  7  1  0
 22 33  1  0
 23 37  1  0
 24  2  2  0
 25  3  2  0
  4 26  1  1
 27  9  2  0
 28 10  2  0
 29 13  2  0
 16 30  1  6
 17 31  1  1
 32 18  2  0
 33 19  1  0
 34 22  2  0
 35 23  2  0
 20 36  1  1
 37 36  1  0
 38 30  1  0
 39 23  1  0
 21 40  1  6
 41 46  2  0
 42 31  1  0
 43 50  1  0
 44 38  1  0
 45 38  2  0
 46 45  1  0
 47 44  2  0
 48 41  1  0
 49 26  1  0
 50 40  1  0
 51 43  1  0
 52 42  2  0
 53 42  1  0
 54 49  1  0
 55 49  1  0
 56 53  2  0
 57 52  1  0
 58 56  1  0
 14 12  1  0
 13 20  1  0
 58 57  2  0
 41 47  1  0
M  END