
          11280714542D 1   1.00000     0.00000     0

 29 33  0     0  0            999 V2000
    1.2750   -2.5792    0.0000 N   0  0  3  0  0  0           0  0  0
    1.2250   -1.2417    0.0000 N   0  0  0  0  0  0           0  0  0
    0.7667   -1.9292    0.0000 C   0  0  0  0  0  0           0  0  0
    2.0542   -2.3000    0.0000 C   0  0  0  0  0  0           0  0  0
    2.0167   -1.4667    0.0000 C   0  0  0  0  0  0           0  0  0
    4.7917   -5.0625    0.0000 C   0  0  0  0  0  0           0  0  0
    5.5792   -3.9792    0.0000 N   0  0  0  0  0  0           0  0  0
    4.8000   -4.2292    0.0000 N   0  0  0  0  0  0           0  0  0
    6.0667   -4.6542    0.0000 N   0  0  0  0  0  0           0  0  0
    5.5792   -5.3167    0.0000 N   0  0  0  0  0  0           0  0  0
    4.1250   -5.5417    0.0000 C   0  0  0  0  0  0           0  0  0
    3.3292   -5.7417    0.0000 C   0  0  0  0  0  0           0  0  0
    1.0417   -3.3667    0.0000 C   0  0  0  0  0  0           0  0  0
    2.7542   -5.1542    0.0000 C   0  0  0  0  0  0           0  0  0
    2.9875   -4.3542    0.0000 C   0  0  0  0  0  0           0  0  0
    1.9542   -5.3500    0.0000 C   0  0  0  0  0  0           0  0  0
    1.6167   -3.9667    0.0000 C   0  0  0  0  0  0           0  0  0
   -0.0583   -1.9625    0.0000 C   0  0  0  0  0  0           0  0  0
    2.7292   -2.7792    0.0000 C   0  0  0  0  0  0           0  0  0
    1.3792   -4.7542    0.0000 C   0  0  0  0  0  0           0  0  0
    2.4125   -3.7625    0.0000 C   0  0  0  0  0  0           0  0  0
    2.6375   -0.9292    0.0000 C   0  0  0  0  0  0           0  0  0
    4.6917   -6.1292    0.0000 C   0  0  0  0  0  0           0  0  0
    3.0917   -6.5375    0.0000 C   0  0  0  0  0  0           0  0  0
    3.5167   -2.5542    0.0000 C   0  0  0  0  0  0           0  0  0
    3.4500   -1.0750    0.0000 C   0  0  0  0  0  0           0  0  0
    3.6667   -7.1292    0.0000 C   0  0  0  0  0  0           0  0  0
    4.4667   -6.9292    0.0000 C   0  0  0  0  0  0           0  0  0
    3.8375   -1.7917    0.0000 C   0  0  0  0  0  0           0  0  0
  2  3  2  0     0  0
  3  1  1  0     0  0
  4  1  1  0     0  0
  5  4  2  0     0  0
  6 11  1  0     0  0
  7  8  2  0     0  0
  8  6  1  0     0  0
  9 10  1  0     0  0
 10  6  2  0     0  0
 11 12  2  0     0  0
 12 14  1  0     0  0
 13  1  1  0     0  0
 14 15  2  0     0  0
 15 21  1  0     0  0
 16 20  2  0     0  0
 17 13  1  0     0  0
 18  3  1  0     0  0
 19  4  1  0     0  0
 20 17  1  0     0  0
 21 17  2  0     0  0
 22  5  1  0     0  0
 23 11  1  0     0  0
 24 12  1  0     0  0
 25 19  1  0     0  0
 26 22  1  0     0  0
 27 24  2  0     0  0
 28 27  1  0     0  0
 29 25  1  0     0  0
  5  2  1  0     0  0
 16 14  1  0     0  0
 26 29  1  0     0  0
 23 28  2  0     0  0
  9  7  1  0     0  0
M  END