
  SciTegic01181116592D

 31 34  0  0  0  0            999 V2000
   13.6109  -16.0417    0.0000 C   0  0
   13.6107  -16.8664    0.0000 O   0  0
   12.8967  -15.6292    0.0000 N   0  0
   12.1845  -16.0462    0.0000 C   0  0
   11.4726  -15.6372    0.0000 C   0  0
   11.4685  -14.8122    0.0000 N   0  0
   12.1826  -14.3979    0.0000 C   0  0
   12.9008  -14.8085    0.0000 C   0  0
   10.7529  -14.4023    0.0000 C   0  0
   10.0402  -14.8172    0.0000 C   0  0
   10.7500  -13.5777    0.0000 C   0  0
   14.3251  -15.6296    0.0000 C   0  0
   14.3263  -14.8025    0.0000 C   0  0
   15.0397  -16.0422    0.0000 C   0  0
   15.0379  -14.3899    0.0000 C   0  0
   15.7529  -14.7989    0.0000 C   0  0
   15.7578  -15.6250    0.0000 C   0  0
   16.5450  -15.8757    0.0000 N   0  0
   17.0267  -15.2044    0.0000 C   0  0
   16.5364  -14.5394    0.0000 C   0  0
   16.9564  -13.8297    0.0000 C   0  0
   17.7810  -13.8386    0.0000 N   0  0
   18.1788  -14.5581    0.0000 C   0  0
   18.9997  -14.5689    0.0000 C   0  0
   19.4236  -13.8611    0.0000 C   0  0
   19.0202  -13.1406    0.0000 C   0  0
   18.1931  -13.1280    0.0000 C   0  0
   16.8044  -16.6585    0.0000 S   0  0
   16.2561  -17.2745    0.0000 C   0  0
   17.5139  -16.2394    0.0000 O   0  0
   17.3849  -17.2390    0.0000 O   0  0
 16 15  2  0
 15 13  1  0
 16 17  1  0
  6  7  1  0
  7  8  1  0
  6  9  1  0
  1  3  1  0
 17 18  1  0
 18 19  1  0
 19 20  2  0
 20 16  1  0
  9 10  1  0
 20 21  1  0
  3  4  1  0
 21 22  1  0
 22 23  1  0
  9 11  1  0
  1  2  2  0
  1 12  1  0
  3  8  1  0
 13 12  2  0
 22 27  1  0
 23 24  1  0
 24 25  1  0
 25 26  1  0
 26 27  1  0
  4  5  1  0
 18 28  1  0
 12 14  1  0
 28 29  1  0
 14 17  2  0
 28 30  2  0
  5  6  1  0
 28 31  2  0
M  END