
  SciTegic11201309402D

 15 15  0  0  1  0            999 V2000
    0.4667    0.3583    0.0000 C   0  0
    0.0542   -0.3625    0.0000 C   0  0  2  0  0  0
    0.8792   -0.3625    0.0000 C   0  0  1  0  0  0
   -0.6625   -0.7792    0.0000 C   0  0  1  0  0  0
    0.4667    1.1833    0.0000 C   0  0
   -1.3750   -0.3625    0.0000 C   0  0
   -0.2500    1.5958    0.0000 O   0  0
   -1.3750    0.4625    0.0000 O   0  0
    1.5917   -0.7792    0.0000 C   0  0
   -1.2500   -1.3542    0.0000 N   0  0
    1.1792    1.5958    0.0000 O   0  0
   -2.0875   -0.7792    0.0000 O   0  0
    2.3042   -0.3625    0.0000 O   0  0
   -1.6550   -0.9016    0.0000 H   0  0
    0.9193    0.1391    0.0000 H   0  0
  2  1  1  0
  3  1  1  0
  2  4  1  0
  5  1  1  0
  6  4  1  0
  7  5  2  0
  8  6  2  0
  3  9  1  6
 10  4  1  0
 11  5  1  0
 12  6  1  0
 13  9  1  0
  4 14  1  1
  3  2  1  0
  2 15  1  1
M  END