
  SciTegic12011114592D

 17 19  0  0  0  0            999 V2000
    1.4201   -1.4550    0.0000 N   0  0
    2.1389   -1.0501    0.0000 C   0  0
    2.1477   -0.2251    0.0000 C   0  0
    1.4376    0.1949    0.0000 C   0  0
    0.7188   -0.2100    0.0000 C   0  0
    0.0087    0.2100    0.0000 C   0  0
   -0.7101   -0.1949    0.0000 C   0  0
   -0.7188   -1.0199    0.0000 C   0  0
   -0.0087   -1.4399    0.0000 C   0  0
    0.7101   -1.0350    0.0000 C   0  0
    2.8490   -1.4701    0.0000 N   0  0
   -1.4201    0.2251    0.0000 C   0  0
   -1.4114    1.0501    0.0000 C   0  0
   -2.1215    1.4701    0.0000 C   0  0
   -2.8403    1.0652    0.0000 C   0  0
   -2.8490    0.2402    0.0000 C   0  0
   -2.1389   -0.1798    0.0000 C   0  0
  1  2  2  0
  2  3  1  0
  3  4  2  0
  4  5  1  0
  5  6  2  0
  6  7  1  0
  7  8  2  0
  8  9  1  0
  9 10  2  0
  1 10  1  0
  5 10  1  0
  2 11  1  0
 12 13  1  0
 13 14  1  0
 14 15  1  0
 15 16  1  0
 16 17  1  0
 12 17  1  0
  7 12  1  0
M  END