
  SciTegic03291108512D

 24 25  0  0  1  0            999 V2000
   -0.3380   -3.8830    0.0000 O   0  0
    7.5212   -2.6455    0.0000 O   0  0
    5.3778   -4.7080    0.0000 O   0  0
   -3.1958   -2.2330    0.0000 O   0  0
    1.0910   -4.7080    0.0000 O   0  0
    6.0923   -3.4705    0.0000 N   0  0
    4.6633   -3.4705    0.0000 N   0  0
    2.5199   -3.8830    0.0000 N   0  0
    5.3778   -3.8830    0.0000 C   0  0
    6.8067   -3.8830    0.0000 C   0  0
    6.0923   -2.6455    0.0000 C   0  0
   -1.0524   -3.4705    0.0000 C   0  0
    7.5212   -3.4705    0.0000 C   0  0
    6.8067   -2.2330    0.0000 C   0  0
   -1.7669   -3.8830    0.0000 C   0  0
   -1.0524   -2.6455    0.0000 C   0  0
   -2.4814   -2.6455    0.0000 C   0  0
   -2.4814   -3.4705    0.0000 C   0  0
   -1.7669   -2.2330    0.0000 C   0  0
    1.0910   -3.8830    0.0000 C   0  0  1  0  0  0
    0.3765   -3.4705    0.0000 C   0  0
    3.9489   -3.8830    0.0000 C   0  0
    1.8054   -3.4705    0.0000 C   0  0
    3.2344   -3.4705    0.0000 C   0  0
  1 12  1  0
  1 21  1  0
  2 13  1  0
  2 14  1  0
  3  9  2  0
  4 17  1  0
 20  5  1  1
  6  9  1  0
  6 10  1  0
  6 11  1  0
  7  9  1  0
  7 22  1  0
  8 23  1  0
  8 24  1  0
 10 13  1  0
 11 14  1  0
 12 15  2  0
 12 16  1  0
 15 18  1  0
 16 19  2  0
 17 18  2  0
 17 19  1  0
 20 21  1  0
 20 23  1  0
 22 24  1  0
M  END