
  Mrv0541 04051115152D          

 12 13  0  0  0  0            999 V2000
    0.3300    1.5710    0.0000 O   0  0  0  0  0  0  0  0  0  0  0  0
    0.3300    0.7460    0.0000 C   0  0  0  0  0  0  0  0  0  0  0  0
   -0.3845    0.3335    0.0000 C   0  0  0  0  0  0  0  0  0  0  0  0
   -1.1691    0.5884    0.0000 N   0  0  0  0  0  0  0  0  0  0  0  0
    1.0445    0.3335    0.0000 N   0  0  0  0  0  0  0  0  0  0  0  0
    1.0445   -0.4915    0.0000 C   0  0  0  0  0  0  0  0  0  0  0  0
    1.7590   -0.9040    0.0000 N   0  0  0  0  0  0  0  0  0  0  0  0
    0.3300   -0.9040    0.0000 N   0  0  0  0  0  0  0  0  0  0  0  0
   -0.3845   -0.4915    0.0000 C   0  0  0  0  0  0  0  0  0  0  0  0
   -1.1691   -0.7465    0.0000 N   0  0  0  0  0  0  0  0  0  0  0  0
   -1.6540   -0.0790    0.0000 C   0  0  0  0  0  0  0  0  0  0  0  0
   -2.4790   -0.0790    0.0000 S   0  0  0  0  0  0  0  0  0  0  0  0
  2  1  2  0  0  0  0
  3  2  1  0  0  0  0
  2  5  1  0  0  0  0
  3  4  1  0  0  0  0
  3  9  2  0  0  0  0
 11  4  2  0  0  0  0
  6  5  1  0  0  0  0
  6  7  1  0  0  0  0
  6  8  2  0  0  0  0
  9  8  1  0  0  0  0
  9 10  1  0  0  0  0
 11 10  1  0  0  0  0
 11 12  1  0  0  0  0
M  END