
          05080814032D 1   1.00000     0.00000     0

 31 34  0     0  0            999 V2000
   12.1402  -12.2166    0.0000 C   0  0  0  0  0  0           0  0  0
   12.1391  -13.0440    0.0000 C   0  0  0  0  0  0           0  0  0
   12.8539  -13.4569    0.0000 C   0  0  0  0  0  0           0  0  0
   12.8521  -11.8039    0.0000 C   0  0  0  0  0  0           0  0  0
   13.5675  -12.2130    0.0000 C   0  0  0  0  0  0           0  0  0
   13.5677  -13.0394    0.0000 C   0  0  0  0  0  0           0  0  0
   14.3538  -13.2946    0.0000 N   0  0  3  0  0  0           0  0  0
   14.8395  -12.6258    0.0000 C   0  0  0  0  0  0           0  0  0
   14.3534  -11.9574    0.0000 N   0  0  0  0  0  0           0  0  0
   12.8557  -14.2841    0.0000 C   0  0  0  0  0  0           0  0  0
   12.1424  -14.6985    0.0000 O   0  0  0  0  0  0           0  0  0
   13.5713  -14.6947    0.0000 O   0  0  0  0  0  0           0  0  0
   14.6090  -14.0792    0.0000 C   0  0  0  0  0  0           0  0  0
   15.4160  -14.2505    0.0000 C   0  0  0  0  0  0           0  0  0
   15.6693  -15.0363    0.0000 C   0  0  0  0  0  0           0  0  0
   16.4755  -15.2077    0.0000 C   0  0  0  0  0  0           0  0  0
   17.0283  -14.5941    0.0000 C   0  0  0  0  0  0           0  0  0
   16.7693  -13.8063    0.0000 C   0  0  0  0  0  0           0  0  0
   15.9637  -13.6386    0.0000 C   0  0  0  0  0  0           0  0  0
   17.8356  -14.7644    0.0000 N   0  0  3  0  0  0           0  0  0
   18.1732  -15.5144    0.0000 C   0  0  0  0  0  0           0  0  0
   18.9935  -15.4268    0.0000 C   0  0  0  0  0  0           0  0  0
   19.1638  -14.6195    0.0000 C   0  0  0  0  0  0           0  0  0
   18.4486  -14.2083    0.0000 C   0  0  0  0  0  0           0  0  0
   18.3613  -13.3924    0.0000 C   0  0  0  0  0  0           0  0  0
   15.6645  -12.6255    0.0000 C   0  0  0  0  0  0           0  0  0
   16.0767  -11.9109    0.0000 C   0  0  0  0  0  0           0  0  0
   15.6639  -11.1966    0.0000 C   0  0  0  0  0  0           0  0  0
   16.0762  -10.4819    0.0000 C   0  0  0  0  0  0           0  0  0
   19.0230  -12.9077    0.0000 O   0  0  0  0  0  0           0  0  0
   17.6098  -13.0588    0.0000 O   0  0  0  0  0  0           0  0  0
 14 15  2  0     0  0
  5  4  2  0     0  0
 15 16  1  0     0  0
  6  7  1  0     0  0
 16 17  2  0     0  0
  7  8  1  0     0  0
 17 18  1  0     0  0
  8  9  2  0     0  0
 18 19  2  0     0  0
 19 14  1  0     0  0
  9  5  1  0     0  0
 17 20  1  0     0  0
 20 21  1  0     0  0
  4  1  1  0     0  0
  5  6  1  0     0  0
 10 11  1  0     0  0
 21 22  2  0     0  0
 22 23  1  0     0  0
 23 24  2  0     0  0
 24 20  1  0     0  0
 10 12  2  0     0  0
 24 25  1  0     0  0
  3 10  1  0     0  0
  8 26  1  0     0  0
  2  3  1  0     0  0
 26 27  1  0     0  0
  7 13  1  0     0  0
 27 28  1  0     0  0
  3  6  2  0     0  0
 28 29  1  0     0  0
 13 14  1  0     0  0
  1  2  2  0     0  0
 25 30  1  0     0  0
 25 31  2  0     0  0
M  END