
  SciTegic06281210282D

 34 38  0  0  0  0            999 V2000
   -5.9723    0.9709    0.0000 C   0  0
   -5.9734    0.1435    0.0000 C   0  0
   -5.2586   -0.2694    0.0000 N   0  0
   -5.2604    1.3836    0.0000 C   0  0
   -4.5450    0.9745    0.0000 C   0  0
   -4.5443    0.1477    0.0000 C   0  0
   -3.8290   -0.2633    0.0000 N   0  0
   -3.1139    0.1515    0.0000 C   0  0
   -3.1187    0.9814    0.0000 N   0  0
   -3.8346    1.3887    0.0000 C   0  0
   -3.8390    2.2136    0.0000 N   0  0
   -3.1267    2.6299    0.0000 C   0  0
   -2.4100    2.2212    0.0000 C   0  0
   -2.4109    1.3947    0.0000 C   0  0
   -1.6951    0.9861    0.0000 C   0  0
   -0.9818    1.4025    0.0000 C   0  0
   -0.9889    2.2317    0.0000 C   0  0
   -1.7052    2.6366    0.0000 C   0  0
   -1.7127    3.4616    0.0000 Cl  0  0
   -0.2646    0.9947    0.0000 Cl  0  0
   -2.4002   -0.2583    0.0000 N   0  0
   -2.3990   -1.0843    0.0000 C   0  0
   -1.6870   -1.4939    0.0000 C   0  0
   -0.9717   -1.0822    0.0000 N   0  0
   -0.9729   -0.2562    0.0000 C   0  0
   -1.6895    0.1580    0.0000 C   0  0
   -0.2572   -1.4946    0.0000 C   0  0
   -0.2571   -2.3196    0.0000 O   0  0
    0.4572   -1.0820    0.0000 C   0  0  2  0  0  0
    1.1711   -1.5003    0.0000 N   0  0
    1.8834   -1.0912    0.0000 C   0  0
    1.8876   -0.2659    0.0000 C   0  0
    1.1732    0.1488    0.0000 C   0  0
    0.4547   -0.2620    0.0000 C   0  0
  7  8  2  0
 16 17  1  0
  5  4  2  0
 17 18  2  0
 18 13  1  0
  8  9  1  0
 18 19  1  0
  4  1  1  0
 16 20  1  0
 21 22  1  0
  9 10  2  0
 10  5  1  0
 10 11  1  0
  2  3  1  0
 11 12  1  0
 21 26  1  0
 22 23  1  0
 23 24  1  0
 24 25  1  0
 25 26  1  0
  8 21  1  0
  5  6  1  0
 24 27  1  0
 12 13  1  0
 27 28  2  0
  3  6  2  0
 29 27  1  1
 29 30  1  0
 13 14  2  0
  6  7  1  0
 14 15  1  0
  1  2  2  0
 15 16  2  0
 29 34  1  0
 30 31  1  0
 31 32  1  0
 32 33  1  0
 33 34  1  0
M  END