
  SciTegic05171617282D

 32 35  0  0  0  0            999 V2000
   -4.1727    5.8517    0.0000 O   0  0
   -5.2118    5.2515    0.0000 C   0  0
   -6.5114    6.0021    0.0000 N   0  0
   -6.5122    7.5029    0.0000 C   0  0
   -7.8118    8.2535    0.0000 C   0  0
   -7.8148    9.7535    0.0000 C   0  0
   -9.1152   10.5010    0.0000 C   0  0
  -10.4129    9.7485    0.0000 C   0  0
  -10.4100    8.2485    0.0000 C   0  0
   -9.1095    7.5010    0.0000 C   0  0
   -5.2110    3.7506    0.0000 C   0  0
   -3.9114    3.0001    0.0000 N   0  0
   -3.9106    1.4992    0.0000 S   0  0
   -4.9500    2.0989    0.0000 O   0  0
   -4.9497    0.8990    0.0000 O   0  0
   -2.6111    0.7486    0.0000 C   0  0
   -2.6111   -0.7486    0.0000 C   0  0
   -1.2964   -1.4973    0.0000 C   0  0
    0.0000   -0.7486    0.0000 C   0  0
    1.2964   -1.4973    0.0000 N   0  0
    2.5929   -0.7486    0.0000 C   0  0
    3.6321   -1.3486    0.0000 O   0  0
    2.5929    0.7486    0.0000 C   0  0
    1.2964    1.4973    0.0000 C   0  0
    0.0000    0.7486    0.0000 C   0  0
   -1.2964    1.4973    0.0000 C   0  0
   -6.5106    3.0000    0.0000 C   0  0
   -6.5124    1.5000    0.0000 C   0  0
   -7.8124    0.7515    0.0000 C   0  0
   -9.1105    1.5030    0.0000 C   0  0
   -9.1087    3.0030    0.0000 C   0  0
   -7.8088    3.7515    0.0000 C   0  0
  1  2  2  0
  2  3  1  0
  3  4  1  0
  4  5  1  0
  5  6  2  0
  6  7  1  0
  7  8  2  0
  8  9  1  0
  9 10  2  0
  5 10  1  0
  2 11  1  0
 11 12  1  0
 12 13  1  0
 13 14  2  0
 13 15  2  0
 13 16  1  0
 16 17  2  0
 17 18  1  0
 18 19  2  0
 19 20  1  0
 20 21  1  0
 21 22  2  0
 21 23  1  0
 23 24  1  0
 24 25  1  0
 19 25  1  0
 25 26  2  0
 16 26  1  0
 11 27  1  0
 27 28  2  0
 28 29  1  0
 29 30  2  0
 30 31  1  0
 31 32  2  0
 27 32  1  0
M  END