
  SciTegic02271514582D

 16 18  0  0  0  0            999 V2000
   24.2140   -2.2535    0.0000 C   0  0
   24.9193   -1.8490    0.0000 N   0  0
   24.9193   -1.0318    0.0000 C   0  0
   24.2140   -0.6191    0.0000 N   0  0
   23.5087   -1.8490    0.0000 C   0  0
   23.5087   -1.0273    0.0000 N   0  0
   22.7272   -0.7733    0.0000 C   0  0
   22.2441   -1.4381    0.0000 C   0  0
   22.7272   -2.1028    0.0000 C   0  0
   24.2140   -3.0707    0.0000 N   0  0
   24.9217   -3.4793    0.0000 C   0  0
   24.9175   -4.2975    0.0000 C   0  0
   25.6243   -4.7060    0.0000 C   0  0
   26.3330   -4.2974    0.0000 N   0  0
   26.3304   -3.4760    0.0000 C   0  0
   25.6229   -3.0711    0.0000 C   0  0
  6  4  1  0
  5  1  1  0
  1  2  2  0
  2  3  1  0
  3  4  2  0
  5  6  1  0
  6  7  1  0
  7  8  2  0
  8  9  1  0
  9  5  2  0
  1 10  1  0
 10 11  1  0
 11 12  2  0
 12 13  1  0
 13 14  2  0
 14 15  1  0
 15 16  2  0
 16 11  1  0
M  END