
  CDK    9/16/09,10:0

 26 28  0  0  0  0  0  0  0  0999 V2000
   15.9583  -26.1253    0.0000 N   0  0  0  0  0  0  0  0  0  0  0  0
   15.5539  -25.4089    0.0000 C   0  0  0  0  0  0  0  0  0  0  0  0
   14.7325  -25.4035    0.0000 C   0  0  0  0  0  0  0  0  0  0  0  0
   14.3131  -26.1143    0.0000 C   0  0  0  0  0  0  0  0  0  0  0  0
   14.7214  -26.8324    0.0000 C   0  0  0  0  0  0  0  0  0  0  0  0
   15.5489  -26.8394    0.0000 C   0  0  0  0  0  0  0  0  0  0  0  0
   16.7833  -26.1280    0.0000 C   0  0  0  0  0  0  0  0  0  0  0  0
   17.1934  -26.8438    0.0000 C   0  0  0  0  0  0  0  0  0  0  0  0
   17.1982  -25.4150    0.0000 C   0  0  0  0  0  0  0  0  0  0  0  0
    8.0784  -26.5499    0.0000 C   0  0  0  0  0  0  0  0  0  0  0  0
    8.0771  -27.3774    0.0000 C   0  0  0  0  0  0  0  0  0  0  0  0
    8.7901  -27.7903    0.0000 C   0  0  0  0  0  0  0  0  0  0  0  0
    9.5093  -27.3769    0.0000 C   0  0  0  0  0  0  0  0  0  0  0  0
    9.5063  -26.5458    0.0000 C   0  0  0  0  0  0  0  0  0  0  0  0
    8.7881  -26.1371    0.0000 C   0  0  0  0  0  0  0  0  0  0  0  0
   10.2186  -26.1298    0.0000 C   0  0  0  0  0  0  0  0  0  0  0  0
   10.9351  -26.5388    0.0000 C   0  0  0  0  0  0  0  0  0  0  0  0
   11.0280  -27.3586    0.0000 C   0  0  0  0  0  0  0  0  0  0  0  0
   11.8358  -27.5261    0.0000 N   0  0  0  0  0  0  0  0  0  0  0  0
   12.2444  -26.8100    0.0000 C   0  0  0  0  0  0  0  0  0  0  0  0
   11.6897  -26.1995    0.0000 N   0  0  0  0  0  0  0  0  0  0  0  0
   11.8576  -25.3918    0.0000 C   0  0  0  0  0  0  0  0  0  0  0  0
   13.0693  -26.8175    0.0000 O   0  0  0  0  0  0  0  0  0  0  0  0
   10.2145  -25.3049    0.0000 O   0  0  0  0  0  0  0  0  0  0  0  0
   13.4883  -26.1068    0.0000 C   0  0  0  0  0  0  0  0  0  0  0  0
    7.3621  -27.7889    0.0000 Br  0  0  0  0  0  0  0  0  0  0  0  0
  1  2  1  0  0  0  0 
 13 14  1  0  0  0  0 
  1  7  1  0  0  0  0 
 14 15  2  0  0  0  0 
 15 10  1  0  0  0  0 
 14 16  1  0  0  0  0 
  7  8  1  0  0  0  0 
 16 17  1  0  0  0  0 
 17 18  2  0  0  0  0 
  1  6  1  0  0  0  0 
  7  9  1  0  0  0  0 
  2  3  1  0  0  0  0 
  3  4  1  0  0  0  0 
 18 19  1  0  0  0  0 
 19 20  2  0  0  0  0 
 20 21  1  0  0  0  0 
 21 17  1  0  0  0  0 
 10 11  2  0  0  0  0 
 21 22  1  0  0  0  0 
  4  5  1  0  0  0  0 
 20 23  1  0  0  0  0 
 11 12  1  0  0  0  0 
 16 24  2  0  0  0  0 
  5  6  1  0  0  0  0 
 23 25  1  0  0  0  0 
 25  4  1  0  0  0  0 
 12 13  2  0  0  0  0 
 11 26  1  0  0  0  0 
M  END