
  SciTegic05201615352D

 32 34  0  0  0  0            999 V2000
   -2.6038   -4.0571    0.0000 P   0  0
   -3.2712   -4.5420    0.0000 O   0  0
   -2.1188   -4.7245    0.0000 O   0  0
   -3.0887   -3.3897    0.0000 O   0  0
   -1.9363   -3.5722    0.0000 O   0  0
   -2.0226   -2.7517    0.0000 P   0  0
   -1.2021   -2.6655    0.0000 O   0  0
   -2.8430   -2.8379    0.0000 O   0  0
   -2.1088   -1.9312    0.0000 O   0  0
   -1.4414   -1.4463    0.0000 P   0  0
   -0.9564   -2.1137    0.0000 O   0  0
   -1.9263   -0.7789    0.0000 O   0  0
   -0.7739   -0.9614    0.0000 O   0  0
   -0.8602   -0.1409    0.0000 C   0  0
   -0.1927    0.3440    0.0000 C   0  0  1  0  0  0
   -0.1927    1.1690    0.0000 O   0  0
    0.5919    0.0891    0.0000 C   0  0  1  0  0  0
    0.8468   -0.6955    0.0000 O   0  0
    1.0768    0.7565    0.0000 C   0  0  1  0  0  0
    1.9018    0.7565    0.0000 O   0  0
    0.5919    1.4240    0.0000 C   0  0  2  0  0  0
    0.8468    2.2086    0.0000 N   0  0
    0.3619    2.8760    0.0000 C   0  0
    0.8468    3.5435    0.0000 N   0  0
    1.6315    3.2885    0.0000 C   0  0
    2.3459    3.7010    0.0000 C   0  0
    2.3459    4.5260    0.0000 O   0  0
    3.0604    3.2885    0.0000 N   0  0
    3.0604    2.4635    0.0000 C   0  0
    3.7749    2.0510    0.0000 N   0  0
    2.3459    2.0510    0.0000 N   0  0
    1.6315    2.4635    0.0000 C   0  0
  2  1  2  0
  3  1  1  0
  4  1  1  0
  5  1  1  0
  6  5  1  0
  7  6  2  0
  6  8  1  0
  9  6  1  0
 10  9  1  0
 11 10  2  0
 10 12  1  0
 13 10  1  0
 14 13  1  0
 15 14  1  1
 15 16  1  0
 17 15  1  0
 21 16  1  0
 17 18  1  6
 19 17  1  0
 19 20  1  6
 21 19  1  0
 21 22  1  1
 23 22  1  0
 32 22  1  0
 23 24  2  0
 25 24  1  0
 25 26  1  0
 32 25  2  0
 26 27  2  0
 26 28  1  0
 29 28  1  0
 29 30  1  0
 29 31  2  0
 32 31  1  0
M  END