
          05080814042D 1   1.00000     0.00000     0

 37 42  0     1  0            999 V2000
   -4.2573  -19.6484    0.0000 C   0  0  0  0  0  0           0  0  0
   -4.9682  -20.0633    0.0000 C   0  0  0  0  0  0           0  0  0
   -4.9612  -20.8898    0.0000 C   0  0  0  0  0  0           0  0  0
   -4.2472  -21.2933    0.0000 C   0  0  0  0  0  0           0  0  0
   -3.5440  -20.0557    0.0000 C   0  0  0  0  0  0           0  0  0
   -3.5379  -20.8834    0.0000 C   0  0  0  0  0  0           0  0  0
   -2.8219  -21.2899    0.0000 C   0  0  0  0  0  0           0  0  0
   -2.8340  -19.6342    0.0000 C   0  0  0  0  0  0           0  0  0
   -2.1134  -20.0452    0.0000 C   0  0  2  0  0  0           0  0  0
   -2.1089  -20.8749    0.0000 C   0  0  2  0  0  0           0  0  0
   -1.3920  -21.2836    0.0000 N   0  0  3  0  0  0           0  0  0
   -0.6750  -20.8671    0.0000 C   0  0  0  0  0  0           0  0  0
   -0.6795  -20.0374    0.0000 C   0  0  1  0  0  0           0  0  0
   -1.4011  -19.6241    0.0000 C   0  0  0  0  0  0           0  0  0
   -2.1212  -19.2161    0.0000 H   0  0  0  0  0  0           0  0  0
   -2.1171  -21.6999    0.0000 H   0  0  0  0  0  0           0  0  0
    0.0332  -19.6216    0.0000 C   0  0  0  0  0  0           0  0  0
    0.7496  -20.0310    0.0000 N   0  0  3  0  0  0           0  0  0
    0.0295  -18.7964    0.0000 O   0  0  0  0  0  0           0  0  0
    0.7473  -20.8592    0.0000 C   0  0  0  0  0  0           0  0  0
    1.4597  -21.2686    0.0000 C   0  0  0  0  0  0           0  0  0
    2.1749  -20.8563    0.0000 N   0  0  3  0  0  0           0  0  0
    2.1732  -20.0302    0.0000 C   0  0  0  0  0  0           0  0  0
    1.4563  -19.6163    0.0000 C   0  0  0  0  0  0           0  0  0
   -4.2613  -18.8232    0.0000 O   0  0  0  0  0  0           0  0  0
   -4.9779  -18.4141    0.0000 C   0  0  0  0  0  0           0  0  0
   -1.3886  -22.1088    0.0000 C   0  0  0  0  0  0           0  0  0
    2.8897  -21.2684    0.0000 C   0  0  0  0  0  0           0  0  0
    2.8858  -22.0928    0.0000 C   0  0  0  0  0  0           0  0  0
    3.5999  -22.5047    0.0000 C   0  0  0  0  0  0           0  0  0
    4.3152  -22.0917    0.0000 C   0  0  0  0  0  0           0  0  0
    3.5974  -20.8539    0.0000 C   0  0  0  0  0  0           0  0  0
    4.3099  -21.2624    0.0000 C   0  0  0  0  0  0           0  0  0
    5.0178  -20.8497    0.0000 C   0  0  0  0  0  0           0  0  0
    5.0144  -20.0286    0.0000 C   0  0  0  0  0  0           0  0  0
    4.2972  -19.6220    0.0000 C   0  0  0  0  0  0           0  0  0
    3.5922  -20.0371    0.0000 C   0  0  0  0  0  0           0  0  0
  7 10  1  0     0  0
 17 18  1  0     0  0
  9  8  1  0     0  0
 17 19  2  0     0  0
 18 20  1  0     0  0
  9 10  1  0     0  0
  3  4  2  0     0  0
  4  6  1  0     0  0
  5  6  2  0     0  0
  1  2  2  0     0  0
 18 24  1  0     0  0
 20 21  1  0     0  0
 21 22  1  0     0  0
 22 23  1  0     0  0
 23 24  1  0     0  0
  5  1  1  0     0  0
  1 25  1  0     0  0
  2  3  1  0     0  0
 25 26  1  0     0  0
  9 14  1  0     0  0
 11 27  1  0     0  0
 10 11  1  0     0  0
 22 28  1  0     0  0
 11 12  1  0     0  0
 28 29  2  0     0  0
 12 13  1  0     0  0
 29 30  1  0     0  0
 13 14  1  0     0  0
 30 31  2  0     0  0
 31 33  1  0     0  0
 32 28  1  0     0  0
  9 15  1  6     0  0
 32 33  1  0     0  0
  5  8  1  0     0  0
 33 34  2  0     0  0
 10 16  1  1     0  0
 34 35  1  0     0  0
  6  7  1  0     0  0
 35 36  2  0     0  0
 13 17  1  1     0  0
 36 37  1  0     0  0
 37 32  2  0     0  0
M  END