
  SciTegic10301317112D

 69 72  0  0  1  0            999 V2000
   13.3574   -5.9805    0.0000 N   0  0
   12.6535   -5.5685    0.0000 C   0  0
    0.4865   -4.4124    0.0000 C   0  0
    4.0690   -5.6200    0.0000 C   0  0
    6.2209   -6.0149    0.0000 C   0  0
    8.3612   -5.5857    0.0000 C   0  0
   10.5074   -5.9805    0.0000 C   0  0
    1.9229   -6.0492    0.0000 C   0  0
    2.6440   -5.6314    0.0000 N   0  0
   14.1300   -6.2724    0.0000 C   0  0  2  0  0  0
    3.3537   -6.0434    0.0000 C   0  0  1  0  0  0
   -0.8355   -4.1435    0.0000 N   0  0
    4.7901   -6.0149    0.0000 N   0  0
    9.0823   -5.9919    0.0000 N   0  0
    6.9248   -5.5857    0.0000 N   0  0
   11.2170   -5.5513    0.0000 N   0  0
   -0.2747   -4.7444    0.0000 C   0  0
    5.4940   -5.6028    0.0000 C   0  0  1  0  0  0
    9.7920   -5.5685    0.0000 C   0  0  1  0  0  0
    7.6459   -5.9977    0.0000 C   0  0  2  0  0  0
   14.3418   -7.0793    0.0000 C   0  0
   11.9381   -5.9805    0.0000 C   0  0  1  0  0  0
   13.3231   -9.2941    0.0000 C   0  0
    0.3835   -3.5941    0.0000 C   0  0
    1.2018   -4.8131    0.0000 C   0  0
    1.2076   -5.6372    0.0000 C   0  0  2  0  0  0
   -0.4235   -3.4224    0.0000 C   0  0
   12.6077   -9.6890    0.0000 N   0  0
   12.6592   -4.7444    0.0000 O   0  0
    4.0576   -4.7959    0.0000 O   0  0
    6.2209   -6.8390    0.0000 O   0  0
    8.3498   -4.7615    0.0000 O   0  0
   10.5131   -6.8046    0.0000 O   0  0
    1.9287   -6.8733    0.0000 O   0  0
    5.4940   -4.7787    0.0000 C   0  0
   13.7523   -7.6573    0.0000 O   0  0
    9.7749   -4.7444    0.0000 C   0  0
    7.6459   -6.8218    0.0000 C   0  0
   13.3288   -8.4700    0.0000 N   0  0
   15.1316   -7.2854    0.0000 N   0  0
   14.0327   -9.7062    0.0000 N   0  0
   13.3975   -5.1564    0.0000 C   0  0
    6.2037   -4.3609    0.0000 C   0  0
    0.4979   -6.0606    0.0000 N   0  0
    7.6288   -3.5254    0.0000 C   0  0
    3.3537   -6.8562    0.0000 C   0  0
    6.1980   -3.5368    0.0000 C   0  0
    6.9248   -4.7615    0.0000 C   0  0
    6.9077   -3.1133    0.0000 C   0  0
    7.6402   -4.3495    0.0000 C   0  0
   14.6508   -5.6372    0.0000 C   0  0
    8.3327   -3.1076    0.0000 O   0  0
    4.0748   -7.2682    0.0000 O   0  0
   14.2044   -4.9504    0.0000 C   0  0
   11.9210   -6.8046    0.0000 C   0  0
    0.9329   -2.9702    0.0000 C   0  0
    8.3784   -7.2339    0.0000 C   0  0
   10.4902   -4.3323    0.0000 C   0  0
   -0.6810   -2.6326    0.0000 C   0  0
   15.3376   -8.0923    0.0000 C   0  0
   12.6249   -8.0522    0.0000 C   0  0
   12.6363   -7.2281    0.0000 C   0  0
    9.0881   -6.8160    0.0000 C   0  0
    8.3784   -8.0580    0.0000 C   0  0
   10.4788   -3.5082    0.0000 C   0  0
   11.2113   -4.7272    0.0000 C   0  0
   16.1387   -8.2983    0.0000 C   0  0
    0.6754   -2.1862    0.0000 C   0  0
   -0.1316   -2.0145    0.0000 C   0  0
  2  1  1  0
  3 25  1  0
  4 13  1  0
  5 15  1  0
  6 14  1  0
  7 16  1  0
  8  9  1  0
  9 11  1  0
 10  1  1  0
 11  4  1  0
 12 17  1  0
 13 18  1  0
 14 19  1  0
 15 20  1  0
 16 22  1  0
 17  3  2  0
 18  5  1  0
 19  7  1  0
 20  6  1  0
 10 21  1  1
 22  2  1  0
 23 39  2  0
 24  3  1  0
 26 25  1  1
 26  8  1  0
 27 24  2  0
 28 23  1  0
 29  2  2  0
 30  4  2  0
 31  5  2  0
 32  6  2  0
 33  7  2  0
 34  8  2  0
 18 35  1  1
 36 21  2  0
 19 37  1  1
 20 38  1  1
 39 61  1  0
 40 21  1  0
 41 23  1  0
 42  1  1  0
 43 35  1  0
 44 26  1  0
 45 50  2  0
 11 46  1  6
 47 43  1  0
 48 43  2  0
 49 47  2  0
 50 48  1  0
 51 10  1  0
 52 45  1  0
 53 46  1  0
 54 42  1  0
 22 55  1  6
 56 24  1  0
 57 38  1  0
 58 37  1  0
 59 27  1  0
 60 40  1  0
 61 62  1  0
 62 55  1  0
 63 57  1  0
 64 57  1  0
 65 58  1  0
 66 58  1  0
 67 60  1  0
 68 56  2  0
 69 68  1  0
 54 51  1  0
 49 45  1  0
 27 12  1  0
 59 69  2  0
M  END