
          11280714552D 1   1.00000     0.00000     0

 33 37  0     0  0            999 V2000
    0.0417   -0.3167    0.0000 N   0  0  3  0  0  0           0  0  0
    0.8250   -0.0292    0.0000 C   0  0  0  0  0  0           0  0  0
   -0.0083    1.0208    0.0000 N   0  0  0  0  0  0           0  0  0
    0.7792    0.7958    0.0000 C   0  0  0  0  0  0           0  0  0
   -0.4708    0.3333    0.0000 C   0  0  0  0  0  0           0  0  0
    2.9042   -3.8167    0.0000 C   0  0  0  0  0  0           0  0  0
    3.9792   -3.0125    0.0000 N   0  0  0  0  0  0           0  0  0
    3.1542   -3.0250    0.0000 N   0  0  0  0  0  0           0  0  0
    4.2417   -3.7917    0.0000 N   0  0  0  0  0  0           0  0  0
    3.5792   -4.2875    0.0000 N   0  0  0  0  0  0           0  0  0
    2.1292   -4.0792    0.0000 C   0  0  0  0  0  0           0  0  0
    1.3042   -4.0417    0.0000 C   0  0  0  0  0  0           0  0  0
    1.4917   -0.5167    0.0000 C   0  0  0  0  0  0           0  0  0
   -0.1875   -1.1042    0.0000 C   0  0  0  0  0  0           0  0  0
    0.9292   -3.3042    0.0000 C   0  0  0  0  0  0           0  0  0
    1.3500   -1.3292    0.0000 O   0  0  0  0  0  0           0  0  0
    1.3792   -2.6125    0.0000 C   0  0  0  0  0  0           0  0  0
    0.1042   -3.2625    0.0000 C   0  0  0  0  0  0           0  0  0
    0.1875   -1.8417    0.0000 C   0  0  0  0  0  0           0  0  0
    1.4042    1.3333    0.0000 C   0  0  0  0  0  0           0  0  0
   -1.2958    0.3000    0.0000 C   0  0  0  0  0  0           0  0  0
    1.0042   -1.8792    0.0000 C   0  0  0  0  0  0           0  0  0
   -0.2625   -2.5292    0.0000 C   0  0  0  0  0  0           0  0  0
    2.5042   -4.8125    0.0000 C   0  0  0  0  0  0           0  0  0
    0.8542   -4.7292    0.0000 C   0  0  0  0  0  0           0  0  0
    2.2875   -0.2917    0.0000 C   0  0  0  0  0  0           0  0  0
   -1.7333    1.0000    0.0000 C   0  0  0  0  0  0           0  0  0
    2.2167    1.1875    0.0000 C   0  0  0  0  0  0           0  0  0
   -2.5583    0.9708    0.0000 C   0  0  0  0  0  0           0  0  0
    2.0542   -5.5042    0.0000 C   0  0  0  0  0  0           0  0  0
    1.2292   -5.4667    0.0000 C   0  0  0  0  0  0           0  0  0
    2.6042    0.4708    0.0000 C   0  0  0  0  0  0           0  0  0
   -2.9958    1.6708    0.0000 C   0  0  0  0  0  0           0  0  0
  2  1  1  0     0  0
  3  5  2  0     0  0
  4  2  2  0     0  0
  5  1  1  0     0  0
  6 11  1  0     0  0
  7  8  2  0     0  0
  8  6  1  0     0  0
  9 10  1  0     0  0
 10  6  2  0     0  0
 11 12  2  0     0  0
 12 15  1  0     0  0
 13  2  1  0     0  0
 14  1  1  0     0  0
 15 18  2  0     0  0
 16 13  2  0     0  0
 17 22  2  0     0  0
 18 23  1  0     0  0
 19 14  1  0     0  0
 20  4  1  0     0  0
 21  5  1  0     0  0
 22 19  1  0     0  0
 23 19  2  0     0  0
 24 11  1  0     0  0
 25 12  1  0     0  0
 26 13  1  0     0  0
 27 21  1  0     0  0
 28 20  1  0     0  0
 29 27  1  0     0  0
 30 31  1  0     0  0
 31 25  2  0     0  0
 32 26  1  0     0  0
 33 29  1  0     0  0
  4  3  1  0     0  0
 15 17  1  0     0  0
 28 32  1  0     0  0
 24 30  2  0     0  0
  9  7  1  0     0  0
M  END