
  SciTegic11201309402D

 50 52  0  0  0  0            999 V2000
   15.3033   -4.3756    0.0000 C   0  0
   14.5866   -4.7839    0.0000 C   0  0
   14.5819   -5.6042    0.0000 C   0  0
   15.2922   -6.0223    0.0000 C   0  0
   16.0089   -5.6140    0.0000 N   0  0
   16.0153   -4.7875    0.0000 C   0  0
   12.4403   -4.3237    0.0000 C   0  0
   13.1637   -3.9312    0.0000 C   0  0  1  0  0  0
   13.8678   -4.3621    0.0000 C   0  0
   13.8486   -5.1856    0.0000 O   0  0
   12.4169   -5.1472    0.0000 C   0  0
   11.6900   -5.5409    0.0000 C   0  0
   11.6703   -6.3632    0.0000 C   0  0
   12.3752   -6.7955    0.0000 C   0  0
   13.1025   -6.3961    0.0000 C   0  0
   13.1208   -5.5758    0.0000 C   0  0
   12.3535   -7.6190    0.0000 O   0  0
   16.0172   -3.9651    0.0000 C   0  0
   16.7334   -4.3771    0.0000 O   0  0
   16.7334   -2.7270    0.0000 C   0  0  2  0  0  0
   16.7334   -1.9031    0.0000 C   0  0
   17.4454   -3.1389    0.0000 C   0  0
   17.4454   -1.4911    0.0000 O   0  0
   18.1616   -2.7270    0.0000 C   0  0
   18.1616   -1.9031    0.0000 O   0  0
   16.0172   -0.6672    0.0000 C   0  0  1  0  0  0
   16.7334   -0.2511    0.0000 C   0  0
   12.4790   -2.6744    0.0000 C   0  0
   12.5024   -1.8467    0.0000 C   0  0
   11.7556   -3.0670    0.0000 O   0  0
   17.4693   -0.6790    0.0000 C   0  0
   16.7341    0.5952    0.0000 C   0  0
   15.2812   -0.2396    0.0000 C   0  0
   15.2815    0.6108    0.0000 O   0  0
   13.8088   -0.2391    0.0000 C   0  0  1  0  0  0
   13.0724   -0.6661    0.0000 C   0  0
   13.0721   -1.5165    0.0000 S   0  0
   13.8091    0.6114    0.0000 C   0  0
   13.0731    1.0348    0.0000 O   0  0
   11.6284   -8.0125    0.0000 P   0  0
   10.9251   -7.5814    0.0000 O   0  0
   11.6067   -8.8373    0.0000 O   0  0
   11.4360   -7.2103    0.0000 O   0  0
   13.1819   -3.1064    0.0000 N   0  0
   14.5860   -3.9136    0.0000 N   0  0
   16.0193   -3.1401    0.0000 N   0  0
   16.0180   -1.4922    0.0000 N   0  0
   18.8744   -3.0904    0.0000 N   0  0
   14.5449   -0.6117    0.0000 N   0  0
   14.5455    1.0342    0.0000 N   0  0
  7 11  1  0
 11 12  2  0
 12 13  1  0
 13 14  2  0
 14 15  1  0
 15 16  2  0
 16 11  1  0
 14 17  1  0
  1 18  1  0
 18 19  2  0
 20 21  1  0
 20 22  1  6
 21 23  2  0
 22 24  1  0
 24 25  2  0
 26 27  1  6
 28 29  1  0
 28 30  2  0
 27 31  1  0
 27 32  1  0
 26 33  1  0
 33 34  2  0
 35 36  1  0
 36 37  1  0
 35 38  1  1
 38 39  2  0
 29 37  1  0
  4  5  1  0
 17 40  1  0
  5  6  1  0
 40 41  1  0
 40 42  2  0
  1  2  1  0
 40 43  1  0
  1  6  1  0
  2  3  1  0
  3  4  1  0
  8  7  1  6
  8  9  1  0
  9 10  2  0
 21 47  1  0
 47 26  1  0
  9 45  1  0
 45  1  1  0
 24 48  1  0
 44 28  1  0
  8 44  1  0
 33 49  1  0
 49 35  1  0
 18 46  1  0
 46 20  1  0
 38 50  1  0
M  END