
          08180812492D 1   1.00000     0.00000     0

 35 41  0     1  0            999 V2000
    9.9017   -7.6752    0.0000 C   0  0  0  0  0  0           0  0  0
    9.4725   -8.3816    0.0000 C   0  0  0  0  0  0           0  0  0
    9.8696   -9.1044    0.0000 C   0  0  0  0  0  0           0  0  0
   10.6957   -9.1220    0.0000 C   0  0  0  0  0  0           0  0  0
   10.7236   -7.6910    0.0000 C   0  0  0  0  0  0           0  0  0
   11.1283   -8.4126    0.0000 C   0  0  0  0  0  0           0  0  0
   11.9704   -6.9916    0.0000 C   0  0  2  0  0  0           0  0  0
   11.1415   -6.9797    0.0000 C   0  0  0  0  0  0           0  0  0
   12.3751   -7.7132    0.0000 C   0  0  1  0  0  0           0  0  0
   11.9532   -8.4266    0.0000 C   0  0  2  0  0  0           0  0  0
   12.3578   -9.1446    0.0000 C   0  0  2  0  0  0           0  0  0
   13.1858   -9.1557    0.0000 C   0  0  1  0  0  0           0  0  0
   13.6078   -8.4424    0.0000 C   0  0  0  0  0  0           0  0  0
   13.2016   -7.7180    0.0000 C   0  0  0  0  0  0           0  0  0
   11.4050   -9.5319    0.0000 O   0  0  0  0  0  0           0  0  0
   12.7827   -8.4247    0.0000 O   0  0  0  0  0  0           0  0  0
   12.1792   -6.1895    0.0000 N   0  0  3  0  0  0           0  0  0
   11.7338   -7.6255    0.0000 C   0  0  0  0  0  0           0  0  0
   12.3166   -7.0386    0.0000 C   0  0  0  0  0  0           0  0  0
   11.3801   -6.4017    0.0000 H   0  0  0  0  0  0           0  0  0
   12.2180   -5.3662    0.0000 C   0  0  0  0  0  0           0  0  0
   12.9503   -4.9883    0.0000 C   0  0  3  0  0  0           0  0  0
   13.7722   -5.0298    0.0000 C   0  0  0  0  0  0           0  0  0
   13.3943   -4.2974    0.0000 C   0  0  0  0  0  0           0  0  0
    9.4424   -9.8092    0.0000 O   0  0  0  0  0  0           0  0  0
   13.5893   -9.8743    0.0000 N   0  0  0  0  0  0           0  0  0
   14.4134   -9.8842    0.0000 C   0  0  0  0  0  0           0  0  0
   14.8340   -9.1754    0.0000 O   0  0  0  0  0  0           0  0  0
   12.5663   -9.9356    0.0000 H   0  0  0  0  0  0           0  0  0
   14.8169  -10.6027    0.0000 C   0  0  0  0  0  0           0  0  0
   15.6410  -10.6126    0.0000 C   0  0  0  0  0  0           0  0  0
   16.1180  -11.2809    0.0000 C   0  0  0  0  0  0           0  0  0
   16.9048  -11.0355    0.0000 C   0  0  0  0  0  0           0  0  0
   16.9147  -10.2113    0.0000 C   0  0  0  0  0  0           0  0  0
   16.1339   -9.9475    0.0000 S   0  0  0  0  0  0           0  0  0
  9 16  1  1     0  0
  6 10  1  0     0  0
  7 17  1  0     0  0
  9  7  1  0     0  0
 10 18  1  1     0  0
  7  8  1  0     0  0
 18 19  1  0     0  0
 19 17  1  0     0  0
  9 10  1  0     0  0
  7 20  1  6     0  0
  4  6  1  0     0  0
 17 21  1  0     0  0
  5  1  1  0     0  0
 21 22  1  0     0  0
 23 22  1  0     0  0
 24 23  1  0     0  0
 22 24  1  0     0  0
  5  6  2  0     0  0
  2  3  1  0     0  0
  3 25  1  0     0  0
  1  2  2  0     0  0
 12 26  1  1     0  0
  9 14  1  0     0  0
 26 27  1  0     0  0
 10 11  1  0     0  0
 27 28  2  0     0  0
 11 12  1  0     0  0
 11 29  1  1     0  0
 12 13  1  0     0  0
 27 30  1  0     0  0
 13 14  1  0     0  0
 30 31  1  0     0  0
 31 32  2  0     0  0
  3  4  2  0     0  0
  4 15  1  0     0  0
 11 15  1  0     0  0
  5  8  1  0     0  0
 32 33  1  0     0  0
 33 34  2  0     0  0
 34 35  1  0     0  0
 35 31  1  0     0  0
M  END