
          05080814042D 1   1.00000     0.00000     0

 42 46  0     1  0            999 V2000
   -2.5358   -6.7749    0.0000 C   0  0  0  0  0  0           0  0  0
   -2.5370   -7.6013    0.0000 C   0  0  0  0  0  0           0  0  0
   -1.8231   -8.0137    0.0000 C   0  0  0  0  0  0           0  0  0
   -1.8249   -6.3627    0.0000 C   0  0  0  0  0  0           0  0  0
   -1.1104   -6.7713    0.0000 C   0  0  0  0  0  0           0  0  0
   -1.1070   -7.6033    0.0000 C   0  0  0  0  0  0           0  0  0
   -0.3887   -8.0142    0.0000 C   0  0  0  0  0  0           0  0  0
   -0.3955   -6.3501    0.0000 C   0  0  0  0  0  0           0  0  0
    0.3275   -6.7654    0.0000 C   0  0  2  0  0  0           0  0  0
    0.3285   -7.5991    0.0000 C   0  0  2  0  0  0           0  0  0
    1.0471   -8.0128    0.0000 N   0  0  3  0  0  0           0  0  0
    1.7692   -7.5973    0.0000 C   0  0  0  0  0  0           0  0  0
    1.7681   -6.7635    0.0000 C   0  0  1  0  0  0           0  0  0
    1.0450   -6.3454    0.0000 C   0  0  0  0  0  0           0  0  0
    1.0470   -8.8367    0.0000 C   0  0  0  0  0  0           0  0  0
    2.4817   -6.3514    0.0000 C   0  0  0  0  0  0           0  0  0
    3.1954   -6.7631    0.0000 N   0  0  3  0  0  0           0  0  0
    2.4815   -5.5274    0.0000 O   0  0  0  0  0  0           0  0  0
    3.1898   -7.5919    0.0000 C   0  0  0  0  0  0           0  0  0
    3.8994   -8.0037    0.0000 C   0  0  0  0  0  0           0  0  0
    4.6153   -7.5949    0.0000 N   0  0  3  0  0  0           0  0  0
    4.6171   -6.7700    0.0000 C   0  0  0  0  0  0           0  0  0
    3.9029   -6.3538    0.0000 C   0  0  0  0  0  0           0  0  0
    0.3204   -8.4229    0.0000 H   0  0  0  0  0  0           0  0  0
    0.3204   -5.9385    0.0000 H   0  0  0  0  0  0           0  0  0
   -1.8275   -5.5382    0.0000 O   0  0  0  0  0  0           0  0  0
   -2.5423   -5.1284    0.0000 C   0  0  0  0  0  0           0  0  0
    5.3274   -8.0095    0.0000 C   0  0  0  0  0  0           0  0  0
    5.3211   -8.8319    0.0000 C   0  0  0  0  0  0           0  0  0
    6.0323   -9.2463    0.0000 C   0  0  0  0  0  0           0  0  0
    6.7484   -8.8367    0.0000 C   0  0  0  0  0  0           0  0  0
    6.7487   -8.0085    0.0000 C   0  0  0  0  0  0           0  0  0
    6.0367   -7.5978    0.0000 C   0  0  0  0  0  0           0  0  0
    7.4665   -9.2514    0.0000 N   0  3  0  0  0  0           0  0  0
    8.1810   -8.8410    0.0000 O   0  0  0  0  0  0           0  0  0
    7.4647  -10.0754    0.0000 O   0  5  0  0  0  0           0  0  0
   -2.5448   -4.3045    0.0000 O   0  0  0  0  0  0           0  0  0
   -3.2547   -5.5425    0.0000 O   0  0  0  0  0  0           0  0  0
   -3.9695   -5.1326    0.0000 C   0  0  3  0  0  0           0  0  0
   -4.6859   -4.7192    0.0000 C   0  0  0  0  0  0           0  0  0
   -4.3803   -5.8469    0.0000 C   0  0  0  0  0  0           0  0  0
   -3.5560   -4.4199    0.0000 C   0  0  0  0  0  0           0  0  0
  4  1  1  0     0  0
  5  6  1  0     0  0
 17 23  1  0     0  0
 19 20  1  0     0  0
 20 21  1  0     0  0
 21 22  1  0     0  0
 22 23  1  0     0  0
 10 24  1  1     0  0
  2  3  1  0     0  0
  9 25  1  6     0  0
  3  6  2  0     0  0
  9 14  1  0     0  0
 10 11  1  0     0  0
 26 27  1  0     0  0
  4 26  1  0     0  0
 11 12  1  0     0  0
 21 28  1  0     0  0
 12 13  1  0     0  0
 28 29  2  0     0  0
 13 14  1  0     0  0
 29 30  1  0     0  0
  1  2  2  0     0  0
 30 31  2  0     0  0
 11 15  1  0     0  0
 31 32  1  0     0  0
  5  8  1  0     0  0
 32 33  2  0     0  0
 33 28  1  0     0  0
 13 16  1  1     0  0
  6  7  1  0     0  0
 16 17  1  0     0  0
 34 35  2  0     0  0
 34 36  1  0     0  0
 31 34  1  0     0  0
  7 10  1  0     0  0
 27 37  2  0     0  0
 16 18  2  0     0  0
 27 38  1  0     0  0
 17 19  1  0     0  0
 38 39  1  0     0  0
  9  8  1  0     0  0
 39 40  1  0     0  0
  9 10  1  0     0  0
 39 41  1  0     0  0
  5  4  2  0     0  0
 39 42  1  0     0  0
M  CHG  2  34   1  36  -1
M  END