
  CDK    9/16/09,10:4

 34 37  0  0  0  0  0  0  0  0999 V2000
   15.2478   -3.1481    0.0000 C   0  0  0  0  0  0  0  0  0  0  0  0
   16.0771   -3.1292    0.0000 C   0  0  0  0  0  0  0  0  0  0  0  0
   16.4732   -2.4054    0.0000 C   0  0  0  0  0  0  0  0  0  0  0  0
   16.0444   -1.6960    0.0000 C   0  0  0  0  0  0  0  0  0  0  0  0
   15.2150   -1.7149    0.0000 C   0  0  0  0  0  0  0  0  0  0  0  0
   14.8145   -2.4433    0.0000 N   0  0  0  0  0  0  0  0  0  0  0  0
   15.4500   -2.7675    0.0000 C   0  0  0  0  0  0  0  0  0  0  0  0
   15.7734   -2.0724    0.0000 C   0  0  0  0  0  0  0  0  0  0  0  0
   13.9898   -2.4707    0.0000 C   0  0  0  0  0  0  0  0  0  0  0  0
   17.2982   -2.3953    0.0000 C   0  0  0  0  0  0  0  0  0  0  0  0
   18.1231   -2.3810    0.0000 C   0  0  0  0  0  0  0  0  0  0  0  0
   17.3104   -3.2202    0.0000 O   0  0  0  0  0  0  0  0  0  0  0  0
   17.2860   -1.5704    0.0000 C   0  0  0  0  0  0  0  0  0  0  0  0
   17.9951   -1.1501    0.0000 C   0  0  0  0  0  0  0  0  0  0  0  0
   17.9833   -0.3259    0.0000 C   0  0  0  0  0  0  0  0  0  0  0  0
   17.2622    0.0768    0.0000 C   0  0  0  0  0  0  0  0  0  0  0  0
   16.5516   -0.3507    0.0000 C   0  0  0  0  0  0  0  0  0  0  0  0
   16.5669   -1.1734    0.0000 C   0  0  0  0  0  0  0  0  0  0  0  0
   18.5461   -3.0906    0.0000 C   0  0  0  0  0  0  0  0  0  0  0  0
   19.3702   -3.0767    0.0000 C   0  0  0  0  0  0  0  0  0  0  0  0
   19.7711   -2.3547    0.0000 C   0  0  0  0  0  0  0  0  0  0  0  0
   19.3419   -1.6452    0.0000 C   0  0  0  0  0  0  0  0  0  0  0  0
   18.5191   -1.6625    0.0000 C   0  0  0  0  0  0  0  0  0  0  0  0
   13.5538   -1.7703    0.0000 C   0  0  0  0  0  0  0  0  0  0  0  0
   12.7292   -1.7978    0.0000 O   0  0  0  0  0  0  0  0  0  0  0  0
   12.2932   -1.0975    0.0000 C   0  0  0  0  0  0  0  0  0  0  0  0
   11.4687   -1.1250    0.0000 C   0  0  0  0  0  0  0  0  0  0  0  0
   11.0363   -0.4233    0.0000 C   0  0  0  0  0  0  0  0  0  0  0  0
   10.2125   -0.4503    0.0000 C   0  0  0  0  0  0  0  0  0  0  0  0
    9.8233   -1.1787    0.0000 C   0  0  0  0  0  0  0  0  0  0  0  0
   10.2638   -1.8812    0.0000 C   0  0  0  0  0  0  0  0  0  0  0  0
   11.0861   -1.8506    0.0000 C   0  0  0  0  0  0  0  0  0  0  0  0
    8.9987   -1.2073    0.0000 Br  0  0  0  0  0  0  0  0  0  0  0  0
   14.2725    1.2375    0.0000 Br  0  0  0  0  0  0  0  0  0  0  0  0
 15 16  2  0  0  0  0 
 16 17  1  0  0  0  0 
  7  8  1  0  0  0  0 
 17 18  2  0  0  0  0 
 18 13  1  0  0  0  0 
  3  8  1  0  0  0  0 
 11 19  2  0  0  0  0 
  1  2  1  0  0  0  0 
 19 20  1  0  0  0  0 
  6  9  1  0  0  0  0 
 20 21  2  0  0  0  0 
  1  6  1  0  0  0  0 
 21 22  1  0  0  0  0 
  3 10  1  0  0  0  0 
 22 23  2  0  0  0  0 
 23 11  1  0  0  0  0 
  2  3  1  0  0  0  0 
  9 24  1  0  0  0  0 
 10 11  1  0  0  0  0 
 24 25  1  0  0  0  0 
  3  4  1  0  0  0  0 
 25 26  1  0  0  0  0 
 10 12  1  0  0  0  0 
 26 27  1  0  0  0  0 
  4  5  1  0  0  0  0 
 27 28  2  0  0  0  0 
 10 13  1  0  0  0  0 
 28 29  1  0  0  0  0 
  5  6  1  0  0  0  0 
 29 30  2  0  0  0  0 
 13 14  2  0  0  0  0 
 30 31  1  0  0  0  0 
 31 32  2  0  0  0  0 
 32 27  1  0  0  0  0 
 14 15  1  0  0  0  0 
 30 33  1  0  0  0  0 
  6  7  1  0  0  0  0 
M  CHG  1   6   1
M  CHG  1  34  -1
M  END