
  SciTegic04091416292D

 17 18  0  0  0  0            999 V2000
   25.1080  -10.2583    0.0000 C   0  0
   25.5170  -10.9752    0.0000 C   0  0
   26.3420  -10.9793    0.0000 N   0  0
   26.7580  -10.2669    0.0000 C   0  0
   27.5830  -10.2709    0.0000 C   0  0
   27.9895  -10.9872    0.0000 C   0  0
   28.8138  -10.9915    0.0000 C   0  0
   29.2306  -10.2786    0.0000 C   0  0
   28.8172   -9.5597    0.0000 C   0  0
   27.9943   -9.5589    0.0000 C   0  0
   30.0556  -10.2816    0.0000 C   0  0
   30.5355  -10.9503    0.0000 C   0  0
   31.3211  -10.6982    0.0000 N   0  0
   31.3240   -9.8732    0.0000 C   0  0
   30.5403   -9.6155    0.0000 S   0  0
   25.1008  -11.6876    0.0000 O   0  0
   30.2769  -11.7337    0.0000 C   0  0
  1  2  1  0
  2  3  1  0
  3  4  1  0
  4  5  1  0
  5  6  2  0
  6  7  1  0
  7  8  2  0
  8  9  1  0
  9 10  2  0
 10  5  1  0
  8 11  1  0
 11 12  2  0
 12 13  1  0
 13 14  2  0
 14 15  1  0
 15 11  1  0
  2 16  2  0
 12 17  1  0
M  END