
  SciTegic11111309142D

 46 50  0  0  0  0            999 V2000
   -2.1570  -17.1899    0.0000 C   0  0
   -1.2483  -24.2055    0.0000 C   0  0
   -0.4613  -24.4569    0.0000 C   0  0
    0.0206  -23.7883    0.0000 C   0  0
   -0.4650  -23.1259    0.0000 C   0  0
   -1.2483  -23.3804    0.0000 C   0  0
   -3.2796  -19.9455    0.0000 O   0  0
   -3.7649  -20.6134    0.0000 C   0  0
   -3.4620  -21.3816    0.0000 C   0  0
   -3.9639  -21.9937    0.0000 C   0  0
   -3.6831  -22.7281    0.0000 C   0  0
   -2.9060  -22.8319    0.0000 C   0  0
   -2.4440  -22.1974    0.0000 C   0  0
   -2.7666  -21.4746    0.0000 C   0  0
   -4.7789  -21.8616    0.0000 Cl  0  0
   -2.2723  -20.8134    0.0000 Cl  0  0
   -1.6229  -22.2836    0.0000 S   0  0
   -1.5365  -21.4625    0.0000 O   0  0
   -1.7091  -23.1047    0.0000 O   0  0
    0.2500  -22.7132    0.0000 C   0  0
    0.9643  -23.1255    0.0000 N   0  0
    0.2500  -21.8866    0.0000 O   0  0
    0.9643  -23.9527    0.0000 C   0  0
    1.6745  -24.3628    0.0000 C   0  0
    2.3855  -23.9524    0.0000 N   0  0
    2.3855  -23.1300    0.0000 C   0  0
    1.6748  -22.7153    0.0000 C   0  0
    3.0970  -24.3632    0.0000 C   0  0
    3.0970  -25.1844    0.0000 O   0  0
    3.8158  -23.9482    0.0000 C   0  0
    4.5269  -24.3587    0.0000 N   0  3
   -3.6164  -19.1889    0.0000 C   0  0
   -4.2879  -17.6804    0.0000 C   0  0
   -4.7751  -18.3553    0.0000 C   0  0
   -4.4362  -19.1087    0.0000 C   0  0
   -3.4635  -17.7674    0.0000 C   0  0
   -3.1313  -18.5246    0.0000 C   0  0
   -2.3112  -18.6142    0.0000 N   0  0
   -1.8224  -17.9475    0.0000 C   0  0
   -2.9788  -17.1031    0.0000 C   0  0
   -0.9990  -18.0361    0.0000 C   0  0
   -3.3148  -16.3463    0.0000 C   0  0
    4.5269  -25.1868    0.0000 C   0  0
    5.2441  -23.9446    0.0000 C   0  0
    5.2419  -24.7718    0.0000 C   0  0
   -0.8028  -22.3732    0.0000 N   0  0
 14 16  1  0
 13 17  1  0
 17 18  2  0
 17 19  2  0
  5 20  1  0
 20 21  1  0
 20 22  2  0
 21 23  1  0
 21 27  1  0
 23 24  1  0
 24 25  1  0
 25 26  1  0
 26 27  1  0
 25 28  1  0
 28 29  2  0
 28 30  1  0
 30 31  1  0
  7 32  1  0
 32 37  2  0
  2  3  1  0
 36 33  2  0
  3  4  1  0
 33 34  1  0
  4  5  1  0
 34 35  2  0
 35 32  1  0
  5  6  1  0
  6  2  1  0
 36 37  1  0
  7  8  1  0
 37 38  1  0
  8  9  1  0
 38 39  2  0
 39  1  1  0
  9 10  2  0
  1 40  2  0
 40 36  1  0
 10 11  1  0
 39 41  1  0
 11 12  2  0
 40 42  1  0
 12 13  1  0
 31 43  1  0
 13 14  2  0
 31 44  1  0
 14  9  1  0
 31 45  1  0
 10 15  1  0
 17 46  1  0
 46  5  1  0
M  CHG  1  31   1
M  END