
          11280715502D 1   1.00000     0.00000     0

 45 50  0     1  0            999 V2000
   -2.8898   -0.9470    0.0000 C   0  0  0  0  0  0           0  0  0
   -2.4700   -1.6600    0.0000 C   0  0  0  0  0  0           0  0  0
   -1.6446   -1.6520    0.0000 C   0  0  0  0  0  0           0  0  0
   -1.2379   -0.9318    0.0000 C   0  0  0  0  0  0           0  0  0
   -1.6627   -0.2181    0.0000 C   0  0  0  0  0  0           0  0  0
   -2.4868   -0.2296    0.0000 C   0  0  0  0  0  0           0  0  0
   -1.2600    0.5019    0.0000 C   0  0  0  0  0  0           0  0  0
   -0.4351    0.5132    0.0000 N   0  0  3  0  0  0           0  0  0
   -1.6822    1.2107    0.0000 O   0  0  0  0  0  0           0  0  0
   -0.0142   -0.1984    0.0000 C   0  0  1  0  0  0           0  0  0
    0.8071   -0.1892    0.0000 C   0  0  0  0  0  0           0  0  0
    1.2137    0.5291    0.0000 N   0  0  3  0  0  0           0  0  0
    0.7927    1.2397    0.0000 C   0  0  0  0  0  0           0  0  0
   -0.0349    1.2321    0.0000 C   0  0  0  0  0  0           0  0  0
   -0.4189   -0.9173    0.0000 C   0  0  0  0  0  0           0  0  0
   -0.0070   -1.6302    0.0000 C   0  0  0  0  0  0           0  0  0
   -0.3374   -2.3842    0.0000 C   0  0  0  0  0  0           0  0  0
    0.2746   -2.9349    0.0000 N   0  0  0  0  0  0           0  0  0
    0.8159   -1.7178    0.0000 C   0  0  0  0  0  0           0  0  0
    0.9865   -2.5218    0.0000 C   0  0  0  0  0  0           0  0  0
    1.7667   -2.7746    0.0000 C   0  0  0  0  0  0           0  0  0
    2.3769   -2.2243    0.0000 C   0  0  0  0  0  0           0  0  0
    2.2018   -1.4180    0.0000 C   0  0  0  0  0  0           0  0  0
    1.4218   -1.1690    0.0000 C   0  0  0  0  0  0           0  0  0
   -1.2334   -2.3641    0.0000 C   0  0  3  0  0  0           0  0  0
   -0.5230   -1.9446    0.0000 F   0  0  0  0  0  0           0  0  0
   -0.8174   -3.0766    0.0000 F   0  0  0  0  0  0           0  0  0
   -1.9458   -2.7801    0.0000 F   0  0  0  0  0  0           0  0  0
   -3.7147   -0.9554    0.0000 C   0  0  3  0  0  0           0  0  0
   -3.7118   -1.7810    0.0000 F   0  0  0  0  0  0           0  0  0
   -3.7282   -0.1309    0.0000 F   0  0  0  0  0  0           0  0  0
   -4.5422   -0.9649    0.0000 F   0  0  0  0  0  0           0  0  0
    2.0387    0.5372    0.0000 C   0  0  0  0  0  0           0  0  0
    2.4441    1.2557    0.0000 C   0  0  0  0  0  0           0  0  0
    3.2606    1.3526    0.0000 C   0  0  0  0  0  0           0  0  0
    3.4242    2.1612    0.0000 C   0  0  3  0  0  0           0  0  0
    2.7056    2.5667    0.0000 O   0  0  0  0  0  0           0  0  0
    2.0981    2.0085    0.0000 N   0  0  0  0  0  0           0  0  0
    4.1745    2.5042    0.0000 C   0  0  0  0  0  0           0  0  0
    4.8467    2.0259    0.0000 N   0  0  3  0  0  0           0  0  0
    4.7659    1.2075    0.0000 C   0  0  0  0  0  0           0  0  0
    5.4340    0.7297    0.0000 C   0  0  0  0  0  0           0  0  0
    6.1864    1.0690    0.0000 O   0  0  0  0  0  0           0  0  0
    6.2666    1.8910    0.0000 C   0  0  0  0  0  0           0  0  0
    5.5944    2.3738    0.0000 C   0  0  0  0  0  0           0  0  0
 25 27  1  0     0  0
 11 12  1  0     0  0
 25 28  1  0     0  0
 12 13  1  0     0  0
  1 29  1  0     0  0
 13 14  1  0     0  0
 29 30  1  0     0  0
  5  7  1  0     0  0
 29 31  1  0     0  0
 10 15  1  1     0  0
 29 32  1  0     0  0
  3  4  2  0     0  0
 12 33  1  0     0  0
 15 16  1  0     0  0
 33 34  1  0     0  0
 16 17  2  0     0  0
  7  8  1  0     0  0
 17 18  1  0     0  0
 18 20  1  0     0  0
 19 16  1  0     0  0
  7  9  2  0     0  0
  8 10  1  0     0  0
 19 20  2  0     0  0
  4  5  1  0     0  0
 20 21  1  0     0  0
  2  3  1  0     0  0
 21 22  2  0     0  0
 34 35  1  0     0  0
  5  6  2  0     0  0
 22 23  1  0     0  0
  6  1  1  0     0  0
 35 36  1  0     0  0
 36 37  1  0     0  0
 37 38  1  0     0  0
 38 34  2  0     0  0
 23 24  2  0     0  0
 36 39  1  0     0  0
 24 19  1  0     0  0
 39 40  1  0     0  0
 40 41  1  0     0  0
  1  2  2  0     0  0
  3 25  1  0     0  0
  8 14  1  0     0  0
 25 26  1  0     0  0
 10 11  1  0     0  0
 40 45  1  0     0  0
 41 42  1  0     0  0
 42 43  1  0     0  0
 43 44  1  0     0  0
 44 45  1  0     0  0
M  END