
          11280714492D 1   1.00000     0.00000     0

 16 17  0     0  0            999 V2000
    0.1500   -0.4792    0.0000 C   0  0  3  0  0  0           0  0  0
    0.1500    0.1208    0.0000 C   0  0  0  0  0  0           0  0  0
    0.6750   -0.7792    0.0000 N   0  0  0  0  0  0           0  0  0
    0.1542   -1.6875    0.0000 C   0  0  0  0  0  0           0  0  0
    0.1542   -2.2917    0.0000 C   0  0  0  0  0  0           0  0  0
    0.6750   -1.3792    0.0000 C   0  0  0  0  0  0           0  0  0
   -0.3625   -0.5542    0.0000 C   0  0  0  0  0  0           0  0  0
   -0.2333   -0.9417    0.0000 C   0  0  0  0  0  0           0  0  0
   -0.3625    0.4208    0.0000 C   0  0  0  0  0  0           0  0  0
    0.6750    0.4208    0.0000 C   0  0  0  0  0  0           0  0  0
   -0.9500   -0.2167    0.0000 C   0  0  0  0  0  0           0  0  0
   -0.8500   -0.5917    0.0000 C   0  0  0  0  0  0           0  0  0
   -0.3625    1.0208    0.0000 C   0  0  0  0  0  0           0  0  0
    0.6750    1.0333    0.0000 C   0  0  0  0  0  0           0  0  0
    0.1500    1.3333    0.0000 C   0  0  0  0  0  0           0  0  0
   -1.3333   -0.6792    0.0000 C   0  0  0  0  0  0           0  0  0
  2  1  1  0     0  0
  3  1  1  0     0  0
  4  6  1  0     0  0
  5  4  2  0     0  0
  6  3  1  0     0  0
  7  1  1  0     0  0
  8  1  1  0     0  0
  9  2  1  0     0  0
 10  2  2  0     0  0
 11  7  1  0     0  0
 12  8  1  0     0  0
 13  9  2  0     0  0
 14 10  1  0     0  0
 15 14  2  0     0  0
 16 12  1  0     0  0
 16 11  1  0     0  0
 15 13  1  0     0  0
M  END