
          11280714582D 1   1.00000     0.00000     0

 28 31  0     0  0            999 V2000
    5.5417   -4.0917    0.0000 C   0  0  0  0  0  0           0  0  0
   -1.6083   -5.7042    0.0000 C   0  0  0  0  0  0           0  0  0
    6.2542   -2.8542    0.0000 C   0  0  0  0  0  0           0  0  0
    6.2542   -4.5042    0.0000 O   0  0  0  0  0  0           0  0  0
   -0.8958   -5.2917    0.0000 N   0  0  3  0  0  0           0  0  0
    6.9667   -4.0917    0.0000 C   0  0  0  0  0  0           0  0  0
    5.5500   -3.2667    0.0000 C   0  0  0  0  0  0           0  0  0
    6.9667   -3.2667    0.0000 C   0  0  0  0  0  0           0  0  0
    4.8292   -4.5042    0.0000 C   0  0  0  0  0  0           0  0  0
    0.5417   -4.4792    0.0000 N   0  0  3  0  0  0           0  0  0
   -2.3208   -5.2792    0.0000 N   0  0  0  0  0  0           0  0  0
   -1.6083   -6.5167    0.0000 N   0  0  0  0  0  0           0  0  0
    4.8292   -2.8542    0.0000 C   0  0  0  0  0  0           0  0  0
   -0.1750   -5.7042    0.0000 C   0  0  0  0  0  0           0  0  0
   -0.8833   -4.4667    0.0000 C   0  0  0  0  0  0           0  0  0
    7.6792   -4.5042    0.0000 O   0  0  0  0  0  0           0  0  0
    0.5375   -5.2917    0.0000 C   0  0  0  0  0  0           0  0  0
   -0.1708   -4.0625    0.0000 C   0  0  0  0  0  0           0  0  0
    4.1125   -4.0792    0.0000 C   0  0  0  0  0  0           0  0  0
    4.1167   -3.2625    0.0000 C   0  0  0  0  0  0           0  0  0
    6.2542   -2.0375    0.0000 C   0  0  0  0  0  0           0  0  0
    1.2542   -4.0667    0.0000 C   0  0  0  0  0  0           0  0  0
    1.9750   -4.4792    0.0000 C   0  0  0  0  0  0           0  0  0
    3.4042   -4.4917    0.0000 O   0  0  0  0  0  0           0  0  0
   -3.0333   -6.5167    0.0000 C   0  0  0  0  0  0           0  0  0
   -3.0333   -5.6917    0.0000 C   0  0  0  0  0  0           0  0  0
   -2.3208   -6.9292    0.0000 C   0  0  0  0  0  0           0  0  0
    2.6792   -4.0667    0.0000 C   0  0  0  0  0  0           0  0  0
  2  5  1  0     0  0
  3  7  1  0     0  0
  4  1  1  0     0  0
  5 15  1  0     0  0
  6  4  1  0     0  0
  7  1  2  0     0  0
  8  3  2  0     0  0
  9  1  1  0     0  0
 10 22  1  0     0  0
 11  2  2  0     0  0
 12  2  1  0     0  0
 13  7  1  0     0  0
 14 17  1  0     0  0
 15 18  1  0     0  0
 16  6  2  0     0  0
 17 10  1  0     0  0
 18 10  1  0     0  0
 19  9  2  0     0  0
 20 19  1  0     0  0
 21  3  1  0     0  0
 22 23  1  0     0  0
 23 28  1  0     0  0
 24 19  1  0     0  0
 25 27  1  0     0  0
 26 11  1  0     0  0
 27 12  2  0     0  0
 28 24  1  0     0  0
 13 20  2  0     0  0
  6  8  1  0     0  0
 14  5  1  0     0  0
 26 25  2  0     0  0
M  END