
          11280715342D 1   1.00000     0.00000     0

 14 14  0     0  0            999 V2000
    4.5792   -7.0250    0.0000 N   0  0  3  0  0  0           0  0  0
    3.8250   -6.6917    0.0000 C   0  0  0  0  0  0           0  0  0
    4.4917   -7.8417    0.0000 C   0  0  0  0  0  0           0  0  0
    6.0042   -7.0250    0.0000 C   0  0  0  0  0  0           0  0  0
    6.7250   -7.4375    0.0000 C   0  0  0  0  0  0           0  0  0
    3.6875   -8.0167    0.0000 C   0  0  0  0  0  0           0  0  0
    3.2750   -7.3042    0.0000 C   0  0  0  0  0  0           0  0  0
    3.6500   -5.8792    0.0000 O   0  0  0  0  0  0           0  0  0
    5.1042   -8.4000    0.0000 O   0  0  0  0  0  0           0  0  0
    5.2917   -6.6125    0.0000 C   0  0  0  0  0  0           0  0  0
    8.1542   -7.4375    0.0000 N   0  0  3  0  0  0           0  0  0
    7.4375   -7.8500    0.0000 C   0  0  0  0  0  0           0  0  0
    8.9042   -7.7667    0.0000 C   0  0  0  0  0  0           0  0  0
    8.2417   -6.6042    0.0000 C   0  0  0  0  0  0           0  0  0
  2  1  1  0     0  0
  3  1  1  0     0  0
  4 10  1  0     0  0
  5  4  3  0     0  0
  6  3  1  0     0  0
  7  2  1  0     0  0
  8  2  2  0     0  0
  9  3  2  0     0  0
 10  1  1  0     0  0
 11 12  1  0     0  0
 12  5  1  0     0  0
 13 11  1  0     0  0
 14 11  1  0     0  0
  7  6  1  0     0  0
M  END