
  CDK    12/20/10,15:21

 30 33  0  0  0  0  0  0  0  0999 V2000
    3.2916   -5.3879    0.0000 C   0  0  0  0  0  0  0  0  0  0  0  0
    3.6206   -4.7997    0.0000 C   0  0  0  0  0  0  0  0  0  0  0  0
    4.1869   -4.3989    0.0000 C   0  0  0  0  0  0  0  0  0  0  0  0
    3.9012   -5.0369    0.0000 C   0  0  0  0  0  0  0  0  0  0  0  0
    3.9631   -3.6792    0.0000 C   0  0  0  0  0  0  0  0  0  0  0  0
    4.8947   -4.8137    0.0000 C   0  0  0  0  0  0  0  0  0  0  0  0
    4.6295   -5.3719    0.0000 C   0  0  0  0  0  0  0  0  0  0  0  0
    3.9853   -2.8809    0.0000 C   0  0  0  0  0  0  0  0  0  0  0  0
    3.2677   -3.4678    0.0000 C   0  0  0  0  0  0  0  0  0  0  0  0
    3.7721   -5.8126    0.0000 C   0  0  0  0  0  0  0  0  0  0  0  0
    2.5997   -5.7865    0.0000 N   0  0  0  0  0  0  0  0  0  0  0  0
    1.8891   -4.5504    0.0000 N   0  0  0  0  0  0  0  0  0  0  0  0
    2.5613   -4.0665    0.0000 C   0  0  0  0  0  0  0  0  0  0  0  0
    2.2974   -3.2681    0.0000 C   0  0  0  0  0  0  0  0  0  0  0  0
    1.4601   -3.2791    0.0000 C   0  0  0  0  0  0  0  0  0  0  0  0
    1.2107   -4.0642    0.0000 N   0  0  0  0  0  0  0  0  0  0  0  0
    2.7767   -2.5952    0.0000 C   0  0  0  0  0  0  0  0  0  0  0  0
    3.6029   -2.6864    0.0000 C   0  0  0  0  0  0  0  0  0  0  0  0
    4.0894   -2.0156    0.0000 C   0  0  0  0  0  0  0  0  0  0  0  0
    3.7444   -1.2517    0.0000 C   0  0  0  0  0  0  0  0  0  0  0  0
    2.9125   -1.1712    0.0000 C   0  0  0  0  0  0  0  0  0  0  0  0
    2.4333   -1.8427    0.0000 C   0  0  0  0  0  0  0  0  0  0  0  0
    0.9718   -2.6142    0.0000 C   0  0  0  0  0  0  0  0  0  0  0  0
    1.3034   -1.8534    0.0000 C   0  0  0  0  0  0  0  0  0  0  0  0
    0.8149   -1.1885    0.0000 C   0  0  0  0  0  0  0  0  0  0  0  0
    1.1465   -0.4337    0.0000 C   0  0  0  0  0  0  0  0  0  0  0  0
    0.6523    0.2294    0.0000 C   0  0  0  0  0  0  0  0  0  0  0  0
    1.8891   -5.3706    0.0000 C   0  0  0  0  0  0  0  0  0  0  0  0
    1.1736   -5.7859    0.0000 O   0  0  0  0  0  0  0  0  0  0  0  0
    4.6373   -3.7089    0.0000 H   0  0  0  0  0  0  0  0  0  0  0  0
  1  2  1  0  0  0  0 
  3  2  1  0  0  0  0 
  1  4  1  0  0  0  0 
  4  5  1  0  0  0  0 
  5  3  1  0  0  0  0 
  3  6  1  0  0  0  0 
  6  7  1  0  0  0  0 
  7  4  1  0  0  0  0 
  5  8  1  0  0  0  0 
  5  9  1  0  0  0  0 
  4 10  1  6  0  0  0 
 15 16  2  0  0  0  0 
 13 14  1  0  0  0  0 
 12 13  1  0  0  0  0 
 14 15  1  0  0  0  0 
 16 12  1  0  0  0  0 
 14 17  1  0  0  0  0 
 17 18  2  0  0  0  0 
 18 19  1  0  0  0  0 
 19 20  2  0  0  0  0 
 20 21  1  0  0  0  0 
 21 22  2  0  0  0  0 
 22 17  1  0  0  0  0 
 15 23  1  0  0  0  0 
 23 24  1  0  0  0  0 
 24 25  1  0  0  0  0 
 25 26  1  0  0  0  0 
 26 27  1  0  0  0  0 
 12 28  1  0  0  0  0 
 28 29  2  0  0  0  0 
 28 11  1  0  0  0  0 
  1 11  1  1  0  0  0 
  3 30  1  1  0  0  0 
M  END