
  SciTegic10311217562D

 42 40  0  0  0  0            999 V2000
    1.7667   -3.3459    0.0000 C   0  0  2  0  0  0
    1.7667   -4.1709    0.0000 C   0  0  1  0  0  0
    2.4787   -4.5792    0.0000 C   0  0  2  0  0  0
    3.1907   -4.1709    0.0000 O   0  0
    3.1907   -3.3459    0.0000 C   0  0  1  0  0  0
    2.4787   -2.9292    0.0000 C   0  0  1  0  0  0
    3.9064   -2.9355    0.0000 C   0  0
    1.0510   -2.9355    0.0000 O   0  0
    1.0528   -4.5844    0.0000 O   0  0
    2.4787   -2.1042    0.0000 O   0  0
    2.4787   -5.4042    0.0000 O   0  0
    4.6196   -3.3501    0.0000 N   0  0
    3.1932   -5.8167    0.0000 C   0  0
    5.3353   -2.9396    0.0000 C   0  0
    6.0486   -3.3542    0.0000 C   0  0
    5.3377   -2.1147    0.0000 O   0  0
    6.7643   -2.9438    0.0000 N   0  0
    7.4775   -3.3584    0.0000 C   0  0
    8.1932   -2.9480    0.0000 O   0  0
    1.7642   -1.6917    0.0000 S   0  0
    1.0497   -2.1042    0.0000 O   0  5
    1.3458   -0.9750    0.0000 O   0  0
    2.1708   -0.9750    0.0000 O   0  0
    0.3377   -3.3501    0.0000 S   0  0
   -0.3779   -2.9396    0.0000 O   0  5
   -0.0792   -4.0625    0.0000 O   0  0
    0.7458   -4.0625    0.0000 O   0  0
    1.0540   -5.4094    0.0000 S   0  0
    0.3401   -5.8229    0.0000 O   0  5
    1.8750   -5.4084    0.0000 O   0  0
    1.4583   -6.1209    0.0000 O   0  0
    6.7655   -2.1212    0.0000 C   0  0
    7.4751   -4.1834    0.0000 C   0  0
    7.4806   -1.7097    0.0000 C   0  0
    8.1957   -2.1289    0.0000 C   0  0
    8.9103   -1.7182    0.0000 C   0  0
    8.9120   -0.8923    0.0000 C   0  0
    8.1931   -0.4789    0.0000 C   0  0
    7.4814   -0.8920    0.0000 C   0  0
   -0.4708   -6.3375    0.0000 Na  0  3
    0.2167   -1.4042    0.0000 Na  0  3
   -1.2833   -3.1208    0.0000 Na  0  3
 20 21  1  0
  3  4  1  0
  3 11  1  6
 20 22  2  0
  4  5  1  0
 20 23  2  0
  7 12  1  0
  8 24  1  0
  5  6  1  0
 24 25  1  0
 11 13  1  0
 24 26  2  0
 24 27  2  0
 12 14  1  0
  5  7  1  1
  9 28  1  0
 14 15  1  0
 28 29  1  0
  1  2  1  0
 28 30  2  0
 14 16  2  0
 28 31  2  0
  1  8  1  1
 15 17  1  0
 17 32  1  0
  1  6  1  0
 18 33  1  0
 17 18  1  0
 32 34  1  0
  2  9  1  1
 34 35  2  0
 18 19  2  0
 35 36  1  0
  2  3  1  0
 36 37  2  0
 10 20  1  0
 37 38  1  0
  6 10  1  6
 38 39  2  0
 39 34  1  0
M  CHG  6  21  -1  25  -1  29  -1  40   1  41   1  42   1
M  END