
          11280715362D 1   1.00000     0.00000     0

 27 29  0     0  0            999 V2000
    4.3292   -6.7792    0.0000 C   0  0  0  0  0  0           0  0  0
    3.8125   -6.4792    0.0000 C   0  0  3  0  0  0           0  0  0
    4.3292   -7.3792    0.0000 C   0  0  0  0  0  0           0  0  0
    3.8125   -7.6792    0.0000 O   0  0  0  0  0  0           0  0  0
    3.2875   -7.3875    0.0000 C   0  0  3  0  0  0           0  0  0
    3.2875   -6.7792    0.0000 C   0  0  3  0  0  0           0  0  0
    4.8500   -6.4792    0.0000 C   0  0  0  0  0  0           0  0  0
    2.7625   -6.4792    0.0000 C   0  0  0  0  0  0           0  0  0
    6.4125   -7.3625    0.0000 C   0  0  0  0  0  0           0  0  0
    6.9292   -7.0500    0.0000 C   0  0  0  0  0  0           0  0  0
    3.8125   -5.8750    0.0000 C   0  0  0  0  0  0           0  0  0
    2.7625   -5.8750    0.0000 C   0  0  0  0  0  0           0  0  0
    3.3000   -5.5750    0.0000 C   0  0  0  0  0  0           0  0  0
    4.8500   -7.6792    0.0000 C   0  0  0  0  0  0           0  0  0
    5.3750   -6.7792    0.0000 C   0  0  0  0  0  0           0  0  0
    9.0125   -7.0125    0.0000 C   0  0  0  0  0  0           0  0  0
    5.3750   -7.3792    0.0000 C   0  0  0  0  0  0           0  0  0
    9.0250   -7.6167    0.0000 O   0  0  0  0  0  0           0  0  0
    4.8375   -5.8792    0.0000 O   0  0  0  0  0  0           0  0  0
    8.4875   -6.7167    0.0000 N   0  0  0  0  0  0           0  0  0
    5.9000   -7.6667    0.0000 C   0  0  0  0  0  0           0  0  0
    3.0875   -7.9542    0.0000 C   0  0  0  0  0  0           0  0  0
    2.7250   -7.1875    0.0000 C   0  0  0  0  0  0           0  0  0
    7.4500   -6.7375    0.0000 C   0  0  0  0  0  0           0  0  0
    3.3125   -4.9750    0.0000 C   0  0  0  0  0  0           0  0  0
    9.5250   -6.7042    0.0000 C   0  0  0  0  0  0           0  0  0
    7.9750   -7.0292    0.0000 C   0  0  0  0  0  0           0  0  0
  2  1  1  0     0  0
  3  1  1  0     0  0
  4  3  1  0     0  0
  5  4  1  0     0  0
  6  2  1  0     0  0
  7  1  2  0     0  0
  8  6  1  0     0  0
  9 21  1  0     0  0
 10  9  3  0     0  0
 11  2  1  0     0  0
 12 13  2  0     0  0
 13 11  1  0     0  0
 14  3  2  0     0  0
 15  7  1  0     0  0
 16 20  1  0     0  0
 17 15  2  0     0  0
 18 16  2  0     0  0
 19  7  1  0     0  0
 20 27  1  0     0  0
 21 17  1  0     0  0
 22  5  1  0     0  0
 23  5  1  0     0  0
 24 10  1  0     0  0
 25 13  1  0     0  0
 26 16  1  0     0  0
 27 24  1  0     0  0
  5  6  1  0     0  0
 17 14  1  0     0  0
 12  8  1  0     0  0
M  END