
          11280715402D 1   1.00000     0.00000     0

 40 43  0     0  0            999 V2000
    8.9750   -4.7917    0.0000 S   0  0  3  0  0  0           0  0  0
    9.7000   -6.0250    0.0000 C   0  0  0  0  0  0           0  0  0
    9.6917   -5.2000    0.0000 N   0  0  0  0  0  0           0  0  0
   10.4167   -6.4375    0.0000 C   0  0  0  0  0  0           0  0  0
    8.9875   -6.4375    0.0000 N   0  0  0  0  0  0           0  0  0
    9.7000   -7.6792    0.0000 N   0  0  0  0  0  0           0  0  0
    8.9875   -7.2667    0.0000 C   0  0  0  0  0  0           0  0  0
   12.5292  -10.1917    0.0000 S   0  0  3  0  0  0           0  0  0
   10.4167   -7.2667    0.0000 C   0  0  0  0  0  0           0  0  0
    8.2542   -5.2000    0.0000 C   0  0  0  0  0  0           0  0  0
   11.1292   -6.0167    0.0000 O   0  0  0  0  0  0           0  0  0
    8.2667   -7.6792    0.0000 C   0  0  3  0  0  0           0  0  0
    7.5417   -4.7750    0.0000 N   0  0  0  0  0  0           0  0  0
    7.8542   -8.3917    0.0000 C   0  0  0  0  0  0           0  0  0
    7.4417   -7.6792    0.0000 C   0  0  0  0  0  0           0  0  0
    8.2542   -4.3792    0.0000 O   0  0  0  0  0  0           0  0  0
    9.3792   -4.0667    0.0000 O   0  0  0  0  0  0           0  0  0
   11.8417   -6.4292    0.0000 C   0  0  0  0  0  0           0  0  0
   12.2542  -10.9750    0.0000 O   0  0  0  0  0  0           0  0  0
   12.8000   -9.4125    0.0000 O   0  0  0  0  0  0           0  0  0
   11.8500   -9.7375    0.0000 N   0  0  0  0  0  0           0  0  0
    6.8250   -5.1792    0.0000 C   0  0  0  0  0  0           0  0  0
    6.8167   -6.0042    0.0000 C   0  0  0  0  0  0           0  0  0
    8.2500   -6.0167    0.0000 C   0  0  0  0  0  0           0  0  0
   12.5500   -6.0125    0.0000 C   0  0  0  0  0  0           0  0  0
    7.5292   -6.4292    0.0000 C   0  0  0  0  0  0           0  0  0
   11.1292   -7.6792    0.0000 O   0  0  0  0  0  0           0  0  0
   13.2167  -10.6542    0.0000 C   0  0  0  0  0  0           0  0  0
    6.1000   -6.4167    0.0000 C   0  0  3  0  0  0           0  0  0
   11.8500   -8.9125    0.0000 C   0  0  0  0  0  0           0  0  0
   12.5417   -5.1875    0.0000 O   0  0  0  0  0  0           0  0  0
   11.8417   -7.2542    0.0000 C   0  0  0  0  0  0           0  0  0
   11.1292   -8.5042    0.0000 C   0  0  0  0  0  0           0  0  0
   13.2667   -6.4167    0.0000 C   0  0  0  0  0  0           0  0  0
    6.0917   -7.2417    0.0000 C   0  0  0  0  0  0           0  0  0
    5.3875   -6.0000    0.0000 C   0  0  0  0  0  0           0  0  0
   11.8292   -4.7792    0.0000 C   0  0  0  0  0  0           0  0  0
   13.1667  -11.4792    0.0000 C   0  0  0  0  0  0           0  0  0
   12.5542   -7.6625    0.0000 C   0  0  0  0  0  0           0  0  0
   13.2750   -7.2417    0.0000 C   0  0  0  0  0  0           0  0  0
  2  3  1  0     0  0
  3  1  1  0     0  0
  4  2  2  0     0  0
  5  2  1  0     0  0
  6  7  1  0     0  0
  7  5  2  0     0  0
  8 21  1  0     0  0
  9  4  1  0     0  0
 10  1  1  0     0  0
 11  4  1  0     0  0
 12  7  1  0     0  0
 13 10  2  0     0  0
 14 12  1  0     0  0
 15 12  1  0     0  0
 16  1  2  0     0  0
 17  1  2  0     0  0
 18 11  1  0     0  0
 19  8  2  0     0  0
 20  8  2  0     0  0
 21 30  1  0     0  0
 22 13  1  0     0  0
 23 26  1  0     0  0
 24 10  1  0     0  0
 25 18  1  0     0  0
 26 24  2  0     0  0
 27  9  1  0     0  0
 28  8  1  0     0  0
 29 23  1  0     0  0
 30 33  1  0     0  0
 31 25  1  0     0  0
 32 18  2  0     0  0
 33 27  1  0     0  0
 34 25  2  0     0  0
 35 29  1  0     0  0
 36 29  1  0     0  0
 37 31  1  0     0  0
 38 28  1  0     0  0
 39 32  1  0     0  0
 40 39  2  0     0  0
 23 22  2  0     0  0
  9  6  2  0     0  0
 15 14  1  0     0  0
 40 34  1  0     0  0
M  END