
          08180812472D 1   1.00000     0.00000     0

 22 25  0     1  0            999 V2000
    6.9743  -13.4597    0.0000 C   0  0  0  0  0  0           0  0  0
    6.9743  -14.2870    0.0000 C   0  0  0  0  0  0           0  0  0
    7.6869  -14.6983    0.0000 C   0  0  0  0  0  0           0  0  0
    7.6869  -13.0439    0.0000 C   0  0  0  0  0  0           0  0  0
    8.4038  -13.4597    0.0000 C   0  0  0  0  0  0           0  0  0
    8.4003  -14.2870    0.0000 C   0  0  0  0  0  0           0  0  0
    9.1110  -14.7013    0.0000 C   0  0  0  0  0  0           0  0  0
    9.8298  -14.2930    0.0000 C   0  0  0  0  0  0           0  0  0
    9.1181  -13.0468    0.0000 C   0  0  0  0  0  0           0  0  0
    9.8307  -13.4671    0.0000 C   0  0  2  0  0  0           0  0  0
    9.8442  -11.8153    0.0000 C   0  0  0  0  0  0           0  0  0
    9.1217  -12.2217    0.0000 C   0  0  0  0  0  0           0  0  0
   10.5570  -12.2356    0.0000 C   0  0  1  0  0  0           0  0  0
   10.5473  -13.0590    0.0000 C   0  0  1  0  0  0           0  0  0
   11.3274  -13.3227    0.0000 C   0  0  0  0  0  0           0  0  0
   11.8193  -12.6622    0.0000 C   0  0  0  0  0  0           0  0  0
   11.3431  -11.9904    0.0000 C   0  0  2  0  0  0           0  0  0
    6.2619  -14.6983    0.0000 O   0  0  0  0  0  0           0  0  0
   10.5484  -11.4122    0.0000 C   0  0  0  0  0  0           0  0  0
   11.6065  -11.2111    0.0000 O   0  0  0  0  0  0           0  0  0
   10.5392  -13.8802    0.0000 H   0  0  0  0  0  0           0  0  0
    9.8217  -12.6416    0.0000 H   0  0  0  0  0  0           0  0  0
  5  6  1  0     0  0
  9 12  1  0     0  0
 10 14  1  0     0  0
 13 11  1  0     0  0
 11 12  1  0     0  0
 13 14  1  0     0  0
  1  2  1  0     0  0
  1  4  1  0     0  0
  2  3  1  0     0  0
  5  9  2  0     0  0
  6  7  1  0     0  0
 14 15  1  0     0  0
 15 16  1  0     0  0
 16 17  1  0     0  0
 17 13  1  0     0  0
  7  8  2  0     0  0
  2 18  2  0     0  0
  8 10  1  0     0  0
 13 19  1  1     0  0
  9 10  1  0     0  0
 17 20  1  1     0  0
  3  6  2  0     0  0
 14 21  1  6     0  0
  5  4  1  0     0  0
 10 22  1  1     0  0
M  END