
  SciTegic03291108512D

 15 16  0  0  0  0            999 V2000
    0.6745   -3.7181    0.0000 O   0  0
    0.3725   -1.2110    0.0000 O   0  0
    1.8014   -1.2110    0.0000 N   0  0
    2.5159    0.8515    0.0000 N   0  0
    1.0870   -2.4485    0.0000 C   0  0
    1.0870   -1.6235    0.0000 C   0  0
    0.4195   -2.9335    0.0000 C   0  0
    1.7544   -2.9335    0.0000 C   0  0
    1.8014   -0.3860    0.0000 C   0  0
    1.4995   -3.7181    0.0000 C   0  0
    2.5159    0.0265    0.0000 C   0  0
    1.0870    0.0265    0.0000 C   0  0
   -0.3651   -2.6785    0.0000 C   0  0
    1.0870    0.8515    0.0000 C   0  0
    1.8014    1.2640    0.0000 C   0  0
  1  7  1  0
  1 10  1  0
  2  6  2  0
  3  6  1  0
  3  9  1  0
  4 11  2  0
  4 15  1  0
  5  6  1  0
  5  7  2  0
  5  8  1  0
  7 13  1  0
  8 10  2  0
  9 11  1  0
  9 12  2  0
 12 14  1  0
 14 15  2  0
M  END