
          11280715122D 1   1.00000     0.00000     0

 25 27  0     0  0            999 V2000
    5.3417   -0.5375    0.0000 C   0  0  0  0  0  0           0  0  0
    5.9250    0.0500    0.0000 N   0  0  0  0  0  0           0  0  0
    1.1917    0.8125    0.0000 C   0  0  0  0  0  0           0  0  0
    4.6125   -0.1542    0.0000 C   0  0  0  0  0  0           0  0  0
    1.1917   -0.0125    0.0000 C   0  0  0  0  0  0           0  0  0
    4.7375    0.6500    0.0000 C   0  0  0  0  0  0           0  0  0
    1.9000    1.2250    0.0000 C   0  0  0  0  0  0           0  0  0
    5.4750   -1.3500    0.0000 C   0  0  0  0  0  0           0  0  0
    5.5500    0.7833    0.0000 O   0  0  0  0  0  0           0  0  0
    4.1500    1.2250    0.0000 C   0  0  0  0  0  0           0  0  0
    3.3250    1.2250    0.0000 C   0  0  0  0  0  0           0  0  0
    2.6125    0.8125    0.0000 C   0  0  0  0  0  0           0  0  0
    0.4792    1.2250    0.0000 C   0  0  3  0  0  0           0  0  0
    0.4792   -0.4250    0.0000 C   0  0  3  0  0  0           0  0  0
    1.9042   -0.4250    0.0000 C   0  0  0  0  0  0           0  0  0
    2.6167   -0.0125    0.0000 C   0  0  0  0  0  0           0  0  0
    4.8375   -1.8750    0.0000 O   0  0  0  0  0  0           0  0  0
   -0.2250    0.8125    0.0000 C   0  0  0  0  0  0           0  0  0
   -0.2250   -0.0125    0.0000 C   0  0  0  0  0  0           0  0  0
    6.2500   -1.6500    0.0000 O   0  0  0  0  0  0           0  0  0
    3.3250    2.0500    0.0000 C   0  0  0  0  0  0           0  0  0
   -0.1083    1.8125    0.0000 C   0  0  0  0  0  0           0  0  0
    1.1917    1.6458    0.0000 C   0  0  0  0  0  0           0  0  0
   -0.1083   -1.0042    0.0000 C   0  0  0  0  0  0           0  0  0
    0.8875   -1.1375    0.0000 C   0  0  0  0  0  0           0  0  0
  2  1  2  0     0  0
  3  7  1  0     0  0
  4  1  1  0     0  0
  5 15  1  0     0  0
  6  4  2  0     0  0
  7 12  2  0     0  0
  8  1  1  0     0  0
  9  2  1  0     0  0
 10  6  1  0     0  0
 11 10  2  0     0  0
 12 11  1  0     0  0
 13  3  1  0     0  0
 14  5  1  0     0  0
 15 16  2  0     0  0
 16 12  1  0     0  0
 17  8  2  0     0  0
 18 13  1  0     0  0
 19 14  1  0     0  0
 20  8  1  0     0  0
 21 11  1  0     0  0
 22 13  1  0     0  0
 23 13  1  0     0  0
 24 14  1  0     0  0
 25 14  1  0     0  0
  6  9  1  0     0  0
  5  3  2  0     0  0
 19 18  1  0     0  0
M  END