
          11280715002D 1   1.00000     0.00000     0

 21 24  0     0  0            999 V2000
    0.4625   -7.1667    0.0000 C   0  0  0  0  0  0           0  0  0
    0.4667   -6.3500    0.0000 C   0  0  0  0  0  0           0  0  0
    1.1750   -5.9292    0.0000 C   0  0  0  0  0  0           0  0  0
    1.8917   -7.1667    0.0000 C   0  0  0  0  0  0           0  0  0
    3.5042   -8.5667    0.0000 N   0  0  0  0  0  0           0  0  0
    3.9167   -7.8542    0.0000 C   0  0  0  0  0  0           0  0  0
    1.1792   -7.5792    0.0000 C   0  0  0  0  0  0           0  0  0
    1.8917   -6.3417    0.0000 C   0  0  0  0  0  0           0  0  0
    2.6125   -7.5792    0.0000 C   0  0  3  0  0  0           0  0  0
   -0.3208   -7.4167    0.0000 O   0  0  0  0  0  0           0  0  0
   -0.1458   -5.8042    0.0000 O   0  0  0  0  0  0           0  0  0
    0.1750   -5.0542    0.0000 C   0  0  0  0  0  0           0  0  0
    3.3667   -7.2417    0.0000 C   0  0  0  0  0  0           0  0  0
    0.9917   -5.1292    0.0000 C   0  0  0  0  0  0           0  0  0
    2.7000   -8.4000    0.0000 C   0  0  0  0  0  0           0  0  0
    4.7417   -7.7667    0.0000 O   0  0  0  0  0  0           0  0  0
   -0.5000   -8.2250    0.0000 C   0  0  3  0  0  0           0  0  0
    0.0417   -8.8500    0.0000 C   0  0  0  0  0  0           0  0  0
   -1.2583   -8.5625    0.0000 C   0  0  0  0  0  0           0  0  0
   -1.1833   -9.3792    0.0000 C   0  0  0  0  0  0           0  0  0
   -0.3750   -9.5625    0.0000 C   0  0  0  0  0  0           0  0  0
  2  1  2  0     0  0
  3  2  1  0     0  0
  4  7  2  0     0  0
  5 15  1  0     0  0
  6 13  1  0     0  0
  7  1  1  0     0  0
  8  4  1  0     0  0
  9  4  1  0     0  0
 10  1  1  0     0  0
 11  2  1  0     0  0
 12 11  1  0     0  0
 13  9  1  0     0  0
 14  3  1  0     0  0
 15  9  1  0     0  0
 16  6  2  0     0  0
 17 10  1  0     0  0
 18 17  1  0     0  0
 19 17  1  0     0  0
 20 19  1  0     0  0
 21 18  1  0     0  0
  3  8  2  0     0  0
 12 14  2  0     0  0
 21 20  1  0     0  0
  6  5  1  0     0  0
M  END