
  SciTegic06141115222D

 26 28  0  0  0  0            999 V2000
    4.4177   -2.9865    0.0000 S   0  3
    5.1330   -3.3960    0.0000 C   0  0
    6.5723   -3.4016    0.0000 C   0  0
    6.5763   -4.2234    0.0000 C   0  0
    5.8445   -2.9921    0.0000 C   0  0
    5.8524   -4.6441    0.0000 C   0  0
    5.1371   -4.2303    0.0000 C   0  0
    7.2837   -2.9852    0.0000 C   0  0
    7.2917   -4.6497    0.0000 C   0  0
    1.5641   -4.6772    0.0000 C   0  0
    3.6980   -3.4029    0.0000 C   0  0
    2.2754   -4.2566    0.0000 C   0  0
    4.4137   -2.1563    0.0000 O   0  5
    8.0030   -4.2291    0.0000 C   0  0
    7.9990   -3.3948    0.0000 C   0  0
    1.7890   -5.4771    0.0000 O   0  0
    3.7146   -4.2372    0.0000 C   0  0
    2.9785   -2.9934    0.0000 C   0  0
    2.2713   -3.4098    0.0000 C   0  0
    3.0032   -4.6578    0.0000 C   0  0
    0.8445   -4.2510    0.0000 O   0  0
    4.4132   -4.6510    0.0000 C   0  0
    8.0195   -5.0467    0.0000 C   0  0
    6.7052   -2.3998    0.0000 C   0  0
    8.0075   -2.5645    0.0000 C   0  0
    6.5803   -5.0661    0.0000 C   0  0
  2  1  1  0
  3  5  1  0
  4  6  1  0
  5  2  2  0
  6  7  2  0
  7  2  1  0
  8  3  1  0
  9  4  1  0
 10 12  1  0
 11  1  1  0
 12 19  1  0
 13  1  1  0
 14  9  1  0
 15  8  1  0
 16 10  2  0
 17 11  2  0
 18 11  1  0
 19 18  2  0
 20 17  1  0
 21 10  1  0
 22  7  1  0
 23  9  1  0
 24  8  1  0
 25  8  1  0
 26  9  1  0
 20 12  2  0
  3  4  2  0
 15 14  1  0
M  CHG  2   1   1  13  -1
M  END