
  SciTegic01161211252D

 38 43  0  0  0  0            999 V2000
    1.1748   -8.2681    0.0000 N   0  0
    2.6013   -8.2752    0.0000 C   0  0
    1.8899   -7.8578    0.0000 C   0  0
   -0.1991   -6.5748    0.0000 C   0  0
    0.5017   -7.0108    0.0000 C   0  0
    0.4780   -7.8376    0.0000 C   0  0
    3.3362   -7.9193    0.0000 C   0  0
    4.0370   -8.3512    0.0000 N   0  0
    3.3556   -7.0925    0.0000 O   0  0
    4.0090   -9.1744    0.0000 C   0  0
    4.7056   -9.6101    0.0000 C   0  0
    5.4322   -9.2186    0.0000 N   0  0
    5.4619   -8.3908    0.0000 C   0  0
    4.7569   -7.9545    0.0000 C   0  0
    6.1284   -9.6564    0.0000 C   0  0
    1.2260   -6.6157    0.0000 C   0  0
   -0.9233   -6.9699    0.0000 C   0  0
   -1.6247   -6.5317    0.0000 C   0  0
   -1.6668   -8.1856    0.0000 C   0  0
   -0.9417   -7.7930    0.0000 C   0  0
    1.1706   -9.0953    0.0000 C   0  0
    2.5971   -9.1025    0.0000 C   0  0
    1.8789   -9.5136    0.0000 C   0  0
    1.8744  -10.3352    0.0000 C   0  0
    2.5864  -10.7517    0.0000 C   0  0
    3.3047  -10.3447    0.0000 C   0  0
    3.3108   -9.5169    0.0000 C   0  0
   -2.3697   -7.7600    0.0000 C   0  0
   -2.3493   -6.9280    0.0000 C   0  0
   -3.1343   -6.6515    0.0000 O   0  0
   -3.6398   -7.3126    0.0000 C   0  0
   -3.1673   -7.9976    0.0000 O   0  0
    6.0936  -10.4763    0.0000 C   0  0
    6.7888  -10.9139    0.0000 C   0  0
    7.5171  -10.5299    0.0000 C   0  0
    7.5456   -9.7038    0.0000 C   0  0
    6.8495   -9.2698    0.0000 N   0  0
    8.2741   -9.3158    0.0000 Cl  0  0
 19 20  2  0
 20 17  1  0
  6  1  1  0
  8 14  1  0
 23 21  1  0
 10 11  1  0
 11 12  1  0
 22 23  1  0
 12 13  1  0
 13 14  1  0
 22  2  1  0
  2  7  1  0
  2  3  1  0
 22 27  1  0
 23 24  1  0
 24 25  1  0
 25 26  1  0
 26 27  1  0
  7  8  1  0
  1 21  1  0
  7  9  2  0
 28 29  2  0
 12 15  1  0
  8 10  1  0
  5 16  1  0
  4 17  1  0
 29 30  1  0
 30 31  1  0
 31 32  1  0
 32 28  1  0
  4  5  1  0
 15 33  2  0
 17 18  2  0
 33 34  1  0
 18 29  1  0
 34 35  2  0
  1  3  1  0
 35 36  1  0
 28 19  1  0
 36 37  2  0
 37 15  1  0
  5  6  1  0
 36 38  1  0
M  END