
  SciTegic01311317052D

 57 62  0  0  1  0            999 V2000
    2.8351   -7.7610    0.0000 C   0  0
    2.0245   -7.8982    0.0000 C   0  0
    2.0327   -8.8335    0.0000 C   0  0
    8.3430   -4.4895    0.0000 N   0  0
    2.5732   -8.3472    0.0000 O   0  0
    7.5740   -4.1819    0.0000 C   0  0
    7.0709   -2.8558    0.0000 C   0  0
    9.1453   -5.8862    0.0000 C   0  0
    1.5880   -9.3905    0.0000 C   0  0
    6.0401   -4.6558    0.0000 N   0  0
    3.5542   -7.3578    0.0000 N   0  0
    2.4069   -9.2533    0.0000 C   0  0
    9.0206   -6.7010    0.0000 N   0  0
    6.7509   -4.2443    0.0000 C   0  0  1  0  0  0
    8.9042   -5.0923    0.0000 C   0  0  2  0  0  0
    6.2521   -7.5490    0.0000 C   0  0
    5.5745   -5.3417    0.0000 C   0  0
    7.6321   -1.6461    0.0000 N   0  0
    7.0253   -7.8483    0.0000 N   0  0
    6.9130   -2.0452    0.0000 C   0  0
    4.2650   -6.9462    0.0000 C   0  0
    5.6909   -6.9504    0.0000 C   0  0  1  0  0  0
    6.5098   -3.4586    0.0000 C   0  0
    7.8857   -2.9556    0.0000 C   0  0
    8.2349   -2.2073    0.0000 C   0  0
    5.4497   -6.1606    0.0000 C   0  0
    4.9759   -7.3620    0.0000 C   0  0
    8.5592   -7.3827    0.0000 C   0  0  2  0  0  0
    7.6197   -3.4212    0.0000 O   0  0
    9.9684   -5.8156    0.0000 O   0  0
    9.6192   -4.6807    0.0000 C   0  0
    5.7906   -8.2349    0.0000 O   0  0
    4.8055   -5.0424    0.0000 O   0  0
    4.2692   -6.1232    0.0000 O   0  0
    7.8483   -7.7943    0.0000 C   0  0
    1.3884   -7.3702    0.0000 O   0  0
    1.3136   -8.4178    0.0000 O   0  0
    0.8771   -9.8062    0.0000 O   0  0
    9.1204   -7.9855    0.0000 C   0  0
   10.3300   -5.0923    0.0000 C   0  0
    3.0304   -9.7896    0.0000 C   0  0
    8.8792   -8.7712    0.0000 C   0  0
    2.8808  -10.5919    0.0000 O   0  0
    8.3596   -3.6290    0.0000 C   0  0
    9.0580   -2.1325    0.0000 C   0  0
   10.3300   -5.9154    0.0000 C   0  0
   11.0491   -4.6807    0.0000 C   0  0
    8.0728   -8.9582    0.0000 C   0  0
    9.4404   -9.3780    0.0000 C   0  0
    9.1827   -3.5584    0.0000 C   0  0
    9.5319   -2.8059    0.0000 C   0  0
   11.7642   -5.0923    0.0000 C   0  0
   11.0491   -6.3352    0.0000 C   0  0
    9.1952  -10.1679    0.0000 C   0  0
    7.8317   -9.7439    0.0000 C   0  0
    8.3929  -10.3508    0.0000 C   0  0
   11.7642   -5.9154    0.0000 C   0  0
  2  1  1  0
  3  2  1  0
  4  6  1  0
  5  1  1  0
  6 14  1  0
  7 23  1  0
  8 13  1  0
  9 12  1  0
 10 17  1  0
 11  1  1  0
 12  5  1  0
 13 28  1  0
 14 10  1  0
 15  4  1  0
 16 22  1  0
 17 26  1  0
 18 20  1  0
 19 16  1  0
 20  7  2  0
 21 11  1  0
 22 27  1  6
 14 23  1  1
 24  7  1  0
 25 24  2  0
 26 22  1  0
 27 21  1  0
 28 35  1  0
 29  6  2  0
 30  8  2  0
 15 31  1  1
 32 16  2  0
 33 17  2  0
 34 21  2  0
 35 19  1  0
 36  2  1  0
 37  3  1  0
 38  9  1  0
 28 39  1  1
 40 31  1  0
 41 12  1  0
 42 39  1  0
 43 41  1  0
 44 24  1  0
 45 25  1  0
 46 40  2  0
 47 40  1  0
 48 42  1  0
 49 42  2  0
 50 44  2  0
 51 50  1  0
 52 47  2  0
 53 46  1  0
 54 49  1  0
 55 48  2  0
 56 54  2  0
 57 52  1  0
  9  3  1  0
 15  8  1  0
 18 25  1  0
 56 55  1  0
 51 45  2  0
 53 57  2  0
M  END