
  SciTegic08041117222D

 31 34  0  0  0  0            999 V2000
   12.4051   -1.0876    0.0000 N   0  0
   13.1195   -0.6750    0.0000 C   0  0
   13.8341   -1.0876    0.0000 C   0  0
   14.5486   -0.6750    0.0000 C   0  0
   11.6905   -0.6750    0.0000 C   0  0
   10.9760   -1.0876    0.0000 C   0  0
   11.6905    0.1500    0.0000 O   0  0
   15.2632   -1.0876    0.0000 C   0  0
   15.9776   -0.6750    0.0000 N   0  0
   16.6912   -1.0912    0.0000 C   0  0
   17.4035   -0.6821    0.0000 C   0  0
   17.4078    0.1432    0.0000 N   0  0
   16.6935    0.5579    0.0000 C   0  0
   15.9748    0.1472    0.0000 C   0  0
   18.1239    0.5530    0.0000 C   0  0
   18.8344    0.1339    0.0000 C   0  0
   19.5501    0.5430    0.0000 C   0  0
   19.5536    1.3690    0.0000 C   0  0
   18.8356    1.7840    0.0000 C   0  0
   18.1230    1.3725    0.0000 C   0  0
   14.5486    0.1500    0.0000 F   0  0
   10.2165   -0.7545    0.0000 C   0  0
   10.8840   -1.9105    0.0000 O   0  0
   10.0770   -2.0821    0.0000 C   0  0
    9.6690   -1.3680    0.0000 C   0  0
    8.8484   -1.3652    0.0000 C   0  0
    8.4348   -2.0758    0.0000 C   0  0
    8.8478   -2.7908    0.0000 C   0  0
    9.6671   -2.7900    0.0000 C   0  0
   18.8289   -0.6911    0.0000 Cl  0  0
   20.2628    0.1275    0.0000 Cl  0  0
  4  8  1  0
 15 16  2  0
 16 17  1  0
  8  9  1  0
 17 18  2  0
  9 10  1  0
 18 19  1  0
  1  5  1  0
 19 20  2  0
 20 15  1  0
  2  3  1  0
  4 21  1  0
  6 22  2  0
  5  6  1  0
  1  2  1  0
 22 25  1  0
 24 23  1  0
 23  6  1  0
  5  7  2  0
  9 14  1  0
 24 25  2  0
 10 11  1  0
 25 26  1  0
 11 12  1  0
 26 27  2  0
 12 13  1  0
 27 28  1  0
 13 14  1  0
 28 29  2  0
 29 24  1  0
  3  4  1  0
 16 30  1  0
 12 15  1  0
 17 31  1  0
M  END