
          11280714442D 1   1.00000     0.00000     0

 55 60  0     1  0            999 V2000
    9.7167   -6.7375    0.0000 N   0  0  3  0  0  0           0  0  0
   10.4792   -6.4250    0.0000 N   0  0  0  0  0  0           0  0  0
   10.3917   -5.6000    0.0000 C   0  0  0  0  0  0           0  0  0
    9.1917   -6.1042    0.0000 C   0  0  0  0  0  0           0  0  0
    9.5917   -5.4000    0.0000 C   0  0  0  0  0  0           0  0  0
   10.1292   -8.1125    0.0000 C   0  0  0  0  0  0           0  0  0
    9.5417   -7.5417    0.0000 C   0  0  0  0  0  0           0  0  0
    6.4417   -5.3500    0.0000 C   0  0  0  0  0  0           0  0  0
    4.2792   -5.7750    0.0000 C   0  0  0  0  0  0           0  0  0
    3.5542   -5.3625    0.0000 N   0  0  0  0  0  0           0  0  0
    5.7042   -5.7750    0.0000 N   0  0  0  0  0  0           0  0  0
    4.9792   -5.3625    0.0000 C   0  0  1  0  0  0           0  0  0
    2.0917   -5.3625    0.0000 C   0  0  0  0  0  0           0  0  0
    8.3667   -6.0667    0.0000 C   0  0  0  0  0  0           0  0  0
   11.0167   -5.0750    0.0000 C   0  0  0  0  0  0           0  0  0
   11.7917   -5.3625    0.0000 N   0  0  3  0  0  0           0  0  0
    9.2042   -4.6750    0.0000 C   0  0  0  0  0  0           0  0  0
    7.1667   -5.7625    0.0000 N   0  0  0  0  0  0           0  0  0
    2.8292   -5.7750    0.0000 C   0  0  2  0  0  0           0  0  0
    1.3667   -5.7875    0.0000 N   0  0  0  0  0  0           0  0  0
    3.5417   -2.9125    0.0000 C   0  0  0  0  0  0           0  0  0
   10.9042   -7.8917    0.0000 C   0  0  0  0  0  0           0  0  0
    9.9417   -8.9250    0.0000 C   0  0  0  0  0  0           0  0  0
    7.9667   -5.3417    0.0000 C   0  0  0  0  0  0           0  0  0
    2.8292   -3.3250    0.0000 C   0  0  0  0  0  0           0  0  0
    4.9667   -4.5375    0.0000 C   0  0  0  0  0  0           0  0  0
    6.4292   -4.5042    0.0000 O   0  0  0  0  0  0           0  0  0
    4.2792   -6.6000    0.0000 O   0  0  0  0  0  0           0  0  0
    4.2542   -3.3125    0.0000 C   0  0  0  0  0  0           0  0  0
    4.2542   -4.1292    0.0000 C   0  0  0  0  0  0           0  0  0
    2.0917   -4.5375    0.0000 O   0  0  0  0  0  0           0  0  0
    2.8417   -4.1500    0.0000 C   0  0  0  0  0  0           0  0  0
    8.3792   -4.6375    0.0000 C   0  0  0  0  0  0           0  0  0
    0.6542   -5.3750    0.0000 C   0  0  0  0  0  0           0  0  0
    3.5417   -2.0917    0.0000 F   0  0  0  0  0  0           0  0  0
    3.5542   -4.5500    0.0000 C   0  0  0  0  0  0           0  0  0
   11.0917   -7.0875    0.0000 Cl  0  0  0  0  0  0           0  0  0
    9.2417   -9.3375    0.0000 Cl  0  0  0  0  0  0           0  0  0
    2.1167   -2.9250    0.0000 F   0  0  0  0  0  0           0  0  0
    2.8292   -6.6167    0.0000 C   0  0  0  0  0  0           0  0  0
    2.1167   -7.8542    0.0000 N   0  0  0  0  0  0           0  0  0
   -0.0708   -5.7917    0.0000 C   0  0  0  0  0  0           0  0  0
   11.9042   -6.1542    0.0000 C   0  0  0  0  0  0           0  0  0
   12.3542   -4.9000    0.0000 C   0  0  0  0  0  0           0  0  0
   11.3292   -9.2667    0.0000 C   0  0  0  0  0  0           0  0  0
   11.5042   -8.4625    0.0000 C   0  0  0  0  0  0           0  0  0
   10.5292   -9.5000    0.0000 C   0  0  0  0  0  0           0  0  0
    2.1167   -7.0292    0.0000 C   0  0  0  0  0  0           0  0  0
   -0.0708   -6.6375    0.0000 C   0  0  0  0  0  0           0  0  0
   -0.7958   -5.3792    0.0000 C   0  0  0  0  0  0           0  0  0
   12.7292   -6.1875    0.0000 C   0  0  0  0  0  0           0  0  0
   13.0042   -5.4167    0.0000 C   0  0  0  0  0  0           0  0  0
   -0.7833   -7.0500    0.0000 C   0  0  0  0  0  0           0  0  0
   -1.5083   -5.7917    0.0000 C   0  0  0  0  0  0           0  0  0
   -1.5208   -6.6375    0.0000 C   0  0  0  0  0  0           0  0  0
  2  1  1  0     0  0
  3  2  2  0     0  0
  4  1  1  0     0  0
  5  4  2  0     0  0
  6  7  1  0     0  0
  7  1  1  0     0  0
  8 18  1  0     0  0
  9 12  1  0     0  0
 10  9  1  0     0  0
 11  8  1  0     0  0
 12 11  1  0     0  0
 13 19  1  0     0  0
 14  4  1  0     0  0
 15  3  1  0     0  0
 16 15  1  0     0  0
 17  5  1  0     0  0
 18 24  1  0     0  0
 19 10  1  0     0  0
 20 13  1  0     0  0
 21 29  2  0     0  0
 22  6  2  0     0  0
 23  6  1  0     0  0
 24 14  2  0     0  0
 25 32  2  0     0  0
 12 26  1  6     0  0
 27  8  2  0     0  0
 28  9  2  0     0  0
 29 30  1  0     0  0
 30 26  1  0     0  0
 31 13  2  0     0  0
 32 36  1  0     0  0
 33 24  1  0     0  0
 34 20  1  0     0  0
 35 21  1  0     0  0
 36 30  2  0     0  0
 37 22  1  0     0  0
 38 23  1  0     0  0
 39 25  1  0     0  0
 19 40  1  1     0  0
 41 48  1  0     0  0
 42 34  1  0     0  0
 43 16  1  0     0  0
 44 16  1  0     0  0
 45 47  1  0     0  0
 46 22  1  0     0  0
 47 23  2  0     0  0
 48 40  1  0     0  0
 49 42  2  0     0  0
 50 42  1  0     0  0
 51 43  1  0     0  0
 52 44  1  0     0  0
 53 49  1  0     0  0
 54 50  2  0     0  0
 55 54  1  0     0  0
  3  5  1  0     0  0
 46 45  2  0     0  0
 17 33  2  0     0  0
 51 52  1  0     0  0
 21 25  1  0     0  0
 53 55  2  0     0  0
M  END