
  CDK    12/20/10,15:21

 37 41  0  0  0  0  0  0  0  0999 V2000
   18.2236  -11.9000    0.0000 C   0  0  0  0  0  0  0  0  0  0  0  0
   18.2224  -12.7273    0.0000 C   0  0  0  0  0  0  0  0  0  0  0  0
   18.9372  -13.1402    0.0000 C   0  0  0  0  0  0  0  0  0  0  0  0
   19.6537  -12.7269    0.0000 C   0  0  0  0  0  0  0  0  0  0  0  0
   19.6508  -11.8963    0.0000 N   0  0  0  0  0  0  0  0  0  0  0  0
   18.9354  -11.4872    0.0000 C   0  0  0  0  0  0  0  0  0  0  0  0
   17.5076  -13.1393    0.0000 C   0  0  0  0  0  0  0  0  0  0  0  0
   16.7935  -12.7262    0.0000 N   0  0  0  0  0  0  0  0  0  0  0  0
   16.7981  -11.8970    0.0000 C   0  0  0  0  0  0  0  0  0  0  0  0
   16.0881  -11.4840    0.0000 C   0  0  0  0  0  0  0  0  0  0  0  0
   15.3708  -11.8924    0.0000 C   0  0  0  0  0  0  0  0  0  0  0  0
   15.3682  -12.7184    0.0000 C   0  0  0  0  0  0  0  0  0  0  0  0
   16.0828  -13.1359    0.0000 C   0  0  0  0  0  0  0  0  0  0  0  0
   14.6583  -11.4767    0.0000 C   0  0  0  0  0  0  0  0  0  0  0  0
   14.6620  -10.6517    0.0000 O   0  0  0  0  0  0  0  0  0  0  0  0
   13.9419  -11.8859    0.0000 N   0  0  0  0  0  0  0  0  0  0  0  0
   13.2258  -11.4708    0.0000 C   0  0  0  0  0  0  0  0  0  0  0  0
   12.5116  -11.8765    0.0000 C   0  0  0  0  0  0  0  0  0  0  0  0
   12.5036  -12.7018    0.0000 C   0  0  0  0  0  0  0  0  0  0  0  0
   13.2160  -13.1198    0.0000 C   0  0  0  0  0  0  0  0  0  0  0  0
   13.9364  -12.7124    0.0000 C   0  0  0  0  0  0  0  0  0  0  0  0
   11.7857  -13.1083    0.0000 N   0  0  0  0  0  0  0  0  0  0  0  0
   11.0331  -12.7657    0.0000 C   0  0  0  0  0  0  0  0  0  0  0  0
   10.4759  -13.3742    0.0000 N   0  0  0  0  0  0  0  0  0  0  0  0
   11.6908  -13.9272    0.0000 C   0  0  0  0  0  0  0  0  0  0  0  0
   10.8852  -14.0940    0.0000 C   0  0  0  0  0  0  0  0  0  0  0  0
   10.6284  -14.8736    0.0000 C   0  0  0  0  0  0  0  0  0  0  0  0
   11.1761  -15.4871    0.0000 C   0  0  0  0  0  0  0  0  0  0  0  0
   11.9840  -15.3158    0.0000 C   0  0  0  0  0  0  0  0  0  0  0  0
   12.2371  -14.5364    0.0000 C   0  0  0  0  0  0  0  0  0  0  0  0
   10.8683  -11.9573    0.0000 O   0  0  0  0  0  0  0  0  0  0  0  0
    9.6561  -13.2818    0.0000 C   0  0  0  0  0  0  0  0  0  0  0  0
    9.3262  -12.5256    0.0000 C   0  0  0  0  0  0  0  0  0  0  0  0
    8.5064  -12.4332    0.0000 O   0  0  0  0  0  0  0  0  0  0  0  0
    8.1765  -11.6771    0.0000 C   0  0  0  0  0  0  0  0  0  0  0  0
    7.3567  -11.5847    0.0000 C   0  0  0  0  0  0  0  0  0  0  0  0
    8.6664  -11.0133    0.0000 C   0  0  0  0  0  0  0  0  0  0  0  0
  4  5  1  0  0  0  0 
  2  3  1  0  0  0  0 
 16 21  1  0  0  0  0 
 17 18  1  0  0  0  0 
 18 19  1  0  0  0  0 
 19 20  1  0  0  0  0 
 20 21  1  0  0  0  0 
  5  6  2  0  0  0  0 
 19 22  1  0  0  0  0 
 22 23  1  0  0  0  0 
  6  1  1  0  0  0  0 
  8 13  1  0  0  0  0 
 23 24  1  0  0  0  0 
 24 26  1  0  0  0  0 
 25 22  1  0  0  0  0 
  9 10  1  0  0  0  0 
 10 11  1  0  0  0  0 
 25 26  2  0  0  0  0 
 11 12  1  0  0  0  0 
 26 27  1  0  0  0  0 
 12 13  1  0  0  0  0 
 27 28  2  0  0  0  0 
  1  2  2  0  0  0  0 
 28 29  1  0  0  0  0 
 11 14  1  0  0  0  0 
 29 30  2  0  0  0  0 
 30 25  1  0  0  0  0 
  2  7  1  0  0  0  0 
 23 31  2  0  0  0  0 
 14 15  2  0  0  0  0 
 24 32  1  0  0  0  0 
  3  4  2  0  0  0  0 
 32 33  1  0  0  0  0 
 14 16  1  0  0  0  0 
 33 34  1  0  0  0  0 
 16 17  1  0  0  0  0 
 34 35  1  0  0  0  0 
  7  8  1  0  0  0  0 
 35 36  1  0  0  0  0 
  8  9  1  0  0  0  0 
 35 37  1  0  0  0  0 
M  END