
  Mrv0541 05211314572D          

 36 39  0  0  0  0            999 V2000
    3.7036   -4.6018    0.0000 N   0  0  0  0  0  0  0  0  0  0  0  0
    3.7036   -5.4268    0.0000 C   0  0  0  0  0  0  0  0  0  0  0  0
    2.9891   -5.8393    0.0000 N   0  0  0  0  0  0  0  0  0  0  0  0
    2.9891   -4.1893    0.0000 C   0  0  0  0  0  0  0  0  0  0  0  0
    2.2746   -4.6018    0.0000 C   0  0  0  0  0  0  0  0  0  0  0  0
    2.2746   -5.4268    0.0000 C   0  0  0  0  0  0  0  0  0  0  0  0
    1.4900   -5.6817    0.0000 C   0  0  0  0  0  0  0  0  0  0  0  0
    1.0051   -5.0143    0.0000 C   0  0  0  0  0  0  0  0  0  0  0  0
    1.4900   -4.3469    0.0000 N   0  0  0  0  0  0  0  0  0  0  0  0
    2.9891   -3.3643    0.0000 O   0  0  0  0  0  0  0  0  0  0  0  0
    4.4180   -5.8393    0.0000 O   0  0  0  0  0  0  0  0  0  0  0  0
    4.4180   -4.1893    0.0000 C   0  0  0  0  0  0  0  0  0  0  0  0
    2.9891   -6.6643    0.0000 C   0  0  0  0  0  0  0  0  0  0  0  0
    0.1801   -5.0143    0.0000 C   0  0  0  0  0  0  0  0  0  0  0  0
   -0.2324   -4.2998    0.0000 C   0  0  0  0  0  0  0  0  0  0  0  0
   -1.0574   -4.2998    0.0000 C   0  0  0  0  0  0  0  0  0  0  0  0
   -1.4699   -5.0143    0.0000 C   0  0  0  0  0  0  0  0  0  0  0  0
   -1.0574   -5.7288    0.0000 C   0  0  0  0  0  0  0  0  0  0  0  0
   -0.2324   -5.7288    0.0000 C   0  0  0  0  0  0  0  0  0  0  0  0
    5.1325   -4.6018    0.0000 C   0  0  0  0  0  0  0  0  0  0  0  0
    5.8470   -4.1893    0.0000 C   0  0  0  0  0  0  0  0  0  0  0  0
    3.7036   -7.0768    0.0000 C   0  0  0  0  0  0  0  0  0  0  0  0
    3.7036   -7.9018    0.0000 C   0  0  0  0  0  0  0  0  0  0  0  0
    1.2351   -6.4664    0.0000 O   0  0  0  0  0  0  0  0  0  0  0  0
   -2.2949   -5.0143    0.0000 O   0  0  0  0  0  0  0  0  0  0  0  0
   -2.7074   -5.7288    0.0000 C   0  0  0  0  0  0  0  0  0  0  0  0
   -3.5324   -5.7288    0.0000 C   0  0  0  0  0  0  0  0  0  0  0  0
   -3.9449   -5.0143    0.0000 O   0  0  0  0  0  0  0  0  0  0  0  0
   -3.9449   -6.4432    0.0000 N   0  0  0  0  0  0  0  0  0  0  0  0
   -4.7699   -6.4432    0.0000 C   0  0  0  0  0  0  0  0  0  0  0  0
   -5.1824   -7.1577    0.0000 C   0  0  0  0  0  0  0  0  0  0  0  0
   -6.0074   -7.1577    0.0000 C   0  0  0  0  0  0  0  0  0  0  0  0
   -6.4199   -6.4432    0.0000 C   0  0  0  0  0  0  0  0  0  0  0  0
   -6.0074   -5.7288    0.0000 C   0  0  0  0  0  0  0  0  0  0  0  0
   -5.1824   -5.7288    0.0000 C   0  0  0  0  0  0  0  0  0  0  0  0
   -7.2449   -6.4432    0.0000 Br  0  0  0  0  0  0  0  0  0  0  0  0
 17 18  1  0  0  0  0
  8  9  1  0  0  0  0
 18 19  2  0  0  0  0
 19 14  1  0  0  0  0
  8 14  1  0  0  0  0
  9  5  1  0  0  0  0
 12 20  1  0  0  0  0
  5  4  1  0  0  0  0
 20 21  1  0  0  0  0
  4 10  2  0  0  0  0
 13 22  1  0  0  0  0
  5  6  2  0  0  0  0
 22 23  1  0  0  0  0
  2 11  2  0  0  0  0
  7 24  1  0  0  0  0
 17 25  1  0  0  0  0
  1 12  1  0  0  0  0
 25 26  1  0  0  0  0
  1  2  1  0  0  0  0
 26 27  1  0  0  0  0
  3 13  1  0  0  0  0
 27 28  2  0  0  0  0
  1  4  1  0  0  0  0
 27 29  1  0  0  0  0
  2  3  1  0  0  0  0
 29 30  1  0  0  0  0
 14 15  2  0  0  0  0
 30 31  2  0  0  0  0
  3  6  1  0  0  0  0
 31 32  1  0  0  0  0
 15 16  1  0  0  0  0
 32 33  2  0  0  0  0
  6  7  1  0  0  0  0
 33 34  1  0  0  0  0
 16 17  2  0  0  0  0
 34 35  2  0  0  0  0
 35 30  1  0  0  0  0
  7  8  2  0  0  0  0
 33 36  1  0  0  0  0
M  END