
  SciTegic12231509382D

 20 21  0  0  0  0            999 V2000
    3.1141    0.2352    0.0000 C   0  0
    3.8289   -0.1777    0.0000 C   0  0
    4.5453    0.2356    0.0000 C   0  0
    4.5425    1.0662    0.0000 C   0  0
    3.1152    1.0625    0.0000 C   0  0
    3.8230    1.4777    0.0000 C   0  0
    3.6468    2.2792    0.0000 C   0  0
    2.8301    2.3593    0.0000 C   0  0
    2.5017    1.6074    0.0000 C   0  0
    5.2554    1.4813    0.0000 O   0  0
    2.3993   -0.1768    0.0000 C   0  0
    5.9714    1.0715    0.0000 C   0  0
    6.6843    1.4867    0.0000 C   0  0
    7.4003    1.0768    0.0000 C   0  0
    6.6813    2.3116    0.0000 O   0  0
    7.4034    0.2518    0.0000 C   0  0
    8.1133    1.4920    0.0000 N   0  0
    8.8293    1.0821    0.0000 C   0  0
    9.5422    1.4973    0.0000 C   0  0
    8.8323    0.2571    0.0000 C   0  0
  4  6  2  0
  4 10  1  0
  5  6  1  0
  1 11  1  0
  1  2  1  0
 10 12  1  0
  5  1  2  0
 12 13  1  0
  2  3  2  0
 13 14  1  0
 13 15  1  0
  3  4  1  0
 14 16  1  0
  6  7  1  0
 14 17  1  0
  7  8  1  0
 17 18  1  0
  8  9  1  0
 18 19  1  0
  9  5  1  0
 18 20  1  0
M  END