
          05080814042D 1   1.00000     0.00000     0

 36 40  0     1  0            999 V2000
    7.6344  -16.8640    0.0000 C   0  0  0  0  0  0           0  0  0
    6.9238  -17.2788    0.0000 C   0  0  0  0  0  0           0  0  0
    6.9308  -18.1051    0.0000 C   0  0  0  0  0  0           0  0  0
    7.6445  -18.5085    0.0000 C   0  0  0  0  0  0           0  0  0
    8.3476  -17.2711    0.0000 C   0  0  0  0  0  0           0  0  0
    8.3537  -18.0988    0.0000 C   0  0  0  0  0  0           0  0  0
    9.0695  -18.5050    0.0000 C   0  0  0  0  0  0           0  0  0
    9.0574  -16.8499    0.0000 C   0  0  0  0  0  0           0  0  0
    9.7778  -17.2606    0.0000 C   0  0  2  0  0  0           0  0  0
    9.7823  -18.0902    0.0000 C   0  0  2  0  0  0           0  0  0
   10.4991  -18.4988    0.0000 N   0  0  3  0  0  0           0  0  0
   11.2158  -18.0824    0.0000 C   0  0  0  0  0  0           0  0  0
   11.2112  -17.2528    0.0000 C   0  0  1  0  0  0           0  0  0
   10.4900  -16.8397    0.0000 C   0  0  0  0  0  0           0  0  0
    9.7699  -16.4318    0.0000 H   0  0  0  0  0  0           0  0  0
    9.7741  -18.9150    0.0000 H   0  0  0  0  0  0           0  0  0
   11.9238  -16.8372    0.0000 C   0  0  0  0  0  0           0  0  0
   12.6401  -17.2464    0.0000 N   0  0  3  0  0  0           0  0  0
   11.9201  -16.0123    0.0000 O   0  0  0  0  0  0           0  0  0
   12.6378  -18.0746    0.0000 C   0  0  0  0  0  0           0  0  0
   13.3499  -18.4837    0.0000 C   0  0  0  0  0  0           0  0  0
   14.0648  -18.0716    0.0000 N   0  0  3  0  0  0           0  0  0
   14.0631  -17.2456    0.0000 C   0  0  0  0  0  0           0  0  0
   13.3464  -16.8320    0.0000 C   0  0  0  0  0  0           0  0  0
    7.6305  -16.0391    0.0000 O   0  0  0  0  0  0           0  0  0
    6.9141  -15.6300    0.0000 C   0  0  0  0  0  0           0  0  0
   10.5024  -19.3237    0.0000 C   0  0  0  0  0  0           0  0  0
   14.7796  -18.4835    0.0000 C   0  0  0  0  0  0           0  0  0
   14.7757  -19.3077    0.0000 C   0  0  0  0  0  0           0  0  0
   15.4895  -19.7195    0.0000 C   0  0  0  0  0  0           0  0  0
   16.2045  -19.3066    0.0000 C   0  0  0  0  0  0           0  0  0
   16.2013  -18.4773    0.0000 C   0  0  0  0  0  0           0  0  0
   15.4869  -18.0692    0.0000 C   0  0  0  0  0  0           0  0  0
   16.9198  -19.7176    0.0000 C   0  0  0  0  0  0           0  0  0
   16.9215  -20.5425    0.0000 O   0  0  0  0  0  0           0  0  0
   17.6334  -19.3037    0.0000 C   0  0  0  0  0  0           0  0  0
 13 17  1  1     0  0
  7 10  1  0     0  0
 17 18  1  0     0  0
  9  8  1  0     0  0
 17 19  2  0     0  0
 18 20  1  0     0  0
  9 10  1  0     0  0
  3  4  2  0     0  0
  4  6  1  0     0  0
  5  6  2  0     0  0
  1  2  2  0     0  0
 18 24  1  0     0  0
 20 21  1  0     0  0
 21 22  1  0     0  0
 22 23  1  0     0  0
 23 24  1  0     0  0
  5  1  1  0     0  0
  1 25  1  0     0  0
  2  3  1  0     0  0
 25 26  1  0     0  0
  9 14  1  0     0  0
 11 27  1  0     0  0
 10 11  1  0     0  0
 22 28  1  0     0  0
 11 12  1  0     0  0
 28 29  2  0     0  0
 12 13  1  0     0  0
 29 30  1  0     0  0
 13 14  1  0     0  0
 30 31  2  0     0  0
 31 32  1  0     0  0
  9 15  1  6     0  0
 32 33  2  0     0  0
 33 28  1  0     0  0
  5  8  1  0     0  0
 31 34  1  0     0  0
 10 16  1  1     0  0
 34 35  2  0     0  0
  6  7  1  0     0  0
 34 36  1  0     0  0
M  END