
  SciTegic04091416462D

 21 23  0  0  0  0            999 V2000
   14.3338  -12.1687    0.0000 N   0  0
   13.5637  -11.8866    0.0000 C   0  0
   10.1126  -10.5582    0.0000 C   0  0
   11.5348  -10.5578    0.0000 C   0  0
   13.5978  -11.0666    0.0000 C   0  0
   12.9574   -9.7351    0.0000 O   0  0
   10.1137   -9.7354    0.0000 C   0  0
   14.3838  -10.8428    0.0000 C   0  0
   11.5319   -9.7318    0.0000 C   0  0
   12.2495  -10.9689    0.0000 N   0  0
   10.8228  -10.9708    0.0000 C   0  0
   10.8211   -9.3270    0.0000 N   0  0
   14.8402  -11.5238    0.0000 N   0  0
   14.6677  -10.0728    0.0000 C   0  0
   12.9581  -10.5559    0.0000 C   0  0
   15.6568  -11.5545    0.0000 C   0  0
   16.0335  -12.2782    0.0000 C   0  0
   16.8494  -12.3092    0.0000 C   0  0
   17.2851  -11.6168    0.0000 C   0  0
   16.8991  -10.8918    0.0000 C   0  0
   16.0844  -10.8643    0.0000 C   0  0
  7  3  2  0
 15  6  2  0
  9 12  2  0
  3 11  1  0
  8 14  1  0
  4 10  1  0
 13  8  1  0
 15  5  1  0
  4  9  1  0
 11  4  2  0
  1 13  1  0
 10 15  1  0
 12  7  1  0
  2  1  2  0
  5  2  1  0
  8  5  2  0
 13 16  1  0
 16 17  2  0
 17 18  1  0
 18 19  2  0
 19 20  1  0
 20 21  2  0
 21 16  1  0
M  END