
  SciTegic01161211242D

 23 23  0  0  0  0            999 V2000
    5.1894   -6.0109    0.0000 N   0  0
    2.5973   -1.5031    0.0000 O   0  0
    3.8933   -3.7570    0.0000 C   0  0
    1.2990   -0.7500    0.0000 C   0  0
    3.8912   -5.2578    0.0000 C   0  0
    2.5951   -3.0039    0.0000 C   0  0
   -3.8990    0.7455    0.0000 O   0  0
   -1.2990    0.7500    0.0000 C   0  0
    8.9855   -3.3824    0.0000 Cl  0  0
    1.2990    0.7500    0.0000 C   0  0
    0.0000   -1.5000    0.0000 C   0  0
    0.0000    1.5000    0.0000 C   0  0
   -1.2990   -0.7500    0.0000 C   0  0
    4.9336   -3.1588    0.0000 O   0  0
    5.1873   -7.5117    0.0000 C   0  0
   -8.2877   -0.3002    0.0000 C   0  0
   -2.6003    1.4977    0.0000 C   0  0
   -6.4990    0.7409    0.0000 C   0  0
   -5.2003    1.4932    0.0000 C   0  0
   -7.9046    1.1501    0.0000 C   0  0
   -6.8375   -0.6833    0.0000 C   0  0
    6.2253   -8.1139    0.0000 C   0  0
    4.1470   -8.1099    0.0000 C   0  0
  2  4  1  0
  1  5  1  0
  3  5  1  0
  2  6  1  0
  3  6  1  0
  4 10  1  0
  4 11  2  0
  8 12  1  0
 10 12  2  0
  8 13  2  0
 11 13  1  0
  3 14  1  0
  1 15  1  0
  7 17  1  0
  8 17  1  0
  7 19  1  0
 18 19  1  0
 16 20  1  0
 18 20  1  0
 16 21  1  0
 18 21  1  0
 15 22  1  0
 15 23  1  0
M  END