
  SciTegic05071316162D

 17 18  0  0  0  0            999 V2000
    4.9760  -11.0114    0.0000 C   0  0
    4.9749  -11.8309    0.0000 C   0  0
    5.6829  -12.2399    0.0000 C   0  0
    6.3926  -11.8305    0.0000 C   0  0
    6.3898  -11.0078    0.0000 C   0  0
    5.6811  -10.6025    0.0000 C   0  0
    4.2682  -10.6030    0.0000 C   0  0  1  0  0  0
    3.5606  -11.0117    0.0000 C   0  0
    2.8528  -10.6033    0.0000 C   0  0
    2.1452  -11.0121    0.0000 N   0  0
    1.3992  -10.6760    0.0000 N   0  0
    0.8525  -11.2834    0.0000 C   0  0
    1.2613  -11.9910    0.0000 N   0  0
    2.0606  -11.8208    0.0000 C   0  0
    4.2680   -9.7858    0.0000 C   0  0
    4.9756   -9.3770    0.0000 C   0  0
    5.6834   -9.7855    0.0000 C   0  0
  1  2  2  0
  2  3  1  0
  3  4  2  0
  4  5  1  0
  5  6  2  0
  6  1  1  0
  1  7  1  0
  7  8  1  0
  8  9  1  0
  9 10  1  0
 10 11  1  0
 11 12  2  0
 12 13  1  0
 13 14  2  0
 14 10  1  0
  7 15  1  1
 15 16  1  0
 16 17  1  0
M  END