
  SciTegic12011114592D

 18 20  0  0  0  0            999 V2000
    1.4255   -1.4482    0.0000 N   0  0
    2.1417   -1.0387    0.0000 C   0  0
    2.1451   -0.2137    0.0000 C   0  0
    1.4324    0.2018    0.0000 C   0  0
    0.7162   -0.2077    0.0000 C   0  0
    0.0034    0.2077    0.0000 C   0  0
   -0.7128   -0.2018    0.0000 C   0  0
   -0.7162   -1.0268    0.0000 C   0  0
   -0.0034   -1.4423    0.0000 C   0  0
    0.7128   -1.0327    0.0000 C   0  0
    2.8544   -1.4541    0.0000 N   0  0
   -1.4255    0.2137    0.0000 C   0  0
   -1.4221    1.0387    0.0000 C   0  0
   -2.8510    1.0446    0.0000 C   0  0
   -2.1417   -0.1959    0.0000 C   0  0
   -2.1348    1.4541    0.0000 C   0  0
   -2.8544    0.2196    0.0000 C   0  0
   -0.7059    1.4482    0.0000 C   0  0
  1  2  2  0
  2  3  1  0
  3  4  2  0
  4  5  1  0
  5  6  2  0
  6  7  1  0
  7  8  2  0
  8  9  1  0
  9 10  2  0
  1 10  1  0
  5 10  1  0
  2 11  1  0
 12 13  1  0
 12 15  2  0
 13 16  2  0
 14 16  1  0
 14 17  2  0
 15 17  1  0
 13 18  1  0
  7 12  1  0
M  END