
          11280715392D 1   1.00000     0.00000     0

 40 41  0     0  0            999 V2000
   11.4542  -12.1000    0.0000 C   0  0  0  0  0  0           0  0  0
   -0.1083   -6.1917    0.0000 C   0  0  0  0  0  0           0  0  0
   11.7750  -12.6042    0.0000 C   0  0  0  0  0  0           0  0  0
   -0.4083   -6.7125    0.0000 C   0  0  0  0  0  0           0  0  0
   10.5375  -11.6167    0.0000 N   0  0  0  0  0  0           0  0  0
    0.7917   -6.7125    0.0000 N   0  0  0  0  0  0           0  0  0
    7.7750  -10.1667    0.0000 N   0  0  0  0  0  0           0  0  0
    3.4917   -8.2667    0.0000 N   0  0  0  0  0  0           0  0  0
   -0.1083   -7.2292    0.0000 O   0  0  0  0  0  0           0  0  0
   11.4917  -13.1375    0.0000 O   0  0  0  0  0  0           0  0  0
    0.4917   -6.1917    0.0000 C   0  0  0  0  0  0           0  0  0
   10.8542  -12.1167    0.0000 C   0  0  0  0  0  0           0  0  0
   -0.4083   -5.6667    0.0000 C   0  0  0  0  0  0           0  0  0
   11.7292  -11.5667    0.0000 C   0  0  0  0  0  0           0  0  0
   -1.0083   -6.7125    0.0000 C   0  0  0  0  0  0           0  0  0
   12.3750  -12.5792    0.0000 C   0  0  0  0  0  0           0  0  0
    9.9375  -11.6417    0.0000 C   0  0  0  0  0  0           0  0  0
    7.1750  -10.1917    0.0000 C   0  0  0  0  0  0           0  0  0
    4.0875   -8.2417    0.0000 C   0  0  0  0  0  0           0  0  0
    8.0917  -10.6792    0.0000 C   0  0  0  0  0  0           0  0  0
    1.3917   -6.7125    0.0000 C   0  0  0  0  0  0           0  0  0
    3.1917   -7.7542    0.0000 C   0  0  0  0  0  0           0  0  0
   -0.4000   -7.7500    0.0000 C   0  0  0  0  0  0           0  0  0
   11.8125  -13.6417    0.0000 C   0  0  0  0  0  0           0  0  0
    9.6167  -11.1292    0.0000 C   0  0  0  0  0  0           0  0  0
    6.8542   -9.6917    0.0000 C   0  0  0  0  0  0           0  0  0
    4.4125   -8.7542    0.0000 C   0  0  0  0  0  0           0  0  0
    1.6917   -7.2292    0.0000 C   0  0  0  0  0  0           0  0  0
    2.5917   -7.7542    0.0000 C   0  0  0  0  0  0           0  0  0
    8.6917  -10.6542    0.0000 C   0  0  0  0  0  0           0  0  0
    9.0167  -11.1542    0.0000 C   0  0  0  0  0  0           0  0  0
    5.3292   -9.2292    0.0000 C   0  0  0  0  0  0           0  0  0
    5.9292   -9.2042    0.0000 C   0  0  0  0  0  0           0  0  0
    2.2917   -7.2292    0.0000 C   0  0  0  0  0  0           0  0  0
    6.2542   -9.7167    0.0000 C   0  0  0  0  0  0           0  0  0
    5.0042   -8.7292    0.0000 C   0  0  0  0  0  0           0  0  0
   12.3292  -11.5417    0.0000 C   0  0  0  0  0  0           0  0  0
   -1.0083   -5.6667    0.0000 C   0  0  0  0  0  0           0  0  0
   12.6542  -12.0542    0.0000 C   0  0  0  0  0  0           0  0  0
   -1.3083   -6.1917    0.0000 C   0  0  0  0  0  0           0  0  0
  2 11  1  0     0  0
  3  1  2  0     0  0
  4  2  1  0     0  0
  5 12  1  0     0  0
  6 21  1  0     0  0
  7 20  1  0     0  0
  8 19  1  0     0  0
  9  4  1  0     0  0
 10  3  1  0     0  0
 11  6  1  0     0  0
 12  1  1  0     0  0
 13  2  2  0     0  0
 14  1  1  0     0  0
 15  4  2  0     0  0
 16  3  1  0     0  0
 17  5  1  0     0  0
 18  7  1  0     0  0
 19 27  1  0     0  0
 20 30  1  0     0  0
 21 28  1  0     0  0
 22  8  1  0     0  0
 23  9  1  0     0  0
 24 10  1  0     0  0
 25 17  1  0     0  0
 26 18  1  0     0  0
 27 36  1  0     0  0
 28 34  1  0     0  0
 29 22  1  0     0  0
 30 31  1  0     0  0
 31 25  1  0     0  0
 32 33  1  0     0  0
 33 35  1  0     0  0
 34 29  1  0     0  0
 35 26  1  0     0  0
 36 32  1  0     0  0
 37 14  2  0     0  0
 38 13  1  0     0  0
 39 37  1  0     0  0
 40 38  2  0     0  0
 16 39  2  0     0  0
 40 15  1  0     0  0
M  END