
          11280715232D 1   1.00000     0.00000     0

 54 57  0     1  0            999 V2000
    5.6375   -5.8125    0.0000 N   0  0  0  0  0  0           0  0  0
    7.3500   -4.1417    0.0000 N   0  0  0  0  0  0           0  0  0
    3.3000   -5.2875    0.0000 N   0  0  0  0  0  0           0  0  0
    6.9750   -4.8792    0.0000 C   0  0  0  0  0  0           0  0  0
    7.6792   -6.0667    0.0000 C   0  0  0  0  0  0           0  0  0
    2.7792   -4.6500    0.0000 C   0  0  0  0  0  0           0  0  0
    4.8167   -5.9000    0.0000 C   0  0  0  0  0  0           0  0  0
    6.3792   -5.4542    0.0000 C   0  0  2  0  0  0           0  0  0
    7.4625   -3.3250    0.0000 C   0  0  1  0  0  0           0  0  0
    8.9792   -6.3750    0.0000 N   0  0  0  0  0  0           0  0  0
    7.3042   -2.5125    0.0000 C   0  0  0  0  0  0           0  0  0
    2.4875   -3.8750    0.0000 C   0  0  1  0  0  0           0  0  0
    8.2167   -6.6917    0.0000 C   0  0  0  0  0  0           0  0  0
    2.4625   -3.0500    0.0000 N   0  0  0  0  0  0           0  0  0
    4.0042   -5.7167    0.0000 C   0  0  1  0  0  0           0  0  0
    1.6750   -4.0292    0.0000 C   0  0  0  0  0  0           0  0  0
    3.8792   -1.1167    0.0000 N   0  0  0  0  0  0           0  0  0
    4.6750   -0.8917    0.0000 C   0  0  0  0  0  0           0  0  0
    6.8542   -6.1375    0.0000 C   0  0  0  0  0  0           0  0  0
    8.1042   -5.3625    0.0000 C   0  0  0  0  0  0           0  0  0
    1.0875   -4.6167    0.0000 C   0  0  0  0  0  0           0  0  0
    6.8917   -1.7917    0.0000 N   0  0  0  0  0  0           0  0  0
    8.9125   -5.5500    0.0000 C   0  0  0  0  0  0           0  0  0
    3.8917   -7.9042    0.0000 C   0  0  0  0  0  0           0  0  0
    7.6417   -5.3667    0.0000 O   0  0  0  0  0  0           0  0  0
    4.7667   -6.7250    0.0000 O   0  0  0  0  0  0           0  0  0
    2.0625   -5.0625    0.0000 O   0  0  0  0  0  0           0  0  0
    8.2917   -3.3000    0.0000 C   0  0  0  0  0  0           0  0  0
    5.5000   -0.9417    0.0000 C   0  0  0  0  0  0           0  0  0
    3.2042   -1.5917    0.0000 C   0  0  1  0  0  0           0  0  0
    7.9000   -2.2792    0.0000 O   0  0  0  0  0  0           0  0  0
    4.5792   -0.0667    0.0000 O   0  0  0  0  0  0           0  0  0
    0.2917   -4.3917    0.0000 O   0  0  0  0  0  0           0  0  0
    3.0750   -8.0167    0.0000 O   0  0  0  0  0  0           0  0  0
    3.6917   -6.4875    0.0000 C   0  0  0  0  0  0           0  0  0
    2.7125   -2.2542    0.0000 C   0  0  0  0  0  0           0  0  0
    6.2667   -1.2542    0.0000 C   0  0  0  0  0  0           0  0  0
    4.2042   -7.1417    0.0000 C   0  0  0  0  0  0           0  0  0
    4.4000   -8.5542    0.0000 N   0  0  0  0  0  0           0  0  0
    2.6250   -1.0000    0.0000 C   0  0  0  0  0  0           0  0  0
    1.2917   -5.4125    0.0000 O   0  0  0  0  0  0           0  0  0
    8.6875   -2.5750    0.0000 C   0  0  0  0  0  0           0  0  0
    7.8667   -4.5667    0.0000 C   0  0  0  0  0  0           0  0  0
    9.4792   -4.9500    0.0000 C   0  0  0  0  0  0           0  0  0
    1.8250   -1.2042    0.0000 C   0  0  3  0  0  0           0  0  0
    9.5125   -2.5500    0.0000 C   0  0  0  0  0  0           0  0  0
    8.2500   -1.8667    0.0000 C   0  0  0  0  0  0           0  0  0
    1.2417   -0.6042    0.0000 C   0  0  0  0  0  0           0  0  0
    1.6000   -1.9917    0.0000 C   0  0  0  0  0  0           0  0  0
    8.4375   -3.9667    0.0000 C   0  0  0  0  0  0           0  0  0
    9.2417   -4.1542    0.0000 C   0  0  0  0  0  0           0  0  0
    9.9042   -1.8167    0.0000 C   0  0  0  0  0  0           0  0  0
    8.6417   -1.1375    0.0000 C   0  0  0  0  0  0           0  0  0
    9.4667   -1.1167    0.0000 C   0  0  0  0  0  0           0  0  0
  2  4  1  0     0  0
  3 15  1  0     0  0
  4  8  1  0     0  0
  5 19  1  0     0  0
  6  3  1  0     0  0
  7  1  1  0     0  0
  8  1  1  0     0  0
  9  2  1  0     0  0
 10 13  1  0     0  0
 11  9  1  0     0  0
 12  6  1  0     0  0
 13  5  2  0     0  0
 14 12  1  0     0  0
 15  7  1  0     0  0
 12 16  1  6     0  0
 17 30  1  0     0  0
 18 29  1  0     0  0
  8 19  1  6     0  0
 20  5  1  0     0  0
 21 16  1  0     0  0
 22 11  1  0     0  0
 23 20  2  0     0  0
 24 38  1  0     0  0
 25  4  2  0     0  0
 26  7  2  0     0  0
 27  6  2  0     0  0
  9 28  1  1     0  0
 29 37  1  0     0  0
 30 36  1  0     0  0
 31 11  2  0     0  0
 32 18  2  0     0  0
 33 21  2  0     0  0
 34 24  2  0     0  0
 15 35  1  1     0  0
 36 14  1  0     0  0
 37 22  1  0     0  0
 38 35  1  0     0  0
 39 24  1  0     0  0
 30 40  1  1     0  0
 41 21  1  0     0  0
 42 28  1  0     0  0
 43 20  1  0     0  0
 44 23  1  0     0  0
 45 40  1  0     0  0
 46 42  1  0     0  0
 47 42  2  0     0  0
 48 45  1  0     0  0
 49 45  1  0     0  0
 50 43  2  0     0  0
 51 50  1  0     0  0
 52 46  2  0     0  0
 53 47  1  0     0  0
 54 53  2  0     0  0
 10 23  1  0     0  0
 51 44  2  0     0  0
 54 52  1  0     0  0
 18 17  1  0     0  0
M  END