
  SciTegic01161211212D

 28 30  0  0  0  0            999 V2000
    6.0630  -13.2413    0.0000 N   0  0
    6.8413  -13.4952    0.0000 C   0  0
    5.2308  -13.2455    0.0000 C   0  0
    7.3281  -12.8211    0.0000 C   0  0
    6.0547  -12.4215    0.0000 C   0  0  1  0  0  0
    5.2308  -12.4215    0.0000 C   0  0  1  0  0  0
    6.8330  -12.1594    0.0000 C   0  0  1  0  0  0
    7.1034  -14.2775    0.0000 C   0  0
    8.2020   -9.9997    0.0000 C   0  0
    8.4891  -10.7736    0.0000 C   0  0  1  0  0  0
    8.1520  -12.8211    0.0000 S   0  0
    9.2881  -10.9859    0.0000 N   0  0
    8.0396  -11.4603    0.0000 C   0  0
    4.6440  -13.8280    0.0000 O   0  0
    8.7221   -9.3630    0.0000 N   0  0
    8.5598  -12.1052    0.0000 C   0  0  1  0  0  0
    4.4978  -12.0325    0.0000 C   0  0  2  0  0  0
    7.3905   -9.8707    0.0000 O   0  0
    6.5540  -14.8892    0.0000 O   0  0
    9.3255  -11.8098    0.0000 C   0  0
    7.9106  -14.4440    0.0000 O   0  0
    7.0909  -11.3729    0.0000 C   0  0
    4.4745  -11.2041    0.0000 O   0  0
    8.4267   -8.5890    0.0000 C   0  0
    9.5377   -9.4961    0.0000 C   0  0
    3.8042  -12.4672    0.0000 C   0  0
    6.0505  -11.5934    0.0000 H   0  0
    5.2266  -11.5976    0.0000 H   0  0
  2  1  1  0
  3  1  1  0
  4  2  2  0
  5  1  1  0
  6  5  1  0
  7  5  1  0
  8  2  1  0
 10  9  1  1
 10 13  1  0
 11  4  1  0
 12 20  1  0
 13 16  1  0
 14  3  2  0
 15  9  1  0
 16 11  1  1
 17  6  1  0
 18  9  2  0
 19  8  2  0
 20 16  1  0
 21  8  1  0
  7 22  1  1
 17 23  1  1
 24 15  1  0
 25 15  1  0
 26 17  1  0
  5 27  1  6
  6 28  1  1
  4  7  1  0
  6  3  1  0
 12 10  1  0
M  END