
  SciTegic12231509382D

 33 36  0  0  0  0            999 V2000
    2.5988   -1.5004    0.0000 C   0  0
  -11.6937    0.7330    0.0000 C   0  0
   -2.5987    1.5004    0.0000 N   0  0
    1.2990   -0.7500    0.0000 C   0  0
   -1.2990    0.7500    0.0000 C   0  0
    0.0000    1.5000    0.0000 N   0  0
   -6.5012    3.7428    0.0000 N   0  0
  -10.3948    1.4850    0.0000 C   0  0
   -5.1993    2.9963    0.0000 C   0  0
    1.2990    0.7500    0.0000 C   0  0
   -7.7985    2.9882    0.0000 C   0  0
   -5.1969    1.4963    0.0000 C   0  0
   -3.9015    3.7484    0.0000 C   0  0
   -2.6012    3.0004    0.0000 C   0  0
   -3.8967    0.7484    0.0000 C   0  0
    0.0000   -1.5000    0.0000 C   0  0
   -1.2990   -0.7500    0.0000 C   0  0
   -6.5051    5.2437    0.0000 C   0  0
   -5.2166    7.4998    0.0000 N   0  0
  -10.3967    2.9850    0.0000 C   0  0
   -9.0949    0.7366    0.0000 C   0  0
    3.6384   -0.9011    0.0000 F   0  0
    2.5984   -2.7004    0.0000 F   0  0
    3.6377   -2.1009    0.0000 F   0  0
   -7.7967    1.4882    0.0000 C   0  0
   -9.0985    3.7366    0.0000 C   0  0
  -12.7340    1.3310    0.0000 F   0  0
  -11.6918   -0.4670    0.0000 F   0  0
  -12.7319    0.1312    0.0000 F   0  0
   -5.2096    5.9998    0.0000 C   0  0
   -6.5191    8.2437    0.0000 C   0  0
   -7.8077    5.9877    0.0000 C   0  0
   -7.8147    7.4877    0.0000 C   0  0
  2  8  1  0
  3  5  1  0
  4  1  1  0
  5  6  1  0
  6 10  2  0
  7  9  1  0
  8 20  2  0
  9 13  1  0
 10  4  1  0
 11  7  1  0
 12 15  1  0
 13 14  1  0
 14  3  1  0
 15  3  1  0
 16  4  2  0
 17 16  1  0
 18  7  1  0
 19 30  1  0
 20 26  1  0
 21 25  2  0
 22  1  1  0
 23  1  1  0
 24  1  1  0
 25 11  1  0
 26 11  2  0
 27  2  1  0
 28  2  1  0
 29  2  1  0
 30 18  2  0
 31 19  2  0
 32 18  1  0
 33 32  2  0
 17  5  2  0
 12  9  1  0
 21  8  1  0
 33 31  1  0
M  END