
          05080814042D 1   1.00000     0.00000     0

 35 39  0     1  0            999 V2000
   -4.8315   -0.7613    0.0000 C   0  0  0  0  0  0           0  0  0
   -5.5423   -1.1762    0.0000 C   0  0  0  0  0  0           0  0  0
   -5.5353   -2.0025    0.0000 C   0  0  0  0  0  0           0  0  0
   -4.8214   -2.4060    0.0000 C   0  0  0  0  0  0           0  0  0
   -4.1182   -1.1685    0.0000 C   0  0  0  0  0  0           0  0  0
   -4.1122   -1.9962    0.0000 C   0  0  0  0  0  0           0  0  0
   -3.3964   -2.4026    0.0000 C   0  0  0  0  0  0           0  0  0
   -3.4085   -0.7472    0.0000 C   0  0  0  0  0  0           0  0  0
   -2.6880   -1.1581    0.0000 C   0  0  2  0  0  0           0  0  0
   -2.6835   -1.9877    0.0000 C   0  0  2  0  0  0           0  0  0
   -1.9667   -2.3963    0.0000 N   0  0  3  0  0  0           0  0  0
   -1.2499   -1.9798    0.0000 C   0  0  0  0  0  0           0  0  0
   -1.2544   -1.1502    0.0000 C   0  0  1  0  0  0           0  0  0
   -1.9758   -0.7371    0.0000 C   0  0  0  0  0  0           0  0  0
   -2.6958   -0.3292    0.0000 H   0  0  0  0  0  0           0  0  0
   -2.6917   -2.8125    0.0000 H   0  0  0  0  0  0           0  0  0
   -0.5418   -0.7345    0.0000 C   0  0  0  0  0  0           0  0  0
    0.1745   -1.1438    0.0000 N   0  0  3  0  0  0           0  0  0
   -0.5455    0.0905    0.0000 O   0  0  0  0  0  0           0  0  0
    0.1722   -1.9720    0.0000 C   0  0  0  0  0  0           0  0  0
    0.8844   -2.3812    0.0000 C   0  0  0  0  0  0           0  0  0
    1.5995   -1.9690    0.0000 N   0  0  3  0  0  0           0  0  0
    1.5978   -1.1431    0.0000 C   0  0  0  0  0  0           0  0  0
    0.8810   -0.7293    0.0000 C   0  0  0  0  0  0           0  0  0
   -4.8355    0.0637    0.0000 O   0  0  0  0  0  0           0  0  0
   -5.5520    0.4727    0.0000 C   0  0  0  0  0  0           0  0  0
   -1.9633   -3.2213    0.0000 C   0  0  0  0  0  0           0  0  0
    2.3142   -2.3811    0.0000 C   0  0  0  0  0  0           0  0  0
    2.3103   -3.2052    0.0000 C   0  0  0  0  0  0           0  0  0
    3.0242   -3.6172    0.0000 C   0  0  0  0  0  0           0  0  0
    3.7394   -3.2041    0.0000 C   0  0  0  0  0  0           0  0  0
    3.7362   -2.3749    0.0000 C   0  0  0  0  0  0           0  0  0
    3.0217   -1.9667    0.0000 C   0  0  0  0  0  0           0  0  0
    4.4489   -1.9594    0.0000 F   0  0  0  0  0  0           0  0  0
    4.4547   -3.6152    0.0000 F   0  0  0  0  0  0           0  0  0
  6  7  1  0     0  0
 13 17  1  1     0  0
  7 10  1  0     0  0
 17 18  1  0     0  0
  9  8  1  0     0  0
 17 19  2  0     0  0
 18 20  1  0     0  0
  9 10  1  0     0  0
  3  4  2  0     0  0
  4  6  1  0     0  0
  5  6  2  0     0  0
  1  2  2  0     0  0
 18 24  1  0     0  0
 20 21  1  0     0  0
 21 22  1  0     0  0
 22 23  1  0     0  0
 23 24  1  0     0  0
  5  1  1  0     0  0
  1 25  1  0     0  0
  2  3  1  0     0  0
 25 26  1  0     0  0
  9 14  1  0     0  0
 11 27  1  0     0  0
 10 11  1  0     0  0
 22 28  1  0     0  0
 11 12  1  0     0  0
 28 29  2  0     0  0
 12 13  1  0     0  0
 29 30  1  0     0  0
 13 14  1  0     0  0
 30 31  2  0     0  0
 31 32  1  0     0  0
  9 15  1  6     0  0
 32 33  2  0     0  0
 33 28  1  0     0  0
  5  8  1  0     0  0
 32 34  1  0     0  0
 10 16  1  1     0  0
 31 35  1  0     0  0
M  END