
          11280715522D 1   1.00000     0.00000     0

 13 14  0     0  0            999 V2000
   -0.3997   -8.3604    0.0000 C   0  0  0  0  0  0           0  0  0
    0.3157   -7.9477    0.0000 C   0  0  0  0  0  0           0  0  0
    0.3128   -7.1185    0.0000 C   0  0  0  0  0  0           0  0  0
   -0.4015   -6.7100    0.0000 C   0  0  0  0  0  0           0  0  0
   -1.1134   -7.9482    0.0000 C   0  0  0  0  0  0           0  0  0
   -1.1121   -7.1205    0.0000 C   0  0  0  0  0  0           0  0  0
   -1.8988   -6.8636    0.0000 C   0  0  0  0  0  0           0  0  0
   -2.3864   -7.5325    0.0000 C   0  0  0  0  0  0           0  0  0
   -2.1522   -6.0798    0.0000 C   0  0  0  0  0  0           0  0  0
   -1.6001   -5.4685    0.0000 O   0  0  0  0  0  0           0  0  0
   -2.9577   -5.9073    0.0000 N   0  0  0  0  0  0           0  0  0
   -1.9008   -8.2027    0.0000 N   0  0  3  0  0  0           0  0  0
   -2.3133   -8.9172    0.0000 C   0  0  0  0  0  0           0  0  0
  2  3  1  0     0  0
  3  4  2  0     0  0
  6  7  1  0     0  0
  7  8  2  0     0  0
  8 12  1  0     0  0
 12  5  1  0     0  0
  4  6  1  0     0  0
  5  6  2  0     0  0
  7  9  1  0     0  0
  1  2  2  0     0  0
  9 10  2  0     0  0
  5  1  1  0     0  0
  9 11  1  0     0  0
 12 13  1  0     0  0
M  END