
  Mrv0541 04051115152D          

 28 31  0  0  0  0            999 V2000
    3.7277   -1.7602    0.0000 O   0  0  0  0  0  0  0  0  0  0  0  0
    4.4422   -1.3477    0.0000 C   0  0  0  0  0  0  0  0  0  0  0  0
    4.4422   -0.5227    0.0000 C   0  0  0  0  0  0  0  0  0  0  0  0
    3.7277   -0.1102    0.0000 O   0  0  0  0  0  0  0  0  0  0  0  0
    3.0132   -0.5227    0.0000 C   0  0  0  0  0  0  0  0  0  0  0  0
    3.0132   -1.3477    0.0000 C   0  0  0  0  0  0  0  0  0  0  0  0
    2.2988   -1.7602    0.0000 C   0  0  0  0  0  0  0  0  0  0  0  0
    1.5843   -1.3477    0.0000 C   0  0  0  0  0  0  0  0  0  0  0  0
    0.7997   -1.6027    0.0000 N   0  0  0  0  0  0  0  0  0  0  0  0
    0.3147   -0.9352    0.0000 C   0  0  0  0  0  0  0  0  0  0  0  0
    0.7997   -0.2678    0.0000 N   0  0  0  0  0  0  0  0  0  0  0  0
    1.5843   -0.5227    0.0000 C   0  0  0  0  0  0  0  0  0  0  0  0
    2.2988   -0.1102    0.0000 C   0  0  0  0  0  0  0  0  0  0  0  0
   -0.5103   -0.9352    0.0000 S   0  0  0  0  0  0  0  0  0  0  0  0
   -0.9228   -0.2208    0.0000 C   0  0  0  0  0  0  0  0  0  0  0  0
   -1.7478   -0.2208    0.0000 C   0  0  0  0  0  0  0  0  0  0  0  0
   -2.1603   -0.9352    0.0000 O   0  0  0  0  0  0  0  0  0  0  0  0
   -2.1603    0.4937    0.0000 C   0  0  0  0  0  0  0  0  0  0  0  0
   -2.9853    0.4937    0.0000 C   0  0  0  0  0  0  0  0  0  0  0  0
   -3.3978    1.2082    0.0000 C   0  0  0  0  0  0  0  0  0  0  0  0
   -2.9853    1.9226    0.0000 C   0  0  0  0  0  0  0  0  0  0  0  0
   -2.1603    1.9226    0.0000 C   0  0  0  0  0  0  0  0  0  0  0  0
   -1.7478    1.2082    0.0000 C   0  0  0  0  0  0  0  0  0  0  0  0
   -4.2228    1.2082    0.0000 S   0  0  0  0  0  0  0  0  0  0  0  0
   -5.0478    1.2082    0.0000 O   0  0  0  0  0  0  0  0  0  0  0  0
   -3.3978    2.6371    0.0000 Cl  0  0  0  0  0  0  0  0  0  0  0  0
   -4.2228    2.0332    0.0000 O   0  0  0  0  0  0  0  0  0  0  0  0
   -4.2228    0.3832    0.0000 N   0  0  0  0  0  0  0  0  0  0  0  0
  2  1  1  0  0  0  0
  6  1  1  0  0  0  0
  2  3  1  0  0  0  0
  3  4  1  0  0  0  0
  5  4  1  0  0  0  0
  5  6  2  0  0  0  0
 13  5  1  0  0  0  0
  6  7  1  0  0  0  0
  7  8  2  0  0  0  0
  8  9  1  0  0  0  0
 12  8  1  0  0  0  0
 10  9  2  0  0  0  0
 10 11  1  0  0  0  0
 10 14  1  0  0  0  0
 12 11  1  0  0  0  0
 12 13  2  0  0  0  0
 15 14  1  0  0  0  0
 15 16  1  0  0  0  0
 16 17  2  0  0  0  0
 16 18  1  0  0  0  0
 18 19  2  0  0  0  0
 18 23  1  0  0  0  0
 19 20  1  0  0  0  0
 20 21  2  0  0  0  0
 20 24  1  0  0  0  0
 21 22  1  0  0  0  0
 21 26  1  0  0  0  0
 22 23  2  0  0  0  0
 25 24  2  0  0  0  0
 27 24  2  0  0  0  0
 28 24  1  0  0  0  0
M  END