
  SciTegic11201309402D

 76 80  0  0  1  0            999 V2000
   -3.9167   -2.9958    0.0000 N   0  0
   -2.6125    0.7500    0.0000 N   0  0
   -3.9125   -1.4958    0.0000 C   0  0
   -2.6125   -0.7458    0.0000 C   0  0  1  0  0  0
   -2.7208   -3.8333    0.0000 C   0  0  1  0  0  0
   -3.9125    1.5042    0.0000 C   0  0
   -3.9083    3.0042    0.0000 C   0  0  1  0  0  0
   -1.3000    1.5000    0.0000 C   0  0
   -5.1292   -3.8500    0.0000 C   0  0  2  0  0  0
   -3.1750   -5.2667    0.0000 C   0  0
   -1.3000   -1.4958    0.0000 C   0  0
  -15.5708   23.2875    0.0000 C   0  0
   -9.0875   12.0167    0.0000 C   0  0
  -15.5708   21.7833    0.0000 N   0  0
   -1.3042   -3.3417    0.0000 C   0  0
   -9.0917   10.5167    0.0000 C   0  0
   -5.2083    3.7583    0.0000 N   0  0
   -4.6667   -5.2708    0.0000 C   0  0  2  0  0  0
  -19.4583   30.0458    0.0000 C   0  0
  -10.3750   26.2875    0.0000 C   0  0
  -10.3875   12.7708    0.0000 N   0  0
  -14.2750   19.5292    0.0000 C   0  0
    0.0000    0.7500    0.0000 C   0  0
    0.0000   -0.7458    0.0000 C   0  0
   -4.9542   -0.8917    0.0000 O   0  0
   -5.2042    5.2542    0.0000 C   0  0
  -10.3833   14.2708    0.0000 C   0  0
  -14.2750   21.0333    0.0000 C   0  0  2  0  0  0
  -10.3750   27.4875    0.0000 N   0  0
  -20.4958   30.6500    0.0000 N   0  0
   -4.9500    0.9042    0.0000 O   0  0
  -14.5292   23.8833    0.0000 O   0  0
   -1.0750   -2.1625    0.0000 O   0  0
  -10.1292    9.9167    0.0000 O   0  0
  -15.3167   18.9333    0.0000 O   0  0
   -4.1625    5.8542    0.0000 O   0  0
   -9.3458   14.8708    0.0000 O   0  0
  -16.8667   24.0375    0.0000 C   0  0  2  0  0  0
  -11.6750   25.5375    0.0000 N   0  0
  -19.4625   28.5458    0.0000 N   0  0
   -7.7917    9.7625    0.0000 N   0  0
  -12.9792   18.7792    0.0000 N   0  0
   -9.3375   25.6875    0.0000 N   0  0
  -18.4208   30.6458    0.0000 N   0  0
   -0.3958   -4.1292    0.0000 O   0  0
   -2.6083    3.7542    0.0000 C   0  0
  -17.9083   23.4417    0.0000 N   0  0
   -7.8708   11.1583    0.0000 C   0  0
   -9.2208   13.5000    0.0000 C   0  0
   -6.5917   -3.5208    0.0000 C   0  0
   -2.6083    4.9500    0.0000 O   0  0
   -5.6625   -6.4000    0.0000 C   0  0
    1.2958   -1.4958    0.0000 C   0  0
    1.2958    1.5000    0.0000 C   0  0
  -11.6833   15.0250    0.0000 C   0  0
   -6.5000    6.0083    0.0000 C   0  0
  -12.9750   21.7833    0.0000 C   0  0
  -18.1625   27.7917    0.0000 C   0  0
  -11.6750   24.0333    0.0000 C   0  0
   -7.7958    8.2625    0.0000 C   0  0
  -12.9792   17.2792    0.0000 C   0  0
  -16.8667   25.5375    0.0000 C   0  0
   -6.4958    7.5083    0.0000 C   0  0
  -11.6792   16.5250    0.0000 C   0  0
  -12.9750   23.2833    0.0000 C   0  0
  -18.1667   26.2917    0.0000 C   0  0
   -8.1167   14.5208    0.0000 C   0  0
   -6.4375   11.5958    0.0000 C   0  0
   -7.6042   -4.6542    0.0000 C   0  0
   -7.1417   -6.0750    0.0000 C   0  0
    2.5917    0.7500    0.0000 C   0  0
    2.5917   -0.7458    0.0000 C   0  0
   -5.8917   12.9917    0.0000 C   0  0
   -6.6333   14.2917    0.0000 C   0  0
   -4.2540   -6.1817    0.0000 H   0  0
   -5.3241   -2.8692    0.0000 H   0  0
  2  4  1  0
  3  1  1  0
  4  3  1  6
  5  1  1  0
  6  2  1  0
  7  6  1  0
  8  2  1  0
  9  1  1  0
 10  5  1  0
 11  4  1  0
 12 14  1  0
 13 16  1  0
 28 14  1  1
  5 15  1  6
 16 41  1  0
  7 17  1  1
 18  9  1  0
 19 40  2  0
 20 39  2  0
 21 13  1  0
 22 42  1  0
 23  8  1  0
 24 11  1  0
 25  3  2  0
 26 17  1  0
 27 21  1  0
 28 22  1  0
 29 20  1  0
 30 19  1  0
 31  6  2  0
 32 12  2  0
 33 15  2  0
 34 16  2  0
 35 22  2  0
 36 26  2  0
 37 27  2  0
 38 12  1  0
 39 59  1  0
 40 58  1  0
 41 60  1  0
 42 61  1  0
 43 20  1  0
 44 19  1  0
 45 15  1  0
 46  7  1  0
 38 47  1  6
 48 13  1  0
 49 13  1  0
  9 50  1  0
 51 46  1  0
 18 52  1  0
 53 24  2  0
 54 23  2  0
 55 27  1  0
 56 26  1  0
 57 28  1  0
 58 66  1  0
 59 65  1  0
 60 63  1  0
 61 64  1  0
 62 38  1  0
 63 56  1  0
 64 55  1  0
 65 57  1  0
 66 62  1  0
 67 49  1  0
 68 48  1  0
 69 50  1  0
 70 52  1  0
 71 54  1  0
 72 53  1  0
 73 68  1  0
 74 67  1  0
 10 18  1  0
 70 69  1  0
 23 24  1  0
 72 71  2  0
 74 73  1  0
 18 75  1  1
  9 76  1  1
M  END