
          11280714482D 1   1.00000     0.00000     0

 10 10  0     0  0            999 V2000
   -0.2250   -1.6417    0.0000 N   0  0  0  0  0  0           0  0  0
    0.1917   -0.3667    0.0000 N   0  0  3  0  0  0           0  0  0
   -0.4833   -0.8500    0.0000 C   0  0  0  0  0  0           0  0  0
    0.8792    1.7083    0.0000 C   0  0  0  0  0  0           0  0  0
    0.8917    0.8833    0.0000 C   0  0  0  0  0  0           0  0  0
    0.6042   -1.6417    0.0000 C   0  0  0  0  0  0           0  0  0
    0.8625   -0.8500    0.0000 C   0  0  0  0  0  0           0  0  0
    0.1542    2.1083    0.0000 O   0  0  0  0  0  0           0  0  0
    0.1875    0.4583    0.0000 C   0  0  0  0  0  0           0  0  0
    1.5875    2.1458    0.0000 O   0  0  0  0  0  0           0  0  0
  2  3  1  0     0  0
  3  1  2  0     0  0
  4  5  1  0     0  0
  5  9  1  0     0  0
  6  1  1  0     0  0
  7  6  2  0     0  0
  8  4  2  0     0  0
  9  2  1  0     0  0
 10  4  1  0     0  0
  2  7  1  0     0  0
M  END