
  SciTegic01161211222D

 40 44  0  0  0  0            999 V2000
    9.2844   -0.8047    0.0000 N   0  0
    9.6612   -0.0708    0.0000 C   0  0
   10.4860   -0.0288    0.0000 C   0  0
   10.9284   -0.7186    0.0000 N   0  0
   10.5571   -1.4547    0.0000 C   0  0
    9.7324   -1.4966    0.0000 C   0  0
    9.2132    0.6212    0.0000 O   0  0
   11.7548   -0.6805    0.0000 C   0  0
   12.1316    0.0534    0.0000 O   0  0
   13.2067   -1.5475    0.0000 C   0  0
   13.4560   -2.3321    0.0000 N   0  0
   12.7928   -2.8152    0.0000 C   0  0  2  0  0  0
   12.1256   -2.3326    0.0000 C   0  0  2  0  0  0
   12.3812   -1.5462    0.0000 N   0  0
   13.6910   -0.8837    0.0000 C   0  0
   14.5160   -0.8720    0.0000 C   0  0
   14.9187   -0.1561    0.0000 C   0  0
   14.4979    0.5538    0.0000 C   0  0
   13.6766    0.5444    0.0000 C   0  0
   13.2703   -0.1736    0.0000 C   0  0
   14.9042    1.2718    0.0000 O   0  0
   14.4834    1.9819    0.0000 C   0  0
   14.9367   -1.5821    0.0000 O   0  0
   15.7581   -1.5726    0.0000 C   0  0
   16.1789   -2.2826    0.0000 C   0  0
   16.1644   -0.8546    0.0000 C   0  0
   11.3410   -2.5820    0.0000 C   0  0
   11.1661   -3.3911    0.0000 C   0  0
   10.3831   -3.6442    0.0000 C   0  0
    9.7713   -3.0901    0.0000 C   0  0
    9.9461   -2.2810    0.0000 C   0  0
   10.7308   -2.0317    0.0000 C   0  0
    8.9883   -3.3434    0.0000 Cl  0  0
   12.7915   -3.6407    0.0000 C   0  0
   13.5025   -4.0532    0.0000 C   0  0
   13.5012   -4.8788    0.0000 C   0  0
   12.7873   -5.2880    0.0000 C   0  0
   12.0708   -4.8733    0.0000 C   0  0
   12.0738   -4.0517    0.0000 C   0  0
   12.7860   -6.1135    0.0000 Cl  0  0
  1  2  1  0
  2  3  1  0
  3  4  1  0
  4  5  1  0
  5  6  1  0
  1  6  1  0
  2  7  2  0
  8  9  2  0
 10 11  2  0
 11 12  1  0
 12 13  1  0
 13 14  1  0
 10 14  1  0
  8 14  1  0
 15 16  1  0
 16 17  2  0
 17 18  1  0
 18 19  2  0
 19 20  1  0
 15 20  2  0
 21 22  1  0
 18 21  1  0
 24 25  1  0
 24 26  1  0
 23 24  1  0
 16 23  1  0
 10 15  1  0
 27 28  1  0
 28 29  2  0
 29 30  1  0
 30 31  2  0
 31 32  1  0
 27 32  2  0
 30 33  1  0
 13 27  1  1
 34 35  1  0
 35 36  2  0
 36 37  1  0
 37 38  2  0
 38 39  1  0
 34 39  2  0
 37 40  1  0
 12 34  1  1
  4  8  1  0
M  END