
          02060813472D 1   1.00000     0.00000     0

 53 57  0     1  0            999 V2000
   10.8609   -2.5589    0.0000 C   0  0  2  0  0  0           0  0  0
   11.4917   -3.0936    0.0000 C   0  0  0  0  0  0           0  0  0
   12.2714   -2.8103    0.0000 N   0  0  3  0  0  0           0  0  0
   11.3470   -3.9074    0.0000 O   0  0  0  0  0  0           0  0  0
   10.8542   -1.7288    0.0000 C   0  0  0  0  0  0           0  0  0
   10.1388   -1.3185    0.0000 C   0  0  0  0  0  0           0  0  0
   10.1357   -0.4920    0.0000 C   0  0  0  0  0  0           0  0  0
    9.4175   -0.0818    0.0000 C   0  0  0  0  0  0           0  0  0
    8.6997   -0.5007    0.0000 C   0  0  0  0  0  0           0  0  0
    8.7069   -1.3320    0.0000 C   0  0  0  0  0  0           0  0  0
    9.4260   -1.7366    0.0000 C   0  0  0  0  0  0           0  0  0
   12.9575   -3.2707    0.0000 C   0  0  1  0  0  0           0  0  0
   13.6107   -2.7615    0.0000 C   0  0  0  0  0  0           0  0  0
   13.3274   -1.9819    0.0000 C   0  0  0  0  0  0           0  0  0
   12.5031   -2.0105    0.0000 C   0  0  0  0  0  0           0  0  0
   12.9853   -4.0948    0.0000 C   0  0  0  0  0  0           0  0  0
   12.2840   -4.5371    0.0000 O   0  0  0  0  0  0           0  0  0
   14.4111   -4.0494    0.0000 C   0  0  2  0  0  0           0  0  0
   15.1401   -4.4355    0.0000 C   0  0  0  0  0  0           0  0  0
   14.3833   -3.2211    0.0000 C   0  0  0  0  0  0           0  0  0
   15.1720   -5.2638    0.0000 O   0  0  0  0  0  0           0  0  0
   16.5700   -4.3863    0.0000 C   0  0  2  0  0  0           0  0  0
   17.2713   -3.9483    0.0000 C   0  0  0  0  0  0           0  0  0
   16.5978   -5.2147    0.0000 C   0  0  0  0  0  0           0  0  0
   17.3310   -5.6049    0.0000 C   0  0  0  0  0  0           0  0  0
   17.3575   -6.4290    0.0000 C   0  0  0  0  0  0           0  0  0
   18.0852   -6.8191    0.0000 C   0  0  0  0  0  0           0  0  0
   18.7921   -6.3810    0.0000 C   0  0  0  0  0  0           0  0  0
   18.7559   -5.5463    0.0000 C   0  0  0  0  0  0           0  0  0
   17.2435   -3.1241    0.0000 O   0  0  0  0  0  0           0  0  0
   10.1138   -2.9088    0.0000 N   0  0  0  0  0  0           0  0  0
   17.9994   -4.3360    0.0000 N   0  0  0  0  0  0           0  0  0
   15.0835   -2.7849    0.0000 C   0  0  0  0  0  0           0  0  0
   15.8452   -3.0929    0.0000 C   0  0  0  0  0  0           0  0  0
   16.3764   -2.4617    0.0000 N   0  0  0  0  0  0           0  0  0
   15.1395   -1.9600    0.0000 C   0  0  0  0  0  0           0  0  0
   15.9370   -1.7662    0.0000 C   0  0  0  0  0  0           0  0  0
   16.1665   -0.9802    0.0000 C   0  0  0  0  0  0           0  0  0
   15.5995   -0.3871    0.0000 C   0  0  0  0  0  0           0  0  0
   14.7998   -0.5855    0.0000 C   0  0  0  0  0  0           0  0  0
   14.5741   -1.3714    0.0000 C   0  0  0  0  0  0           0  0  0
    9.4334   -2.5614    0.0000 C   0  0  0  0  0  0           0  0  0
   10.8484   -0.0764    0.0000 C   0  0  0  0  0  0           0  0  0
   10.0432   -3.7306    0.0000 C   0  0  0  0  0  0           0  0  0
    9.2961   -4.0805    0.0000 C   0  0  0  0  0  0           0  0  0
    9.2255   -4.9024    0.0000 C   0  0  0  0  0  0           0  0  0
   18.0276   -5.1606    0.0000 C   0  0  0  0  0  0           0  0  0
   18.6992   -3.8994    0.0000 C   0  0  0  0  0  0           0  0  0
   19.4274   -4.2871    0.0000 C   0  0  0  0  0  0           0  0  0
   20.1272   -3.8505    0.0000 C   0  0  0  0  0  0           0  0  0
    7.9749   -0.0947    0.0000 O   0  0  0  0  0  0           0  0  0
   13.7114   -4.4865    0.0000 N   0  0  0  0  0  0           0  0  0
   15.8409   -4.0002    0.0000 N   0  0  0  0  0  0           0  0  0
 18 20  1  1     0  0
 19 21  2  0     0  0
 22 23  1  0     0  0
 22 24  1  6     0  0
 24 25  1  0     0  0
 25 26  2  0     0  0
 26 27  1  0     0  0
 27 28  2  0     0  0
 28 29  1  0     0  0
 29 47  2  0     0  0
 47 25  1  0     0  0
 23 30  2  0     0  0
  1 31  1  1     0  0
  1  2  1  0     0  0
 23 32  1  0     0  0
  2  3  1  0     0  0
 20 33  1  0     0  0
 33 34  2  0     0  0
  2  4  2  0     0  0
  1  5  1  0     0  0
 34 35  1  0     0  0
 35 37  1  0     0  0
 36 33  1  0     0  0
  5  6  1  0     0  0
  6  7  2  0     0  0
 36 37  2  0     0  0
  7  8  1  0     0  0
 37 38  1  0     0  0
  8  9  2  0     0  0
 38 39  2  0     0  0
  9 10  1  0     0  0
 39 40  1  0     0  0
 10 11  2  0     0  0
 40 41  2  0     0  0
 41 36  1  0     0  0
 11  6  1  0     0  0
 11 42  1  0     0  0
  7 43  1  0     0  0
  3 12  1  0     0  0
 31 44  1  0     0  0
 12 13  1  0     0  0
 44 45  1  0     0  0
 13 14  1  0     0  0
 45 46  2  0     0  0
 14 15  1  0     0  0
 15  3  1  0     0  0
 32 48  1  0     0  0
 12 16  1  1     0  0
 48 49  1  0     0  0
 16 17  2  0     0  0
 49 50  2  0     0  0
 18 19  1  0     0  0
 16 52  1  0     0  0
 52 18  1  0     0  0
  9 51  1  0     0  0
 19 53  1  0     0  0
 53 22  1  0     0  0
M  END