
          11280715372D 1   1.00000     0.00000     0

 40 44  0     0  0            999 V2000
    5.8250   -2.2792    0.0000 C   0  0  0  0  0  0           0  0  0
    5.8292   -3.1625    0.0000 C   0  0  0  0  0  0           0  0  0
    5.0625   -3.6000    0.0000 N   0  0  3  0  0  0           0  0  0
    4.3042   -2.2792    0.0000 N   0  0  3  0  0  0           0  0  0
    4.3042   -3.1625    0.0000 C   0  0  0  0  0  0           0  0  0
    5.0625   -1.8292    0.0000 C   0  0  0  0  0  0           0  0  0
    6.6667   -2.0000    0.0000 N   0  0  0  0  0  0           0  0  0
    6.6750   -3.4292    0.0000 N   0  0  0  0  0  0           0  0  0
    7.1917   -2.7125    0.0000 C   0  0  0  0  0  0           0  0  0
    5.0625   -4.4792    0.0000 C   0  0  0  0  0  0           0  0  0
    3.5375   -1.8375    0.0000 C   0  0  0  0  0  0           0  0  0
    8.0750   -2.7042    0.0000 C   0  0  0  0  0  0           0  0  0
    3.5375   -3.6042    0.0000 O   0  0  0  0  0  0           0  0  0
    5.0625   -0.9500    0.0000 O   0  0  0  0  0  0           0  0  0
   12.0500   -3.4500    0.0000 C   0  0  0  0  0  0           0  0  0
   12.4875   -2.6792    0.0000 O   0  0  0  0  0  0           0  0  0
    8.5167   -3.4667    0.0000 C   0  0  0  0  0  0           0  0  0
    8.5042   -1.9417    0.0000 C   0  0  0  0  0  0           0  0  0
   10.7167   -2.6917    0.0000 O   0  0  0  0  0  0           0  0  0
    3.5292   -0.9542    0.0000 C   0  0  0  0  0  0           0  0  0
    4.2917   -4.9167    0.0000 C   0  0  0  0  0  0           0  0  0
   11.1667   -3.4542    0.0000 C   0  0  0  0  0  0           0  0  0
    9.8375   -2.7000    0.0000 C   0  0  0  0  0  0           0  0  0
    1.2875    0.4458    0.0000 C   0  0  0  0  0  0           0  0  0
    4.2417   -7.5667    0.0000 C   0  0  0  0  0  0           0  0  0
    4.2917   -5.8042    0.0000 C   0  0  0  0  0  0           0  0  0
    2.7667   -0.5167    0.0000 C   0  0  0  0  0  0           0  0  0
   12.4917   -4.2125    0.0000 O   0  0  0  0  0  0           0  0  0
    4.2167   -8.4500    0.0000 N   0  0  0  0  0  0           0  0  0
    0.5417    0.9250    0.0000 N   0  0  0  0  0  0           0  0  0
    9.4000   -3.4667    0.0000 C   0  0  0  0  0  0           0  0  0
    9.3875   -1.9292    0.0000 C   0  0  0  0  0  0           0  0  0
    1.2417   -0.4417    0.0000 C   0  0  0  0  0  0           0  0  0
    5.0167   -7.1417    0.0000 C   0  0  0  0  0  0           0  0  0
    2.0667    0.8458    0.0000 C   0  0  0  0  0  0           0  0  0
    3.4917   -7.1042    0.0000 C   0  0  0  0  0  0           0  0  0
    1.9792   -0.9167    0.0000 C   0  0  0  0  0  0           0  0  0
    3.5167   -6.2167    0.0000 C   0  0  0  0  0  0           0  0  0
    5.0417   -6.2667    0.0000 C   0  0  0  0  0  0           0  0  0
    2.8125    0.3708    0.0000 C   0  0  0  0  0  0           0  0  0
  2  1  2  0     0  0
  3  2  1  0     0  0
  4  6  1  0     0  0
  5  4  1  0     0  0
  6  1  1  0     0  0
  7  1  1  0     0  0
  8  2  1  0     0  0
  9  7  2  0     0  0
 10  3  1  0     0  0
 11  4  1  0     0  0
 12  9  1  0     0  0
 13  5  2  0     0  0
 14  6  2  0     0  0
 15 22  1  0     0  0
 16 15  2  0     0  0
 17 12  2  0     0  0
 18 12  1  0     0  0
 19 23  1  0     0  0
 20 11  1  0     0  0
 21 10  1  0     0  0
 22 19  1  0     0  0
 23 32  1  0     0  0
 24 35  2  0     0  0
 25 34  1  0     0  0
 26 21  1  0     0  0
 27 20  1  0     0  0
 28 15  1  0     0  0
 29 25  1  0     0  0
 30 24  1  0     0  0
 31 17  1  0     0  0
 32 18  2  0     0  0
 33 37  2  0     0  0
 34 39  2  0     0  0
 35 40  1  0     0  0
 36 38  1  0     0  0
 37 27  1  0     0  0
 38 26  2  0     0  0
 39 26  1  0     0  0
 40 27  2  0     0  0
  8  9  1  0     0  0
  5  3  1  0     0  0
 31 23  2  0     0  0
 24 33  1  0     0  0
 36 25  2  0     0  0
M  END