
          11280715502D 1   1.00000     0.00000     0

 50 55  0     1  0            999 V2000
    3.5096  -11.8911    0.0000 N   0  0  3  0  0  0           0  0  0
    2.7918  -11.4898    0.0000 C   0  0  0  0  0  0           0  0  0
    2.0866  -11.9110    0.0000 C   0  0  0  0  0  0           0  0  0
    2.0965  -12.7363    0.0000 O   0  0  0  0  0  0           0  0  0
    2.8178  -13.1387    0.0000 C   0  0  0  0  0  0           0  0  0
    3.5293  -12.7157    0.0000 C   0  0  0  0  0  0           0  0  0
    2.8122   -9.0029    0.0000 C   0  0  0  0  0  0           0  0  0
    2.8173   -8.1779    0.0000 C   0  0  0  0  0  0           0  0  0
    3.5241   -9.4198    0.0000 N   0  0  0  0  0  0           0  0  0
    3.5190  -10.2448    0.0000 O   0  0  0  0  0  0           0  0  0
    4.2309  -10.6617    0.0000 C   0  0  0  0  0  0           0  0  0
    4.2258  -11.4867    0.0000 C   0  0  0  0  0  0           0  0  0
    3.5345   -7.7737    0.0000 C   0  0  0  0  0  0           0  0  0
    3.5399   -6.9495    0.0000 C   0  0  0  0  0  0           0  0  0
    2.8275   -6.5317    0.0000 C   0  0  0  0  0  0           0  0  0
    2.1081   -6.9442    0.0000 C   0  0  0  0  0  0           0  0  0
    2.1062   -7.7671    0.0000 C   0  0  0  0  0  0           0  0  0
   -2.9014   -8.1916    0.0000 C   0  0  0  0  0  0           0  0  0
   -2.9026   -9.0190    0.0000 C   0  0  0  0  0  0           0  0  0
   -2.1878   -9.4319    0.0000 C   0  0  0  0  0  0           0  0  0
   -1.4713   -9.0185    0.0000 C   0  0  0  0  0  0           0  0  0
   -1.4742   -8.1880    0.0000 C   0  0  0  0  0  0           0  0  0
   -2.1896   -7.7789    0.0000 C   0  0  0  0  0  0           0  0  0
   -0.7613   -7.7728    0.0000 C   0  0  0  0  0  0           0  0  0
   -0.0453   -8.1826    0.0000 N   0  0  3  0  0  0           0  0  0
   -0.7644   -6.9478    0.0000 O   0  0  0  0  0  0           0  0  0
   -0.0448   -9.0094    0.0000 C   0  0  1  0  0  0           0  0  0
    0.6672   -9.4191    0.0000 C   0  0  0  0  0  0           0  0  0
    1.3825   -9.0074    0.0000 N   0  0  3  0  0  0           0  0  0
    1.3814   -8.1814    0.0000 C   0  0  0  0  0  0           0  0  0
    0.6649   -7.7672    0.0000 C   0  0  0  0  0  0           0  0  0
   -0.7588   -9.4226    0.0000 C   0  0  0  0  0  0           0  0  0
   -0.7667  -10.2458    0.0000 C   0  0  0  0  0  0           0  0  0
   -1.4346  -10.7271    0.0000 C   0  0  0  0  0  0           0  0  0
   -1.1877  -11.5125    0.0000 N   0  0  0  0  0  0           0  0  0
   -0.1026  -10.7398    0.0000 C   0  0  0  0  0  0           0  0  0
   -0.3646  -11.5188    0.0000 C   0  0  0  0  0  0           0  0  0
    0.1786  -12.1332    0.0000 C   0  0  0  0  0  0           0  0  0
    0.9839  -11.9697    0.0000 C   0  0  0  0  0  0           0  0  0
    1.2431  -11.1864    0.0000 C   0  0  0  0  0  0           0  0  0
    0.6982  -10.5754    0.0000 C   0  0  0  0  0  0           0  0  0
   -2.1958  -10.2542    0.0000 C   0  0  3  0  0  0           0  0  0
   -1.3708  -10.2542    0.0000 F   0  0  0  0  0  0           0  0  0
   -2.2000  -11.0792    0.0000 F   0  0  0  0  0  0           0  0  0
   -3.0208  -10.2500    0.0000 F   0  0  0  0  0  0           0  0  0
   -3.6160   -7.7793    0.0000 C   0  0  3  0  0  0           0  0  0
   -4.0333   -8.4917    0.0000 F   0  0  0  0  0  0           0  0  0
   -3.2083   -7.0625    0.0000 F   0  0  0  0  0  0           0  0  0
   -4.3333   -7.3667    0.0000 F   0  0  0  0  0  0           0  0  0
    2.0970   -9.4199    0.0000 C   0  0  0  0  0  0           0  0  0
 12  1  1  0     0  0
 24 25  1  0     0  0
  5  6  1  0     0  0
 24 26  2  0     0  0
 25 27  1  0     0  0
  8 13  2  0     0  0
  1  2  1  0     0  0
 13 14  1  0     0  0
 14 15  2  0     0  0
 25 31  1  0     0  0
 27 28  1  0     0  0
 28 29  1  0     0  0
 29 30  1  0     0  0
 30 31  1  0     0  0
  7  8  1  0     0  0
 27 32  1  1     0  0
 15 16  1  0     0  0
 32 33  1  0     0  0
 33 34  2  0     0  0
  1  6  1  0     0  0
 16 17  2  0     0  0
 34 35  1  0     0  0
 35 37  1  0     0  0
 36 33  1  0     0  0
 17  8  1  0     0  0
  7  9  2  0     0  0
 36 37  2  0     0  0
  2  3  1  0     0  0
 37 38  1  0     0  0
 18 19  2  0     0  0
 38 39  2  0     0  0
  9 10  1  0     0  0
 39 40  1  0     0  0
 19 20  1  0     0  0
 40 41  2  0     0  0
 41 36  1  0     0  0
  3  4  1  0     0  0
 20 42  1  0     0  0
 20 21  2  0     0  0
 42 43  1  0     0  0
 10 11  1  0     0  0
 42 44  1  0     0  0
 21 22  1  0     0  0
 42 45  1  0     0  0
  4  5  1  0     0  0
 18 46  1  0     0  0
 22 23  2  0     0  0
 46 47  1  0     0  0
 23 18  1  0     0  0
 46 48  1  0     0  0
 11 12  1  0     0  0
 46 49  1  0     0  0
 22 24  1  0     0  0
 29 50  1  0     0  0
 50  7  1  0     0  0
M  END