
  SciTegic12171313052D

 39 44  0  0  0  0            999 V2000
   29.2571   -3.6064    0.0000 C   0  0
   29.9696   -4.0189    0.0000 C   0  0
   30.6792   -3.6104    0.0000 C   0  0
   30.6825   -2.7877    0.0000 N   0  0
   29.9699   -2.3751    0.0000 C   0  0
   29.2541   -2.7853    0.0000 C   0  0
   31.3980   -2.3770    0.0000 C   0  0
   32.1115   -2.7914    0.0000 C   0  0
   32.1073   -3.6155    0.0000 C   0  0
   32.8166   -4.0298    0.0000 C   0  0
   33.5346   -3.6226    0.0000 N   0  0
   33.5387   -2.7967    0.0000 C   0  0
   32.8248   -2.3778    0.0000 C   0  0
   28.5759   -4.0720    0.0000 N   0  0
   27.7631   -5.1309    0.0000 N   0  0
   28.5547   -4.8985    0.0000 C   0  0
   27.2975   -4.4497    0.0000 C   0  0
   27.8023   -3.7973    0.0000 C   0  0
   27.4895   -3.0361    0.0000 C   0  0
   26.6722   -2.9260    0.0000 C   0  0
   26.1687   -3.5834    0.0000 C   0  0
   26.4842   -4.3420    0.0000 C   0  0
   34.2465   -4.0397    0.0000 C   0  0
   34.9636   -3.6317    0.0000 C   0  0
   35.6737   -4.0533    0.0000 C   0  0
   36.3903   -3.6461    0.0000 C   0  0
   36.3960   -2.8202    0.0000 N   0  0
   35.6791   -2.4032    0.0000 C   0  0
   34.9654   -2.8129    0.0000 C   0  0
   29.2087   -5.4014    0.0000 O   0  0
   31.4002   -1.5520    0.0000 O   0  0
   37.1019   -4.0635    0.0000 N   0  0
   25.3548   -3.4766    0.0000 F   0  0
   27.4869   -5.9067    0.0000 C   0  0
   26.6740   -6.0539    0.0000 N   0  0
   26.3966   -6.8300    0.0000 C   0  0
   26.9311   -7.4597    0.0000 C   0  0
   27.7464   -7.3080    0.0000 C   0  0
   28.0200   -6.5319    0.0000 N   0  0
  1  2  1  0
  1  6  1  0
  2  3  1  0
  3  4  1  0
  4  5  1  0
  5  6  1  0
  4  7  1  0
  7  8  1  0
  8  9  1  0
  8 13  1  0
  9 10  1  0
 10 11  1  0
 11 12  1  0
 12 13  1  0
  1 14  1  0
 14 18  1  0
 17 15  1  0
 15 16  1  0
 16 14  1  0
 17 18  2  0
 18 19  1  0
 19 20  2  0
 20 21  1  0
 21 22  2  0
 22 17  1  0
 11 23  1  0
 23 24  1  0
 24 25  2  0
 25 26  1  0
 26 27  2  0
 27 28  1  0
 28 29  2  0
 29 24  1  0
 16 30  2  0
  7 31  2  0
 26 32  1  0
 21 33  1  0
 34 35  2  0
 35 36  1  0
 36 37  2  0
 37 38  1  0
 38 39  2  0
 39 34  1  0
 15 34  1  0
M  END