
  SciTegic10311217562D

 32 35  0  0  0  0            999 V2000
    8.5694   -5.8125    0.0000 C   0  0
    8.5682   -6.6398    0.0000 C   0  0
    9.2831   -7.0527    0.0000 N   0  0
    9.9995   -6.6394    0.0000 C   0  0
    9.9966   -5.8088    0.0000 N   0  0
    9.2813   -5.3997    0.0000 C   0  0
    9.2788   -4.5747    0.0000 N   0  0
    9.9920   -4.1601    0.0000 C   0  0
   10.7841   -4.3900    0.0000 C   0  0
   11.2456   -3.7062    0.0000 C   0  0
   10.7378   -3.0559    0.0000 N   0  0
    9.9625   -3.3380    0.0000 N   0  0
   10.7146   -7.0507    0.0000 N   0  0
   12.0701   -3.6776    0.0000 C   0  0
   11.4284   -6.6371    0.0000 C   0  0
   12.1432   -7.0487    0.0000 C   0  0
   12.1293   -7.8715    0.0000 O   0  0
   12.9101   -8.1380    0.0000 N   0  0
   13.4049   -7.4778    0.0000 C   0  0
   12.9299   -6.8034    0.0000 C   0  0
   14.2298   -7.4900    0.0000 C   0  0
   12.5071   -4.3773    0.0000 C   0  0
   13.3316   -4.3487    0.0000 C   0  0
   13.7633   -5.0497    0.0000 C   0  0
   14.5870   -5.0214    0.0000 C   0  0
   14.9753   -4.2925    0.0000 C   0  0
   14.5338   -3.5906    0.0000 C   0  0
   13.7115   -3.6223    0.0000 C   0  0
   14.9187   -2.8609    0.0000 O   0  0
   15.7431   -2.8293    0.0000 C   0  0
   15.0237   -5.7214    0.0000 O   0  0
   15.8482   -5.6932    0.0000 C   0  0
  3  4  2  0
 15 16  1  0
 16 17  1  0
  7  8  1  0
  8  9  1  0
  4  5  1  0
 17 18  1  0
 18 19  2  0
 19 20  1  0
 20 16  2  0
  2  3  1  0
 19 21  1  0
  5  6  2  0
 14 22  1  0
  9 10  2  0
 22 23  1  0
 10 11  1  0
 23 24  2  0
 11 12  1  0
 24 25  1  0
 12  8  2  0
 25 26  2  0
  6  1  1  0
 26 27  1  0
  4 13  1  0
 27 28  2  0
 28 23  1  0
  1  2  2  0
 27 29  1  0
 10 14  1  0
 29 30  1  0
  6  7  1  0
 25 31  1  0
 13 15  1  0
 31 32  1  0
M  END