
  SciTegic02271217242D

 41 44  0  0  0  0            999 V2000
   28.3902    0.2250    0.0000 C   0  0
   28.3891   -0.6023    0.0000 C   0  0
   29.1039   -1.0152    0.0000 C   0  0
   29.8203   -0.6019    0.0000 C   0  0
   29.8175    0.2287    0.0000 C   0  0
   29.1021    0.6378    0.0000 C   0  0
   30.5304    0.6439    0.0000 O   0  0
   31.2464    0.2341    0.0000 C   0  0
   31.2462   -0.5886    0.0000 C   0  0
   31.9613   -0.9983    0.0000 C   0  0
   32.6752   -0.5831    0.0000 C   0  0
   32.6695    0.2462    0.0000 C   0  0
   31.9537    0.6522    0.0000 C   0  0
   33.3918   -0.9919    0.0000 Cl  0  0
   31.9463    1.4771    0.0000 N   0  0
   32.6571    1.8960    0.0000 S   0  0
   33.3752    1.4899    0.0000 C   0  0
   32.2375    2.6167    0.0000 O   0  0
   33.0625    2.6167    0.0000 O   0  0
   33.3796    0.6656    0.0000 C   0  0
   34.0969    0.2596    0.0000 C   0  0
   34.8086    0.6785    0.0000 C   0  0
   34.7986    1.5077    0.0000 C   0  0
   34.0807    1.9100    0.0000 C   0  0
   35.5273    0.2734    0.0000 Cl  0  0
   27.6743   -1.0143    0.0000 C   0  0
   26.9601   -0.6012    0.0000 N   0  0
   27.6736   -1.8393    0.0000 O   0  0
   26.9608    0.2238    0.0000 C   0  0
   26.2466    0.6369    0.0000 C   0  0
   25.5319    0.2249    0.0000 N   0  0
   35.5078    1.9291    0.0000 C   0  0
   36.2274    1.5256    0.0000 F   0  0
   35.4975    2.7541    0.0000 F   0  0
   36.2167    2.3458    0.0000 F   0  0
   24.7812    0.5598    0.0000 C   0  0
   24.2286   -0.0529    0.0000 C   0  0
   24.6406   -0.7677    0.0000 C   0  0
   25.4476   -0.5967    0.0000 C   0  0
   23.9208   -1.1750    0.0000 F   0  0
   24.8500   -1.5625    0.0000 F   0  0
 17 20  2  0
  9 10  1  0
 20 21  1  0
  2  3  1  0
 21 22  2  0
 10 11  2  0
 22 23  1  0
  5  6  2  0
 23 24  2  0
 24 17  1  0
 11 12  1  0
 22 25  1  0
  6  1  1  0
  2 26  1  0
 12 13  2  0
 26 27  1  0
 13  8  1  0
 26 28  2  0
  1  2  2  0
 27 29  1  0
 11 14  1  0
 29 30  1  0
  5  7  1  0
 30 31  1  0
 13 15  1  0
 23 32  1  0
  3  4  2  0
 32 33  1  0
 15 16  1  0
 32 34  1  0
  7  8  1  0
 32 35  1  0
 31 36  1  0
 16 17  1  0
 16 18  2  0
  8  9  2  0
 36 37  1  0
 37 38  1  0
 38 39  1  0
 39 31  1  0
 16 19  2  0
 38 40  1  0
  4  5  1  0
 38 41  1  0
M  END