
          11280715342D 1   1.00000     0.00000     0

 24 25  0     0  0            999 V2000
    1.0250    1.2250    0.0000 C   0  0  0  0  0  0           0  0  0
    1.7375    1.6333    0.0000 C   0  0  0  0  0  0           0  0  0
    3.1542    1.6333    0.0000 C   0  0  0  0  0  0           0  0  0
    3.8750    1.2208    0.0000 C   0  0  0  0  0  0           0  0  0
    2.4417    1.2208    0.0000 C   0  0  0  0  0  0           0  0  0
    3.8667    0.3958    0.0000 C   0  0  0  0  0  0           0  0  0
    1.0250    0.4000    0.0000 C   0  0  0  0  0  0           0  0  0
    0.3125    1.6458    0.0000 C   0  0  3  0  0  0           0  0  0
    5.3000   -1.2542    0.0000 C   0  0  0  0  0  0           0  0  0
    5.3000   -2.0792    0.0000 C   0  0  0  0  0  0           0  0  0
    4.5875   -0.0167    0.0000 C   0  0  0  0  0  0           0  0  0
    3.3292    2.4375    0.0000 O   0  0  0  0  0  0           0  0  0
    4.1500    2.5208    0.0000 C   0  0  0  0  0  0           0  0  0
    4.5792   -0.8417    0.0000 C   0  0  0  0  0  0           0  0  0
    4.4875    1.7708    0.0000 C   0  0  0  0  0  0           0  0  0
    4.5792   -2.4917    0.0000 O   0  0  0  0  0  0           0  0  0
    6.0125   -2.4917    0.0000 O   0  0  0  0  0  0           0  0  0
    0.3125   -0.0042    0.0000 C   0  0  0  0  0  0           0  0  0
   -0.3958    1.2250    0.0000 C   0  0  0  0  0  0           0  0  0
    1.7417   -0.0125    0.0000 C   0  0  0  0  0  0           0  0  0
   -0.4083    2.0583    0.0000 C   0  0  0  0  0  0           0  0  0
    1.0250    2.0583    0.0000 C   0  0  0  0  0  0           0  0  0
   -0.3958    0.4000    0.0000 C   0  0  0  0  0  0           0  0  0
    3.8667   -1.2542    0.0000 C   0  0  0  0  0  0           0  0  0
  2  1  1  0     0  0
  3  5  1  0     0  0
  4  3  2  0     0  0
  5  2  2  0     0  0
  6  4  1  0     0  0
  7  1  2  0     0  0
  8  1  1  0     0  0
  9 14  2  0     0  0
 10  9  1  0     0  0
 11  6  2  0     0  0
 12  3  1  0     0  0
 13 12  1  0     0  0
 14 11  1  0     0  0
 15  4  1  0     0  0
 16 10  2  0     0  0
 17 10  1  0     0  0
 18  7  1  0     0  0
 19  8  1  0     0  0
 20  7  1  0     0  0
 21  8  1  0     0  0
 22  8  1  0     0  0
 23 19  1  0     0  0
 24 14  1  0     0  0
 18 23  1  0     0  0
 15 13  2  0     0  0
M  END