
          05080814042D 1   1.00000     0.00000     0

 36 40  0     1  0            999 V2000
    8.5971  -20.6892    0.0000 C   0  0  0  0  0  0           0  0  0
    7.8864  -21.1041    0.0000 C   0  0  0  0  0  0           0  0  0
    7.8934  -21.9303    0.0000 C   0  0  0  0  0  0           0  0  0
    8.6072  -22.3338    0.0000 C   0  0  0  0  0  0           0  0  0
    9.3103  -21.0964    0.0000 C   0  0  0  0  0  0           0  0  0
    9.3164  -21.9240    0.0000 C   0  0  0  0  0  0           0  0  0
   10.0322  -22.3303    0.0000 C   0  0  0  0  0  0           0  0  0
   10.0201  -20.6751    0.0000 C   0  0  0  0  0  0           0  0  0
   10.7405  -21.0859    0.0000 C   0  0  2  0  0  0           0  0  0
   10.7450  -21.9154    0.0000 C   0  0  2  0  0  0           0  0  0
   11.4618  -22.3241    0.0000 N   0  0  3  0  0  0           0  0  0
   12.1785  -21.9076    0.0000 C   0  0  0  0  0  0           0  0  0
   12.1739  -21.0781    0.0000 C   0  0  1  0  0  0           0  0  0
   11.4527  -20.6649    0.0000 C   0  0  0  0  0  0           0  0  0
   10.7326  -20.2570    0.0000 H   0  0  0  0  0  0           0  0  0
   10.7368  -22.7403    0.0000 H   0  0  0  0  0  0           0  0  0
   12.8866  -20.6624    0.0000 C   0  0  0  0  0  0           0  0  0
   13.6029  -21.0717    0.0000 N   0  0  3  0  0  0           0  0  0
   12.8829  -19.8375    0.0000 O   0  0  0  0  0  0           0  0  0
   13.6006  -21.8998    0.0000 C   0  0  0  0  0  0           0  0  0
   14.3127  -22.3090    0.0000 C   0  0  0  0  0  0           0  0  0
   15.0277  -21.8968    0.0000 N   0  0  3  0  0  0           0  0  0
   15.0260  -21.0709    0.0000 C   0  0  0  0  0  0           0  0  0
   14.3092  -20.6572    0.0000 C   0  0  0  0  0  0           0  0  0
    8.5932  -19.8643    0.0000 O   0  0  0  0  0  0           0  0  0
    7.8767  -19.4552    0.0000 C   0  0  0  0  0  0           0  0  0
   11.4651  -23.1490    0.0000 C   0  0  0  0  0  0           0  0  0
   15.7424  -22.3088    0.0000 C   0  0  0  0  0  0           0  0  0
   15.7385  -23.1330    0.0000 C   0  0  0  0  0  0           0  0  0
   16.4524  -23.5448    0.0000 C   0  0  0  0  0  0           0  0  0
   17.1674  -23.1319    0.0000 C   0  0  0  0  0  0           0  0  0
   17.1642  -22.3026    0.0000 C   0  0  0  0  0  0           0  0  0
   16.4498  -21.8944    0.0000 C   0  0  0  0  0  0           0  0  0
   17.8827  -23.5429    0.0000 C   0  0  0  0  0  0           0  0  0
   17.8844  -24.3679    0.0000 O   0  0  0  0  0  0           0  0  0
   18.5964  -23.1290    0.0000 N   0  0  0  0  0  0           0  0  0
 13 17  1  1     0  0
  7 10  1  0     0  0
 17 18  1  0     0  0
  9  8  1  0     0  0
 17 19  2  0     0  0
 18 20  1  0     0  0
  9 10  1  0     0  0
  3  4  2  0     0  0
  4  6  1  0     0  0
  5  6  2  0     0  0
  1  2  2  0     0  0
 18 24  1  0     0  0
 20 21  1  0     0  0
 21 22  1  0     0  0
 22 23  1  0     0  0
 23 24  1  0     0  0
  5  1  1  0     0  0
  1 25  1  0     0  0
  2  3  1  0     0  0
 25 26  1  0     0  0
  9 14  1  0     0  0
 11 27  1  0     0  0
 10 11  1  0     0  0
 22 28  1  0     0  0
 11 12  1  0     0  0
 28 29  2  0     0  0
 12 13  1  0     0  0
 29 30  1  0     0  0
 13 14  1  0     0  0
 30 31  2  0     0  0
 31 32  1  0     0  0
  9 15  1  6     0  0
 32 33  2  0     0  0
 33 28  1  0     0  0
  5  8  1  0     0  0
 31 34  1  0     0  0
 10 16  1  1     0  0
 34 35  2  0     0  0
  6  7  1  0     0  0
 34 36  1  0     0  0
M  END