
          11280715162D 1   1.00000     0.00000     0

 50 54  0     0  0            999 V2000
    3.7500   -2.7875    0.0000 C   0  0  0  0  0  0           0  0  0
   -1.4458   -4.5917    0.0000 N   0  0  3  0  0  0           0  0  0
    4.2625   -3.1000    0.0000 N   0  0  0  0  0  0           0  0  0
   -1.9583   -4.9042    0.0000 C   0  0  0  0  0  0           0  0  0
   -0.4208   -3.9667    0.0000 N   0  0  3  0  0  0           0  0  0
    4.7917   -2.8042    0.0000 C   0  0  0  0  0  0           0  0  0
    3.2250   -3.0792    0.0000 C   0  0  0  0  0  0           0  0  0
    1.1292   -3.6292    0.0000 C   0  0  3  0  0  0           0  0  0
    1.6500   -3.9417    0.0000 O   0  0  0  0  0  0           0  0  0
    0.6167   -3.9417    0.0000 C   0  0  0  0  0  0           0  0  0
    7.3667   -3.7542    0.0000 C   0  0  0  0  0  0           0  0  0
    1.1375   -3.0292    0.0000 C   0  0  0  0  0  0           0  0  0
    3.7625   -2.1875    0.0000 O   0  0  0  0  0  0           0  0  0
   -1.4583   -3.9917    0.0000 C   0  0  0  0  0  0           0  0  0
   -0.9208   -4.8792    0.0000 C   0  0  0  0  0  0           0  0  0
   -1.9458   -5.5042    0.0000 C   0  0  0  0  0  0           0  0  0
    5.3042   -3.1167    0.0000 C   0  0  0  0  0  0           0  0  0
    7.3792   -3.1542    0.0000 O   0  0  0  0  0  0           0  0  0
    0.0917   -3.6542    0.0000 C   0  0  0  0  0  0           0  0  0
    3.2125   -3.6792    0.0000 C   0  0  0  0  0  0           0  0  0
    2.7042   -2.7667    0.0000 C   0  0  0  0  0  0           0  0  0
    0.6167   -2.7292    0.0000 C   0  0  0  0  0  0           0  0  0
    1.6542   -2.7375    0.0000 C   0  0  0  0  0  0           0  0  0
   -0.9458   -3.6750    0.0000 C   0  0  0  0  0  0           0  0  0
   -0.4083   -4.5667    0.0000 C   0  0  0  0  0  0           0  0  0
    2.1750   -3.6542    0.0000 C   0  0  0  0  0  0           0  0  0
    1.1292   -1.8292    0.0000 C   0  0  0  0  0  0           0  0  0
    7.8875   -4.0667    0.0000 O   0  0  0  0  0  0           0  0  0
    2.6875   -3.9667    0.0000 C   0  0  0  0  0  0           0  0  0
    2.1792   -3.0542    0.0000 C   0  0  0  0  0  0           0  0  0
    1.6542   -2.1375    0.0000 C   0  0  0  0  0  0           0  0  0
    0.6167   -2.1375    0.0000 C   0  0  0  0  0  0           0  0  0
    1.1375   -1.2292    0.0000 C   0  0  0  0  0  0           0  0  0
   -1.4083   -5.7875    0.0000 O   0  0  0  0  0  0           0  0  0
    5.2917   -3.7167    0.0000 O   0  0  0  0  0  0           0  0  0
   -2.4833   -4.6167    0.0000 C   0  0  0  0  0  0           0  0  0
    4.8000   -2.2042    0.0000 C   0  0  0  0  0  0           0  0  0
    6.8417   -4.0500    0.0000 C   0  0  0  0  0  0           0  0  0
    1.6542   -0.9375    0.0000 C   0  0  3  0  0  0           0  0  0
   -2.4500   -5.8167    0.0000 C   0  0  0  0  0  0           0  0  0
    5.8292   -2.8292    0.0000 C   0  0  0  0  0  0           0  0  0
    5.8042   -4.0250    0.0000 C   0  0  0  0  0  0           0  0  0
   -1.3958   -6.3875    0.0000 C   0  0  0  0  0  0           0  0  0
    6.3292   -3.7375    0.0000 C   0  0  0  0  0  0           0  0  0
    1.6542   -0.3375    0.0000 C   0  0  0  0  0  0           0  0  0
    2.1750   -1.2375    0.0000 C   0  0  0  0  0  0           0  0  0
   -2.9958   -4.9292    0.0000 C   0  0  0  0  0  0           0  0  0
    5.3250   -1.9125    0.0000 C   0  0  0  0  0  0           0  0  0
    5.8417   -2.2250    0.0000 C   0  0  0  0  0  0           0  0  0
   -2.9833   -5.5292    0.0000 C   0  0  0  0  0  0           0  0  0
  2 15  1  0     0  0
  3  1  1  0     0  0
  4  2  1  0     0  0
  5 19  1  0     0  0
  6  3  1  0     0  0
  7  1  1  0     0  0
  8  9  1  0     0  0
  9 26  1  0     0  0
 10  8  1  0     0  0
 11 38  1  0     0  0
 12  8  1  0     0  0
 13  1  2  0     0  0
 14 24  1  0     0  0
 15 25  1  0     0  0
 16  4  2  0     0  0
 17  6  2  0     0  0
 18 11  2  0     0  0
 19 10  1  0     0  0
 20  7  2  0     0  0
 21  7  1  0     0  0
 22 12  2  0     0  0
 23 12  1  0     0  0
 24  5  1  0     0  0
 25  5  1  0     0  0
 26 30  1  0     0  0
 27 31  1  0     0  0
 28 11  1  0     0  0
 29 20  1  0     0  0
 30 21  2  0     0  0
 31 23  2  0     0  0
 32 22  1  0     0  0
 33 27  1  0     0  0
 34 16  1  0     0  0
 35 17  1  0     0  0
 36  4  1  0     0  0
 37  6  1  0     0  0
 38 44  1  0     0  0
 39 33  1  0     0  0
 40 16  1  0     0  0
 41 17  1  0     0  0
 42 35  1  0     0  0
 43 34  1  0     0  0
 44 42  1  0     0  0
 45 39  1  0     0  0
 46 39  1  0     0  0
 47 36  2  0     0  0
 48 37  2  0     0  0
 49 48  1  0     0  0
 50 47  1  0     0  0
 29 26  2  0     0  0
 41 49  2  0     0  0
 32 27  2  0     0  0
 14  2  1  0     0  0
 40 50  2  0     0  0
M  END