
  SciTegic10311217562D

 47 45  0  0  0  0            999 V2000
   -0.5708   -0.3958    0.0000 Na  0  3
    5.9625   -0.4417    0.0000 C   0  0
    5.9625   -1.2667    0.0000 C   0  0
    6.6745   -1.6750    0.0000 C   0  0
    6.6745   -0.0250    0.0000 C   0  0
    7.9644    0.1418    0.0000 C   0  0
    8.7896    0.1455    0.0000 C   0  0
    9.3728   -0.4323    0.0000 C   0  0
    7.3865   -0.4417    0.0000 C   0  0
    7.3904   -1.2668    0.0000 C   0  0
    7.9737   -1.8447    0.0000 C   0  0
    8.7989   -1.8407    0.0000 C   0  0
    9.3768   -1.2575    0.0000 C   0  0
    1.6791   -2.9000    0.0000 C   0  0  2  0  0  0
    1.6791   -3.7250    0.0000 C   0  0  1  0  0  0
    2.3912   -4.1333    0.0000 C   0  0  2  0  0  0
    3.1032   -3.7250    0.0000 O   0  0
    3.1032   -2.9000    0.0000 C   0  0  1  0  0  0
    2.3912   -2.4833    0.0000 C   0  0  1  0  0  0
    3.8188   -2.4896    0.0000 C   0  0
    0.9635   -2.4896    0.0000 O   0  0
    0.9653   -4.1385    0.0000 O   0  0
    2.3912   -1.6583    0.0000 O   0  0
    2.3912   -4.9583    0.0000 O   0  0
    4.5321   -2.9042    0.0000 N   0  0
    3.1056   -5.3708    0.0000 C   0  0
    5.2478   -2.4938    0.0000 C   0  0
    5.9610   -2.9084    0.0000 C   0  0
    5.2502   -1.6688    0.0000 O   0  0
    6.6767   -2.4980    0.0000 N   0  0
    7.3900   -2.9126    0.0000 C   0  0
    8.1057   -2.5022    0.0000 O   0  0
    1.6767   -1.2458    0.0000 S   0  0
    0.9622   -1.6583    0.0000 O   0  5
    1.2583   -0.5292    0.0000 O   0  0
    2.0833   -0.5292    0.0000 O   0  0
    0.2502   -2.9042    0.0000 S   0  0
   -0.4655   -2.4938    0.0000 O   0  5
   -0.1667   -3.6167    0.0000 O   0  0
    0.6583   -3.6167    0.0000 O   0  0
    0.9665   -4.9635    0.0000 S   0  0
    0.2526   -5.3771    0.0000 O   0  5
    1.7875   -4.9625    0.0000 O   0  0
    1.3708   -5.6750    0.0000 O   0  0
    7.3876   -3.7376    0.0000 C   0  0
   -0.9167   -5.7667    0.0000 Na  0  3
   -1.2583   -3.1750    0.0000 Na  0  3
 12 13  1  0
 20 25  1  0
 13  8  1  0
 24 26  1  0
 14 15  1  0
 25 27  1  0
  2  5  1  0
 27 28  1  0
  3  4  1  0
 27 29  2  0
  4 10  1  0
 28 30  1  0
  9  5  1  0
 30 31  1  0
 31 32  2  0
  2  3  1  0
 23 33  1  0
 14 19  1  0
 33 34  1  0
 15 16  1  0
 16 17  1  0
 33 35  2  0
 17 18  1  0
 33 36  2  0
 18 19  1  0
 21 37  1  0
  6  7  1  0
 37 38  1  0
 18 20  1  1
 37 39  2  0
  7  8  1  0
 37 40  2  0
 14 21  1  1
  6  9  1  0
 22 41  1  0
 15 22  1  1
 41 42  1  0
 10 11  1  0
 41 43  2  0
 19 23  1  6
 41 44  2  0
 11 12  1  0
 30  4  1  0
 16 24  1  6
 31 45  1  0
M  CHG  6   1   1  34  -1  38  -1  42  -1  46   1  47   1
M  END