
  SciTegic09261414462D

143151  0  0  0  0            999 V2000
    4.3432   -6.0984    0.0000 C   0  0
    4.3052   -8.5448    0.0000 C   0  0
    6.4463   -7.3570    0.0000 C   0  0
    5.7546   -6.1165    0.0000 C   0  0
    5.7223   -8.5738    0.0000 C   0  0
    2.8991   -7.7058    0.0000 C   0  0
    5.0250   -7.3329    0.0000 C   0  0
    4.3158   -7.7299    0.0000 C   0  0
    6.6654   -6.5702    0.0000 C   0  0
    6.0910   -5.9870    0.0000 O   0  0
    5.0775   -4.0493    0.0000 O   0  0
    5.0413   -6.5165    0.0000 C   0  0
    6.4271   -8.9927    0.0000 C   0  0
    7.4571   -6.3623    0.0000 O   0  0
    3.6208   -6.4903    0.0000 O   0  0
    5.0692   -4.8757    0.0000 C   0  0
    4.3525   -5.2775    0.0000 C   0  0
    7.1337   -8.5981    0.0000 C   0  0
    5.7710   -5.3002    0.0000 C   0  0
    5.7314   -7.7540    0.0000 C   0  0
    7.8346   -9.0148    0.0000 N   0  0
    2.1598   -8.9214    0.0000 O   0  0
    3.6136   -7.3076    0.0000 C   0  0
    3.5842   -8.9427    0.0000 C   0  0
    2.8860   -8.5247    0.0000 C   0  0
    7.1509   -7.7781    0.0000 C   0  0
    8.5475   -8.6152    0.0000 C   0  0
    9.2499   -9.0328    0.0000 N   0  0
    8.5579   -7.7981    0.0000 S   0  0
    9.9228   -7.8627    0.0000 C   0  0
   20.7038  -10.9875    0.0000 O   0  0
   18.0084   -8.6473    0.0000 C   0  0  2  0  0  0
   29.8717  -11.8979    0.0000 C   0  0
   28.3480  -11.5709    0.0000 C   0  0
   13.9654   -8.6419    0.0000 C   0  0  1  0  0  0
   26.7698   -9.8302    0.0000 O   0  0
   32.8394   -6.3396    0.0000 Cl  0  0
   21.3792   -9.0456    0.0000 N   0  0
   32.1631   -6.7264    0.0000 C   0  0
   25.7024   -7.9786    0.0000 C   0  0
   26.0883   -5.9584    0.0000 C   0  0
    9.9228   -8.6394    0.0000 C   0  0  1  0  0  0
   12.6221   -7.8663    0.0000 O   0  0
   24.7467  -10.9929    0.0000 C   0  0
   32.8327   -8.6669    0.0000 C   0  0
   20.7038  -10.2102    0.0000 C   0  0
   32.1605   -9.8373    0.0000 C   0  0
   11.2750   -8.6396    0.0000 N   0  0
   28.7855   -8.6615    0.0000 C   0  0
   28.1133   -9.8319    0.0000 C   0  0
   24.7467  -10.2114    0.0000 C   0  0
   22.7268   -7.4881    0.0000 C   0  0
   25.4221   -9.0510    0.0000 N   0  0
   30.8128   -7.4988    0.0000 C   0  0
   32.1621   -7.5024    0.0000 C   0  0
   25.4190  -11.3818    0.0000 O   0  0
   31.4874   -7.8915    0.0000 C   0  0
   34.8516   -6.7304    0.0000 C   0  0
   35.5270   -7.8949    0.0000 C   0  0
   30.1374   -7.8895    0.0000 C   0  0
   20.0314   -9.8212    0.0000 C   0  0
   11.9493   -9.8105    0.0000 C   0  0
   15.9885   -9.8159    0.0000 C   0  0
   17.3403   -9.0403    0.0000 N   0  0
   30.1374   -8.6633    0.0000 C   0  0  1  0  0  0
   26.7698   -9.0487    0.0000 C   0  0
   35.5239   -8.6704    0.0000 O   0  0
   31.4895   -6.3314    0.0000 C   0  0
   27.4420   -8.6597    0.0000 N   0  0
   22.0514   -8.6526    0.0000 C   0  0  2  0  0  0
   20.0314   -9.0439    0.0000 C   0  0  2  0  0  0
   30.8128   -9.0540    0.0000 C   0  0
   10.5979   -6.6982    0.0000 O   0  0
   30.8148   -6.7247    0.0000 C   0  0
   13.9650  -10.2030    0.0000 C   0  0
   34.8516   -9.0594    0.0000 C   0  0
   16.6607   -7.8717    0.0000 O   0  0
   14.6408   -9.0368    0.0000 C   0  0
   34.1762   -7.8949    0.0000 C   0  0
   15.3131   -8.6436    0.0000 N   0  0
   29.3461  -12.4745    0.0000 C   0  0
   19.3560   -8.6490    0.0000 N   0  0
   31.4851   -8.6650    0.0000 N   0  0
   17.6133   -7.9703    0.0000 C   0  0
   11.2773   -7.8628    0.0000 N   0  0
   29.4982   -9.9060    0.0000 C   0  0
   28.1133   -9.0505    0.0000 C   0  0  2  0  0  0
   19.1518   -6.9362    0.0000 C   0  0
   15.9885   -9.0386    0.0000 C   0  0  2  0  0  0
   31.4905   -5.5534    0.0000 Cl  0  0
   12.6218  -10.1996    0.0000 C   0  0
   32.8327   -7.8931    0.0000 O   0  0
   24.7467   -8.6562    0.0000 C   0  0
   10.5971   -9.0336    0.0000 C   0  0
   28.8652  -10.9942    0.0000 C   0  0
   29.6271  -11.1578    0.0000 C   0  0
   34.1762   -8.6687    0.0000 C   0  0  2  0  0  0
   13.2931   -9.0351    0.0000 N   0  0
   14.6408   -9.8142    0.0000 O   0  0
   20.7038   -8.6508    0.0000 C   0  0
   24.0745   -9.8266    0.0000 C   0  0
   22.7268   -9.8249    0.0000 O   0  0
   33.5040   -9.0576    0.0000 N   0  0
   21.3760   -9.8212    0.0000 N   0  0
   14.6408   -7.4815    0.0000 O   0  0
   18.2054   -7.8952    0.0000 C   0  0
   16.6607   -8.6455    0.0000 C   0  0
   13.9640  -10.9789    0.0000 C   0  0
   18.6838   -9.0421    0.0000 C   0  0
   28.5843  -12.3151    0.0000 C   0  0
   30.8128   -9.8356    0.0000 O   0  0
   25.7011   -6.6321    0.0000 C   0  0
   12.6221   -8.6404    0.0000 C   0  0
   26.0944   -8.6580    0.0000 C   0  0  1  0  0  0
   12.6198  -10.9772    0.0000 C   0  0
   28.7855   -7.8877    0.0000 O   0  0
   11.9493   -9.0338    0.0000 C   0  0  1  0  0  0
   30.0181  -10.4800    0.0000 N   0  0
   23.3991   -8.6543    0.0000 N   0  0
   13.2893  -11.3681    0.0000 C   0  0
   13.9654   -7.8681    0.0000 C   0  0  2  0  0  0
   10.5971   -9.8088    0.0000 O   0  0
   18.9556   -7.6850    0.0000 C   0  0
   24.0745   -9.0493    0.0000 C   0  0  2  0  0  0
   13.2932   -7.4833    0.0000 C   0  0
   29.4609   -9.0522    0.0000 N   0  0
   34.8516   -7.5041    0.0000 C   0  0
   22.7268   -9.0475    0.0000 C   0  0
   24.7467   -7.8824    0.0000 O   0  0
   20.7038   -7.8770    0.0000 O   0  0
   13.2914   -9.8121    0.0000 C   0  0
   22.7268   -6.7143    0.0000 C   0  0
   26.6446   -8.0995    0.0000 C   0  0
   26.0895   -7.3050    0.0000 C   0  0
   28.7855  -10.2168    0.0000 C   0  0
   32.1605   -9.0559    0.0000 C   0  0  2  0  0  0
   25.6999   -5.2856    0.0000 C   0  0
   22.0514   -7.8788    0.0000 C   0  0
   18.6838   -9.8195    0.0000 O   0  0
   10.5979   -7.4763    0.0000 C   0  0
   23.3980   -7.8788    0.0000 C   0  0
   34.8516   -9.8409    0.0000 O   0  0
   24.0713  -11.3837    0.0000 O   0  0
 25 24  1  0
  9 10  2  0
 16 19  1  0
 13  5  1  0
 26  3  2  0
 17  1  2  0
  3  9  1  0
  5 20  2  0
 13 18  2  0
 24  2  2  0
 17 16  1  0
  6 25  2  0
  4 12  1  0
  3 20  1  0
  6 23  1  0
 23  8  2  0
  2  8  1  0
 19  4  2  0
 11 16  2  0
 12  7  2  0
  9 14  1  0
 23 15  1  0
  8  7  1  0
  1 12  1  0
 22 25  1  0
 15  1  1  0
 18 21  1  0
 20  7  1  0
 18 26  1  0
 21 27  1  0
 27 28  1  0
 27 29  2  0
127 58  1  0
 68 74  1  0
 94122  2  0
 80 89  1  0
 45 92  2  0
 66 36  2  0
 57 55  2  0
 70138  1  1
 93129  2  0
 28 42  1  0
 91131  1  0
136 45  1  0
 70128  1  0
 83136  1  0
 46 31  2  0
 49126  1  0
120115  1  0
 74 54  2  0
 95 96  2  0
 71 61  1  6
117113  1  0
 88137  1  0
 50135  1  0
127 59  1  0
140 73  2  0
 34 95  1  0
 42 94  1  0
 61 46  1  0
 82 71  1  0
121105  1  1
 35 98  1  1
112 41  1  0
113 43  2  0
126 65  1  0
 52141  1  0
 32106  1  0
 45103  1  0
100 38  1  0
118 86  1  0
 33 81  2  0
 52132  1  0
107 64  1  0
 97 79  1  1
 35121  1  0
 44 56  2  0
 68 90  1  0
 66 69  1  0
 81110  1  0
 54 57  1  0
124 93  1  0
 76 67  1  0
 79127  1  0
109 82  1  0
123 88  1  0
 78 80  1  0
101 51  1  0
128119  1  0
100130  2  0
 35 78  1  0
 39 68  2  0
 87 49  1  0
107 77  2  0
 42 30  1  1
 53114  1  0
131 75  2  0
 96118  1  0
106123  1  0
 49116  2  0
 64 32  1  0
124101  1  6
 32109  1  0
140 85  1  0
109139  2  0
114 40  1  0
121125  1  0
119124  1  0
 72 83  1  0
113 98  1  0
 65 60  1  1
 44143  1  0
 51 44  1  0
 75108  1  0
 96 33  1  0
 65 72  1  0
 40134  1  0
 78 99  2  0
 41137  2  0
 89107  1  0
 69 87  1  0
 72111  2  0
 32 84  1  1
103 97  1  0
138 52  1  0
 55 39  1  0
108120  2  0
 38 70  1  0
117 62  1  6
 46104  1  0
 48117  1  0
135 95  1  0
 89 63  1  6
 87 50  1  6
136 47  1  6
 30140  1  0
 60 54  1  0
 39 37  1  0
 86135  2  0
115 91  2  0
 94 48  1  0
134112  1  0
114133  1  1
 62 91  1  0
 71100  1  0
128102  2  0
110 34  2  0
 93 53  1  0
 97 76  1  0
114 66  1  0
 76142  2  0
M  END