
  SciTegic06051313552D

 29 31  0  0  0  0            999 V2000
   32.0849  -23.4741    0.0000 C   0  0
   32.0837  -24.3014    0.0000 C   0  0
   32.7985  -24.7143    0.0000 C   0  0
   33.5148  -24.3009    0.0000 C   0  0
   33.5120  -23.4705    0.0000 C   0  0
   32.7967  -23.0613    0.0000 N   0  3
   32.7941  -22.2363    0.0000 C   0  0
   31.3703  -23.0617    0.0000 C   0  0
   34.2249  -23.0552    0.0000 C   0  0
   34.9361  -22.6366    0.0000 C   0  0
   30.6530  -22.6491    0.0000 C   0  0
   35.6471  -22.2181    0.0000 C   0  0
   29.9379  -22.2377    0.0000 C   0  0
   29.2241  -22.6514    0.0000 O   0  0
   36.3650  -22.6247    0.0000 O   0  0
   28.5090  -22.2401    0.0000 C   0  0
   37.0759  -22.2062    0.0000 C   0  0
   37.7897  -22.6163    0.0000 C   0  0
   38.5001  -22.1986    0.0000 C   0  0
   38.4937  -21.3727    0.0000 C   0  0
   37.7709  -20.9664    0.0000 C   0  0
   37.0633  -21.3865    0.0000 C   0  0
   28.5123  -21.4174    0.0000 C   0  0
   27.7979  -21.0061    0.0000 C   0  0
   27.0832  -21.4198    0.0000 C   0  0
   27.0871  -22.2490    0.0000 C   0  0
   27.8020  -22.6566    0.0000 C   0  0
   26.3676  -21.0095    0.0000 Cl  0  0
   39.2041  -20.9533    0.0000 Cl  0  0
  1  2  2  0
  2  3  1  0
  3  4  2  0
  4  5  1  0
  5  6  2  0
  6  1  1  0
  6  7  1  0
  1  8  1  0
  5  9  1  0
  9 10  3  0
  8 11  3  0
 10 12  1  0
 11 13  1  0
 13 14  1  0
 12 15  1  0
 14 16  1  0
 15 17  1  0
 17 18  2  0
 18 19  1  0
 19 20  2  0
 20 21  1  0
 21 22  2  0
 22 17  1  0
 16 23  2  0
 23 24  1  0
 24 25  2  0
 25 26  1  0
 26 27  2  0
 27 16  1  0
 25 28  1  0
 20 29  1  0
M  CHG  1   6   1
M  END