
          11280714562D 1   1.00000     0.00000     0

 24 26  0     0  0            999 V2000
    1.9792   -1.2875    0.0000 C   0  0  0  0  0  0           0  0  0
    1.4542   -1.8750    0.0000 C   0  0  3  0  0  0           0  0  0
    1.4167   -0.8417    0.0000 C   0  0  3  0  0  0           0  0  0
    0.9292   -2.1917    0.0000 C   0  0  0  0  0  0           0  0  0
    0.9000   -1.1625    0.0000 C   0  0  0  0  0  0           0  0  0
    0.9042   -1.5917    0.0000 C   0  0  0  0  0  0           0  0  0
    0.8750   -0.5625    0.0000 C   0  0  0  0  0  0           0  0  0
    2.5917   -1.2875    0.0000 N   0  0  0  0  0  0           0  0  0
    7.6500   -1.0042    0.0000 C   0  0  3  0  0  0           0  0  0
    7.0500   -1.0125    0.0000 C   0  0  0  0  0  0           0  0  0
    5.2625   -1.0167    0.0000 N   0  0  0  0  0  0           0  0  0
    3.2667   -1.2875    0.0000 O   0  0  0  0  0  0           0  0  0
    6.7417   -0.4917    0.0000 C   0  0  0  0  0  0           0  0  0
    6.7542   -1.5292    0.0000 C   0  0  0  0  0  0           0  0  0
    5.8625   -1.0167    0.0000 C   0  0  0  0  0  0           0  0  0
    4.3125   -1.1417    0.0000 C   0  0  3  0  0  0           0  0  0
    3.8417   -0.8167    0.0000 C   0  0  0  0  0  0           0  0  0
    4.7875   -0.7917    0.0000 C   0  0  0  0  0  0           0  0  0
    6.1542   -0.5042    0.0000 C   0  0  0  0  0  0           0  0  0
    6.1542   -1.5292    0.0000 C   0  0  0  0  0  0           0  0  0
    4.3125   -1.5667    0.0000 O   0  0  0  0  0  0           0  0  0
    7.9542   -1.5250    0.0000 C   0  0  0  0  0  0           0  0  0
    7.9500   -0.4875    0.0000 C   0  0  0  0  0  0           0  0  0
    7.5000   -1.5917    0.0000 C   0  0  0  0  0  0           0  0  0
  2  1  1  0     0  0
  3  1  1  0     0  0
  4  2  1  0     0  0
  5  3  1  0     0  0
  6  2  1  0     0  0
  7  3  1  0     0  0
  8  1  2  0     0  0
  9 10  1  0     0  0
 10 14  2  0     0  0
 11 18  1  0     0  0
 12  8  1  0     0  0
 13 19  2  0     0  0
 14 20  1  0     0  0
 15 11  1  0     0  0
 16 17  1  0     0  0
 17 12  1  0     0  0
 18 16  1  0     0  0
 19 15  1  0     0  0
 20 15  2  0     0  0
 21 16  1  0     0  0
 22  9  1  0     0  0
 23  9  1  0     0  0
 24  9  1  0     0  0
  7  5  1  0     0  0
  6  4  1  0     0  0
 10 13  1  0     0  0
M  END