
  SciTegic09291412002D

 73 75  0  0  0  0            999 V2000
   21.0895   -4.4741    0.0000 S   0  0
   18.2312   -4.4741    0.0000 O   0  0
   19.6606   -9.4239    0.0000 C   0  0
   23.2354   -5.7115    0.0000 C   0  0
   16.7860   -2.5813    0.0000 N   0  0
   18.9437   -3.2365    0.0000 N   0  0
   20.3730   -8.1863    0.0000 C   0  0  1  0  0  0
   19.6604   -4.4741    0.0000 C   0  0  1  0  0  0
   22.5216   -4.4703    0.0000 C   0  0
   13.2344   -1.2771    0.0000 N   0  0
   17.4728   -3.8284    0.0000 O   0  0
   23.9479   -7.7739    0.0000 C   0  0
   21.5874   -9.6300    0.0000 C   0  0
   20.3730   -9.0113    0.0000 C   0  0
   26.0938   -6.5364    0.0000 C   0  0
   17.5145   -5.7115    0.0000 O   0  0
   26.0938   -8.1863    0.0000 C   0  0
   18.2747   -2.7496    0.0000 C   0  0  2  0  0  0
   27.5185   -8.1863    0.0000 O   0  0
   16.8003   -1.7561    0.0000 C   0  0  2  0  0  0
   13.9380   -1.7000    0.0000 C   0  0
   17.5145   -6.5364    0.0000 C   0  0
   21.8019   -8.1863    0.0000 C   0  0
   18.2312   -6.9489    0.0000 C   0  0
   18.9437   -4.0616    0.0000 C   0  0
   23.9479   -5.2990    0.0000 O   0  0
   18.9437   -8.1863    0.0000 O   0  0
   19.3561   -1.9630    0.0000 C   0  0
   21.8019   -9.0113    0.0000 O   0  0
   22.5186   -5.2990    0.0000 C   0  0
   26.8061   -7.7739    0.0000 C   0  0
   19.6604   -7.7739    0.0000 C   0  0
   19.6605   -6.9487    0.0000 N   0  0
   23.2354   -9.5097    0.0000 C   0  0
   17.4913   -3.0059    0.0000 C   0  0
   23.2354  -10.3346    0.0000 C   0  0
   16.8021   -6.9489    0.0000 N   0  0
   13.9239   -2.5225    0.0000 O   0  0
   23.9479   -6.9489    0.0000 C   0  0  1  0  0  0
   21.0895   -7.7739    0.0000 N   0  0
   16.1066   -0.5065    0.0000 O   0  0
   23.2352   -6.5367    0.0000 N   0  0
   19.6127   -2.7496    0.0000 C   0  0
   26.8061   -6.9489    0.0000 C   0  0
   24.6602   -6.5364    0.0000 C   0  0
   18.5312   -1.9630    0.0000 C   0  0
   16.0923   -1.3289    0.0000 C   0  0
   24.6602   -8.1863    0.0000 O   0  0
   17.5203   -1.3516    0.0000 C   0  0
   19.6605   -5.2993    0.0000 N   0  0
   18.2312   -5.2990    0.0000 O   0  0
   20.3729   -4.0616    0.0000 C   0  0
   21.8019   -4.0616    0.0000 S   0  0
   25.3728   -7.7739    0.0000 C   0  0
   18.9437   -6.5364    0.0000 C   0  0  2  0  0  0
   15.3685   -1.7286    0.0000 N   0  0
   18.2304   -0.1115    0.0000 C   0  0
   25.3726   -6.9489    0.0000 C   0  0
   18.9437   -5.7115    0.0000 C   0  0
   16.8012   -0.1187    0.0000 C   0  0
   22.5186   -9.0929    0.0000 C   0  0  1  0  0  0
   22.5186   -7.7739    0.0000 C   0  0  2  0  0  0
   23.2354   -8.1863    0.0000 N   0  0
   14.6633   -1.3038    0.0000 C   0  0
   17.5149   -0.5290    0.0000 C   0  0
   19.6615  -10.2578    0.0000 C   0  0
   18.9397  -10.6758    0.0000 N   0  0
   20.3843  -10.6741    0.0000 O   0  0
   13.2489   -0.4522    0.0000 C   0  0
   12.5418   -0.0272    0.0000 N   0  0
   13.9705   -0.0524    0.0000 O   0  0
   28.2334   -7.7746    0.0000 C   0  0
   23.0193   -8.6395    0.0000 H   0  0
 29 23  2  0
  1 53  1  0
 19 31  1  0
 42 39  1  0
 65 57  1  0
 50 59  1  0
 51 59  2  0
 48 12  2  0
 49 65  1  0
 56 47  1  0
 41 47  2  0
 39 45  1  1
  1 52  1  0
 61 34  1  0
 61 13  1  6
 65 60  1  0
 24 22  1  0
 42  4  1  0
 46 28  1  0
 58 54  1  0
 50  8  1  0
 30  4  1  0
  8 52  1  0
 14  3  1  0
 63 12  1  0
 45 58  1  0
  5 35  1  0
 20  5  1  6
 15 44  1  0
 17 31  1  0
 28 43  1  0
  6 43  1  0
 10 21  1  0
 61 62  1  0
 59 55  1  0
  7 14  1  1
 18 46  1  0
 26  4  2  0
  7 32  1  0
  8 25  1  6
 58 15  2  0
 20 49  1  0
 44 31  2  0
 56 64  1  0
 38 21  2  0
 54 17  2  0
 64 21  1  0
 27 32  2  0
 39 12  1  0
 62 23  1  0
 16 22  2  0
 53  9  1  0
  2 25  2  0
 20 47  1  0
 33 55  1  0
  6 25  1  0
 11 35  2  0
 62 63  1  0
 34 36  1  0
 55 24  1  1
  6 18  1  0
  9 30  1  0
  7 40  1  0
 33 32  1  0
 40 23  1  0
 37 22  1  0
 18 35  1  6
  3 66  1  0
 66 67  1  0
 66 68  2  0
 10 69  1  0
 69 70  1  0
 69 71  2  0
 19 72  1  0
 62 73  1  6
M  END