
  SciTegic06271217572D

 15 16  0  0  0  0            999 V2000
   -4.9098  -13.8583    0.0000 C   0  0
   -4.9109  -14.6857    0.0000 C   0  0
   -4.1961  -15.0985    0.0000 C   0  0
   -4.1979  -13.4455    0.0000 C   0  0
   -3.4825  -13.8547    0.0000 C   0  0
   -3.4818  -14.6815    0.0000 C   0  0
   -2.7665  -15.0925    0.0000 N   0  0
   -2.0514  -14.6777    0.0000 C   0  0
   -2.0562  -13.8477    0.0000 C   0  0
   -2.7721  -13.4405    0.0000 C   0  0
   -1.3354  -15.0874    0.0000 N   0  0
   -2.7765  -12.6155    0.0000 C   0  0
   -2.0642  -12.1992    0.0000 F   0  0
   -3.4931  -12.2068    0.0000 F   0  0
   -2.7833  -11.7875    0.0000 F   0  0
  1  2  2  0
  7  8  2  0
  5  4  2  0
  8  9  1  0
  4  1  1  0
  9 10  2  0
 10  5  1  0
  8 11  1  0
  2  3  1  0
 10 12  1  0
  5  6  1  0
 12 13  1  0
  3  6  2  0
 12 14  1  0
  6  7  1  0
 12 15  1  0
M  END