
  SciTegic09261414532D

 75 83  0  0  0  0            999 V2000
   22.0541   -6.5036    0.0000 C   0  0
   22.6647   -5.9558    0.0000 C   0  0
   23.4461   -6.2063    0.0000 C   0  0
   24.0525   -5.6544    0.0000 C   0  0
   24.8339   -5.9132    0.0000 C   0  0
   21.2728   -6.2490    0.0000 O   0  0
   22.2632   -7.2951    0.0000 N   0  0
   27.5504   -5.8123    0.0000 C   0  0
   27.4664   -4.9936    0.0000 N   0  0
   26.6639   -4.8187    0.0000 C   0  0  2  0  0  0
   26.2511   -5.5319    0.0000 C   0  0  2  0  0  0
   26.7990   -6.1425    0.0000 N   0  0
   26.1119   -4.2123    0.0000 C   0  0
   25.4445   -5.3612    0.0000 C   0  0  1  0  0  0
   25.3605   -4.5466    0.0000 S   0  0
   28.2636   -6.2209    0.0000 O   0  0
   21.6807   -7.8776    0.0000 C   0  0
   20.8933   -7.6645    0.0000 C   0  0
   20.3108   -8.2470    0.0000 C   0  0
   19.5193   -8.0338    0.0000 O   0  0
   18.9368   -8.6163    0.0000 C   0  0
   18.1412   -8.4031    0.0000 C   0  0
   17.5587   -8.9815    0.0000 O   0  0
   16.7672   -8.7683    0.0000 C   0  0
   16.1888   -9.3508    0.0000 C   0  0
   15.3973   -9.1418    0.0000 O   0  0
   14.8148   -9.7160    0.0000 C   0  0
   14.0192   -9.5070    0.0000 C   0  0
   13.4367  -10.0895    0.0000 C   0  0
   12.6452   -9.8763    0.0000 N   0  0
   12.0668  -10.4547    0.0000 C   0  0
   12.2800  -11.2462    0.0000 C   0  0
   11.6975  -11.8287    0.0000 C   0  0
   10.9019  -11.6197    0.0000 C   0  0
   12.6745  -12.9153    0.0000 C   0  0
   11.9107  -12.6243    0.0000 N   0  0
   11.3915  -13.2646    0.0000 C   0  0
   11.8388  -13.9522    0.0000 C   0  0
   12.6303  -13.7349    0.0000 N   0  0
   11.4666  -14.6799    0.0000 C   0  0
   10.6469  -14.7282    0.0000 C   0  0
   10.1996  -14.0364    0.0000 C   0  0
   10.5718  -13.3047    0.0000 C   0  0
   13.3662  -12.4721    0.0000 C   0  0
   13.3221  -11.6525    0.0000 C   0  0
   14.0097  -11.2010    0.0000 C   0  0
   14.7456  -11.5774    0.0000 C   0  0
   14.7856  -12.3970    0.0000 C   0  0
   14.0980  -12.8402    0.0000 C   0  0
   11.2753  -10.2415    0.0000 O   0  0
   10.3235  -12.1980    0.0000 O   0  0
    9.5358  -11.9849    0.0000 C   0  0
    8.9544  -12.5673    0.0000 C   0  0
    8.1569  -12.3542    0.0000 C   0  0
    7.9450  -11.5627    0.0000 C   0  0
    8.5264  -10.9802    0.0000 C   0  0
    9.3156  -11.1892    0.0000 C   0  0
    7.1558  -11.3454    0.0000 C   0  0
    6.8566  -10.5774    0.0000 N   0  0
    6.0377  -10.6216    0.0000 C   0  0
    5.8257  -11.4131    0.0000 C   0  0
    6.5166  -11.8646    0.0000 N   0  0
    5.0324  -11.6304    0.0000 C   0  0
    4.4510  -11.0479    0.0000 C   0  0
    4.6671  -10.2564    0.0000 C   0  0
    5.4563  -10.0432    0.0000 C   0  0
    7.3090   -9.8940    0.0000 C   0  0
    6.8962   -9.1807    0.0000 C   0  0
    6.0749   -9.1807    0.0000 C   0  0
    5.6663   -8.4716    0.0000 C   0  0
    6.0749   -7.7584    0.0000 C   0  0
    6.8962   -7.7584    0.0000 C   0  0
    7.3090   -8.4716    0.0000 C   0  0
   25.8425   -6.2452    0.0000 H   0  0
   27.0725   -4.1138    0.0000 H   0  0
  1  2  1  0
  2  3  1  0
  3  4  1  0
  4  5  1  0
  1  6  2  0
  1  7  1  0
  8  9  1  0
  9 10  1  0
 10 11  1  0
 11 12  1  0
  8 12  1  0
 14 15  1  0
 13 15  1  0
 10 13  1  0
 11 14  1  0
  8 16  2  0
 14  5  1  6
 17 18  1  0
 18 19  1  0
 19 20  1  0
 20 21  1  0
 21 22  1  0
 22 23  1  0
 23 24  1  0
 24 25  1  0
 25 26  1  0
 26 27  1  0
 27 28  1  0
 28 29  1  0
 29 30  1  0
 30 31  1  0
 31 32  1  0
 32 33  1  0
 33 34  1  0
 35 36  1  0
 36 37  1  0
 37 38  1  0
 38 39  1  0
 35 39  2  0
 40 41  1  0
 41 42  2  0
 42 43  1  0
 37 43  2  0
 38 40  2  0
 44 45  1  0
 45 46  2  0
 46 47  1  0
 47 48  2  0
 48 49  1  0
 44 49  2  0
 35 44  1  0
 33 36  1  0
 31 50  2  0
 52 53  1  0
 53 54  2  0
 54 55  1  0
 55 56  2  0
 56 57  1  0
 52 57  2  0
 51 52  1  0
 58 59  1  0
 59 60  1  0
 60 61  1  0
 61 62  1  0
 58 62  2  0
 63 64  1  0
 64 65  2  0
 65 66  1  0
 60 66  2  0
 61 63  2  0
 67 68  1  0
 68 69  1  0
 69 70  2  0
 70 71  1  0
 71 72  2  0
 72 73  1  0
 68 73  2  0
 59 67  1  0
 55 58  1  0
 34 51  1  0
  7 17  1  0
 11 74  1  1
 10 75  1  1
M  END