
          08180812472D 1   1.00000     0.00000     0

 25 28  0     1  0            999 V2000
   -5.6043  -24.5713    0.0000 C   0  0  3  0  0  0           0  0  0
   -5.6043  -25.3974    0.0000 C   0  0  0  0  0  0           0  0  0
   -4.8928  -25.8081    0.0000 C   0  0  0  0  0  0           0  0  0
   -4.8928  -24.1560    0.0000 C   0  0  0  0  0  0           0  0  0
   -4.1769  -24.5713    0.0000 C   0  0  0  0  0  0           0  0  0
   -4.1758  -25.3974    0.0000 C   0  0  0  0  0  0           0  0  0
   -3.4639  -25.8072    0.0000 C   0  0  0  0  0  0           0  0  0
   -2.7484  -25.3955    0.0000 C   0  0  0  0  0  0           0  0  0
   -3.4660  -24.1551    0.0000 C   0  0  0  0  0  0           0  0  0
   -2.7509  -24.5663    0.0000 C   0  0  2  0  0  0           0  0  0
   -2.7555  -22.9192    0.0000 C   0  0  0  0  0  0           0  0  0
   -3.4715  -23.3324    0.0000 C   0  0  0  0  0  0           0  0  0
   -2.0402  -23.3304    0.0000 C   0  0  1  0  0  0           0  0  0
   -2.0377  -24.1558    0.0000 C   0  0  1  0  0  0           0  0  0
   -1.2519  -24.4085    0.0000 C   0  0  0  0  0  0           0  0  0
   -0.7688  -23.7392    0.0000 C   0  0  0  0  0  0           0  0  0
   -1.2561  -23.0730    0.0000 C   0  0  2  0  0  0           0  0  0
   -2.7566  -23.7407    0.0000 H   0  0  0  0  0  0           0  0  0
   -2.0491  -22.5085    0.0000 C   0  0  0  0  0  0           0  0  0
   -6.3157  -25.8081    0.0000 O   0  0  0  0  0  0           0  0  0
   -0.4381  -23.0698    0.0000 O   0  0  0  0  0  0           0  0  0
   -1.2642  -22.2484    0.0000 C   0  0  0  0  0  0           0  0  0
   -2.0446  -24.9729    0.0000 H   0  0  0  0  0  0           0  0  0
   -5.6088  -23.7498    0.0000 C   0  0  0  0  0  0           0  0  0
   -6.4258  -24.5713    0.0000 C   0  0  0  0  0  0           0  0  0
 10 14  1  0     0  0
 13 11  1  0     0  0
 11 12  2  0     0  0
 13 14  1  0     0  0
  1  2  1  0     0  0
  1  4  1  0     0  0
  2  3  1  0     0  0
  5  9  2  0     0  0
  6  7  1  0     0  0
 14 15  1  0     0  0
 15 16  1  0     0  0
 16 17  1  0     0  0
 17 13  1  0     0  0
  7  8  1  0     0  0
 10 18  1  1     0  0
  8 10  1  0     0  0
 13 19  1  1     0  0
  9 10  1  0     0  0
  2 20  2  0     0  0
  3  6  2  0     0  0
 17 21  1  1     0  0
  5  4  1  0     0  0
 17 22  1  0     0  0
  5  6  1  0     0  0
 14 23  1  6     0  0
  1 24  1  0     0  0
  9 12  1  0     0  0
  1 25  1  0     0  0
M  END