
  SciTegic04091414352D

 51 55  0  0  0  0            999 V2000
    0.9726  -22.7492    0.0000 C   0  0
    0.9715  -23.5688    0.0000 C   0  0
    1.6795  -23.9777    0.0000 C   0  0
    1.6777  -22.3404    0.0000 C   0  0
    2.3863  -22.7456    0.0000 C   0  0
    2.3866  -23.5688    0.0000 C   0  0
    3.1696  -23.8230    0.0000 S   0  0
    3.6533  -23.1568    0.0000 C   0  0
    3.1692  -22.4911    0.0000 N   0  0
    4.4688  -23.1568    0.0000 C   0  0
    4.9494  -23.8177    0.0000 C   0  0
    5.7265  -23.5649    0.0000 N   0  0
    5.7262  -22.7477    0.0000 C   0  0
    4.9489  -22.4956    0.0000 S   0  0
    6.3871  -22.2671    0.0000 C   0  0
    6.3014  -21.4544    0.0000 C   0  0
    4.6971  -24.5950    0.0000 O   0  0
    3.4214  -21.7138    0.0000 C   0  0
    6.3878  -24.0450    0.0000 C   0  0
    6.3027  -24.8578    0.0000 C   0  0
    6.9634  -20.9753    0.0000 N   0  3
    6.8780  -20.1633    0.0000 C   0  0
    6.1307  -19.8305    0.0000 C   0  0
    5.4679  -20.3157    0.0000 C   0  0
    5.5566  -21.1259    0.0000 C   0  0
    7.7096  -21.3083    0.0000 C   0  0
    8.3712  -20.8286    0.0000 C   0  0
    9.1174  -21.1616    0.0000 C   0  0
    9.7790  -20.6819    0.0000 C   0  0
   10.5252  -21.0150    0.0000 C   0  0
   11.1868  -20.5353    0.0000 C   0  0
   11.9330  -20.8683    0.0000 N   0  0
   12.5946  -20.3886    0.0000 C   0  0
   13.3408  -20.7217    0.0000 C   0  0
   12.5099  -19.5758    0.0000 O   0  0
   14.0024  -20.2419    0.0000 C   0  0
   14.7486  -20.5750    0.0000 C   0  0
   15.4102  -20.0953    0.0000 C   0  0
   16.1564  -20.4283    0.0000 C   0  0  2  0  0  0
   16.3234  -21.2255    0.0000 S   0  0
   17.1361  -21.3116    0.0000 C   0  0
   16.8623  -20.0181    0.0000 C   0  0  2  0  0  0
   17.4664  -20.5639    0.0000 C   0  0  1  0  0  0
   18.1722  -20.1580    0.0000 N   0  0
   18.0042  -19.3613    0.0000 C   0  0
   17.1947  -19.2749    0.0000 N   0  0
   18.5520  -18.7549    0.0000 O   0  0
   16.2778  -19.4351    0.0000 H   0  0
   18.0401  -21.1397    0.0000 H   0  0
    0.2648  -22.3408    0.0000 Cl  0  0
    9.7485  -22.8360    0.0000 Cl  0  5
  1  2  2  0
  2  3  1  0
  3  6  2  0
  5  4  2  0
  4  1  1  0
  5  6  1  0
  6  7  1  0
  7  8  1  0
  8  9  1  0
  9  5  1  0
 10 11  1  0
 11 12  1  0
 12 13  1  0
 13 14  1  0
 14 10  1  0
  8 10  2  0
 13 15  2  0
 15 16  1  0
 11 17  2  0
  9 18  1  0
 12 19  1  0
 19 20  1  0
 16 21  2  0
 21 22  1  0
 22 23  2  0
 23 24  1  0
 24 25  2  0
 25 16  1  0
 21 26  1  0
 26 27  1  0
 27 28  1  0
 28 29  1  0
 29 30  1  0
 30 31  1  0
 31 32  1  0
 32 33  1  0
 33 34  1  0
 33 35  2  0
 34 36  1  0
 36 37  1  0
 37 38  1  0
 39 38  1  1
 39 40  1  0
 40 41  1  0
 41 43  1  0
 42 39  1  0
 42 43  1  0
 43 44  1  0
 44 45  1  0
 45 46  1  0
 46 42  1  0
 45 47  2  0
 42 48  1  6
 43 49  1  6
  1 50  1  0
M  CHG  2  21   1  51  -1
M  END