
  SciTegic04091415032D

 28 32  0  0  0  0            999 V2000
   14.2295  -21.1040    0.0000 C   0  0
   15.0112  -20.8499    0.0000 O   0  0
   15.0112  -20.0280    0.0000 C   0  0
   14.2294  -19.7741    0.0000 C   0  0
   13.7464  -20.4391    0.0000 C   0  0  2  0  0  0
    9.8724  -23.4215    0.0000 C   0  0
    9.8724  -22.5964    0.0000 C   0  0
   10.5869  -22.1839    0.0000 C   0  0
   10.5869  -23.8339    0.0000 C   0  0
   11.3014  -23.4215    0.0000 C   0  0
   12.0159  -23.8339    0.0000 C   0  0
   12.7304  -23.4215    0.0000 C   0  0
   12.7304  -22.5964    0.0000 C   0  0  1  0  0  0
   13.4449  -22.1839    0.0000 C   0  0  2  0  0  0
   14.2295  -22.4388    0.0000 C   0  0
   14.7144  -21.7714    0.0000 C   0  0
   13.4449  -21.3589    0.0000 C   0  0  2  0  0  0
   12.7304  -20.9464    0.0000 C   0  0
   12.0159  -21.3589    0.0000 C   0  0
   12.0159  -22.1839    0.0000 C   0  0  2  0  0  0
   11.3014  -22.5964    0.0000 C   0  0
    9.1581  -23.8339    0.0000 O   0  0
   13.4449  -23.0089    0.0000 H   0  0
   15.6761  -19.5450    0.0000 C   0  0
   12.9245  -20.4391    0.0000 C   0  0
   11.2990  -21.7720    0.0000 H   0  0
   12.0130  -23.0007    0.0000 H   0  0
   12.7270  -21.7638    0.0000 C   0  0
  1  2  1  0
  2  3  1  0
  3  4  1  0
  4  5  1  0
  5  1  1  0
  6  7  1  0
  7  8  2  0
  6  9  2  0
  9 10  1  0
 10 11  1  0
 11 12  1  0
 12 13  1  0
 13 14  1  0
 14 15  1  0
 15 16  1  0
 16  1  1  0
  1 17  1  0
 14 17  1  0
 17 18  1  0
 18 19  1  0
 19 20  1  0
 13 20  1  0
 20 21  1  0
  8 21  1  0
 10 21  2  0
  6 22  1  0
 14 23  1  6
  3 24  1  0
  5 25  1  1
 20 26  1  6
 13 27  1  1
 17 28  1  1
M  END