
  CDK    9/16/09,10:4

 27 29  0  0  0  0  0  0  0  0999 V2000
    9.1542   -7.2500    0.0000 C   0  0  0  0  0  0  0  0  0  0  0  0
    9.8686   -6.8375    0.0000 N   0  0  0  0  0  0  0  0  0  0  0  0
    8.4397   -6.8375    0.0000 N   0  0  0  0  0  0  0  0  0  0  0  0
    9.1542   -8.0750    0.0000 S   0  0  0  0  0  0  0  0  0  0  0  0
    7.7252   -7.2500    0.0000 C   0  0  0  0  0  0  0  0  0  0  0  0
    7.0113   -6.8344    0.0000 C   0  0  0  0  0  0  0  0  0  0  0  0
    6.2973   -7.2462    0.0000 C   0  0  0  0  0  0  0  0  0  0  0  0
    6.2969   -8.0721    0.0000 C   0  0  0  0  0  0  0  0  0  0  0  0
    7.0164   -8.4844    0.0000 C   0  0  0  0  0  0  0  0  0  0  0  0
    7.7274   -8.0702    0.0000 C   0  0  0  0  0  0  0  0  0  0  0  0
   10.5831   -7.2500    0.0000 C   0  0  0  0  0  0  0  0  0  0  0  0
   10.5806   -8.0761    0.0000 C   0  0  0  0  0  0  0  0  0  0  0  0
   11.2942   -8.4885    0.0000 C   0  0  0  0  0  0  0  0  0  0  0  0
   11.2928   -6.8380    0.0000 C   0  0  0  0  0  0  0  0  0  0  0  0
   12.0070   -7.2467    0.0000 C   0  0  0  0  0  0  0  0  0  0  0  0
   12.0106   -8.0745    0.0000 C   0  0  0  0  0  0  0  0  0  0  0  0
   12.7261   -8.4852    0.0000 S   0  0  0  0  0  0  0  0  0  0  0  0
   13.4375   -8.8958    0.0000 N   0  0  0  0  0  0  0  0  0  0  0  0
   13.1377   -7.7702    0.0000 O   0  0  0  0  0  0  0  0  0  0  0  0
   12.3177   -9.2020    0.0000 O   0  0  0  0  0  0  0  0  0  0  0  0
   13.4376   -9.7208    0.0000 C   0  0  0  0  0  0  0  0  0  0  0  0
   12.7731  -10.2094    0.0000 N   0  0  0  0  0  0  0  0  0  0  0  0
   13.0281  -10.9940    0.0000 O   0  0  0  0  0  0  0  0  0  0  0  0
   13.8532  -10.9939    0.0000 C   0  0  0  0  0  0  0  0  0  0  0  0
   14.1079  -10.2093    0.0000 C   0  0  0  0  0  0  0  0  0  0  0  0
   14.3382  -11.6613    0.0000 C   0  0  0  0  0  0  0  0  0  0  0  0
    8.4432   -8.4804    0.0000 C   0  0  0  0  0  0  0  0  0  0  0  0
 13 16  2  0  0  0  0 
  6  7  1  0  0  0  0 
 15 14  2  0  0  0  0 
 14 11  1  0  0  0  0 
 15 16  1  0  0  0  0 
  1  4  2  0  0  0  0 
  7  8  2  0  0  0  0 
 16 17  1  0  0  0  0 
  8  9  1  0  0  0  0 
 17 18  1  0  0  0  0 
  3  5  1  0  0  0  0 
 17 19  2  0  0  0  0 
  9 10  2  0  0  0  0 
 17 20  2  0  0  0  0 
 10  5  1  0  0  0  0 
 18 21  1  0  0  0  0 
 21 22  2  0  0  0  0 
  1  3  1  0  0  0  0 
  2 11  1  0  0  0  0 
  5  6  2  0  0  0  0 
 11 12  2  0  0  0  0 
 22 23  1  0  0  0  0 
 23 24  1  0  0  0  0 
 24 25  2  0  0  0  0 
 25 21  1  0  0  0  0 
  1  2  1  0  0  0  0 
 24 26  1  0  0  0  0 
 12 13  1  0  0  0  0 
 10 27  1  0  0  0  0 
M  END