
          11280715192D 1   1.00000     0.00000     0

 29 30  0     0  0            999 V2000
    7.2042   -3.6667    0.0000 C   0  0  0  0  0  0           0  0  0
    8.0292   -3.6667    0.0000 O   0  0  0  0  0  0           0  0  0
    9.2625   -4.3792    0.0000 C   0  0  0  0  0  0           0  0  0
    6.7917   -2.9542    0.0000 C   0  0  0  0  0  0           0  0  0
    6.7917   -4.3792    0.0000 C   0  0  0  0  0  0           0  0  0
    5.5542   -3.6750    0.0000 C   0  0  0  0  0  0           0  0  0
   10.0917   -4.3917    0.0000 N   0  0  0  0  0  0           0  0  0
    5.9667   -4.3792    0.0000 C   0  0  0  0  0  0           0  0  0
    5.9667   -2.9625    0.0000 C   0  0  0  0  0  0           0  0  0
    8.8542   -3.6667    0.0000 C   0  0  3  0  0  0           0  0  0
    9.0042   -5.1667    0.0000 N   0  0  0  0  0  0           0  0  0
    4.7292   -3.6750    0.0000 C   0  0  0  0  0  0           0  0  0
    4.3167   -4.3917    0.0000 N   0  0  0  0  0  0           0  0  0
    1.0167   -2.9750    0.0000 N   0  0  0  0  0  0           0  0  0
    0.6042   -2.2542    0.0000 C   0  0  3  0  0  0           0  0  0
    3.4917   -4.3917    0.0000 O   0  0  0  0  0  0           0  0  0
    7.2042   -5.1000    0.0000 Cl  0  0  0  0  0  0           0  0  0
    7.2042   -2.2417    0.0000 Cl  0  0  0  0  0  0           0  0  0
    2.2542   -3.6792    0.0000 C   0  0  3  0  0  0           0  0  0
    1.8417   -2.9667    0.0000 C   0  0  0  0  0  0           0  0  0
    3.0792   -3.6792    0.0000 C   0  0  0  0  0  0           0  0  0
    1.8417   -4.4000    0.0000 O   0  0  0  0  0  0           0  0  0
   10.3417   -5.1792    0.0000 C   0  0  0  0  0  0           0  0  0
    9.6667   -5.6542    0.0000 C   0  0  0  0  0  0           0  0  0
    4.3167   -2.9625    0.0000 C   0  0  0  0  0  0           0  0  0
    9.2667   -2.9542    0.0000 C   0  0  0  0  0  0           0  0  0
   -0.2208   -2.2625    0.0000 C   0  0  0  0  0  0           0  0  0
    1.4000   -2.0417    0.0000 C   0  0  0  0  0  0           0  0  0
    1.0125   -1.5417    0.0000 C   0  0  0  0  0  0           0  0  0
  2  1  1  0     0  0
  3 10  1  0     0  0
  4  1  2  0     0  0
  5  1  1  0     0  0
  6  8  1  0     0  0
  7  3  2  0     0  0
  8  5  2  0     0  0
  9  4  1  0     0  0
 10  2  1  0     0  0
 11  3  1  0     0  0
 12  6  1  0     0  0
 13 12  2  0     0  0
 14 20  1  0     0  0
 15 14  1  0     0  0
 16 13  1  0     0  0
 17  5  1  0     0  0
 18  4  1  0     0  0
 19 21  1  0     0  0
 20 19  1  0     0  0
 21 16  1  0     0  0
 22 19  1  0     0  0
 23  7  1  0     0  0
 24 11  1  0     0  0
 25 12  1  0     0  0
 26 10  1  0     0  0
 27 15  1  0     0  0
 28 15  1  0     0  0
 29 15  1  0     0  0
  6  9  2  0     0  0
 23 24  1  0     0  0
M  END