
          11280714552D 1   1.00000     0.00000     0

 32 36  0     0  0            999 V2000
    0.6667   -1.9292    0.0000 N   0  0  3  0  0  0           0  0  0
    0.6167   -0.5917    0.0000 N   0  0  0  0  0  0           0  0  0
    0.1542   -1.2792    0.0000 C   0  0  0  0  0  0           0  0  0
    1.4500   -1.6542    0.0000 C   0  0  0  0  0  0           0  0  0
    1.4042   -0.8250    0.0000 C   0  0  0  0  0  0           0  0  0
    4.1875   -4.4167    0.0000 C   0  0  0  0  0  0           0  0  0
    4.9750   -3.3375    0.0000 N   0  0  0  0  0  0           0  0  0
    4.1917   -3.5875    0.0000 N   0  0  0  0  0  0           0  0  0
    5.4542   -4.0042    0.0000 N   0  0  0  0  0  0           0  0  0
    4.9667   -4.6667    0.0000 N   0  0  0  0  0  0           0  0  0
    3.5167   -4.9000    0.0000 C   0  0  0  0  0  0           0  0  0
    2.7167   -5.1000    0.0000 C   0  0  0  0  0  0           0  0  0
    0.4375   -2.7250    0.0000 C   0  0  0  0  0  0           0  0  0
    2.1500   -4.5042    0.0000 C   0  0  0  0  0  0           0  0  0
    2.3792   -3.7042    0.0000 C   0  0  0  0  0  0           0  0  0
    1.3417   -4.7042    0.0000 C   0  0  0  0  0  0           0  0  0
    1.0042   -3.3167    0.0000 C   0  0  0  0  0  0           0  0  0
   -0.6708   -1.3167    0.0000 C   0  0  0  0  0  0           0  0  0
    2.1167   -2.1292    0.0000 C   0  0  0  0  0  0           0  0  0
    0.7750   -4.1042    0.0000 C   0  0  0  0  0  0           0  0  0
    1.8042   -3.1167    0.0000 C   0  0  0  0  0  0           0  0  0
    2.0292   -0.2875    0.0000 C   0  0  0  0  0  0           0  0  0
    4.0875   -5.4875    0.0000 C   0  0  0  0  0  0           0  0  0
    2.4875   -5.8917    0.0000 C   0  0  0  0  0  0           0  0  0
   -1.1083   -0.6167    0.0000 C   0  0  0  0  0  0           0  0  0
   -1.9333   -0.6500    0.0000 C   0  0  0  0  0  0           0  0  0
    2.9125   -1.9125    0.0000 C   0  0  0  0  0  0           0  0  0
    2.8417   -0.4292    0.0000 C   0  0  0  0  0  0           0  0  0
    3.0542   -6.4792    0.0000 C   0  0  0  0  0  0           0  0  0
    3.8625   -6.2875    0.0000 C   0  0  0  0  0  0           0  0  0
   -2.3708    0.0500    0.0000 C   0  0  0  0  0  0           0  0  0
    3.2292   -1.1500    0.0000 C   0  0  0  0  0  0           0  0  0
  2  3  2  0     0  0
  3  1  1  0     0  0
  4  1  1  0     0  0
  5  4  2  0     0  0
  6 11  1  0     0  0
  7  8  2  0     0  0
  8  6  1  0     0  0
  9 10  1  0     0  0
 10  6  2  0     0  0
 11 12  2  0     0  0
 12 14  1  0     0  0
 13  1  1  0     0  0
 14 15  2  0     0  0
 15 21  1  0     0  0
 16 20  2  0     0  0
 17 13  1  0     0  0
 18  3  1  0     0  0
 19  4  1  0     0  0
 20 17  1  0     0  0
 21 17  2  0     0  0
 22  5  1  0     0  0
 23 11  1  0     0  0
 24 12  1  0     0  0
 25 18  1  0     0  0
 26 25  1  0     0  0
 27 19  1  0     0  0
 28 22  1  0     0  0
 29 24  2  0     0  0
 30 29  1  0     0  0
 31 26  1  0     0  0
 32 27  1  0     0  0
  5  2  1  0     0  0
 16 14  1  0     0  0
 28 32  1  0     0  0
 23 30  2  0     0  0
  9  7  1  0     0  0
M  END