
  SciTegic07221310232D

 48 52  0  0  0  0            999 V2000
    0.5110   -7.8435    0.0000 C   0  0
    1.1681   -7.3410    0.0000 N   0  0
    1.0613   -6.5230    0.0000 C   0  0
   -0.2495   -7.5299    0.0000 N   0  0
   -0.3594   -6.7135    0.0000 C   0  0
    0.2969   -6.2044    0.0000 C   0  0
    0.0156   -5.4228    0.0000 N   0  0
   -0.8146   -5.4488    0.0000 C   0  0
   -1.0464   -6.2465    0.0000 N   0  0
    1.7165   -6.0218    0.0000 N   0  0
   -1.8226   -6.5259    0.0000 C   0  0  2  0  0  0
   -2.5016   -6.0590    0.0000 O   0  0
   -3.1535   -6.5645    0.0000 C   0  0  1  0  0  0
   -2.8741   -7.3408    0.0000 C   0  0  2  0  0  0
   -2.0496   -7.3149    0.0000 C   0  0  1  0  0  0
   -1.5430   -7.9660    0.0000 O   0  0
   -3.3378   -8.0232    0.0000 O   0  0
   -3.9457   -6.3343    0.0000 C   0  0
   -4.1424   -5.5332    0.0000 O   0  0
   -4.9346   -5.3029    0.0000 P   0  0
   -4.6193   -4.5471    0.0000 O   0  0
   -5.2509   -6.0707    0.0000 O   0  0
   -5.7235   -5.0617    0.0000 O   0  0
   -5.1199   -3.8914    0.0000 P   0  0
   -4.4617   -3.3967    0.0000 O   0  0
   -5.7712   -4.4003    0.0000 O   0  5
   -5.6207   -3.2407    0.0000 O   0  0
   -5.3062   -2.4780    0.0000 C   0  0
   -5.8094   -1.8243    0.0000 C   0  0  2  0  0  0
   -5.5766   -1.0346    0.0000 O   0  0
   -6.2571   -0.5684    0.0000 C   0  0  1  0  0  0
   -6.9109   -1.0717    0.0000 C   0  0  2  0  0  0
   -6.6342   -1.8488    0.0000 C   0  0  1  0  0  0
   -7.0997   -2.5300    0.0000 O   0  0
   -7.7023   -0.8387    0.0000 O   0  0
   -6.2800    0.2562    0.0000 N   0  3
   -5.5735    0.6888    0.0000 C   0  0
   -5.5943    1.5099    0.0000 C   0  0
   -6.3181    1.9063    0.0000 C   0  0
   -7.0228    1.4754    0.0000 C   0  0
   -7.0035    0.6480    0.0000 C   0  0
   -7.7470    1.8704    0.0000 C   0  0
   -7.7671    2.6951    0.0000 O   0  0
   -8.4512    1.4406    0.0000 N   0  0
   -1.8537   -8.7302    0.0000 P   0  0
   -1.1430   -9.1397    0.0000 O   0  0
   -2.5712   -8.3147    0.0000 O   0  0
   -2.4388   -9.3070    0.0000 O   0  0
 20 23  2  0
 11  9  1  1
 21 24  1  0
 11 12  1  0
 24 25  2  0
 24 26  1  0
  2  3  2  0
 24 27  1  0
  3  6  1  0
 27 28  1  0
  1  2  1  0
 29 28  1  1
 29 30  1  0
 12 13  1  0
 13 14  1  0
 14 15  1  0
 15 11  1  0
 30 31  1  0
 31 32  1  0
 32 33  1  0
 33 29  1  0
  5  4  1  0
 33 34  1  6
 15 16  1  6
 32 35  1  6
  6  7  1  0
 31 36  1  1
 36 37  2  0
 14 17  1  6
  7  8  2  0
 13 18  1  1
  8  9  1  0
 18 19  1  0
 36 41  1  0
 37 38  1  0
 38 39  2  0
 39 40  1  0
 40 41  2  0
  9  5  1  0
 40 42  1  0
 19 20  1  0
 42 43  2  0
  4  1  2  0
 42 44  1  0
 20 21  1  0
 16 45  1  0
  3 10  1  0
 45 46  1  0
 20 22  1  0
 45 47  1  0
  5  6  2  0
 45 48  2  0
M  CHG  2  26  -1  36   1
M  END