
  CDK    9/16/09,9:56

 25 28  0  0  0  0  0  0  0  0999 V2000
   11.8205  -14.1489    0.0000 C   0  0  0  0  0  0  0  0  0  0  0  0
   11.8205  -14.9786    0.0000 C   0  0  0  0  0  0  0  0  0  0  0  0
   12.5351  -15.3911    0.0000 N   0  0  0  0  0  0  0  0  0  0  0  0
   13.2541  -14.9786    0.0000 C   0  0  0  0  0  0  0  0  0  0  0  0
   13.2541  -14.1489    0.0000 C   0  0  0  0  0  0  0  0  0  0  0  0
   12.5351  -13.7318    0.0000 O   0  0  0  0  0  0  0  0  0  0  0  0
   13.9690  -13.7372    0.0000 C   0  0  0  0  0  0  0  0  0  0  0  0
   14.6831  -14.1504    0.0000 O   0  0  0  0  0  0  0  0  0  0  0  0
   15.3980  -13.7386    0.0000 C   0  0  0  0  0  0  0  0  0  0  0  0
   16.1088  -14.1556    0.0000 C   0  0  0  0  0  0  0  0  0  0  0  0
   16.8232  -13.7446    0.0000 C   0  0  0  0  0  0  0  0  0  0  0  0
   16.8245  -12.9187    0.0000 C   0  0  0  0  0  0  0  0  0  0  0  0
   16.1054  -12.5056    0.0000 C   0  0  0  0  0  0  0  0  0  0  0  0
   15.3939  -12.9190    0.0000 C   0  0  0  0  0  0  0  0  0  0  0  0
   16.1033  -11.6806    0.0000 C   0  0  0  0  0  0  0  0  0  0  0  0
   16.8168  -11.2662    0.0000 N   0  0  0  0  0  0  0  0  0  0  0  0
   17.5317  -11.6793    0.0000 C   0  0  0  0  0  0  0  0  0  0  0  0
   18.2431  -11.2684    0.0000 C   0  0  0  0  0  0  0  0  0  0  0  0
   18.2453  -10.4431    0.0000 O   0  0  0  0  0  0  0  0  0  0  0  0
   17.5298  -10.0303    0.0000 C   0  0  0  0  0  0  0  0  0  0  0  0
   16.8123  -10.4427    0.0000 C   0  0  0  0  0  0  0  0  0  0  0  0
   12.5339  -16.2161    0.0000 C   0  0  0  0  0  0  0  0  0  0  0  0
   11.9477  -16.7964    0.0000 C   0  0  0  0  0  0  0  0  0  0  0  0
   12.5303  -17.3807    0.0000 C   0  0  0  0  0  0  0  0  0  0  0  0
   13.1144  -16.7981    0.0000 C   0  0  0  0  0  0  0  0  0  0  0  0
  5  6  1  0  0  0  0 
 12 13  1  0  0  0  0 
 13 14  2  0  0  0  0 
 14  9  1  0  0  0  0 
  5  7  1  0  0  0  0 
 13 15  1  0  0  0  0 
  1  2  1  0  0  0  0 
 15 16  1  0  0  0  0 
 16 17  1  0  0  0  0 
  7  8  1  0  0  0  0 
  1  6  1  0  0  0  0 
  8  9  1  0  0  0  0 
  2  3  1  0  0  0  0 
  9 10  2  0  0  0  0 
 16 21  1  0  0  0  0 
 17 18  1  0  0  0  0 
 18 19  1  0  0  0  0 
 19 20  1  0  0  0  0 
 20 21  1  0  0  0  0 
  3  4  1  0  0  0  0 
  3 22  1  0  0  0  0 
 22 23  1  0  0  0  0 
 10 11  1  0  0  0  0 
  4  5  1  0  0  0  0 
 11 12  2  0  0  0  0 
 23 24  1  0  0  0  0 
 24 25  1  0  0  0  0 
 25 22  1  0  0  0  0 
M  END