
          02060813482D 1   1.00000     0.00000     0

 38 41  0     0  0            999 V2000
    3.5111   -0.4250    0.0000 C   0  0  0  0  0  0           0  0  0
    3.5099   -1.2523    0.0000 C   0  0  0  0  0  0           0  0  0
    4.2247   -1.6652    0.0000 C   0  0  0  0  0  0           0  0  0
    4.9412   -1.2519    0.0000 C   0  0  0  0  0  0           0  0  0
    4.9383   -0.4213    0.0000 C   0  0  0  0  0  0           0  0  0
    4.2229   -0.0122    0.0000 C   0  0  0  0  0  0           0  0  0
    2.7951   -1.6643    0.0000 Cl  0  0  0  0  0  0           0  0  0
    4.2205    0.8128    0.0000 C   0  0  0  0  0  0           0  0  0
    4.9337    1.2274    0.0000 N   0  0  0  0  0  0           0  0  0
    4.9312    2.0524    0.0000 C   0  0  0  0  0  0           0  0  0
    5.6445    2.4671    0.0000 C   0  0  3  0  0  0           0  0  0
    4.2155    2.4628    0.0000 O   0  0  0  0  0  0           0  0  0
    5.6512   -0.0061    0.0000 O   0  0  0  0  0  0           0  0  0
    5.6563   -1.6632    0.0000 C   0  0  0  0  0  0           0  0  0
    5.6527   -2.4886    0.0000 C   0  0  0  0  0  0           0  0  0
    6.3670   -2.8999    0.0000 C   0  0  0  0  0  0           0  0  0
    7.0818   -2.4862    0.0000 C   0  0  0  0  0  0           0  0  0
    7.0778   -1.6569    0.0000 C   0  0  0  0  0  0           0  0  0
    6.3630   -1.2494    0.0000 N   0  0  0  0  0  0           0  0  0
    7.7902   -1.2408    0.0000 O   0  0  0  0  0  0           0  0  0
    7.7974   -2.8966    0.0000 C   0  0  0  0  0  0           0  0  0
    8.5083   -3.3083    0.0000 N   0  0  0  0  0  0           0  0  0
    6.3679   -3.7249    0.0000 C   0  0  0  0  0  0           0  0  0
    5.6544   -4.1332    0.0000 C   0  0  0  0  0  0           0  0  0
    5.6550   -4.9575    0.0000 C   0  0  0  0  0  0           0  0  0
    6.3704   -5.3700    0.0000 C   0  0  0  0  0  0           0  0  0
    7.0868   -4.9523    0.0000 C   0  0  0  0  0  0           0  0  0
    7.0827   -4.1294    0.0000 C   0  0  0  0  0  0           0  0  0
    4.9406   -3.7196    0.0000 Cl  0  0  0  0  0  0           0  0  0
    7.8032   -5.3615    0.0000 C   0  0  3  0  0  0           0  0  0
    8.5125   -5.7708    0.0000 F   0  0  0  0  0  0           0  0  0
    8.2139   -4.6460    0.0000 F   0  0  0  0  0  0           0  0  0
    7.3977   -6.0800    0.0000 F   0  0  0  0  0  0           0  0  0
    6.3589    2.0516    0.0000 C   0  0  0  0  0  0           0  0  0
    7.0700    2.4627    0.0000 C   0  0  0  0  0  0           0  0  0
    7.0718    3.2881    0.0000 C   0  0  0  0  0  0           0  0  0
    6.3562    3.7007    0.0000 C   0  0  0  0  0  0           0  0  0
    5.6389    3.2879    0.0000 C   0  0  0  0  0  0           0  0  0
 18 19  1  0     0  0
 19 14  1  0     0  0
  4  5  1  0     0  0
 18 20  2  0     0  0
  9 10  1  0     0  0
 17 21  1  0     0  0
  2  3  1  0     0  0
 21 22  3  0     0  0
 10 11  1  0     0  0
 16 23  1  0     0  0
  5  6  2  0     0  0
 23 24  2  0     0  0
 10 12  2  0     0  0
 24 25  1  0     0  0
  6  1  1  0     0  0
 25 26  2  0     0  0
  5 13  1  0     0  0
 26 27  1  0     0  0
  1  2  2  0     0  0
 27 28  2  0     0  0
 28 23  1  0     0  0
  4 14  1  0     0  0
 24 29  1  0     0  0
  2  7  1  0     0  0
 27 30  1  0     0  0
 14 15  2  0     0  0
 30 31  1  0     0  0
  3  4  2  0     0  0
 30 32  1  0     0  0
 15 16  1  0     0  0
 30 33  1  0     0  0
 11 34  1  0     0  0
  6  8  1  0     0  0
 16 17  2  0     0  0
 17 18  1  0     0  0
  8  9  1  0     0  0
 11 38  1  0     0  0
 34 35  1  0     0  0
 35 36  1  0     0  0
 36 37  1  0     0  0
 37 38  1  0     0  0
M  END