
          11280714492D 1   1.00000     0.00000     0

 15 15  0     0  0            999 V2000
    4.4292   -7.5667    0.0000 C   0  0  3  0  0  0           0  0  0
    3.8292   -7.5667    0.0000 C   0  0  0  0  0  0           0  0  0
    4.1292   -8.0875    0.0000 C   0  0  0  0  0  0           0  0  0
    7.0292   -6.6667    0.0000 N   0  0  0  0  0  0           0  0  0
    4.9500   -6.6667    0.0000 O   0  0  0  0  0  0           0  0  0
    7.5500   -6.3667    0.0000 C   0  0  3  0  0  0           0  0  0
    4.9542   -7.2667    0.0000 C   0  0  3  0  0  0           0  0  0
    5.9875   -6.6667    0.0000 C   0  0  3  0  0  0           0  0  0
    5.4667   -6.3667    0.0000 C   0  0  0  0  0  0           0  0  0
    6.5042   -6.3667    0.0000 C   0  0  0  0  0  0           0  0  0
    5.9875   -7.2667    0.0000 O   0  0  0  0  0  0           0  0  0
    7.5500   -5.7667    0.0000 C   0  0  0  0  0  0           0  0  0
    8.0625   -6.0667    0.0000 C   0  0  0  0  0  0           0  0  0
    8.0667   -6.6667    0.0000 C   0  0  0  0  0  0           0  0  0
    5.4667   -7.5667    0.0000 C   0  0  0  0  0  0           0  0  0
  2  1  1  0     0  0
  3  1  1  0     0  0
  4 10  1  0     0  0
  5  7  1  0     0  0
  6  4  1  0     0  0
  7  1  1  0     0  0
  8  9  1  0     0  0
  9  5  1  0     0  0
 10  8  1  0     0  0
 11  8  1  0     0  0
 12  6  1  0     0  0
 13  6  1  0     0  0
 14  6  1  0     0  0
 15  7  1  0     0  0
  2  3  1  0     0  0
M  END