
  CDK    9/16/09,10:7

 16 18  0  0  0  0  0  0  0  0999 V2000
   -4.5082  -15.0598    0.0000 C   0  0  0  0  0  0  0  0  0  0  0  0
   -4.5094  -15.8826    0.0000 C   0  0  0  0  0  0  0  0  0  0  0  0
   -3.8006  -16.2930    0.0000 C   0  0  0  0  0  0  0  0  0  0  0  0
   -3.8026  -14.6494    0.0000 C   0  0  0  0  0  0  0  0  0  0  0  0
   -3.0886  -15.0558    0.0000 C   0  0  0  0  0  0  0  0  0  0  0  0
   -3.0834  -15.8825    0.0000 C   0  0  0  0  0  0  0  0  0  0  0  0
   -2.3039  -14.7956    0.0000 C   0  0  0  0  0  0  0  0  0  0  0  0
   -1.8136  -15.4612    0.0000 C   0  0  0  0  0  0  0  0  0  0  0  0
   -2.2984  -16.1311    0.0000 C   0  0  0  0  0  0  0  0  0  0  0  0
   -1.9605  -16.8837    0.0000 C   0  0  0  0  0  0  0  0  0  0  0  0
   -1.1382  -16.9677    0.0000 C   0  0  0  0  0  0  0  0  0  0  0  0
   -0.6548  -16.2929    0.0000 C   0  0  0  0  0  0  0  0  0  0  0  0
   -0.9954  -15.5430    0.0000 C   0  0  0  0  0  0  0  0  0  0  0  0
   -2.0552  -14.0139    0.0000 O   0  0  0  0  0  0  0  0  0  0  0  0
    0.1614  -16.3729    0.0000 O   0  0  0  0  0  0  0  0  0  0  0  0
   -5.2188  -14.6502    0.0000 O   0  0  0  0  0  0  0  0  0  0  0  0
  7  5  1  0  0  0  0 
  1  2  2  0  0  0  0 
  5  4  2  0  0  0  0 
  8  9  2  0  0  0  0 
  4  1  1  0  0  0  0 
  9 10  1  0  0  0  0 
  5  6  1  0  0  0  0 
 10 11  2  0  0  0  0 
 11 12  1  0  0  0  0 
  2  3  1  0  0  0  0 
 12 13  2  0  0  0  0 
 13  8  1  0  0  0  0 
  3  6  2  0  0  0  0 
  7 14  2  0  0  0  0 
  6  9  1  0  0  0  0 
 12 15  1  0  0  0  0 
  8  7  1  0  0  0  0 
  1 16  1  0  0  0  0 
M  END