
  CDK    9/16/09,9:54

 37 41  0  0  0  0  0  0  0  0999 V2000
    1.2415  -12.7495    0.0000 C   0  0  0  0  0  0  0  0  0  0  0  0
    1.9580  -12.3361    0.0000 C   0  0  0  0  0  0  0  0  0  0  0  0
    1.9552  -11.5056    0.0000 C   0  0  0  0  0  0  0  0  0  0  0  0
    1.2397  -11.0964    0.0000 C   0  0  0  0  0  0  0  0  0  0  0  0
    0.5266  -12.3366    0.0000 C   0  0  0  0  0  0  0  0  0  0  0  0
    0.5232  -11.5123    0.0000 C   0  0  0  0  0  0  0  0  0  0  0  0
   -0.2618  -11.2607    0.0000 N   0  0  0  0  0  0  0  0  0  0  0  0
   -0.7437  -11.9295    0.0000 C   0  0  0  0  0  0  0  0  0  0  0  0
   -0.2564  -12.5945    0.0000 C   0  0  0  0  0  0  0  0  0  0  0  0
   -1.5687  -11.9329    0.0000 O   0  0  0  0  0  0  0  0  0  0  0  0
   -0.5081  -13.3801    0.0000 C   0  0  0  0  0  0  0  0  0  0  0  0
   -1.3145  -13.5549    0.0000 N   0  0  0  0  0  0  0  0  0  0  0  0
    0.0453  -13.9881    0.0000 C   0  0  0  0  0  0  0  0  0  0  0  0
   -0.2081  -14.7744    0.0000 C   0  0  0  0  0  0  0  0  0  0  0  0
    0.3456  -15.3850    0.0000 C   0  0  0  0  0  0  0  0  0  0  0  0
    1.1530  -15.2104    0.0000 C   0  0  0  0  0  0  0  0  0  0  0  0
    1.4035  -14.4198    0.0000 C   0  0  0  0  0  0  0  0  0  0  0  0
    0.8481  -13.8127    0.0000 C   0  0  0  0  0  0  0  0  0  0  0  0
   -1.5662  -14.3407    0.0000 C   0  0  0  0  0  0  0  0  0  0  0  0
   -2.3723  -14.5120    0.0000 C   0  0  0  0  0  0  0  0  0  0  0  0
   -2.6242  -15.2969    0.0000 C   0  0  0  0  0  0  0  0  0  0  0  0
   -2.0694  -15.9088    0.0000 C   0  0  0  0  0  0  0  0  0  0  0  0
   -1.2594  -15.7305    0.0000 C   0  0  0  0  0  0  0  0  0  0  0  0
   -1.0113  -14.9459    0.0000 C   0  0  0  0  0  0  0  0  0  0  0  0
   -2.3201  -16.6948    0.0000 C   0  0  0  0  0  0  0  0  0  0  0  0
   -3.1261  -16.8707    0.0000 N   0  0  0  0  0  0  0  0  0  0  0  0
   -3.6761  -16.2584    0.0000 C   0  0  0  0  0  0  0  0  0  0  0  0
   -4.4790  -16.4316    0.0000 C   0  0  0  0  0  0  0  0  0  0  0  0
   -4.7340  -17.2166    0.0000 C   0  0  0  0  0  0  0  0  0  0  0  0
   -4.1794  -17.8289    0.0000 C   0  0  0  0  0  0  0  0  0  0  0  0
   -3.3700  -17.6560    0.0000 C   0  0  0  0  0  0  0  0  0  0  0  0
    2.6732  -12.7476    0.0000 N   0  0  0  0  0  0  0  0  0  0  0  0
    3.3861  -12.3346    0.0000 S   0  0  0  0  0  0  0  0  0  0  0  0
    4.0908  -11.8996    0.0000 C   0  0  0  0  0  0  0  0  0  0  0  0
    4.8172  -12.2909    0.0000 C   0  0  0  0  0  0  0  0  0  0  0  0
    3.7210  -13.0886    0.0000 O   0  0  0  0  0  0  0  0  0  0  0  0
    3.0471  -11.5824    0.0000 O   0  0  0  0  0  0  0  0  0  0  0  0
 18 13  1  0  0  0  0 
 11 13  1  0  0  0  0 
  8  9  1  0  0  0  0 
 12 19  1  0  0  0  0 
  9  5  1  0  0  0  0 
 19 20  2  0  0  0  0 
  4  6  1  0  0  0  0 
 20 21  1  0  0  0  0 
  8 10  2  0  0  0  0 
 21 22  2  0  0  0  0 
  5  6  2  0  0  0  0 
 22 23  1  0  0  0  0 
  9 11  2  0  0  0  0 
 23 24  2  0  0  0  0 
 24 19  1  0  0  0  0 
  1  2  2  0  0  0  0 
 22 25  1  0  0  0  0 
 11 12  1  0  0  0  0 
 25 26  1  0  0  0  0 
 26 27  1  0  0  0  0 
  5  1  1  0  0  0  0 
  2  3  1  0  0  0  0 
 13 14  2  0  0  0  0 
 14 15  1  0  0  0  0 
 26 31  1  0  0  0  0 
 27 28  1  0  0  0  0 
 28 29  1  0  0  0  0 
 29 30  1  0  0  0  0 
 30 31  1  0  0  0  0 
  3  4  2  0  0  0  0 
  2 32  1  0  0  0  0 
 15 16  2  0  0  0  0 
 32 33  1  0  0  0  0 
  6  7  1  0  0  0  0 
 33 34  1  0  0  0  0 
 16 17  1  0  0  0  0 
 34 35  1  0  0  0  0 
  7  8  1  0  0  0  0 
 33 36  2  0  0  0  0 
 17 18  2  0  0  0  0 
 33 37  2  0  0  0  0 
M  END