
          11280714522D 1   1.00000     0.00000     0

 52 56  0     0  0            999 V2000
    1.2542   -6.2042    0.0000 N   0  0  3  0  0  0           0  0  0
    2.0667   -7.8917    0.0000 N   0  0  0  0  0  0           0  0  0
    2.4292   -7.1417    0.0000 C   0  0  3  0  0  0           0  0  0
    2.0667   -6.3917    0.0000 C   0  0  0  0  0  0           0  0  0
    1.2542   -8.0792    0.0000 C   0  0  0  0  0  0           0  0  0
    9.6542   -2.9417    0.0000 C   0  0  0  0  0  0           0  0  0
    0.6042   -7.5667    0.0000 C   0  0  0  0  0  0           0  0  0
    0.6042   -6.7292    0.0000 C   0  0  0  0  0  0           0  0  0
    3.2542   -7.1417    0.0000 N   0  0  0  0  0  0           0  0  0
   10.4667   -2.7792    0.0000 N   0  0  0  0  0  0           0  0  0
    9.3042   -3.6917    0.0000 N   0  0  0  0  0  0           0  0  0
    3.6667   -7.8542    0.0000 C   0  0  0  0  0  0           0  0  0
   10.7292   -1.9917    0.0000 C   0  0  0  0  0  0           0  0  0
    9.0417   -2.3917    0.0000 S   0  0  0  0  0  0           0  0  0
    8.4917   -3.6042    0.0000 C   0  0  0  0  0  0           0  0  0
    1.0667   -5.4042    0.0000 C   0  0  0  0  0  0           0  0  0
    8.3167   -2.7917    0.0000 C   0  0  0  0  0  0           0  0  0
    4.4917   -7.8542    0.0000 N   0  0  0  0  0  0           0  0  0
    1.6667   -4.8417    0.0000 C   0  0  0  0  0  0           0  0  0
    2.5792   -5.7417    0.0000 O   0  0  0  0  0  0           0  0  0
    4.2042   -3.5167    0.0000 C   0  0  0  0  0  0           0  0  0
    1.0667   -8.8917    0.0000 C   0  0  0  0  0  0           0  0  0
    3.2542   -8.5667    0.0000 O   0  0  0  0  0  0           0  0  0
    4.9042   -8.5667    0.0000 C   0  0  0  0  0  0           0  0  0
    2.4542   -5.0792    0.0000 O   0  0  0  0  0  0           0  0  0
    4.2542   -4.3417    0.0000 O   0  0  0  0  0  0           0  0  0
   11.5292   -1.8292    0.0000 N   0  0  0  0  0  0           0  0  0
   10.1792   -1.3792    0.0000 N   0  0  0  0  0  0           0  0  0
    1.4792   -4.0417    0.0000 N   0  0  0  0  0  0           0  0  0
    4.8917   -3.0667    0.0000 N   0  0  0  0  0  0           0  0  0
    4.4917   -9.2792    0.0000 C   0  0  0  0  0  0           0  0  0
   -0.1208   -7.9792    0.0000 C   0  0  0  0  0  0           0  0  0
    7.0542   -3.5167    0.0000 S   0  0  0  0  0  0           0  0  0
    7.7542   -3.9667    0.0000 C   0  0  0  0  0  0           0  0  0
   -0.1208   -6.3167    0.0000 C   0  0  0  0  0  0           0  0  0
    4.9042   -9.9917    0.0000 C   0  0  0  0  0  0           0  0  0
    6.1417   -9.2667    0.0000 C   0  0  0  0  0  0           0  0  0
    3.4667   -3.1542    0.0000 C   0  0  0  0  0  0           0  0  0
    5.7292   -8.5542    0.0000 C   0  0  0  0  0  0           0  0  0
    1.6792   -9.4417    0.0000 C   0  0  0  0  0  0           0  0  0
    0.2792   -9.1292    0.0000 C   0  0  0  0  0  0           0  0  0
    5.6292   -3.4292    0.0000 C   0  0  0  0  0  0           0  0  0
    2.0792   -3.4792    0.0000 C   0  0  0  0  0  0           0  0  0
    5.7292   -9.9917    0.0000 C   0  0  0  0  0  0           0  0  0
    6.3667   -3.0667    0.0000 C   0  0  0  0  0  0           0  0  0
    4.4917  -10.7042    0.0000 C   0  0  0  0  0  0           0  0  0
    2.8667   -3.7167    0.0000 C   0  0  0  0  0  0           0  0  0
   -0.8333   -7.5667    0.0000 C   0  0  0  0  0  0           0  0  0
   -0.8333   -6.7292    0.0000 C   0  0  0  0  0  0           0  0  0
    1.4917  -10.2417    0.0000 C   0  0  0  0  0  0           0  0  0
    0.1042   -9.9292    0.0000 C   0  0  0  0  0  0           0  0  0
    0.7042  -10.4917    0.0000 C   0  0  0  0  0  0           0  0  0
  2  3  1  0     0  0
  3  4  1  0     0  0
  4  1  1  0     0  0
  5  7  1  0     0  0
  6 11  2  0     0  0
  7  8  1  0     0  0
  8  1  1  0     0  0
  3  9  1  0     0  0
 10  6  1  0     0  0
 11 15  1  0     0  0
 12  9  1  0     0  0
 13 10  2  0     0  0
 14 17  1  0     0  0
 15 34  1  0     0  0
 16  1  1  0     0  0
 17 15  2  0     0  0
 18 12  1  0     0  0
 19 16  1  0     0  0
 20  4  2  0     0  0
 21 38  1  0     0  0
 22  5  1  0     0  0
 23 12  2  0     0  0
 24 18  1  0     0  0
 25 19  2  0     0  0
 26 21  2  0     0  0
 27 13  1  0     0  0
 28 13  1  0     0  0
 29 19  1  0     0  0
 30 21  1  0     0  0
 31 24  2  0     0  0
 32  7  2  0     0  0
 33 45  1  0     0  0
 34 33  1  0     0  0
 35  8  2  0     0  0
 36 31  1  0     0  0
 37 39  2  0     0  0
 38 47  1  0     0  0
 39 24  1  0     0  0
 40 22  1  0     0  0
 41 22  2  0     0  0
 42 30  1  0     0  0
 43 29  1  0     0  0
 44 37  1  0     0  0
 45 42  1  0     0  0
 46 36  1  0     0  0
 47 43  1  0     0  0
 48 49  2  0     0  0
 49 35  1  0     0  0
 50 40  2  0     0  0
 51 41  1  0     0  0
 52 51  2  0     0  0
  2  5  2  0     0  0
 48 32  1  0     0  0
 52 50  1  0     0  0
 44 36  2  0     0  0
  6 14  1  0     0  0
M  END