
  SciTegic12011114592D

 35 39  0  0  0  0            999 V2000
   17.6091  -22.0096    0.0000 N   0  0
   18.3244  -21.5998    0.0000 C   0  0
   18.3273  -20.7739    0.0000 N   0  0
   17.6089  -20.3594    0.0000 C   0  0
   17.6084  -19.5344    0.0000 N   0  0
   18.3231  -19.1212    0.0000 C   0  0
   19.0375  -22.0148    0.0000 S   0  0
   19.7534  -21.6047    0.0000 C   0  0
   20.4623  -22.0228    0.0000 C   0  0
   21.1778  -21.6133    0.0000 C   0  0
   21.1810  -20.7875    0.0000 C   0  0
   20.4629  -20.3726    0.0000 C   0  0
   19.7504  -20.7844    0.0000 C   0  0
   21.8964  -20.3764    0.0000 N   0  0
   19.1088  -19.3695    0.0000 C   0  0
   19.5880  -18.6977    0.0000 C   0  0
   19.0972  -18.0345    0.0000 N   0  0
   18.3148  -18.2963    0.0000 N   0  0
   20.4130  -18.6905    0.0000 C   0  0
   16.1222  -20.5202    0.0000 C   0  0
   15.6412  -21.1815    0.0000 C   0  0
   16.1214  -21.8432    0.0000 C   0  0
   16.8992  -21.5911    0.0000 N   0  0
   16.8998  -20.7734    0.0000 C   0  0
   22.6101  -20.7904    0.0000 C   0  0
   23.3254  -20.3793    0.0000 C   0  0
   24.0391  -20.7939    0.0000 N   0  0
   22.6084  -21.6154    0.0000 O   0  0
   24.0304  -21.6143    0.0000 C   0  0
   24.8124  -21.8777    0.0000 C   0  0  1  0  0  0
   25.3045  -21.2155    0.0000 C   0  0
   24.8268  -20.5430    0.0000 C   0  0  1  0  0  0
   25.0882  -19.7604    0.0000 C   0  0
   25.8965  -19.5955    0.0000 O   0  0
   25.0588  -22.6652    0.0000 F   0  0
  7  8  1  0
  6 15  1  0
 16 17  1  0
 18  6  2  0
  3  4  2  0
 16 19  1  0
 23 24  1  0
  8  9  2  0
  4 24  1  0
 21 22  2  0
  9 10  1  0
  1  2  2  0
 10 11  2  0
 20 21  1  0
 22 23  1  0
 24 20  2  0
  4  5  1  0
 14 25  1  0
 11 12  1  0
 25 26  1  0
 23  1  1  0
 26 27  1  0
 12 13  2  0
 25 28  2  0
 27 29  1  0
 13  8  1  0
  5  6  1  0
 11 14  1  0
 17 18  1  0
 29 30  1  0
 30 31  1  0
 31 32  1  0
 32 27  1  0
  2  3  1  0
 32 33  1  6
 15 16  2  0
 33 34  1  0
  2  7  1  0
 30 35  1  1
M  END