
          11280714522D 1   1.00000     0.00000     0

 54 58  0     0  0            999 V2000
    3.8667   -1.1875    0.0000 N   0  0  0  0  0  0           0  0  0
    4.2292   -0.4500    0.0000 C   0  0  3  0  0  0           0  0  0
    3.0667    0.4833    0.0000 N   0  0  3  0  0  0           0  0  0
    3.0667   -1.3667    0.0000 C   0  0  0  0  0  0           0  0  0
    3.8667    0.2958    0.0000 C   0  0  0  0  0  0           0  0  0
   13.7667   -5.9292    0.0000 C   0  0  0  0  0  0           0  0  0
    2.4292   -0.8542    0.0000 C   0  0  0  0  0  0           0  0  0
    5.0542   -0.4542    0.0000 N   0  0  0  0  0  0           0  0  0
   14.5917   -6.0292    0.0000 N   0  0  0  0  0  0           0  0  0
    2.4292   -0.0292    0.0000 C   0  0  0  0  0  0           0  0  0
   13.1917   -6.5250    0.0000 N   0  0  0  0  0  0           0  0  0
    5.4625   -1.1750    0.0000 C   0  0  0  0  0  0           0  0  0
   15.0875   -5.3750    0.0000 C   0  0  0  0  0  0           0  0  0
   13.3917   -5.2042    0.0000 S   0  0  0  0  0  0           0  0  0
   12.4542   -6.1542    0.0000 C   0  0  0  0  0  0           0  0  0
    2.9417   -2.1875    0.0000 C   0  0  0  0  0  0           0  0  0
   12.5792   -5.3417    0.0000 C   0  0  0  0  0  0           0  0  0
    6.2875   -1.1792    0.0000 N   0  0  0  0  0  0           0  0  0
    5.5250   -4.2542    0.0000 C   0  0  0  0  0  0           0  0  0
    4.3792    0.9583    0.0000 O   0  0  0  0  0  0           0  0  0
    8.2167   -5.5042    0.0000 C   0  0  0  0  0  0           0  0  0
    5.0417   -1.8875    0.0000 O   0  0  0  0  0  0           0  0  0
    3.5917   -2.7042    0.0000 C   0  0  0  0  0  0           0  0  0
    6.7000   -1.8917    0.0000 C   0  0  0  0  0  0           0  0  0
    6.2917   -3.9542    0.0000 O   0  0  0  0  0  0           0  0  0
    8.3500   -4.6917    0.0000 O   0  0  0  0  0  0           0  0  0
   15.9042   -5.4667    0.0000 N   0  0  0  0  0  0           0  0  0
   14.7542   -4.6167    0.0000 N   0  0  0  0  0  0           0  0  0
    5.3917   -5.0750    0.0000 N   0  0  0  0  0  0           0  0  0
    4.1125   -4.0417    0.0000 O   0  0  0  0  0  0           0  0  0
    8.8625   -6.0250    0.0000 N   0  0  0  0  0  0           0  0  0
    2.8875    1.2958    0.0000 C   0  0  0  0  0  0           0  0  0
    4.8792   -3.7417    0.0000 C   0  0  0  0  0  0           0  0  0
    3.4667   -3.5167    0.0000 C   0  0  0  0  0  0           0  0  0
    7.5292   -1.8917    0.0000 C   0  0  0  0  0  0           0  0  0
    1.7167   -1.2667    0.0000 C   0  0  0  0  0  0           0  0  0
   11.0417   -5.9417    0.0000 S   0  0  0  0  0  0           0  0  0
   11.6792   -6.4542    0.0000 C   0  0  0  0  0  0           0  0  0
    1.7167    0.3833    0.0000 C   0  0  0  0  0  0           0  0  0
    7.9417   -2.6042    0.0000 C   0  0  0  0  0  0           0  0  0
    2.1792   -2.4917    0.0000 C   0  0  0  0  0  0           0  0  0
    2.0542   -3.3042    0.0000 C   0  0  0  0  0  0           0  0  0
    6.7000   -3.3167    0.0000 C   0  0  0  0  0  0           0  0  0
    7.4500   -5.8042    0.0000 C   0  0  0  0  0  0           0  0  0
    6.2875   -2.6042    0.0000 C   0  0  0  0  0  0           0  0  0
    9.6292   -5.7250    0.0000 C   0  0  0  0  0  0           0  0  0
    2.7042   -3.8167    0.0000 C   0  0  0  0  0  0           0  0  0
    6.0375   -5.5917    0.0000 C   0  0  0  0  0  0           0  0  0
    7.5292   -3.3167    0.0000 C   0  0  0  0  0  0           0  0  0
   10.2667   -6.2417    0.0000 C   0  0  0  0  0  0           0  0  0
    8.7667   -2.6000    0.0000 C   0  0  0  0  0  0           0  0  0
    6.8042   -5.2917    0.0000 C   0  0  0  0  0  0           0  0  0
    1.0000   -0.8542    0.0000 C   0  0  0  0  0  0           0  0  0
    1.0000   -0.0292    0.0000 C   0  0  0  0  0  0           0  0  0
  2  1  1  0     0  0
  3  5  1  0     0  0
  4  1  2  0     0  0
  5  2  1  0     0  0
  6 11  2  0     0  0
  7  4  1  0     0  0
  8  2  1  0     0  0
  9  6  1  0     0  0
 10  7  1  0     0  0
 11 15  1  0     0  0
 12  8  1  0     0  0
 13  9  2  0     0  0
 14 17  1  0     0  0
 15 38  1  0     0  0
 16  4  1  0     0  0
 17 15  2  0     0  0
 18 12  1  0     0  0
 19 33  1  0     0  0
 20  5  2  0     0  0
 21 44  1  0     0  0
 22 12  2  0     0  0
 23 16  1  0     0  0
 24 18  1  0     0  0
 25 19  2  0     0  0
 26 21  2  0     0  0
 27 13  1  0     0  0
 28 13  1  0     0  0
 29 19  1  0     0  0
 30 34  1  0     0  0
 31 21  1  0     0  0
 32  3  1  0     0  0
 33 30  1  0     0  0
 34 23  2  0     0  0
 35 24  1  0     0  0
 36  7  2  0     0  0
 37 50  1  0     0  0
 38 37  1  0     0  0
 39 10  2  0     0  0
 40 35  2  0     0  0
 41 16  2  0     0  0
 42 41  1  0     0  0
 43 45  1  0     0  0
 44 52  1  0     0  0
 45 24  2  0     0  0
 46 31  1  0     0  0
 47 42  2  0     0  0
 48 29  1  0     0  0
 49 43  2  0     0  0
 50 46  1  0     0  0
 51 40  1  0     0  0
 52 48  1  0     0  0
 53 36  1  0     0  0
 54 53  2  0     0  0
  3 10  1  0     0  0
 47 34  1  0     0  0
 54 39  1  0     0  0
 40 49  1  0     0  0
  6 14  1  0     0  0
M  END