
  Mrv0541 05211314572D          

 21 21  0  0  0  0            999 V2000
    0.1786    2.9081    0.0000 C   0  0  0  0  0  0  0  0  0  0  0  0
   -0.5359    2.4956    0.0000 C   0  0  0  0  0  0  0  0  0  0  0  0
   -0.5359    1.6706    0.0000 N   0  0  0  0  0  0  0  0  0  0  0  0
    0.1786    1.2581    0.0000 C   0  0  0  0  0  0  0  0  0  0  0  0
    0.8931    1.6706    0.0000 C   0  0  0  0  0  0  0  0  0  0  0  0
    0.8931    2.4956    0.0000 C   0  0  0  0  0  0  0  0  0  0  0  0
    0.1786    0.4331    0.0000 N   0  0  0  0  0  0  0  0  0  0  0  0
   -0.5359    0.0206    0.0000 C   0  0  0  0  0  0  0  0  0  0  0  0
    0.8931    0.0206    0.0000 C   0  0  0  0  0  0  0  0  0  0  0  0
    0.8931   -0.8044    0.0000 C   0  0  0  0  0  0  0  0  0  0  0  0
    1.6076   -1.2169    0.0000 C   0  0  0  0  0  0  0  0  0  0  0  0
    1.6076   -2.0419    0.0000 C   0  0  0  0  0  0  0  0  0  0  0  0
    0.8931   -2.4544    0.0000 C   0  0  0  0  0  0  0  0  0  0  0  0
    0.1786   -2.0419    0.0000 C   0  0  0  0  0  0  0  0  0  0  0  0
    0.1786   -1.2169    0.0000 C   0  0  0  0  0  0  0  0  0  0  0  0
    0.8931   -3.2794    0.0000 Cl  0  0  0  0  0  0  0  0  0  0  0  0
   -1.2503    0.4331    0.0000 C   0  0  0  0  0  0  0  0  0  0  0  0
   -1.9648    0.0206    0.0000 N   0  0  0  0  0  0  0  0  0  0  0  0
   -1.9648   -0.8044    0.0000 C   0  0  0  0  0  0  0  0  0  0  0  0
   -2.6793    0.4331    0.0000 C   0  0  0  0  0  0  0  0  0  0  0  0
    3.8468    0.0000    0.0000 Cl  0  0  0  0  0  0  0  0  0  0  0  0
  4  5  1  0  0  0  0
 10 11  2  0  0  0  0
 11 12  1  0  0  0  0
  5  6  2  0  0  0  0
 12 13  2  0  0  0  0
  6  1  1  0  0  0  0
 13 14  1  0  0  0  0
  2  3  1  0  0  0  0
 14 15  2  0  0  0  0
 15 10  1  0  0  0  0
  4  7  1  0  0  0  0
 13 16  1  0  0  0  0
  8 17  1  0  0  0  0
  7  8  1  0  0  0  0
 17 18  1  0  0  0  0
  3  4  2  0  0  0  0
 18 19  1  0  0  0  0
  7  9  1  0  0  0  0
 18 20  1  0  0  0  0
  1  2  2  0  0  0  0
  9 10  1  0  0  0  0
M  END