
  SciTegic09261414462D

 11 10  0  0  0  0            999 V2000
   27.4668   -7.9000    0.0000 N   0  0
   28.1813   -7.4875    0.0000 C   0  0
   28.8958   -7.9000    0.0000 C   0  0
   29.6102   -7.4875    0.0000 C   0  0
   30.3247   -7.9000    0.0000 O   0  5
   29.6102   -6.6625    0.0000 O   0  0
   26.7524   -7.4875    0.0000 N   0  3
   26.0379   -7.9000    0.0000 C   0  0
   26.7524   -6.6625    0.0000 C   0  0
   26.0335   -7.0709    0.0000 C   0  0
   27.4668   -8.7250    0.0000 C   0  0
  1  2  1  0
  2  3  1  0
  3  4  1  0
  4  5  1  0
  4  6  2  0
  1  7  1  0
  7  8  1  0
  7  9  1  0
  7 10  1  0
  1 11  1  0
M  CHG  2   5  -1   7   1
M  END