
  SciTegic04091415032D

 22 23  0  0  0  0            999 V2000
   24.5311   -3.7770    0.0000 C   0  0
   25.2444   -4.1916    0.0000 C   0  0
   25.9600   -3.7812    0.0000 C   0  0
   26.6733   -4.1959    0.0000 C   0  0
   25.9624   -2.9562    0.0000 C   0  0
   26.6708   -5.0208    0.0000 C   0  0
   27.3841   -5.4354    0.0000 C   0  0
   27.3817   -6.2604    0.0000 C   0  0
   28.0949   -6.6750    0.0000 C   0  0
   26.6660   -6.6708    0.0000 C   0  0
   28.0925   -7.5000    0.0000 C   0  0
   27.3768   -7.9104    0.0000 O   0  0
   28.8057   -7.9145    0.0000 O   0  0
   24.5380   -2.9489    0.0000 C   0  0
   23.8288   -2.5344    0.0000 C   0  0
   23.1107   -2.9412    0.0000 C   0  0
   23.8200   -4.1863    0.0000 C   0  0
   23.1052   -3.7656    0.0000 C   0  0
   22.3856   -4.1742    0.0000 C   0  0
   22.3797   -5.0033    0.0000 C   0  0
   23.0992   -5.4222    0.0000 C   0  0
   23.8159   -5.0112    0.0000 C   0  0
  1  2  2  0
  2  3  1  0
  3  4  2  0
  3  5  1  0
  4  6  1  0
  6  7  2  0
  7  8  1  0
  8  9  2  0
  8 10  1  0
  9 11  1  0
 11 12  1  0
 11 13  2  0
  1 14  1  0
  1 17  1  0
 14 15  1  0
 15 16  1  0
 16 18  1  0
 17 18  2  0
 18 19  1  0
 19 20  2  0
 20 21  1  0
 21 22  2  0
 22 17  1  0
M  END