
          11280715462D 1   1.00000     0.00000     0

 25 27  0     0  0            999 V2000
   -0.5583   -0.4875    0.0000 C   0  0  0  0  0  0           0  0  0
    0.8667   -0.4875    0.0000 C   0  0  0  0  0  0           0  0  0
    0.1542   -0.9000    0.0000 C   0  0  0  0  0  0           0  0  0
   -0.5583    0.3375    0.0000 C   0  0  0  0  0  0           0  0  0
    0.8667    0.3375    0.0000 C   0  0  0  0  0  0           0  0  0
    0.1542    0.7500    0.0000 O   0  0  0  0  0  0           0  0  0
   -1.2708    0.7500    0.0000 C   0  0  0  0  0  0           0  0  0
   -1.2708   -0.9000    0.0000 C   0  0  0  0  0  0           0  0  0
   -1.9875    0.3375    0.0000 C   0  0  0  0  0  0           0  0  0
   -1.9875   -0.4875    0.0000 C   0  0  0  0  0  0           0  0  0
   -1.2708    1.5750    0.0000 C   0  0  3  0  0  0           0  0  0
    0.1542   -1.7250    0.0000 O   0  0  0  0  0  0           0  0  0
    1.5875    0.7500    0.0000 C   0  0  0  0  0  0           0  0  0
   -2.0958    1.5708    0.0000 C   0  0  0  0  0  0           0  0  0
    1.5792   -0.9000    0.0000 O   0  0  0  0  0  0           0  0  0
   -1.2708   -1.7250    0.0000 O   0  0  0  0  0  0           0  0  0
   -2.5208    2.2833    0.0000 C   0  0  0  0  0  0           0  0  0
   -2.7083    0.7500    0.0000 O   0  0  0  0  0  0           0  0  0
   -1.2750    2.4000    0.0000 C   0  0  0  0  0  0           0  0  0
   -0.4458    1.5750    0.0000 C   0  0  0  0  0  0           0  0  0
    2.3042    0.3375    0.0000 C   0  0  0  0  0  0           0  0  0
    1.5875    1.5750    0.0000 C   0  0  0  0  0  0           0  0  0
    2.3000    1.9958    0.0000 C   0  0  0  0  0  0           0  0  0
    3.0167    0.7500    0.0000 C   0  0  0  0  0  0           0  0  0
    3.0167    1.5833    0.0000 C   0  0  0  0  0  0           0  0  0
  2  3  1  0     0  0
  3  1  1  0     0  0
  4  1  1  0     0  0
  5  6  1  0     0  0
  6  4  1  0     0  0
  7  4  2  0     0  0
  8  1  2  0     0  0
  9 10  2  0     0  0
 10  8  1  0     0  0
 11  7  1  0     0  0
 12  3  2  0     0  0
 13  5  1  0     0  0
 14 11  1  0     0  0
 15  2  1  0     0  0
 16  8  1  0     0  0
 17 14  2  0     0  0
 18  9  1  0     0  0
 19 11  1  0     0  0
 20 11  1  0     0  0
 21 13  1  0     0  0
 22 13  2  0     0  0
 23 22  1  0     0  0
 24 21  2  0     0  0
 25 23  2  0     0  0
  9  7  1  0     0  0
  5  2  2  0     0  0
 25 24  1  0     0  0
M  END