
  SciTegic02271515152D

 28 30  0  0  0  0            999 V2000
   14.4563   -2.7157    0.0000 C   0  0
   14.4551   -3.5352    0.0000 C   0  0
   15.1632   -3.9442    0.0000 C   0  0
   15.8728   -3.5347    0.0000 C   0  0
   15.8700   -2.7121    0.0000 C   0  0
   15.1614   -2.3068    0.0000 C   0  0
   13.7485   -2.3073    0.0000 C   0  0
   13.0408   -2.7160    0.0000 N   0  0
   16.5772   -3.9403    0.0000 C   0  0
   16.6639   -4.7529    0.0000 C   0  0
   17.4635   -4.9215    0.0000 N   0  0
   17.8710   -4.2131    0.0000 C   0  0
   17.3232   -3.6068    0.0000 O   0  0
   12.3330   -2.3076    0.0000 C   0  0
   11.6254   -2.7164    0.0000 O   0  0
   12.3328   -1.4904    0.0000 C   0  0  2  0  0  0
   12.9992   -1.0110    0.0000 C   0  0
   12.7465   -0.2338    0.0000 C   0  0  2  0  0  0
   11.9293   -0.2340    0.0000 C   0  0
   11.6771   -1.0113    0.0000 N   0  0
   10.8996   -1.2629    0.0000 C   0  0
   10.2929   -0.7155    0.0000 C   0  0
   10.7288   -2.0621    0.0000 O   0  0
    9.5154   -0.9671    0.0000 C   0  0
   13.2267    0.4311    0.0000 O   0  0
    8.9088   -0.4196    0.0000 C   0  0
    9.3446   -1.7662    0.0000 C   0  0
    8.7208   -1.1763    0.0000 C   0  0
  1  2  2  0
  2  3  1  0
  3  4  2  0
  4  5  1  0
  5  6  2  0
  6  1  1  0
  1  7  1  0
  7  8  1  0
  9 10  2  0
 10 11  1  0
 11 12  2  0
 12 13  1  0
 13  9  1  0
  4  9  1  0
  8 14  1  0
 14 15  2  0
 16 14  1  1
 16 17  1  0
 17 18  1  0
 18 19  1  0
 19 20  1  0
 20 16  1  0
 20 21  1  0
 21 22  1  0
 21 23  2  0
 22 24  1  0
 18 25  1  6
 24 26  1  0
 24 27  1  0
 24 28  1  0
M  END