
  SciTegic01161211222D

 16 16  0  0  0  0            999 V2000
    2.2042   -1.0792    0.0000 C   0  0
    3.0292   -1.0542    0.0000 C   0  0
    5.5542   -2.4042    0.0000 N   0  0
    3.4667   -1.7542    0.0000 C   0  0
    1.8167   -1.8167    0.0000 C   0  0
    4.7292   -2.4292    0.0000 C   0  0
    3.0792   -2.4875    0.0000 C   0  0
    2.2542   -2.5125    0.0000 C   0  0
    4.2917   -1.7292    0.0000 C   0  0
    0.9917   -1.8417    0.0000 O   0  0
    1.7667   -0.3792    0.0000 C   0  0
    5.9875   -3.1042    0.0000 C   0  0
    4.6792   -1.0042    0.0000 O   0  0
    2.1542    0.3458    0.0000 O   0  0
    6.8125   -3.0792    0.0000 C   0  0
    5.6000   -3.8292    0.0000 C   0  0
  2  1  2  0
  3  6  1  0
  4  2  1  0
  5  1  1  0
  6  9  1  0
  7  8  1  0
  8  5  2  0
  9  4  1  0
 10  5  1  0
 11  1  1  0
 12  3  1  0
 13  9  1  0
 14 11  1  0
 15 12  1  0
 16 12  1  0
  7  4  2  0
M  END