
  SciTegic02271514512D

 31 34  0  0  0  0            999 V2000
    5.3358   -2.3416    0.0000 N   0  0
    3.5147   -3.5084    0.0000 C   0  0
    4.3095   -3.3170    0.0000 N   0  0
    4.5411   -2.5330    0.0000 C   0  0
    3.9779   -1.9404    0.0000 C   0  0
    3.1832   -2.1318    0.0000 C   0  0
    2.9516   -2.9158    0.0000 N   0  0
    4.2096   -1.1565    0.0000 F   0  0
    2.5347   -5.3830    0.0000 C   0  0
    2.5127   -4.5658    0.0000 C   0  0
    1.7940   -4.1762    0.0000 C   0  0
    1.0973   -4.6039    0.0000 C   0  0
    1.1193   -5.4210    0.0000 C   0  0
    1.8380   -5.8106    0.0000 N   0  0
    3.3187   -5.6146    0.0000 N   0  0
    3.2831   -4.2924    0.0000 C   0  0
    3.7812   -4.9405    0.0000 C   0  0
    5.8988   -2.9340    0.0000 C   0  0  1  0  0  0
    5.6639   -3.7182    0.0000 C   0  0
    6.2230   -4.3094    0.0000 C   0  0
    7.0188   -4.1221    0.0000 C   0  0
    7.2525   -3.3380    0.0000 C   0  0
    6.6904   -2.7412    0.0000 C   0  0  2  0  0  0
    0.3789   -4.2144    0.0000 Cl  0  0
    6.9227   -1.9578    0.0000 C   0  0
    7.7173   -1.7672    0.0000 O   0  0
    6.3603   -1.3649    0.0000 O   0  0
    7.4785   -2.5259    0.0000 C   0  0
    8.0592   -3.1008    0.0000 C   0  0
    8.8475   -2.8854    0.0000 O   0  0
    9.4282   -3.4604    0.0000 C   0  0
  2  3  1  0
  3  4  2  0
  4  5  1  0
  5  6  2  0
  6  7  1  0
  2  7  2  0
  5  8  1  0
  9 10  1  0
 10 11  2  0
 11 12  1  0
 12 13  2  0
 13 14  1  0
  9 14  2  0
 16 17  2  0
 15 17  1  0
  9 15  1  0
 10 16  1  0
  2 16  1  0
  1  4  1  0
 18  1  1  6
 18 19  1  0
 18 23  1  0
 19 20  1  0
 20 21  1  0
 21 22  1  0
 22 23  1  0
 12 24  1  0
 23 25  1  1
 25 26  1  0
 25 27  2  0
 23 28  1  0
 28 29  1  0
 29 30  1  0
 30 31  1  0
M  END