
  SciTegic04191613082D

187198  0  0  1  0            999 V2000
  -23.4378    0.1054    0.0000 C   0  0
  -24.1992   -1.1871    0.0000 C   0  0
  -23.4606   -2.4926    0.0000 C   0  0
  -21.9520   -2.5109    0.0000 N   0  0
  -21.1906   -1.2185    0.0000 C   0  0  2  0  0  0
  -21.9379    0.0922    0.0000 C   0  0
  -20.1984   -0.0935    0.0000 C   0  0
  -21.0189    0.7822    0.0000 O   0  0
  -19.0113    0.8233    0.0000 N   0  0
  -17.6720    1.4990    0.0000 C   0  0  2  0  0  0
  -16.2291    1.9089    0.0000 C   0  0
  -14.7347    2.0384    0.0000 N   0  0
  -13.2428    1.8827    0.0000 C   0  0  2  0  0  0
  -11.8074    1.4475    0.0000 C   0  0
  -11.4276    2.3725    0.0000 O   0  0
  -10.4802    0.7485    0.0000 N   0  0
   -9.3093   -0.1891    0.0000 C   0  0  2  0  0  0
   -8.3370   -1.3313    0.0000 C   0  0
   -7.5984   -2.6369    0.0000 N   0  0
   -7.1203   -4.0586    0.0000 C   0  0  1  0  0  0
   -6.9199   -5.5452    0.0000 C   0  0
   -5.7208   -5.4986    0.0000 O   0  0
   -7.0044   -7.0428    0.0000 N   0  0
   -7.3708   -8.4973    0.0000 C   0  0  1  0  0  0
   -8.0059   -9.8563    0.0000 C   0  0
   -8.8866  -11.0705    0.0000 N   0  0
   -9.9813  -12.0960    0.0000 C   0  0
  -11.2502  -12.8959    0.0000 C   0  0
  -12.6476  -13.4411    0.0000 C   0  0
  -14.1229  -13.7121    0.0000 C   0  0
  -15.6229  -13.6989    0.0000 C   0  0
  -17.0932  -13.4021    0.0000 N   0  0
  -18.4808  -12.8324    0.0000 C   0  0  1  0  0  0
  -19.7356  -12.0104    0.0000 C   0  0
  -20.3606  -12.7910    0.0000 O   0  0
  -20.8120  -10.9658    0.0000 N   0  0
  -21.6714   -9.7364    0.0000 C   0  0  2  0  0  0
  -22.2825   -8.3665    0.0000 C   0  0
  -23.4199   -8.7490    0.0000 O   0  0
  -22.6233   -6.9057    0.0000 N   0  0
  -22.6816   -5.4069    0.0000 C   0  0  1  0  0  0
  -22.4551   -3.9241    0.0000 C   0  0
  -23.4248   -3.6798    0.0000 O   0  0
  -24.1917   -5.3187    0.0000 C   0  0  1  0  0  0
  -24.8519   -6.3208    0.0000 O   0  0
  -24.7298   -4.2461    0.0000 C   0  0
  -22.6516  -10.8885    0.0000 C   0  0
  -24.1280  -10.6187    0.0000 C   0  0
  -25.1017  -11.7597    0.0000 C   0  0
  -26.5768  -11.4871    0.0000 C   0  0
  -27.0781  -10.0733    0.0000 C   0  0
  -26.1045   -8.9323    0.0000 C   0  0
  -24.6295   -9.2049    0.0000 C   0  0
  -28.2581   -9.8552    0.0000 F   0  0
  -19.1832  -14.1722    0.0000 C   0  0
  -18.3812  -15.4408    0.0000 C   0  0
  -19.0758  -16.7704    0.0000 C   0  0
  -18.2717  -18.0366    0.0000 C   0  0
  -16.7730  -17.9734    0.0000 C   0  0
  -16.0784  -16.6439    0.0000 C   0  0
  -16.8825  -15.3776    0.0000 C   0  0
  -15.7267  -14.6935    0.0000 O   0  0
  -14.7213  -13.8177    0.0000 C   0  0
  -14.1567  -13.5868    0.0000 C   0  0
  -15.6536  -13.4908    0.0000 C   0  0
  -17.1006  -13.0954    0.0000 N   0  0
  -18.4383  -12.4169    0.0000 C   0  0
  -19.6121  -11.4829    0.0000 C   0  0  2  0  0  0
  -20.5738  -10.3318    0.0000 N   0  0
  -21.2842   -9.0107    0.0000 C   0  0
  -21.7140   -7.5736    0.0000 C   0  0  2  0  0  0
  -23.1990   -7.8611    0.0000 C   0  0
  -24.1835   -6.7283    0.0000 C   0  0
  -25.6569   -7.0135    0.0000 C   0  0
  -26.6414   -5.8807    0.0000 N   0  0
  -28.1149   -6.1659    0.0000 C   0  0
  -28.9020   -5.2601    0.0000 N   0  0
  -28.5061   -7.3003    0.0000 N   0  0
  -21.8458   -6.0794    0.0000 N   0  0
  -21.6741   -4.5892    0.0000 C   0  0
  -22.8462   -4.3320    0.0000 O   0  0
  -21.2059   -3.1642    0.0000 C   0  0  2  0  0  0
  -22.2961   -2.1157    0.0000 C   0  0
  -23.7934   -2.0132    0.0000 C   0  0
  -24.4542   -0.6656    0.0000 C   0  0
  -25.9515   -0.5631    0.0000 N   0  0
  -26.6122    0.7845    0.0000 C   0  0
  -27.8094    0.8665    0.0000 N   0  0
  -25.9429    1.7805    0.0000 N   0  0
  -20.4605   -1.8625    0.0000 N   0  0
  -19.4683   -0.7375    0.0000 C   0  0
  -18.2699    0.1647    0.0000 C   0  0  1  0  0  0
  -16.9145    0.8072    0.0000 N   0  0
  -15.4575    1.1637    0.0000 C   0  0
  -15.6233    2.3522    0.0000 O   0  0
  -13.9585    1.2196    0.0000 C   0  0  2  0  0  0
  -13.8646    2.7293    0.0000 C   0  0
  -15.1148    3.5597    0.0000 C   0  0
  -15.0216    5.0576    0.0000 C   0  0
  -16.2718    5.8880    0.0000 N   0  0
  -16.1786    7.3860    0.0000 C   0  0
  -17.1782    8.0499    0.0000 N   0  0
  -15.1040    7.9200    0.0000 N   0  0
  -12.4790    0.9727    0.0000 N   0  0
  -11.0795    0.4329    0.0000 C   0  0
   -9.8172   -0.3775    0.0000 C   0  0  1  0  0  0
   -8.7440   -1.4254    0.0000 N   0  0
   -7.9036   -2.6679    0.0000 C   0  0
   -7.3306   -4.0541    0.0000 C   0  0  1  0  0  0
   -7.0483   -5.5273    0.0000 N   0  0
   -7.0684   -7.0272    0.0000 C   0  0
   -5.8754   -7.1567    0.0000 O   0  0
   -5.8823   -3.6179    0.0000 C   0  0
   -4.7883   -4.6453    0.0000 C   0  0
   -3.3513   -4.2147    0.0000 C   0  0
   -2.2600   -5.2438    0.0000 C   0  0
   -2.6055   -6.7035    0.0000 C   0  0
   -4.0424   -7.1341    0.0000 C   0  0
   -5.1337   -6.1050    0.0000 C   0  0
   -6.8467   -2.0996    0.0000 O   0  0
   -8.8778    0.8079    0.0000 C   0  0
   -9.4294    2.2037    0.0000 C   0  0
  -10.9103    2.4267    0.0000 C   0  0
  -11.4536    3.8386    0.0000 C   0  0
  -10.5193    5.0083    0.0000 C   0  0
   -9.0389    4.7841    0.0000 C   0  0
   -8.1046    5.9539    0.0000 C   0  0
   -8.6507    7.3478    0.0000 C   0  0
  -10.1311    7.5720    0.0000 C   0  0
  -11.0654    6.4022    0.0000 C   0  0
   -8.4928    3.3902    0.0000 C   0  0
  -10.5366    1.5031    0.0000 O   0  0
  -18.5658    1.6480    0.0000 C   0  0
  -17.4385    2.6389    0.0000 C   0  0
  -18.2178    3.9215    0.0000 C   0  0
  -17.4974    5.2382    0.0000 N   0  0
  -18.2766    6.5209    0.0000 C   0  0
  -17.7006    7.5736    0.0000 N   0  0
  -19.4763    6.4937    0.0000 N   0  0
  -20.1475   -0.0036    0.0000 O   0  0
  -22.3931   -9.4691    0.0000 O   0  0
  -20.9765  -12.1359    0.0000 C   0  0
  -21.0932  -13.6321    0.0000 N   0  0
  -22.4470  -14.2800    0.0000 C   0  0  1  0  0  0
  -22.5637  -15.7763    0.0000 C   0  0
  -23.9175  -16.4242    0.0000 C   0  0
  -24.0342  -17.9205    0.0000 C   0  0
  -25.3880  -18.5684    0.0000 C   0  0
  -25.4813  -19.7648    0.0000 N   0  0
  -23.6864  -13.4337    0.0000 C   0  0
  -23.5956  -12.2372    0.0000 O   0  0
  -24.7683  -13.9530    0.0000 O   0  0
  -21.9661  -11.4572    0.0000 O   0  0
  -15.8183  -14.4772    0.0000 O   0  0
  -12.6711  -13.3795    0.0000 C   0  0
   -9.2478  -13.0457    0.0000 O   0  0
   -5.6478   -3.7121    0.0000 C   0  0
   -5.2142   -2.2752    0.0000 C   0  0
   -3.7546   -1.9294    0.0000 C   0  0
   -3.3242   -0.4925    0.0000 C   0  0
   -4.3534    0.5987    0.0000 C   0  0
   -5.8130    0.2530    0.0000 C   0  0
   -6.2434   -1.1839    0.0000 C   0  0
   -7.3534   -0.6438    0.0000 O   0  0
  -10.2790    0.0552    0.0000 C   0  0
  -12.9464    3.3661    0.0000 C   0  0
  -14.0733    4.3574    0.0000 C   0  0
  -13.7792    5.8291    0.0000 C   0  0
  -14.9061    6.8204    0.0000 N   0  0
  -14.6120    8.2921    0.0000 C   0  0
  -13.4752    8.6765    0.0000 N   0  0
  -15.5130    9.0847    0.0000 N   0  0
  -16.4459    3.0892    0.0000 O   0  0
  -18.2246    2.9072    0.0000 C   0  0
  -19.7085    3.1318    0.0000 C   0  0
  -20.2692    4.5356    0.0000 C   0  0
  -21.7496    4.7582    0.0000 C   0  0
  -22.2968    6.1517    0.0000 C   0  0
  -23.7772    6.3743    0.0000 C   0  0
  -24.7105    5.2034    0.0000 C   0  0
  -24.1633    3.8099    0.0000 C   0  0
  -22.6828    3.5873    0.0000 C   0  0
  -22.1356    2.1939    0.0000 C   0  0
  -20.6409    1.9599    0.0000 C   0  0
  -23.3955   -6.1070    0.0000 H   0  0
   -7.1479   -7.5225    0.0000 H   0  0
  -21.0885   -0.2237    0.0000 H   0  0
  1  2  1  0
  2  3  1  0
  3  4  1  0
  5  4  1  0
  5  6  1  0
  6  1  1  0
  5  7  1  0
  7  8  2  0
  9  7  1  0
 10  9  1  0
 10 11  1  0
 11 12  1  0
 12 13  1  0
 13 14  1  0
 14 15  2  0
 14 16  1  0
 16 17  1  0
 17 18  1  0
 18 19  1  0
 19 20  1  0
 20 21  1  0
 21 22  2  0
 21 23  1  0
 23 24  1  0
 24 25  1  0
 25 26  1  0
 27 26  1  0
 28 27  1  0
 28 29  2  0
 29 30  1  0
 31 30  1  0
 32 31  1  0
 32 33  1  0
 33 34  1  0
 34 35  2  0
 36 34  1  0
 37 36  1  0
 38 37  1  0
 38 39  2  0
 40 38  1  0
 41 40  1  0
 42 41  1  0
  4 42  1  0
 42 43  2  0
 41 44  1  0
 44 45  1  1
 44 46  1  0
 37 47  1  1
 47 48  1  0
 49 48  1  0
 50 49  2  0
 51 50  1  0
 52 51  2  0
 53 52  1  0
 48 53  2  0
 51 54  1  0
 33 55  1  6
 55 56  1  0
 56 57  2  0
 57 58  1  0
 58 59  2  0
 59 60  1  0
 60 61  2  0
 61 56  1  0
 31 62  2  0
 30 63  2  0
 63 64  1  0
 64 65  1  0
 65 66  1  0
 66 67  1  0
 68 67  1  0
 68 69  1  0
 69 70  1  0
 70 71  1  0
 71 72  1  6
 72 73  1  0
 73 74  1  0
 74 75  1  0
 75 76  1  0
 76 77  2  0
 76 78  1  0
 71 79  1  0
 79 80  1  0
 80 81  2  0
 80 82  1  0
 82 83  1  6
 83 84  1  0
 84 85  1  0
 85 86  1  0
 86 87  1  0
 87 88  2  0
 87 89  1  0
 82 90  1  0
 91 90  1  0
 92 91  1  0
 93 92  1  0
 94 93  1  0
 94 95  2  0
 96 94  1  0
 96 97  1  6
 97 98  1  0
 98 99  1  0
 99100  1  0
100101  1  0
101102  2  0
101103  1  0
104 96  1  0
105104  1  0
106105  1  0
107106  1  0
108107  1  0
109108  1  0
110109  1  0
111110  1  0
 24111  1  0
111112  2  0
109113  1  6
113114  1  0
115114  1  0
116115  2  0
117116  1  0
118117  2  0
119118  1  0
114119  2  0
108120  2  0
106121  1  6
121122  1  0
123122  1  0
124123  2  0
125124  1  0
125126  1  0
126127  2  0
127128  1  0
128129  2  0
129130  1  0
130125  2  0
131126  1  0
122131  2  0
105132  2  0
 92133  1  6
133134  1  0
134135  1  0
135136  1  0
136137  1  0
137138  2  0
137139  1  0
 91140  2  0
 70141  2  0
 68142  1  1
142143  1  0
144143  1  1
144145  1  0
145146  1  0
146147  1  0
147148  1  0
148149  1  0
144150  1  0
150151  1  0
150152  2  0
142153  2  0
 65154  2  0
 64155  2  0
155 28  1  0
 27156  2  0
 20157  1  6
157158  1  0
159158  1  0
160159  2  0
161160  1  0
162161  2  0
163162  1  0
158163  2  0
 18164  2  0
 17165  1  1
 13166  1  1
166167  1  0
167168  1  0
168169  1  0
169170  1  0
170171  1  0
170172  2  0
 11173  2  0
 10174  1  1
174175  1  0
175176  2  0
176177  1  0
177178  2  0
178179  1  0
179180  2  0
180181  1  0
181182  2  0
182183  1  0
183184  2  0
184175  1  0
182177  1  0
 41185  1  1
 24186  1  6
  5187  1  1
M  END