
  SciTegic02011310442D

 37 41  0  0  0  0            999 V2000
    3.1247  -20.5530    0.0000 N   0  0
    3.8412  -20.1396    0.0000 C   0  0
    3.8384  -19.3092    0.0000 N   0  0
    3.1230  -18.9000    0.0000 C   0  0
    2.4099  -20.1401    0.0000 N   0  0
    2.4112  -19.3112    0.0000 C   0  0
    1.6232  -19.0538    0.0000 C   0  0
    1.1349  -19.7238    0.0000 C   0  0
    1.6212  -20.3950    0.0000 C   0  0
    4.5564  -20.5510    0.0000 S   0  0
    5.2702  -20.1374    0.0000 C   0  0
    3.1212  -18.0750    0.0000 N   0  0
    3.8348  -17.6609    0.0000 C   0  0
    5.9819  -20.5492    0.0000 C   0  0
    6.6953  -20.1363    0.0000 C   0  0
    6.6945  -19.3104    0.0000 C   0  0
    5.9743  -18.8992    0.0000 C   0  0
    5.2639  -19.3145    0.0000 C   0  0
    4.5869  -17.9961    0.0000 C   0  0
    5.1376  -17.3818    0.0000 C   0  0
    4.7235  -16.6681    0.0000 N   0  0
    3.9169  -16.8416    0.0000 N   0  0
    5.9583  -17.4662    0.0000 C   0  0
    7.4077  -18.8958    0.0000 N   0  0
    8.1234  -19.3062    0.0000 C   0  0
    8.8367  -18.8917    0.0000 C   0  0
    9.5524  -19.3021    0.0000 N   0  0
    8.1258  -20.1312    0.0000 O   0  0
    9.6382  -20.1201    0.0000 C   0  0
   10.4456  -20.2893    0.0000 C   0  0  1  0  0  0
   10.8561  -19.5737    0.0000 C   0  0
   10.3022  -18.9623    0.0000 C   0  0
   10.7834  -21.0421    0.0000 O   0  0
   11.6041  -21.1259    0.0000 C   0  0
   12.0871  -20.4570    0.0000 C   0  0
   12.9079  -20.5409    0.0000 O   0  0
   13.3908  -19.8721    0.0000 C   0  0
  5  1  1  0
  1  2  2  0
  2  3  1  0
  3  4  2  0
  4  6  1  0
  5  6  1  0
  6  7  2  0
  7  8  1  0
  8  9  2  0
  9  5  1  0
  2 10  1  0
 10 11  1  0
  4 12  1  0
 12 13  1  0
 11 14  2  0
 14 15  1  0
 15 16  2  0
 16 17  1  0
 17 18  2  0
 18 11  1  0
 13 19  1  0
 19 20  2  0
 20 21  1  0
 21 22  1  0
 22 13  2  0
 20 23  1  0
 16 24  1  0
 24 25  1  0
 25 26  1  0
 26 27  1  0
 25 28  2  0
 27 29  1  0
 29 30  1  0
 30 31  1  0
 31 32  1  0
 32 27  1  0
 30 33  1  1
 33 34  1  0
 34 35  1  0
 35 36  1  0
 36 37  1  0
M  END