
  SciTegic05061409512D

 25 28  0  0  0  0            999 V2000
    4.1520  -10.7803    0.0000 C   0  0
    3.3348  -10.7803    0.0000 C   0  0
    2.9285  -11.4841    0.0000 C   0  0
    3.3348  -12.1924    0.0000 C   0  0
    4.1520  -12.1924    0.0000 C   0  0
    4.5628  -11.4841    0.0000 N   0  0
    2.1129  -11.4793    0.0000 N   0  0
    1.6334  -10.8176    0.0000 C   0  0
    0.8559  -11.0690    0.0000 C   0  0
    0.8548  -11.8863    0.0000 C   0  0
    1.6316  -12.1398    0.0000 C   0  0
    5.3763  -11.4839    0.0000 C   0  0
    5.7853  -12.1927    0.0000 C   0  0
    6.6017  -12.1919    0.0000 C   0  0
    7.0102  -11.4831    0.0000 C   0  0
    6.5962  -10.7736    0.0000 C   0  0
    5.7811  -10.7779    0.0000 C   0  0
    7.8273  -11.4808    0.0000 C   0  0
    8.2340  -10.7720    0.0000 C   0  0
    9.0512  -10.7698    0.0000 C   0  0
    9.4579  -10.0610    0.0000 N   0  0
   10.2673   -9.9704    0.0000 C   0  0
   10.4351   -9.1706    0.0000 C   0  0
    9.7262   -8.7639    0.0000 C   0  0
    9.1205   -9.3125    0.0000 C   0  0
  1  2  1  0
  1  6  1  0
  2  3  1  0
  3  4  1  0
  4  5  1  0
  5  6  1  0
  7  8  1  0
  8  9  1  0
  9 10  1  0
 10 11  1  0
 11  7  1  0
  3  7  1  0
 12 13  2  0
 13 14  1  0
 14 15  2  0
 15 16  1  0
 16 17  2  0
 17 12  1  0
  6 12  1  0
 15 18  1  0
 18 19  1  0
 19 20  1  0
 20 21  1  0
 21 22  1  0
 22 23  1  0
 23 24  1  0
 24 25  1  0
 25 21  1  0
M  END