
  SciTegic01161211212D

 19 21  0  0  0  0            999 V2000
    2.3636  -13.1276    0.0000 C   0  0
    2.3624  -13.9515    0.0000 C   0  0
    3.0741  -14.3625    0.0000 C   0  0
    3.0724  -12.7165    0.0000 C   0  0
    3.7847  -13.1240    0.0000 C   0  0
    3.7881  -13.9535    0.0000 C   0  0
    4.5043  -14.3630    0.0000 C   0  0
    5.2216  -13.9476    0.0000 C   0  0
    4.4975  -12.7040    0.0000 C   0  0  2  0  0  0
    5.2187  -13.1200    0.0000 C   0  0  2  0  0  0
    5.8373  -12.5627    0.0000 N   0  0
    5.4984  -11.8020    0.0000 C   0  0
    4.6704  -11.8894    0.0000 C   0  0
    6.6594  -12.5562    0.0000 C   0  0
    7.0654  -11.8419    0.0000 C   0  0
    3.7798  -12.2895    0.0000 H   0  0
    6.0078  -13.3309    0.0000 H   0  0
    7.8874  -11.8386    0.0000 C   0  0
    3.0728  -15.1840    0.0000 O   0  0
  9 10  1  0
  5  4  2  0
  4  1  1  0
  5  6  1  0
  2  3  1  0
 10 11  1  0
 11 12  1  0
 12 13  1  0
 13  9  1  0
  3  6  2  0
 11 14  1  0
  1  2  2  0
 14 15  1  0
  5  9  1  0
  9 16  1  6
  6  7  1  0
 10 17  1  1
  7  8  1  0
 15 18  2  0
  8 10  1  0
  3 19  1  0
M  END