
          11280715012D 1   1.00000     0.00000     0

 27 29  0     0  0            999 V2000
    7.9167   -3.0167    0.0000 N   0  0  0  0  0  0           0  0  0
    4.2417   -1.7667    0.0000 C   0  0  0  0  0  0           0  0  0
    1.3750   -1.7667    0.0000 C   0  0  3  0  0  0           0  0  0
    9.1417   -2.4667    0.0000 N   0  0  0  0  0  0           0  0  0
    8.7292   -3.1875    0.0000 C   0  0  0  0  0  0           0  0  0
    7.8292   -2.1875    0.0000 C   0  0  0  0  0  0           0  0  0
    4.2417   -0.9417    0.0000 N   0  0  0  0  0  0           0  0  0
    0.6542   -2.1875    0.0000 C   0  0  0  0  0  0           0  0  0
    1.3750   -0.9417    0.0000 C   0  0  0  0  0  0           0  0  0
    0.6542   -3.0042    0.0000 N   0  0  0  0  0  0           0  0  0
    2.0917   -0.5292    0.0000 N   0  0  0  0  0  0           0  0  0
    8.5917   -1.8500    0.0000 C   0  0  0  0  0  0           0  0  0
    3.5250   -2.1875    0.0000 N   0  0  0  0  0  0           0  0  0
    4.9625   -2.1875    0.0000 N   0  0  0  0  0  0           0  0  0
    2.8042   -1.7667    0.0000 C   0  0  0  0  0  0           0  0  0
    2.0917   -2.1875    0.0000 C   0  0  0  0  0  0           0  0  0
    7.1125   -1.7667    0.0000 C   0  0  0  0  0  0           0  0  0
   -0.0583   -3.4250    0.0000 C   0  0  0  0  0  0           0  0  0
    2.0917    0.3000    0.0000 C   0  0  0  0  0  0           0  0  0
   -0.0625   -1.7667    0.0000 C   0  0  0  0  0  0           0  0  0
    0.6542   -0.5250    0.0000 C   0  0  0  0  0  0           0  0  0
    5.6792   -1.7667    0.0000 C   0  0  0  0  0  0           0  0  0
    6.4000   -2.1875    0.0000 C   0  0  0  0  0  0           0  0  0
    1.3792    0.7208    0.0000 C   0  0  0  0  0  0           0  0  0
   -0.7833   -3.0125    0.0000 C   0  0  0  0  0  0           0  0  0
    0.6542    0.3083    0.0000 C   0  0  0  0  0  0           0  0  0
   -0.7833   -2.1792    0.0000 C   0  0  0  0  0  0           0  0  0
  2 14  1  0     0  0
  3 16  1  0     0  0
  4  5  1  0     0  0
  5  1  2  0     0  0
  6  1  1  0     0  0
  7  2  2  0     0  0
  8  3  1  0     0  0
  9  3  1  0     0  0
 10  8  1  0     0  0
 11  9  2  0     0  0
 12  6  2  0     0  0
 13  2  1  0     0  0
 14 22  1  0     0  0
 15 13  1  0     0  0
 16 15  1  0     0  0
 17  6  1  0     0  0
 18 10  2  0     0  0
 19 11  1  0     0  0
 20  8  2  0     0  0
 21  9  1  0     0  0
 22 23  1  0     0  0
 23 17  1  0     0  0
 24 26  1  0     0  0
 25 27  2  0     0  0
 26 21  2  0     0  0
 27 20  1  0     0  0
  4 12  1  0     0  0
 24 19  2  0     0  0
 25 18  1  0     0  0
M  END