
  SciTegic03291108522D

 24 27  0  0  0  0            999 V2000
   -0.7901   -1.9999    0.0000 S   0  0
    0.7090    0.3175    0.0000 S   0  0
    0.7090   -2.1575    0.0000 N   0  0
    1.4235   -0.9200    0.0000 N   0  0
    1.5097    1.5505    0.0000 N   0  0
    2.1771    0.3944    0.0000 N   0  0
    2.3167    1.7220    0.0000 N   0  0
    2.7292    1.0075    0.0000 N   0  0
   -2.9561   -0.9351    0.0000 N   0  0
   -0.0055   -0.9200    0.0000 C   0  0
   -0.7901   -0.6651    0.0000 C   0  0
   -0.0055   -1.7450    0.0000 C   0  0
    0.7090   -0.5075    0.0000 C   0  0
   -1.0451    0.1196    0.0000 C   0  0
   -1.2750   -1.3325    0.0000 C   0  0
    1.4235    0.7300    0.0000 C   0  0
   -1.8520    0.2911    0.0000 C   0  0
    1.4235   -1.7450    0.0000 C   0  0
   -0.4930    0.7327    0.0000 C   0  0
   -2.1070    1.0757    0.0000 C   0  0
   -2.4041   -0.3220    0.0000 C   0  0
   -0.7480    1.5173    0.0000 C   0  0
   -1.5549    1.6888    0.0000 C   0  0
    0.8966    2.1025    0.0000 C   0  0
  1 12  1  0
  1 15  1  0
  2 13  1  0
  2 16  1  0
  3 12  2  0
  3 18  1  0
  4 13  1  0
  4 18  2  0
  5  7  1  0
  5 16  1  0
  5 24  1  0
  6  8  1  0
  6 16  2  0
  7  8  2  0
  9 21  3  0
 10 11  1  0
 10 12  1  0
 10 13  2  0
 11 14  1  0
 11 15  2  0
 14 17  2  0
 14 19  1  0
 17 20  1  0
 17 21  1  0
 19 22  2  0
 20 23  2  0
 22 23  1  0
M  END