
          11280715292D 1   1.00000     0.00000     0

 19 21  0     0  0            999 V2000
    6.6792   -6.0000    0.0000 C   0  0  0  0  0  0           0  0  0
    6.6667   -5.4000    0.0000 C   0  0  0  0  0  0           0  0  0
    6.1667   -6.3042    0.0000 C   0  0  0  0  0  0           0  0  0
    5.6292   -5.4042    0.0000 C   0  0  0  0  0  0           0  0  0
    5.6417   -6.0125    0.0000 C   0  0  0  0  0  0           0  0  0
    6.1542   -5.1000    0.0000 C   0  0  0  0  0  0           0  0  0
    7.1917   -6.3000    0.0000 O   0  0  0  0  0  0           0  0  0
    7.1917   -5.0917    0.0000 C   0  0  0  0  0  0           0  0  0
    7.7167   -6.0000    0.0000 C   0  0  0  0  0  0           0  0  0
    7.7167   -5.3917    0.0000 C   0  0  0  0  0  0           0  0  0
    5.0667   -6.2000    0.0000 O   0  0  0  0  0  0           0  0  0
    5.0542   -5.2250    0.0000 C   0  0  0  0  0  0           0  0  0
    4.7042   -5.7125    0.0000 C   0  0  0  0  0  0           0  0  0
    8.2417   -6.3000    0.0000 O   0  0  0  0  0  0           0  0  0
    6.1542   -4.4917    0.0000 O   0  0  0  0  0  0           0  0  0
    6.1667   -6.9125    0.0000 C   0  0  0  0  0  0           0  0  0
    5.6542   -7.2167    0.0000 O   0  0  0  0  0  0           0  0  0
    5.6292   -4.1875    0.0000 C   0  0  0  0  0  0           0  0  0
    5.6542   -7.8167    0.0000 C   0  0  0  0  0  0           0  0  0
  2  1  2  0     0  0
  3  1  1  0     0  0
  4  5  1  0     0  0
  5  3  2  0     0  0
  6  2  1  0     0  0
  7  1  1  0     0  0
  8  2  1  0     0  0
  9  7  1  0     0  0
 10  9  1  0     0  0
 11  5  1  0     0  0
 12  4  1  0     0  0
 13 11  1  0     0  0
 14  9  2  0     0  0
 15  6  1  0     0  0
 16  3  1  0     0  0
 17 16  1  0     0  0
 18 15  1  0     0  0
 19 17  1  0     0  0
  6  4  2  0     0  0
 10  8  2  0     0  0
 12 13  2  0     0  0
M  END