
  SciTegic12171312552D

 43 48  0  0  0  0            999 V2000
    6.4743  -19.8073    0.0000 C   0  0
    7.4675  -20.4546    0.0000 O   0  0
    6.4709  -18.9820    0.0000 C   0  0
    7.0591  -18.3992    0.0000 N   0  0
    6.6866  -17.6597    0.0000 N   0  0
    5.8676  -17.7857    0.0000 N   0  0
    5.7349  -18.6026    0.0000 C   0  0
    5.4539  -17.0720    0.0000 C   0  0
    4.6289  -17.0734    0.0000 C   0  0
    4.2194  -16.3571    0.0000 C   0  0
    3.3952  -16.3581    0.0000 C   0  0
    2.9831  -17.0739    0.0000 C   0  0
    3.4013  -17.7900    0.0000 C   0  0
    4.2241  -17.7854    0.0000 C   0  0
    2.1581  -17.0764    0.0000 C   0  0
    1.7435  -16.3632    0.0000 C   0  0
    1.7478  -17.7921    0.0000 O   0  0
    2.1576  -15.6501    0.0000 C   0  0
    1.7436  -14.9374    0.0000 C   0  0
    0.9177  -14.9394    0.0000 C   0  0
    0.5076  -15.6601    0.0000 C   0  0
    0.9239  -16.3700    0.0000 C   0  0
    8.4672  -19.8073    0.0000 C   0  0
    7.8866  -18.3991    0.0000 N   0  0
    8.4672  -18.9787    0.0000 C   0  0
    9.1980  -18.6055    0.0000 C   0  0
    9.0698  -17.7944    0.0000 N   0  0
    8.2584  -17.6677    0.0000 N   0  0
    9.4696  -17.0728    0.0000 C   0  0
   10.2945  -17.0583    0.0000 C   0  0
   10.7170  -17.7642    0.0000 C   0  0
   11.5411  -17.7501    0.0000 C   0  0
   11.9417  -17.0279    0.0000 C   0  0
   11.5122  -16.3186    0.0000 C   0  0
   10.6896  -16.3362    0.0000 C   0  0
   12.7666  -17.0123    0.0000 C   0  0
   13.1925  -17.7188    0.0000 O   0  0
   13.1655  -16.2901    0.0000 C   0  0
   13.9876  -16.2769    0.0000 C   0  0
   14.3865  -15.5556    0.0000 C   0  0
   13.9605  -14.8481    0.0000 C   0  0
   13.1313  -14.8664    0.0000 C   0  0
   12.7363  -15.5883    0.0000 C   0  0
  1  3  1  0
  1  2  1  0
  3  4  1  0
  4  5  2  0
  5  6  1  0
  6  7  1  0
  7  3  2  0
  6  8  1  0
  8  9  1  0
  9 10  2  0
 10 11  1  0
 11 12  2  0
 12 13  1  0
 13 14  2  0
 14  9  1  0
 12 15  1  0
 15 16  1  0
 15 17  2  0
 16 18  2  0
 18 19  1  0
 19 20  2  0
 20 21  1  0
 21 22  2  0
 22 16  1  0
  2 23  1  0
 23 25  1  0
 24 25  1  0
 25 26  2  0
 26 27  1  0
 27 28  1  0
 28 24  2  0
 27 29  1  0
 29 30  1  0
 30 31  2  0
 31 32  1  0
 32 33  2  0
 33 34  1  0
 34 35  2  0
 35 30  1  0
 33 36  1  0
 36 37  2  0
 36 38  1  0
 38 39  2  0
 39 40  1  0
 40 41  2  0
 41 42  1  0
 42 43  2  0
 43 38  1  0
M  END