
  SciTegic01161211222D

 21 24  0  0  0  0            999 V2000
   -5.1225  -12.7756    0.0000 C   0  0
   -5.1237  -13.6017    0.0000 C   0  0
   -4.4099  -14.0138    0.0000 C   0  0
   -4.4117  -12.3634    0.0000 C   0  0
   -3.6975  -12.7720    0.0000 C   0  0
   -3.6942  -13.5991    0.0000 C   0  0
   -2.9800  -14.0075    0.0000 C   0  0
   -2.9868  -12.3531    0.0000 C   0  0
   -2.2681  -12.7661    0.0000 C   0  0  2  0  0  0
   -2.2622  -13.5951    0.0000 C   0  0  2  0  0  0
   -1.4721  -13.8457    0.0000 C   0  0
   -0.9894  -13.1715    0.0000 C   0  0
   -1.4816  -12.5044    0.0000 N   0  0
   -2.2756  -11.9394    0.0000 H   0  0
   -2.2672  -14.4147    0.0000 H   0  0
   -1.0907  -11.7803    0.0000 C   0  0
   -0.2674  -11.7570    0.0000 C   0  0
   -4.4094  -14.8375    0.0000 O   0  0
   -3.6958  -15.2490    0.0000 C   0  0
    0.4547  -12.1464    0.0000 C   0  0
    0.4314  -11.3230    0.0000 C   0  0
  4  1  1  0
  5  6  1  0
  2  3  1  0
 10 11  1  0
 11 12  1  0
 12 13  1  0
 13  9  1  0
  3  6  2  0
  9 14  1  6
  1  2  2  0
 10 15  1  1
  5  8  1  0
 13 16  1  0
  6  7  1  0
 16 17  1  0
  7 10  1  0
  3 18  1  0
  9  8  1  0
 18 19  1  0
 20 17  1  0
 21 20  1  0
 17 21  1  0
  9 10  1  0
  5  4  2  0
M  END