
  SciTegic02011310442D

 39 44  0  0  0  0            999 V2000
    2.7732   -4.9719    0.0000 N   0  0
    3.4829   -4.5624    0.0000 C   0  0
    3.4801   -3.7398    0.0000 N   0  0
    2.7714   -3.3345    0.0000 C   0  0
    2.0652   -4.5629    0.0000 N   0  0
    2.0664   -3.7418    0.0000 C   0  0
    1.2859   -3.4869    0.0000 C   0  0
    0.8022   -4.1505    0.0000 C   0  0
    1.2839   -4.8154    0.0000 C   0  0
    4.1912   -4.9699    0.0000 S   0  0
    4.8983   -4.5602    0.0000 C   0  0
    2.7696   -2.5173    0.0000 N   0  0
    3.4764   -2.1072    0.0000 C   0  0
    5.6033   -4.9681    0.0000 C   0  0
    6.3099   -4.5591    0.0000 C   0  0
    6.3091   -3.7410    0.0000 C   0  0
    5.5957   -3.3337    0.0000 C   0  0
    4.8921   -3.7451    0.0000 C   0  0
    4.2215   -2.4392    0.0000 C   0  0
    4.7670   -1.8307    0.0000 C   0  0
    4.3568   -1.1238    0.0000 N   0  0
    3.5579   -1.2956    0.0000 N   0  0
    5.5799   -1.9143    0.0000 C   0  0
    7.0156   -3.3304    0.0000 N   0  0
    7.7245   -3.7369    0.0000 C   0  0
    8.4310   -3.3263    0.0000 C   0  0
    9.1399   -3.7328    0.0000 N   0  0
    7.7268   -4.5541    0.0000 O   0  0
    9.2249   -4.5431    0.0000 C   0  0
   10.0247   -4.7107    0.0000 C   0  0  2  0  0  0
   10.4313   -4.0018    0.0000 C   0  0
    9.8826   -3.3962    0.0000 C   0  0
   10.3592   -5.4563    0.0000 C   0  0
    9.8808   -6.1188    0.0000 O   0  0
   11.1722   -5.5393    0.0000 N   0  0
   11.5773   -6.2440    0.0000 C   0  0
   12.3761   -6.0718    0.0000 C   0  0
   12.4592   -5.2588    0.0000 C   0  0
   11.7117   -4.9287    0.0000 C   0  0
  5  1  1  0
  1  2  2  0
  2  3  1  0
  3  4  2  0
  4  6  1  0
  5  6  1  0
  6  7  2  0
  7  8  1  0
  8  9  2  0
  9  5  1  0
  2 10  1  0
 10 11  1  0
  4 12  1  0
 12 13  1  0
 11 14  2  0
 14 15  1  0
 15 16  2  0
 16 17  1  0
 17 18  2  0
 18 11  1  0
 13 19  1  0
 19 20  2  0
 20 21  1  0
 21 22  1  0
 22 13  2  0
 20 23  1  0
 16 24  1  0
 24 25  1  0
 25 26  1  0
 26 27  1  0
 25 28  2  0
 27 29  1  0
 29 30  1  0
 30 31  1  0
 31 32  1  0
 32 27  1  0
 30 33  1  6
 33 34  2  0
 33 35  1  0
 35 36  1  0
 36 37  1  0
 37 38  1  0
 38 39  1  0
 39 35  1  0
M  END