
          11280715072D 1   1.00000     0.00000     0

 24 26  0     0  0            999 V2000
    0.1375   -3.0125    0.0000 N   0  0  0  0  0  0           0  0  0
    0.6917   -2.7667    0.0000 C   0  0  0  0  0  0           0  0  0
    0.6250   -2.1667    0.0000 C   0  0  0  0  0  0           0  0  0
    3.8042   -2.7750    0.0000 C   0  0  0  0  0  0           0  0  0
   -0.2625   -2.5667    0.0000 C   0  0  0  0  0  0           0  0  0
    0.0375   -2.0417    0.0000 C   0  0  0  0  0  0           0  0  0
    3.8042   -2.1792    0.0000 C   0  0  0  0  0  0           0  0  0
    4.3250   -3.0750    0.0000 C   0  0  0  0  0  0           0  0  0
    3.2875   -3.0667    0.0000 O   0  0  0  0  0  0           0  0  0
    1.7292   -2.7667    0.0000 N   0  0  0  0  0  0           0  0  0
    1.2042   -3.0667    0.0000 C   0  0  0  0  0  0           0  0  0
    4.3250   -3.6750    0.0000 O   0  0  0  0  0  0           0  0  0
    3.2875   -1.8792    0.0000 O   0  0  0  0  0  0           0  0  0
    4.8417   -2.1792    0.0000 C   0  0  0  0  0  0           0  0  0
   -0.8583   -2.5667    0.0000 C   0  0  0  0  0  0           0  0  0
   -0.2583   -1.5292    0.0000 C   0  0  0  0  0  0           0  0  0
    4.8417   -2.7792    0.0000 C   0  0  0  0  0  0           0  0  0
    4.3250   -1.8750    0.0000 C   0  0  0  0  0  0           0  0  0
    2.2500   -3.0667    0.0000 C   0  0  0  0  0  0           0  0  0
    2.7667   -2.7667    0.0000 C   0  0  0  0  0  0           0  0  0
    4.8417   -3.9750    0.0000 C   0  0  0  0  0  0           0  0  0
    2.7667   -2.1792    0.0000 C   0  0  0  0  0  0           0  0  0
   -1.1583   -2.0500    0.0000 C   0  0  0  0  0  0           0  0  0
   -0.8583   -1.5292    0.0000 C   0  0  0  0  0  0           0  0  0
  2  1  1  0     0  0
  3  2  2  0     0  0
  4  9  1  0     0  0
  5  1  1  0     0  0
  6  5  2  0     0  0
  7  4  1  0     0  0
  8  4  2  0     0  0
  9 20  1  0     0  0
 10 11  1  0     0  0
 11  2  1  0     0  0
 12  8  1  0     0  0
 13  7  1  0     0  0
 14 17  2  0     0  0
 15  5  1  0     0  0
 16  6  1  0     0  0
 17  8  1  0     0  0
 18  7  2  0     0  0
 19 10  1  0     0  0
 20 19  1  0     0  0
 21 12  1  0     0  0
 22 13  1  0     0  0
 23 15  2  0     0  0
 24 23  1  0     0  0
  3  6  1  0     0  0
 16 24  2  0     0  0
 14 18  1  0     0  0
M  END