
          11280715082D 1   1.00000     0.00000     0

 34 36  0     1  0            999 V2000
   10.6792   -3.9417    0.0000 S   0  0  3  0  0  0           0  0  0
    5.8375   -2.5375    0.0000 C   0  0  0  0  0  0           0  0  0
    5.8375   -1.7042    0.0000 C   0  0  0  0  0  0           0  0  0
    7.1167   -2.1292    0.0000 C   0  0  0  0  0  0           0  0  0
    6.6292   -1.4542    0.0000 S   0  0  0  0  0  0           0  0  0
    6.6250   -2.7917    0.0000 C   0  0  0  0  0  0           0  0  0
    5.0417   -2.7875    0.0000 S   0  0  0  0  0  0           0  0  0
    5.0500   -1.4417    0.0000 C   0  0  0  0  0  0           0  0  0
   10.6917   -3.1167    0.0000 N   0  0  0  0  0  0           0  0  0
   10.1125   -2.5250    0.0000 C   0  0  2  0  0  0           0  0  0
    7.9500   -2.1292    0.0000 C   0  0  0  0  0  0           0  0  0
    4.5542   -2.1167    0.0000 C   0  0  0  0  0  0           0  0  0
   10.8167   -2.1125    0.0000 C   0  0  0  0  0  0           0  0  0
    8.6667   -2.5375    0.0000 N   0  0  0  0  0  0           0  0  0
   10.6792   -4.7750    0.0000 C   0  0  0  0  0  0           0  0  0
   11.5125   -3.9417    0.0000 O   0  0  0  0  0  0           0  0  0
    9.8500   -3.9417    0.0000 O   0  0  0  0  0  0           0  0  0
    9.3792   -2.1167    0.0000 C   0  0  0  0  0  0           0  0  0
    0.8167   -2.8167    0.0000 N   0  0  0  0  0  0           0  0  0
    8.1542   -1.3250    0.0000 O   0  0  0  0  0  0           0  0  0
   10.8167   -1.2792    0.0000 O   0  0  0  0  0  0           0  0  0
    3.7250   -2.1125    0.0000 C   0  0  0  0  0  0           0  0  0
   11.5500   -2.5250    0.0000 O   0  0  0  0  0  0           0  0  0
    3.3042   -2.8375    0.0000 C   0  0  0  0  0  0           0  0  0
    9.9542   -5.1875    0.0000 C   0  0  0  0  0  0           0  0  0
    2.4792   -2.8375    0.0000 C   0  0  3  0  0  0           0  0  0
    9.9500   -6.0167    0.0000 O   0  0  0  0  0  0           0  0  0
    1.2292   -3.5417    0.0000 C   0  0  0  0  0  0           0  0  0
    1.2500   -2.1042    0.0000 C   0  0  0  0  0  0           0  0  0
    9.2292   -6.4167    0.0000 C   0  0  0  0  0  0           0  0  0
    2.0792   -2.1125    0.0000 C   0  0  0  0  0  0           0  0  0
    2.0625   -3.5417    0.0000 C   0  0  0  0  0  0           0  0  0
    9.2250   -7.2500    0.0000 C   0  0  0  0  0  0           0  0  0
    9.6917   -3.2417    0.0000 H   0  0  0  0  0  0           0  0  0
  2  6  1  0     0  0
  3  5  1  0     0  0
  4 11  1  0     0  0
  5  4  1  0     0  0
  6  4  2  0     0  0
  7  2  1  0     0  0
  8  3  1  0     0  0
  9  1  1  0     0  0
 10  9  1  1     0  0
 11 14  1  0     0  0
 12  7  1  0     0  0
 13 10  1  0     0  0
 14 18  1  0     0  0
 15  1  1  0     0  0
 16  1  2  0     0  0
 17  1  2  0     0  0
 18 10  1  0     0  0
 19 28  1  0     0  0
 20 11  2  0     0  0
 21 13  2  0     0  0
 22 12  1  0     0  0
 23 13  1  0     0  0
 24 22  1  0     0  0
 25 15  1  0     0  0
 26 24  1  0     0  0
 27 25  1  0     0  0
 28 32  1  0     0  0
 29 31  1  0     0  0
 30 27  1  0     0  0
 31 26  1  0     0  0
 32 26  1  0     0  0
 33 30  1  0     0  0
 10 34  1  6     0  0
  2  3  2  0     0  0
 12  8  2  0     0  0
 19 29  1  0     0  0
M  END