
  SciTegic09261414532D

119115  0  0  0  0            999 V2000
    9.5588  -12.1451    0.0000 Na  0  3
   17.3962  -14.9243    0.0000 Na  0  3
   10.6796   -9.8035    0.0000 Na  0  3
    7.3713  -16.8951    0.0000 Na  0  3
   14.9296   -3.8744    0.0000 Na  0  3
   18.7379  -10.9618    0.0000 Na  0  3
   13.1795   -7.0577    0.0000 Na  0  3
   13.5669  -10.5278    0.0000 O   0  0
   15.6035   -8.0661    0.0000 C   0  0  1  0  0  0
   12.0289  -12.5757    0.0000 C   0  0
    9.1389  -16.6604    0.0000 O   0  0
    9.0983  -19.1354    0.0000 O   0  0
   13.4327  -15.8737    0.0000 N   0  0
   12.0318  -10.1085    0.0000 O   0  5
   12.7405  -11.3493    0.0000 O   0  0
   14.8862  -10.1284    0.0000 C   0  0  2  0  0  0
   11.9900  -16.7007    0.0000 C   0  0  2  0  0  0
   14.1444  -15.4562    0.0000 C   0  0
   12.0358  -11.7507    0.0000 O   0  5
   12.7004  -17.1117    0.0000 H   0  0
   15.1829  -13.1184    0.0000 O   0  0
   19.3362   -3.3462    0.0000 C   0  0
   14.9400   -5.9639    0.0000 O   0  0
    9.8621  -15.4360    0.0000 S   0  0
   13.3895  -19.1973    0.0000 O   0  5
   17.4447   -9.8290    0.0000 O   0  0
   14.1385  -14.6312    0.0000 O   0  0
   10.6870  -15.4460    0.0000 O   0  0
   15.6016   -8.8915    0.0000 C   0  0  2  0  0  0
   19.3970   -7.6265    0.0000 O   0  0
   17.0279  -10.5409    0.0000 S   0  0
   21.4227   -5.4562    0.0000 C   0  0
   16.0079  -13.1205    0.0000 O   0  0
   16.3146   -7.6551    0.0000 O   0  0
    9.1527  -15.0148    0.0000 O   0  5
   17.0340   -8.0702    0.0000 C   0  0  2  0  0  0
   19.3551   -4.7750    0.0000 O   0  0
   13.4192  -16.7164    0.0000 O   0  0
   14.8616  -15.8637    0.0000 C   0  0
   20.1748   -4.7600    0.0000 O   0  0
   11.9799  -17.5257    0.0000 O   0  0
   20.5978   -5.4683    0.0000 C   0  0
    9.8192  -18.7344    0.0000 C   0  0  2  0  0  0
   17.0345   -8.8913    0.0000 C   0  0  2  0  0  0
   13.4530  -11.7651    0.0000 C   0  0
   12.0129  -13.4034    0.0000 H   0  0
   18.9332   -4.0661    0.0000 C   0  0
   15.6604   -6.3659    0.0000 O   0  0
   10.5508  -17.5089    0.0000 O   0  0
   16.8962   -6.2371    0.0000 C   0  0
    9.1257  -17.4853    0.0000 C   0  0
   13.4540  -12.5885    0.0000 O   0  0
   17.7488   -9.3041    0.0000 O   0  0
   11.2809  -16.2784    0.0000 C   0  0  1  0  0  0
   18.9521   -5.4949    0.0000 C   0  0  2  0  0  0
   18.9144   -2.6373    0.0000 C   0  0
   18.8955   -1.2154    0.0000 C   0  0
    9.8335  -17.9092    0.0000 C   0  0  1  0  0  0
   16.3172   -9.3041    0.0000 C   0  0  1  0  0  0
   15.6026  -10.5347    0.0000 C   0  0  1  0  0  0
   11.2519  -18.7559    0.0000 C   0  0  2  0  0  0
   19.3174   -1.9231    0.0000 C   0  0
   19.3709   -6.2008    0.0000 C   0  0  1  0  0  0
   16.3069  -14.2483    0.0000 O   0  5
   15.5935  -13.8340    0.0000 S   0  0
   14.1721  -10.5346    0.0000 O   0  0
   10.5156  -19.9826    0.0000 O   0  0
   16.4733   -5.5288    0.0000 O   0  0
   12.0069  -15.0509    0.0000 C   0  0  2  0  0  0
   10.5614  -16.6821    0.0000 C   0  0
   14.8894   -7.6530    0.0000 C   0  0
   14.8869   -9.3034    0.0000 O   0  0
   15.5983  -11.3622    0.0000 C   0  0  1  0  0  0
   14.1646  -13.8301    0.0000 C   0  0  2  0  0  0
   12.0138  -14.2259    0.0000 O   0  0
   14.8838   -8.4785    0.0000 H   0  0
   15.6484   -5.5410    0.0000 S   0  0
   14.8779  -12.5979    0.0000 O   0  0
   14.8901   -6.8280    0.0000 O   0  5
   13.4441  -14.2375    0.0000 C   0  0  1  0  0  0
   12.6807  -18.7752    0.0000 S   0  0
   17.7482   -7.6525    0.0000 O   0  0
   10.5284  -19.1578    0.0000 C   0  0  1  0  0  0
   15.2254   -4.8326    0.0000 O   0  5
   12.7203  -15.4679    0.0000 C   0  0  1  0  0  0
   14.1694  -11.3559    0.0000 C   0  0  1  0  0  0
   14.1615  -13.0070    0.0000 C   0  0  2  0  0  0
   17.7399  -10.9577    0.0000 O   0  5
   15.5920  -12.1826    0.0000 H   0  0
   14.1745   -8.0649    0.0000 O   0  0
   18.1481   -6.9309    0.0000 C   0  0  1  0  0  0
   18.9730   -6.9188    0.0000 C   0  0  2  0  0  0
   13.4375  -15.0624    0.0000 O   0  0
   11.3110  -12.9821    0.0000 O   0  0
   12.2779  -18.0552    0.0000 O   0  0
   18.1272   -5.5070    0.0000 O   0  0
   15.7295   -9.8868    0.0000 O   0  0
   16.6197   -9.8241    0.0000 O   0  0
   11.2605  -17.9294    0.0000 C   0  0  2  0  0  0
   12.7398  -12.9941    0.0000 C   0  0  2  0  0  0
    9.8521  -16.2609    0.0000 O   0  0
   12.7317  -13.8194    0.0000 C   0  0  1  0  0  0
   16.3110  -10.9492    0.0000 N   0  0
   12.7097  -16.2954    0.0000 C   0  0  2  0  0  0
   13.1577   -9.8114    0.0000 O   0  0
   16.3110  -11.7777    0.0000 O   0  0
   12.7419  -10.5240    0.0000 S   0  0
   14.8780  -14.2445    0.0000 O   0  0
    8.4048  -17.8864    0.0000 O   0  5
   14.8816  -11.7729    0.0000 C   0  0  2  0  0  0
   11.2898  -15.4570    0.0000 O   0  0
   17.3233   -6.9472    0.0000 H   0  0
   13.1028  -18.0663    0.0000 O   0  0
   20.1958   -6.1888    0.0000 N   0  0
   10.2833  -14.7266    0.0000 O   0  0
   17.7211   -6.2250    0.0000 C   0  0  2  0  0  0
   11.9607  -19.1780    0.0000 O   0  0
   14.5837  -19.4242    0.0000 Na  0  3
    9.5588  -14.5200    0.0000 Na  0  3
 77 84  1  0
 42 32  1  0
 99 61  1  0
116 50  1  1
 47 22  1  0
 24115  2  0
 65 21  2  0
 99 41  1  1
 34  9  1  0
 69111  1  0
 17 20  1  1
 10 19  1  0
 22 56  1  0
 16 66  1  0
107 14  1  0
 92 63  1  0
110 73  1  0
 74108  1  6
 65 64  1  0
 61117  1  6
111 54  1  0
 18 39  1  0
110 78  1  0
  8107  2  0
 51 11  2  0
103 31  1  0
113 81  2  0
 55 96  1  0
 44 53  1  6
 17104  1  0
 42 40  2  0
100102  1  0
 54 70  1  1
 69 85  1  0
108 65  1  0
 52100  1  0
 87 52  1  0
 69 75  1  6
 86 45  1  1
 68 77  1  0
107105  2  0
 85 13  1  6
 43 12  1  6
 86110  1  0
 99 49  1  0
 81 25  1  0
 33 65  2  0
 29 59  1  0
102 46  1  1
101 24  1  0
 36 44  1  0
 58 43  1  0
 80 93  1  1
 63 55  1  0
 15107  1  0
 28 24  2  0
 26 31  2  0
 29 76  1  1
110 89  1  1
 13 18  1  0
 62 57  1  0
 31 98  2  0
 16 72  1  6
 58 51  1  6
 71 79  1  0
 10 94  2  0
 92 30  1  1
 43 83  1  0
 83 61  1  0
 56 62  1  0
 45 15  1  0
 23 77  2  0
104 85  1  0
 54 17  1  0
 70101  1  0
 37 47  1  0
 91 82  1  0
 73 60  1  0
 29 72  1  0
 71 90  2  0
 18 27  2  0
 63114  1  6
 16 60  1  0
 96116  1  0
 87 78  1  1
102 75  1  0
117 81  1  0
 83 67  1  1
104 38  1  1
 59 44  1  0
 80 74  1  0
 91116  1  0
 17 41  1  0
 50 68  1  0
 49 58  1  0
 60103  1  6
 59 97  1  1
 36 82  1  1
 55 37  1  6
 51109  1  0
 77 48  2  0
100 10  1  6
 91 92  1  0
 81 95  2  0
 73106  1  1
 31 88  1  0
 87 74  1  0
114 42  1  0
  9 71  1  6
 66 86  1  0
 91112  1  1
102 80  1  0
  9 29  1  0
 36 34  1  0
 24 35  1  0
M  CHG  8   1   1   2   1   3   1   4   1   5   1   6   1   7   1  14  -1
M  CHG  8  19  -1  25  -1  35  -1  64  -1  79  -1  84  -1  88  -1 109  -1
M  CHG  2 118   1 119   1
M  END