
  SciTegic01161211262D

 23 24  0  0  0  0            999 V2000
    3.9565    0.9958    0.0000 N   0  0
   -1.4468   -0.3048    0.0000 C   0  0
   -2.9477   -0.3055    0.0000 C   0  0
    3.1997    2.3367    0.0000 C   0  0
    3.1599   -0.3718    0.0000 C   0  0
    0.8099    0.9958    0.0000 C   0  0
   -0.6962    0.9949    0.0000 O   0  0
    1.6065    2.3367    0.0000 C   0  0
    1.5799   -0.3718    0.0000 C   0  0
    5.4639    0.9946    0.0000 C   0  0
   -0.8467   -1.3439    0.0000 O   0  0
    6.0638   -0.0447    0.0000 N   0  0
   -3.6983   -1.6051    0.0000 C   0  0
    2.2040    0.1593    0.0000 C   0  0
    2.2040    1.9119    0.0000 C   0  0
   -3.6956    0.9957    0.0000 C   0  0
    8.7142   -0.9347    0.0000 Cl  0  0
   -3.0943    2.0342    0.0000 O   0  0
   -5.1983   -1.6080    0.0000 C   0  0
   -2.9458   -2.9028    0.0000 C   0  0
   -3.6934   -4.2033    0.0000 C   0  0
   -5.9458   -2.9085    0.0000 C   0  0
   -5.1934   -4.2061    0.0000 C   0  0
  2  3  1  0
  1  4  1  0
  1  5  1  0
  2  7  1  0
  6  7  1  0
  4  8  1  0
  6  8  1  0
  5  9  1  0
  6  9  1  0
  1 10  1  0
  2 11  2  0
 10 12  2  0
  3 13  1  0
  5 14  1  0
  4 15  1  0
 14 15  1  0
  3 16  1  0
 16 18  1  0
 13 19  1  0
 13 20  2  0
 20 21  1  0
 19 22  2  0
 21 23  2  0
 22 23  1  0
M  END