
          11280715482D 1   1.00000     0.00000     0

 53 58  0     1  0            999 V2000
    1.1542   -3.2667    0.0000 C   0  0  0  0  0  0           0  0  0
    1.2250   -2.4417    0.0000 N   0  0  3  0  0  0           0  0  0
    4.0125    0.1625    0.0000 C   0  0  0  0  0  0           0  0  0
    0.3500   -3.4542    0.0000 O   0  0  0  0  0  0           0  0  0
    8.5625    0.1583    0.0000 C   0  0  0  0  0  0           0  0  0
    3.2542   -0.2792    0.0000 N   0  0  3  0  0  0           0  0  0
    9.3167   -0.2875    0.0000 N   0  0  3  0  0  0           0  0  0
    0.4667   -2.1167    0.0000 C   0  0  0  0  0  0           0  0  0
    6.2875   -0.2792    0.0000 C   0  0  0  0  0  0           0  0  0
    4.7625   -0.2792    0.0000 N   0  0  0  0  0  0           0  0  0
   -0.0833   -2.7417    0.0000 C   0  0  0  0  0  0           0  0  0
    7.0500    0.1583    0.0000 N   0  0  0  0  0  0           0  0  0
    7.4917    2.1833    0.0000 C   0  0  0  0  0  0           0  0  0
   11.4792   -0.6000    0.0000 N   0  0  3  0  0  0           0  0  0
    5.5292    0.1583    0.0000 C   0  0  1  0  0  0           0  0  0
    7.4917    1.4750    0.0000 C   0  0  0  0  0  0           0  0  0
    6.8792    2.5333    0.0000 C   0  0  0  0  0  0           0  0  0
    7.8042   -0.2792    0.0000 C   0  0  2  0  0  0           0  0  0
    1.9375   -2.0167    0.0000 C   0  0  3  0  0  0           0  0  0
    6.2792    1.4750    0.0000 C   0  0  0  0  0  0           0  0  0
    1.7792   -3.8042    0.0000 O   0  0  0  0  0  0           0  0  0
    6.2792    2.1833    0.0000 C   0  0  0  0  0  0           0  0  0
    6.8792    1.1250    0.0000 C   0  0  0  0  0  0           0  0  0
    5.5292    1.0333    0.0000 C   0  0  0  0  0  0           0  0  0
    2.8042   -1.8667    0.0000 C   0  0  0  0  0  0           0  0  0
    2.4042   -1.4167    0.0000 C   0  0  0  0  0  0           0  0  0
   12.1917   -1.0292    0.0000 C   0  0  0  0  0  0           0  0  0
    2.8042   -0.8292    0.0000 C   0  0  0  0  0  0           0  0  0
    2.3792   -0.4292    0.0000 C   0  0  0  0  0  0           0  0  0
    4.0125    1.0333    0.0000 O   0  0  0  0  0  0           0  0  0
    9.8667   -0.9667    0.0000 C   0  0  0  0  0  0           0  0  0
   10.0667   -0.4042    0.0000 C   0  0  0  0  0  0           0  0  0
   10.7792   -0.4667    0.0000 C   0  0  0  0  0  0           0  0  0
   10.9292    0.0958    0.0000 C   0  0  0  0  0  0           0  0  0
    8.5750    0.7000    0.0000 O   0  0  0  0  0  0           0  0  0
    6.2875   -1.1542    0.0000 O   0  0  0  0  0  0           0  0  0
   13.6250   -1.8792    0.0000 N   0  0  0  0  0  0           0  0  0
    6.8792    3.2333    0.0000 Br  0  0  0  0  0  0           0  0  0
    8.0917    1.1208    0.0000 Br  0  0  0  0  0  0           0  0  0
    8.0917    2.5458    0.0000 O   0  0  0  0  0  0           0  0  0
   12.9167   -0.6167    0.0000 C   0  0  0  0  0  0           0  0  0
   12.1792   -1.8625    0.0000 C   0  0  0  0  0  0           0  0  0
    9.3292   -3.7792    0.0000 N   0  0  0  0  0  0           0  0  0
    0.2000   -1.3375    0.0000 C   0  0  0  0  0  0           0  0  0
   -0.8958   -2.5875    0.0000 C   0  0  0  0  0  0           0  0  0
   12.8917   -2.2875    0.0000 C   0  0  0  0  0  0           0  0  0
   13.6292   -1.0417    0.0000 C   0  0  0  0  0  0           0  0  0
    7.8042   -1.1542    0.0000 C   0  0  0  0  0  0           0  0  0
    9.3292   -2.9042    0.0000 C   0  0  0  0  0  0           0  0  0
    8.5625   -1.5917    0.0000 C   0  0  0  0  0  0           0  0  0
    8.5667   -2.4667    0.0000 C   0  0  0  0  0  0           0  0  0
   -0.6208   -1.1792    0.0000 C   0  0  0  0  0  0           0  0  0
   -1.1583   -1.8042    0.0000 C   0  0  0  0  0  0           0  0  0
  2  1  1  0     0  0
  3  6  1  0     0  0
  4  1  1  0     0  0
  5 18  1  0     0  0
  6 29  1  0     0  0
  7  5  1  0     0  0
  8  2  1  0     0  0
  9 15  1  0     0  0
 10  3  1  0     0  0
 11  4  1  0     0  0
 12  9  1  0     0  0
 13 16  1  0     0  0
 14 34  1  0     0  0
 15 10  1  0     0  0
 16 23  2  0     0  0
 17 22  1  0     0  0
 18 12  1  0     0  0
 19  2  1  0     0  0
 20 24  1  0     0  0
 21  1  2  0     0  0
 22 20  2  0     0  0
 23 20  1  0     0  0
 15 24  1  1     0  0
 25 19  1  0     0  0
 26 19  1  0     0  0
 27 14  1  0     0  0
 28 25  1  0     0  0
 29 26  1  0     0  0
 30  3  2  0     0  0
 31  7  1  0     0  0
 32  7  1  0     0  0
 33 31  1  0     0  0
 34 32  1  0     0  0
 35  5  2  0     0  0
 36  9  2  0     0  0
 37 46  2  0     0  0
 38 17  1  0     0  0
 39 16  1  0     0  0
 40 13  1  0     0  0
 41 27  1  0     0  0
 42 27  2  0     0  0
 43 49  1  0     0  0
 44  8  1  0     0  0
 45 11  1  0     0  0
 46 42  1  0     0  0
 47 41  2  0     0  0
 18 48  1  1     0  0
 49 51  1  0     0  0
 50 48  1  0     0  0
 51 50  1  0     0  0
 52 44  2  0     0  0
 53 45  2  0     0  0
 11  8  2  0     0  0
 52 53  1  0     0  0
  6 28  1  0     0  0
 13 17  2  0     0  0
 14 33  1  0     0  0
 47 37  1  0     0  0
M  END