
          11280714462D 1   1.00000     0.00000     0

 19 19  0     0  0            999 V2000
    3.8667   -3.2167    0.0000 C   0  0  0  0  0  0           0  0  0
    4.3875   -3.5167    0.0000 C   0  0  0  0  0  0           0  0  0
    3.8667   -2.6167    0.0000 C   0  0  0  0  0  0           0  0  0
    4.3792   -2.3125    0.0000 O   0  0  0  0  0  0           0  0  0
    4.9042   -3.2167    0.0000 O   0  0  0  0  0  0           0  0  0
    6.4625   -2.3042    0.0000 N   0  0  0  0  0  0           0  0  0
    5.4167   -2.3042    0.0000 C   0  0  3  0  0  0           0  0  0
    4.9042   -2.6042    0.0000 C   0  0  0  0  0  0           0  0  0
    5.9417   -2.6042    0.0000 C   0  0  0  0  0  0           0  0  0
    4.3917   -4.1167    0.0000 O   0  0  0  0  0  0           0  0  0
    3.3417   -3.5167    0.0000 C   0  0  0  0  0  0           0  0  0
    5.4167   -1.7042    0.0000 O   0  0  0  0  0  0           0  0  0
    6.9792   -2.6000    0.0000 C   0  0  3  0  0  0           0  0  0
    3.3417   -2.3167    0.0000 C   0  0  0  0  0  0           0  0  0
    4.9125   -4.4167    0.0000 C   0  0  0  0  0  0           0  0  0
    6.9875   -3.2000    0.0000 C   0  0  0  0  0  0           0  0  0
    7.5000   -2.2917    0.0000 C   0  0  0  0  0  0           0  0  0
    2.8292   -3.2167    0.0000 C   0  0  0  0  0  0           0  0  0
    2.8292   -2.6167    0.0000 C   0  0  0  0  0  0           0  0  0
  2  1  1  0     0  0
  3  1  1  0     0  0
  4  3  1  0     0  0
  5  2  2  0     0  0
  6  9  1  0     0  0
  7  8  1  0     0  0
  8  4  1  0     0  0
  9  7  1  0     0  0
 10  2  1  0     0  0
 11  1  2  0     0  0
 12  7  1  0     0  0
 13  6  1  0     0  0
 14  3  2  0     0  0
 15 10  1  0     0  0
 16 13  1  0     0  0
 17 13  1  0     0  0
 18 11  1  0     0  0
 19 18  2  0     0  0
 19 14  1  0     0  0
M  END