
  SciTegic06051313522D

 31 34  0  0  0  0            999 V2000
    6.3720   -7.1318    0.0000 S   0  0
    7.0854   -7.5463    0.0000 N   0  0
    7.0838   -8.3704    0.0000 C   0  0
    7.8005   -7.1366    0.0000 C   0  0
    8.5138   -7.5510    0.0000 C   0  0
    9.2289   -7.1413    0.0000 C   0  0
    9.2327   -6.3136    0.0000 C   0  0
    8.5194   -5.8992    0.0000 C   0  0
    7.8022   -6.3125    0.0000 N   0  0
    8.5121   -8.3751    0.0000 C   0  0
    7.8037   -8.7966    0.0000 N   0  0
    8.5022  -10.8716    0.0000 C   0  0
    8.5128  -10.0439    0.0000 C   0  0
    7.8028   -9.6237    0.0000 C   0  0
    7.0824  -10.0311    0.0000 C   0  0
    7.0739  -10.8552    0.0000 C   0  0
    7.7838  -11.2754    0.0000 N   0  0
    9.2830  -11.1335    0.0000 N   0  0
    9.2980   -9.7953    0.0000 C   0  0
    9.7758  -10.4711    0.0000 C   0  0
    5.6565   -7.5424    0.0000 C   0  0
    5.7834   -6.5417    0.0000 O   0  0
    6.7792   -6.4125    0.0000 O   0  0
    6.3669   -9.6131    0.0000 C   0  0
    5.6565   -9.1939    0.0000 N   0  0
   10.5981  -10.4805    0.0000 C   0  0
   11.0013  -11.2014    0.0000 C   0  0
   11.8255  -11.2117    0.0000 C   0  0
   12.2474  -10.5017    0.0000 C   0  0
   11.8390   -9.7798    0.0000 C   0  0
   11.0162   -9.7732    0.0000 C   0  0
  1  2  1  0
  2  3  1  0
  4  5  1  0
  5  6  2  0
  6  7  1  0
  7  8  2  0
  8  9  1  0
  4  9  2  0
 12 13  1  0
 13 14  2  0
 14 15  1  0
 15 16  2  0
 16 17  1  0
 12 17  2  0
 19 20  2  0
 18 20  1  0
 12 18  1  0
 13 19  1  0
 11 14  1  0
 10 11  1  0
  5 10  1  0
  2  4  1  0
  1 21  1  0
  1 22  2  0
  1 23  2  0
 24 25  3  0
 15 24  1  0
 26 27  2  0
 27 28  1  0
 28 29  2  0
 29 30  1  0
 30 31  2  0
 31 26  1  0
 20 26  1  0
M  END