
  SciTegic01161211252D

 40 41  0  0  0  0            999 V2000
   -1.1833    0.8500    0.0000 C   0  0  1  0  0  0
   -1.9083    1.2625    0.0000 C   0  0
    0.9667    1.2625    0.0000 C   0  0  1  0  0  0
    1.6917    0.8500    0.0000 C   0  0
   -0.4625    1.2625    0.0000 C   0  0  1  0  0  0
   -2.6208    0.8500    0.0000 N   0  0
    2.4042    1.2625    0.0000 N   0  0
    0.2542    0.8500    0.0000 C   0  0  1  0  0  0
   -3.3375    1.2625    0.0000 C   0  0
    3.1250    0.8500    0.0000 C   0  0
   -1.1833    0.0250    0.0000 O   0  0
   -4.0583    0.8500    0.0000 C   0  0  2  0  0  0
    3.8417    1.2625    0.0000 C   0  0  2  0  0  0
    0.9667    2.0958    0.0000 O   0  0
   -1.9083    2.0958    0.0000 O   0  0
    1.6917    0.0250    0.0000 O   0  0
   -3.3375    2.0958    0.0000 O   0  0
    3.1250    0.0250    0.0000 O   0  0
    0.0250   -3.5250    0.0000 N   0  0
    0.0292   -2.1000    0.0000 C   0  0
    0.4375   -2.8125    0.0000 C   0  0
   -0.7833   -2.1000    0.0000 C   0  0
    0.4417   -1.3875    0.0000 C   0  0
   -0.4625    2.0958    0.0000 O   0  0
    0.2542    0.0250    0.0000 O   0  0
   -0.7750   -0.6875    0.0000 C   0  0
   -4.0583    0.0250    0.0000 C   0  0
    3.8417    2.0958    0.0000 C   0  0
    0.0292   -0.6875    0.0000 C   0  0
   -1.1958   -1.3875    0.0000 C   0  0
    0.4292   -4.2375    0.0000 C   0  0
   -4.7833    1.2625    0.0000 C   0  0
    4.5625    0.8500    0.0000 C   0  0
    1.2625   -2.8125    0.0000 C   0  0
   -3.3375   -0.4000    0.0000 C   0  0
   -4.7833   -0.4000    0.0000 C   0  0
    4.5625    2.5208    0.0000 C   0  0
    3.1250    2.5208    0.0000 C   0  0
    1.2542   -4.2417    0.0000 C   0  0
    1.6792   -3.5250    0.0000 C   0  0
  2  1  1  0
  3  8  1  0
  4  3  1  0
  5  1  1  0
  6  2  1  0
  7  4  1  0
  8  5  1  0
  9  6  1  0
 10  7  1  0
  1 11  1  1
 12  9  1  0
 13 10  1  0
  3 14  1  1
 15  2  2  0
 16  4  2  0
 17  9  2  0
 18 10  2  0
 19 21  2  0
 20 22  2  0
 21 20  1  0
 22 30  1  0
 23 29  2  0
  5 24  1  6
  8 25  1  6
 26 11  1  0
 12 27  1  6
 13 28  1  6
 29 26  1  0
 30 26  2  0
 31 19  1  0
 32 12  1  0
 33 13  1  0
 34 21  1  0
 35 27  1  0
 36 27  1  0
 37 28  1  0
 38 28  1  0
 39 40  1  0
 40 34  2  0
 23 20  1  0
 31 39  2  0
M  END