
  SciTegic01161211252D

 48 52  0  0  0  0            999 V2000
    4.4648  -15.9061    0.0000 N   0  0
    5.8897  -15.9133    0.0000 C   0  0  1  0  0  0
    5.1791  -15.4921    0.0000 C   0  0
    3.0883  -14.2147    0.0000 C   0  0
    3.7923  -14.6460    0.0000 C   0  0  2  0  0  0
    3.7687  -15.4720    0.0000 C   0  0
    6.6240  -15.5536    0.0000 C   0  0
    7.3238  -15.9891    0.0000 N   0  0
    6.6434  -14.7277    0.0000 O   0  0
    7.2960  -16.8114    0.0000 C   0  0
    7.9878  -17.2425    0.0000 C   0  0
    8.7176  -16.8556    0.0000 N   0  0
    8.7432  -16.0287    0.0000 C   0  0
    8.0430  -15.5888    0.0000 C   0  0
    9.4130  -17.2928    0.0000 C   0  0
    9.3849  -18.1198    0.0000 C   0  0
   10.0866  -18.5537    0.0000 C   0  0
   10.8126  -18.1659    0.0000 C   0  0
   10.8367  -17.3357    0.0000 C   0  0
   10.1385  -16.9014    0.0000 C   0  0
   11.5168  -18.6009    0.0000 N   0  3
   12.2412  -18.2121    0.0000 O   0  0
   11.4912  -19.4268    0.0000 O   0  5
    4.5158  -14.2555    0.0000 C   0  0
    2.3688  -14.6052    0.0000 C   0  0
    1.6684  -14.1717    0.0000 C   0  0
    1.6262  -15.8238    0.0000 C   0  0
    2.3505  -15.4273    0.0000 C   0  0
    0.9212  -15.3883    0.0000 C   0  0
    0.9445  -14.5633    0.0000 C   0  0
    4.4607  -16.7324    0.0000 C   0  0
    5.8849  -15.0839    0.0000 H   0  0
    5.8855  -16.7396    0.0000 C   0  0  2  0  0  0
    5.1681  -17.1462    0.0000 C   0  0  1  0  0  0
    5.1636  -17.9669    0.0000 C   0  0
    5.8749  -18.3871    0.0000 C   0  0
    6.5924  -17.9763    0.0000 C   0  0
    6.5985  -17.1495    0.0000 C   0  0
    4.4483  -17.5546    0.0000 H   0  0
    6.5991  -16.3172    0.0000 H   0  0
    0.2419  -14.1309    0.0000 C   0  0
    0.2650  -13.3063    0.0000 O   0  0
   -0.4838  -14.5233    0.0000 O   0  0
   -1.1865  -14.0910    0.0000 C   0  0
    1.6046  -16.6485    0.0000 C   0  0
    0.8795  -17.0421    0.0000 O   0  0
    2.3080  -17.0796    0.0000 O   0  0
    0.8579  -17.8668    0.0000 C   0  0
  5 24  1  1
  5  6  1  0
  4 25  1  0
  6  1  1  0
 25 26  2  0
 26 30  1  0
  8 14  1  0
 29 27  1  0
 10 11  1  0
 27 28  2  0
 28 25  1  0
 29 30  2  0
 11 12  1  0
 12 13  1  0
 13 14  1  0
 33  2  1  0
  2  7  1  0
 34 31  1  0
 15 16  2  0
  2  3  1  0
  2 32  1  6
 33 34  1  0
 16 17  1  0
  7  8  1  0
 17 18  2  0
  1 31  1  0
 18 19  1  0
  7  9  2  0
 33 38  1  0
 34 35  1  0
 35 36  1  0
 36 37  1  0
 37 38  1  0
 19 20  2  0
 34 39  1  6
 20 15  1  0
 33 40  1  6
 30 41  1  0
 12 15  1  0
 41 42  2  0
  8 10  1  0
 41 43  1  0
  4  5  1  0
 43 44  1  0
 21 22  2  0
 27 45  1  0
 21 23  1  0
 45 46  1  0
 18 21  1  0
 45 47  2  0
  1  3  1  0
 46 48  1  0
M  CHG  2  21   1  23  -1
M  END