
  SciTegic12201611232D

 32 34  0  0  0  0            999 V2000
   -2.5996    2.7004    0.0000 O   0  0
   -2.5988    1.5004    0.0000 S   0  0
   -3.6378    0.9001    0.0000 O   0  0
    5.2447   -3.1359    0.0000 S   0  0
    6.2484   -4.2507    0.0000 C   0  0
    5.4984   -5.5497    0.0000 N   0  0
    4.0312   -5.2378    0.0000 C   0  0
    3.8933   -3.7570    0.0000 C   0  0
    2.5951   -3.0039    0.0000 C   0  0
    1.5548   -3.6021    0.0000 O   0  0
    2.5973   -1.5031    0.0000 N   0  0
    1.2990   -0.7500    0.0000 C   0  0
    1.2990    0.7500    0.0000 C   0  0
    0.0000    1.5000    0.0000 C   0  0
   -1.2990    0.7500    0.0000 C   0  0
   -1.2990   -0.7500    0.0000 C   0  0
    0.0000   -1.5000    0.0000 C   0  0
    3.1347   -6.0355    0.0000 C   0  0
    7.7410   -4.0938    0.0000 C   0  0
    8.4493   -2.7772    0.0000 C   0  0
    9.9487   -2.7332    0.0000 C   0  0
   10.7365   -4.0096    0.0000 C   0  0
   10.0250   -5.3301    0.0000 C   0  0
    8.5257   -5.3742    0.0000 C   0  0
   12.2368   -3.9686    0.0000 O   0  0
   13.0233   -5.2468    0.0000 C   0  0
   14.5235   -5.2058    0.0000 C   0  0
   15.1524   -6.2278    0.0000 C   0  0
   15.0946   -4.1504    0.0000 C   0  0
   10.6606   -1.4119    0.0000 C   0  0
   11.2298   -0.3555    0.0000 N   0  0
   -3.6383    2.0999    0.0000 N   0  0
  2  1  2  0
  3  2  2  0
  4  5  1  0
  5  6  2  0
  6  7  1  0
  7  8  2  0
  4  8  1  0
  9 10  2  0
  9 11  1  0
  8  9  1  0
 12 13  1  0
 13 14  2  0
 14 15  1  0
 15 16  2  0
 16 17  1  0
 12 17  2  0
 15  2  1  0
 11 12  1  0
  7 18  1  0
 19 20  1  0
 20 21  2  0
 21 22  1  0
 22 23  2  0
 23 24  1  0
 19 24  2  0
 26 27  1  0
 27 28  1  0
 27 29  1  0
 25 26  1  0
 22 25  1  0
 30 31  3  0
 21 30  1  0
  5 19  1  0
  2 32  1  0
M  END