
          11280715352D 1   1.00000     0.00000     0

 33 36  0     0  0            999 V2000
   -0.0958    2.3125    0.0000 S   0  0  3  0  0  0           0  0  0
   -0.1000    3.1458    0.0000 N   0  0  0  0  0  0           0  0  0
   -1.5333    4.7792    0.0000 N   0  0  0  0  0  0           0  0  0
   -0.8208    4.3792    0.0000 N   0  0  3  0  0  0           0  0  0
   -0.8208    3.5458    0.0000 C   0  0  0  0  0  0           0  0  0
   -1.5333    5.6042    0.0000 C   0  0  0  0  0  0           0  0  0
   -0.1125    5.6167    0.0000 C   0  0  3  0  0  0           0  0  0
   -0.1083    4.7917    0.0000 C   0  0  0  0  0  0           0  0  0
   -0.1000    1.4875    0.0000 C   0  0  0  0  0  0           0  0  0
    0.7000    2.1000    0.0000 O   0  0  0  0  0  0           0  0  0
   -0.8125    1.9083    0.0000 O   0  0  0  0  0  0           0  0  0
   -2.1208    6.1917    0.0000 C   0  0  0  0  0  0           0  0  0
    0.4667    6.2000    0.0000 C   0  0  0  0  0  0           0  0  0
   -1.5333    3.1333    0.0000 N   0  0  0  0  0  0           0  0  0
    0.6042    1.0833    0.0000 C   0  0  0  0  0  0           0  0  0
   -0.8208    1.0833    0.0000 C   0  0  0  0  0  0           0  0  0
   -2.9083    5.9792    0.0000 C   0  0  0  0  0  0           0  0  0
   -1.9083    6.9917    0.0000 C   0  0  0  0  0  0           0  0  0
   -3.2833    7.3625    0.0000 C   0  0  0  0  0  0           0  0  0
   -0.1125   -0.1542    0.0000 C   0  0  0  0  0  0           0  0  0
   -2.4833    7.5750    0.0000 C   0  0  0  0  0  0           0  0  0
   -3.4958    6.5625    0.0000 C   0  0  0  0  0  0           0  0  0
    0.6042    0.2583    0.0000 C   0  0  0  0  0  0           0  0  0
   -0.8250    0.2625    0.0000 C   0  0  0  0  0  0           0  0  0
   -3.8708    7.9417    0.0000 Cl  0  0  0  0  0  0           0  0  0
   -0.1208   -0.9750    0.0000 O   0  0  0  0  0  0           0  0  0
    1.2667    5.9792    0.0000 C   0  0  0  0  0  0           0  0  0
    0.2542    6.9917    0.0000 C   0  0  0  0  0  0           0  0  0
   -1.5250    2.3083    0.0000 C   0  0  0  0  0  0           0  0  0
    0.5917   -1.3917    0.0000 C   0  0  0  0  0  0           0  0  0
    0.8292    7.5750    0.0000 C   0  0  0  0  0  0           0  0  0
    1.8500    6.5667    0.0000 C   0  0  0  0  0  0           0  0  0
    1.6375    7.3625    0.0000 C   0  0  0  0  0  0           0  0  0
  2  1  1  0     0  0
  3  4  1  0     0  0
  4  5  1  0     0  0
  5  2  2  0     0  0
  6  3  2  0     0  0
  7  8  1  0     0  0
  8  4  1  0     0  0
  9  1  1  0     0  0
 10  1  2  0     0  0
 11  1  2  0     0  0
 12  6  1  0     0  0
 13  7  1  0     0  0
 14  5  1  0     0  0
 15  9  1  0     0  0
 16  9  2  0     0  0
 17 12  1  0     0  0
 18 12  2  0     0  0
 19 21  2  0     0  0
 20 24  2  0     0  0
 21 18  1  0     0  0
 22 17  2  0     0  0
 23 15  2  0     0  0
 24 16  1  0     0  0
 25 19  1  0     0  0
 26 20  1  0     0  0
 27 13  2  0     0  0
 28 13  1  0     0  0
 29 14  1  0     0  0
 30 26  1  0     0  0
 31 28  2  0     0  0
 32 27  1  0     0  0
 33 31  1  0     0  0
 20 23  1  0     0  0
  6  7  1  0     0  0
 19 22  1  0     0  0
 33 32  2  0     0  0
M  END