
          11280714472D 1   1.00000     0.00000     0

 33 35  0     1  0            999 V2000
   -2.6958   -1.8750    0.0000 N   0  3  0  0  0  0           0  0  0
   -2.8375   -2.6875    0.0000 C   0  0  0  0  0  0           0  0  0
    0.5417   -2.9750    0.0000 O   0  0  0  0  0  0           0  0  0
   -0.2625   -2.8292    0.0000 C   0  0  1  0  0  0           0  0  0
    1.0750   -2.3417    0.0000 C   0  0  2  0  0  0           0  0  0
    1.8917   -2.3417    0.0000 C   0  0  0  0  0  0           0  0  0
   -2.2083   -3.2167    0.0000 C   0  0  0  0  0  0           0  0  0
   -0.8000   -3.4625    0.0000 C   0  0  3  0  0  0           0  0  0
   -0.5458   -2.0542    0.0000 O   0  0  0  0  0  0           0  0  0
   -1.4250   -2.9292    0.0000 O   0  0  0  0  0  0           0  0  0
    3.1500   -2.8000    0.0000 N   0  0  0  0  0  0           0  0  0
    2.4042   -1.6917    0.0000 S   0  0  0  0  0  0           0  0  0
    3.1750   -1.9792    0.0000 C   0  0  0  0  0  0           0  0  0
    0.8000   -1.5667    0.0000 C   0  0  1  0  0  0           0  0  0
    2.3500   -3.0292    0.0000 C   0  0  0  0  0  0           0  0  0
   -1.9250   -1.5917    0.0000 O   0  5  0  0  0  0           0  0  0
   -3.6125   -2.9667    0.0000 C   0  0  0  0  0  0           0  0  0
   -3.3250   -1.3417    0.0000 O   0  0  0  0  0  0           0  0  0
    5.0167   -0.9750    0.0000 C   0  0  0  0  0  0           0  0  0
   -0.0125   -1.4167    0.0000 C   0  0  0  0  0  0           0  0  0
   -2.3500   -4.0292    0.0000 C   0  0  0  0  0  0           0  0  0
    5.7167   -1.4042    0.0000 O   0  0  0  0  0  0           0  0  0
    2.0542   -1.3292    0.0000 C   0  0  0  0  0  0           0  0  0
    2.8750   -1.3292    0.0000 C   0  0  0  0  0  0           0  0  0
   -3.7583   -3.7750    0.0000 C   0  0  0  0  0  0           0  0  0
    5.0417   -0.1542    0.0000 O   0  0  0  0  0  0           0  0  0
   -3.1208   -4.3125    0.0000 C   0  0  0  0  0  0           0  0  0
    1.3292   -0.9375    0.0000 C   0  0  0  0  0  0           0  0  0
   -0.1625   -3.9917    0.0000 C   0  0  0  0  0  0           0  0  0
   -1.3333   -4.0917    0.0000 C   0  0  0  0  0  0           0  0  0
    4.2917   -1.3667    0.0000 C   0  0  0  0  0  0           0  0  0
    3.5917   -0.9417    0.0000 C   0  0  0  0  0  0           0  0  0
   -4.5458   -4.0500    0.0000 C   0  0  0  0  0  0           0  0  0
  2  1  1  0     0  0
  3  4  1  0     0  0
  4  8  1  1     0  0
  5  3  1  0     0  0
  5  6  1  1     0  0
  7  2  2  0     0  0
  8 10  1  0     0  0
  9  4  1  0     0  0
 10  7  1  0     0  0
 11 15  1  0     0  0
 12  6  1  0     0  0
 13 12  1  0     0  0
 14 20  1  0     0  0
 15  6  2  0     0  0
 16  1  1  0     0  0
 17  2  1  0     0  0
 18  1  2  0     0  0
 19 31  1  0     0  0
 20  9  1  0     0  0
 21  7  1  0     0  0
 22 19  2  0     0  0
 23 28  1  0     0  0
 24 23  2  0     0  0
 25 17  2  0     0  0
 26 19  1  0     0  0
 27 25  1  0     0  0
 14 28  1  1     0  0
 29  8  1  0     0  0
 30  8  1  0     0  0
 31 32  1  0     0  0
 32 24  1  0     0  0
 33 25  1  0     0  0
 21 27  2  0     0  0
 14  5  1  0     0  0
 13 11  2  0     0  0
M  CHG  2   1   1  16  -1
M  END