
  SciTegic02271217242D

 37 40  0  0  0  0            999 V2000
   10.9611    0.5167    0.0000 C   0  0
   10.9599   -0.3107    0.0000 C   0  0
   11.6747   -0.7235    0.0000 C   0  0
   12.3912   -0.3102    0.0000 C   0  0
   12.3883    0.5203    0.0000 C   0  0
   11.6729    0.9295    0.0000 C   0  0
   13.1012    0.9355    0.0000 O   0  0
   13.8172    0.5257    0.0000 C   0  0
   13.8170   -0.2969    0.0000 N   0  0
   14.5322   -0.7067    0.0000 C   0  0
   15.2461   -0.2914    0.0000 C   0  0
   15.2403    0.5378    0.0000 C   0  0
   14.5245    0.9438    0.0000 C   0  0
   15.9626   -0.7003    0.0000 Cl  0  0
   14.5172    1.7688    0.0000 N   0  0
   15.2279    2.1877    0.0000 S   0  0
   15.9460    1.7816    0.0000 C   0  0
   14.8083    2.9083    0.0000 O   0  0
   15.6333    2.9083    0.0000 O   0  0
   15.9504    0.9573    0.0000 C   0  0
   16.6677    0.5512    0.0000 C   0  0
   17.3795    0.9702    0.0000 C   0  0
   17.3694    1.7994    0.0000 C   0  0
   16.6515    2.2017    0.0000 C   0  0
   18.0787    2.2208    0.0000 Cl  0  0
   18.0981    0.5651    0.0000 Cl  0  0
   10.2451   -0.7226    0.0000 C   0  0
    9.5310   -0.3095    0.0000 N   0  0
   10.2445   -1.5476    0.0000 O   0  0
    9.5316    0.5155    0.0000 C   0  0
    8.8175    0.9285    0.0000 C   0  0
    8.1027    0.5166    0.0000 N   0  0
    7.3863    0.9367    0.0000 C   0  0
    6.6736    0.5282    0.0000 C   0  0
    6.6687   -0.2971    0.0000 C   0  0
    7.3827   -0.7124    0.0000 C   0  0
    8.1016   -0.3023    0.0000 C   0  0
 16 18  2  0
  8  9  2  0
 16 19  2  0
  4  5  1  0
 17 20  2  0
  9 10  1  0
 20 21  1  0
  2  3  1  0
 21 22  2  0
 10 11  2  0
 22 23  1  0
  5  6  2  0
 23 24  2  0
 24 17  1  0
 11 12  1  0
 23 25  1  0
  6  1  1  0
 22 26  1  0
 12 13  2  0
  2 27  1  0
 13  8  1  0
 27 28  1  0
  1  2  2  0
 27 29  2  0
 11 14  1  0
 28 30  1  0
  5  7  1  0
 30 31  1  0
 13 15  1  0
 31 32  1  0
 32 33  1  0
  3  4  2  0
 15 16  1  0
  7  8  1  0
 16 17  1  0
 32 37  1  0
 33 34  1  0
 34 35  1  0
 35 36  1  0
 36 37  1  0
M  END