
  SciTegic09261414462D

 56 58  0  0  0  0            999 V2000
   29.4894  -33.3378    0.0000 C   0  0
   32.3483  -33.3359    0.0000 N   0  0
   33.0628  -33.7484    0.0000 C   0  0  2  0  0  0
   33.7773  -33.3359    0.0000 C   0  0
   33.0628  -34.5734    0.0000 C   0  0
   34.4917  -33.7484    0.0000 N   0  0
   33.7773  -32.5109    0.0000 O   0  0
   35.2062  -33.3359    0.0000 C   0  0  2  0  0  0
   35.9207  -33.7484    0.0000 C   0  0
   35.2062  -32.5109    0.0000 C   0  0
   35.9207  -34.5734    0.0000 O   0  0
   36.6351  -33.3359    0.0000 N   0  0
   37.3496  -33.7484    0.0000 C   0  0  2  0  0  0
   38.0641  -33.3359    0.0000 C   0  0
   37.3496  -34.5734    0.0000 C   0  0
   38.7786  -33.7484    0.0000 N   0  0
   38.0641  -32.5109    0.0000 O   0  0
   38.0641  -34.9859    0.0000 C   0  0
   38.0641  -35.8109    0.0000 C   0  0
   38.7786  -36.2234    0.0000 C   0  0
   38.7786  -37.0484    0.0000 N   0  3
   39.4930  -37.4609    0.0000 C   0  0
   38.0641  -37.4609    0.0000 C   0  0
   38.7718  -37.8693    0.0000 C   0  0
   39.4930  -33.3359    0.0000 C   0  0  1  0  0  0
   40.2075  -33.7484    0.0000 C   0  0
   39.4930  -32.5109    0.0000 C   0  0
   40.2075  -32.0984    0.0000 O   0  0
   40.9220  -33.3359    0.0000 N   0  0
   40.2075  -34.5734    0.0000 O   0  0
   31.6339  -33.7484    0.0000 C   0  0
   30.9194  -33.3359    0.0000 C   0  0  2  0  0  0
   31.6339  -34.5734    0.0000 O   0  0
   30.9194  -32.5109    0.0000 C   0  0
   30.2049  -33.7484    0.0000 N   0  0
   31.6339  -32.0984    0.0000 C   0  0
   32.3481  -32.5135    0.0000 C   0  0
   33.0621  -32.1017    0.0000 C   0  0
   33.0625  -31.2758    0.0000 C   0  0
   32.3430  -30.8635    0.0000 C   0  0
   31.6320  -31.2776    0.0000 C   0  0
   28.7760  -33.7484    0.0000 C   0  0
   28.0620  -33.3330    0.0000 C   0  0
   27.3480  -33.7448    0.0000 C   0  0
   27.3475  -34.5707    0.0000 C   0  0
   28.0670  -34.9830    0.0000 C   0  0
   28.7781  -34.5688    0.0000 C   0  0
   35.8700  -32.0230    0.0000 C   0  0
   35.6150  -31.2384    0.0000 C   0  0
   34.7900  -31.2384    0.0000 C   0  0
   34.5352  -32.0230    0.0000 C   0  0
   29.4888  -32.5128    0.0000 O   0  0
   26.6336  -34.9841    0.0000 C   0  0
   25.9250  -34.5726    0.0000 O   0  0
   26.6347  -35.8091    0.0000 O   0  0
   25.2095  -34.9832    0.0000 C   0  0
  2  3  1  0
  3  4  1  0
  3  5  1  6
  4  6  1  0
  4  7  2  0
  6  8  1  0
  8  9  1  0
  8 10  1  1
  9 11  2  0
  9 12  1  0
 12 13  1  0
 13 14  1  0
 13 15  1  6
 14 16  1  0
 14 17  2  0
 15 18  1  0
 18 19  1  0
 19 20  1  0
 20 21  1  0
 21 22  1  0
 21 23  1  0
 21 24  1  0
 16 25  1  0
 25 26  1  0
 25 27  1  6
 27 28  1  0
 26 29  1  0
 26 30  2  0
  2 31  1  0
 31 32  1  0
 31 33  2  0
 32 34  1  1
 32 35  1  0
 34 36  1  0
 36 37  2  0
 37 38  1  0
 38 39  2  0
 39 40  1  0
 40 41  2  0
 41 36  1  0
 35  1  1  0
  1 42  1  0
 42 43  2  0
 43 44  1  0
 44 45  2  0
 45 46  1  0
 46 47  2  0
 47 42  1  0
 10 48  1  0
 48 49  1  0
 49 50  1  0
 50 51  1  0
 51 10  1  0
  1 52  2  0
 45 53  1  0
 53 54  1  0
 53 55  2  0
 54 56  1  0
M  CHG  1  21   1
M  END