
  CDK    9/16/09,9:51

 23 25  0  0  0  0  0  0  0  0999 V2000
   -2.3301  -13.0605    0.0000 C   0  0  0  0  0  0  0  0  0  0  0  0
   -2.3301  -13.8892    0.0000 N   0  0  0  0  0  0  0  0  0  0  0  0
   -1.6165  -14.3012    0.0000 N   0  0  0  0  0  0  0  0  0  0  0  0
   -0.8983  -13.8892    0.0000 C   0  0  0  0  0  0  0  0  0  0  0  0
   -1.6165  -12.6439    0.0000 C   0  0  0  0  0  0  0  0  0  0  0  0
   -0.8992  -13.0548    0.0000 C   0  0  0  0  0  0  0  0  0  0  0  0
   -0.2866  -12.4996    0.0000 C   0  0  0  0  0  0  0  0  0  0  0  0
   -0.6256  -11.7454    0.0000 S   0  0  0  0  0  0  0  0  0  0  0  0
   -1.4474  -11.8348    0.0000 C   0  0  0  0  0  0  0  0  0  0  0  0
   -0.1850  -14.3017    0.0000 O   0  0  0  0  0  0  0  0  0  0  0  0
    0.5199  -12.6681    0.0000 N   0  0  0  0  0  0  0  0  0  0  0  0
   -3.0448  -12.6503    0.0000 C   0  0  0  0  0  0  0  0  0  0  0  0
   -3.0466  -11.8263    0.0000 O   0  0  0  0  0  0  0  0  0  0  0  0
   -3.7574  -13.0640    0.0000 O   0  0  0  0  0  0  0  0  0  0  0  0
   -4.4720  -12.6537    0.0000 C   0  0  0  0  0  0  0  0  0  0  0  0
   -5.1846  -13.0674    0.0000 C   0  0  0  0  0  0  0  0  0  0  0  0
   -1.6197  -15.1216    0.0000 C   0  0  0  0  0  0  0  0  0  0  0  0
   -2.3355  -15.5320    0.0000 C   0  0  0  0  0  0  0  0  0  0  0  0
   -2.3370  -16.3553    0.0000 C   0  0  0  0  0  0  0  0  0  0  0  0
   -1.6234  -16.7690    0.0000 C   0  0  0  0  0  0  0  0  0  0  0  0
   -0.9068  -16.3536    0.0000 C   0  0  0  0  0  0  0  0  0  0  0  0
   -0.9088  -15.5317    0.0000 C   0  0  0  0  0  0  0  0  0  0  0  0
   -1.6234  -17.5930    0.0000 O   0  0  0  0  0  0  0  0  0  0  0  0
  7 11  1  0  0  0  0 
  1 12  1  0  0  0  0 
  1  2  2  0  0  0  0 
 12 13  2  0  0  0  0 
  1  5  1  0  0  0  0 
 12 14  1  0  0  0  0 
  2  3  1  0  0  0  0 
 14 15  1  0  0  0  0 
  3  4  1  0  0  0  0 
 15 16  1  0  0  0  0 
  6  7  2  0  0  0  0 
  7  8  1  0  0  0  0 
 17 18  2  0  0  0  0 
  8  9  1  0  0  0  0 
 18 19  1  0  0  0  0 
  9  5  2  0  0  0  0 
 19 20  2  0  0  0  0 
  4  6  1  0  0  0  0 
 20 21  1  0  0  0  0 
  4 10  2  0  0  0  0 
 21 22  2  0  0  0  0 
 22 17  1  0  0  0  0 
  3 17  1  0  0  0  0 
  5  6  1  0  0  0  0 
 20 23  1  0  0  0  0 
M  END