
  SciTegic06271217572D

 30 33  0  0  0  0            999 V2000
    8.5368  -19.7809    0.0000 C   0  0  1  0  0  0
    7.1045  -21.4279    0.0000 O   0  0
    7.1028  -22.2513    0.0000 C   0  0
    7.8175  -22.6648    0.0000 C   0  0
    8.6027  -22.4072    0.0000 C   0  0
    8.9341  -21.6499    0.0000 C   0  0
    9.7543  -21.5622    0.0000 C   0  0
   10.2443  -22.2280    0.0000 C   0  0
    9.9102  -22.9801    0.0000 C   0  0
    9.0888  -23.0717    0.0000 C   0  0
    8.6100  -23.7380    0.0000 C   0  0
    8.7848  -24.5455    0.0000 C   0  0
    8.1737  -25.1016    0.0000 C   0  0
    7.3880  -24.8502    0.0000 C   0  0
    7.2132  -24.0427    0.0000 C   0  0
    7.8243  -23.4866    0.0000 C   0  0
    7.8198  -21.0169    0.0000 C   0  0
    7.8215  -20.1919    0.0000 N   0  0
    8.5334  -21.4309    0.0000 O   0  0
    8.5385  -18.9559    0.0000 C   0  0
    9.2504  -20.1949    0.0000 C   0  0
    9.9657  -19.7838    0.0000 C   0  0
    7.8249  -18.5419    0.0000 O   0  0
    9.2538  -18.5449    0.0000 O   0  0
   10.6789  -20.1997    0.0000 C   0  0
   11.3938  -19.7893    0.0000 C   0  0
   11.3959  -18.9635    0.0000 C   0  0
   10.6773  -18.5497    0.0000 C   0  0
    9.9654  -18.9624    0.0000 C   0  0
   10.6761  -21.0247    0.0000 F   0  0
 15 16  2  0
  4 16  1  0
 11 16  1  0
  5 10  1  0
  2 17  1  0
  2  3  1  0
 17 18  1  0
  3  4  1  0
 17 19  2  0
  1 18  1  1
  4  5  1  0
  1 20  1  0
  5  6  2  0
  1 21  1  0
  6  7  1  0
 21 22  1  0
  7  8  2  0
 20 23  2  0
  8  9  1  0
 20 24  1  0
  9 10  2  0
 22 25  2  0
 10 11  1  0
 25 26  1  0
 11 12  2  0
 26 27  2  0
 12 13  1  0
 27 28  1  0
 13 14  2  0
 28 29  2  0
 29 22  1  0
 14 15  1  0
 25 30  1  0
M  END