
          05080814042D 1   1.00000     0.00000     0

 37 42  0     1  0            999 V2000
   -4.6459   -0.7734    0.0000 C   0  0  0  0  0  0           0  0  0
   -5.3564   -1.1881    0.0000 C   0  0  0  0  0  0           0  0  0
   -5.3494   -2.0140    0.0000 C   0  0  0  0  0  0           0  0  0
   -4.6358   -2.4173    0.0000 C   0  0  0  0  0  0           0  0  0
   -3.9330   -1.1804    0.0000 C   0  0  0  0  0  0           0  0  0
   -3.9270   -2.0077    0.0000 C   0  0  0  0  0  0           0  0  0
   -3.2114   -2.4139    0.0000 C   0  0  0  0  0  0           0  0  0
   -3.2235   -0.7593    0.0000 C   0  0  0  0  0  0           0  0  0
   -2.5035   -1.1700    0.0000 C   0  0  2  0  0  0           0  0  0
   -2.4989   -1.9992    0.0000 C   0  0  2  0  0  0           0  0  0
   -1.7825   -2.4076    0.0000 N   0  0  3  0  0  0           0  0  0
   -1.0660   -1.9913    0.0000 C   0  0  0  0  0  0           0  0  0
   -1.0706   -1.1621    0.0000 C   0  0  1  0  0  0           0  0  0
   -1.7916   -0.7492    0.0000 C   0  0  0  0  0  0           0  0  0
   -2.5113   -0.3415    0.0000 H   0  0  0  0  0  0           0  0  0
   -2.5071   -2.8236    0.0000 H   0  0  0  0  0  0           0  0  0
   -0.3583   -0.7466    0.0000 C   0  0  0  0  0  0           0  0  0
    0.3576   -1.1557    0.0000 N   0  0  3  0  0  0           0  0  0
   -0.3620    0.0780    0.0000 O   0  0  0  0  0  0           0  0  0
    0.3553   -1.9835    0.0000 C   0  0  0  0  0  0           0  0  0
    1.0672   -2.3925    0.0000 C   0  0  0  0  0  0           0  0  0
    1.7819   -1.9805    0.0000 N   0  0  3  0  0  0           0  0  0
    1.7802   -1.1550    0.0000 C   0  0  0  0  0  0           0  0  0
    1.0638   -0.7414    0.0000 C   0  0  0  0  0  0           0  0  0
   -4.6499    0.0512    0.0000 O   0  0  0  0  0  0           0  0  0
   -5.3660    0.4600    0.0000 C   0  0  0  0  0  0           0  0  0
   -1.7791   -3.2322    0.0000 C   0  0  0  0  0  0           0  0  0
    2.4963   -2.3924    0.0000 C   0  0  0  0  0  0           0  0  0
    2.4924   -3.2161    0.0000 N   0  0  0  0  0  0           0  0  0
    3.2059   -3.6279    0.0000 C   0  0  0  0  0  0           0  0  0
    3.2034   -1.9782    0.0000 C   0  0  0  0  0  0           0  0  0
    3.9176   -2.3862    0.0000 C   0  0  0  0  0  0           0  0  0
    3.9205   -3.2132    0.0000 C   0  0  0  0  0  0           0  0  0
    4.6370   -3.6224    0.0000 C   0  0  0  0  0  0           0  0  0
    5.3512   -3.2057    0.0000 C   0  0  0  0  0  0           0  0  0
    5.3443   -2.3755    0.0000 C   0  0  0  0  0  0           0  0  0
    4.6271   -1.9701    0.0000 C   0  0  0  0  0  0           0  0  0
  7 10  1  0     0  0
 17 18  1  0     0  0
  9  8  1  0     0  0
 17 19  2  0     0  0
 18 20  1  0     0  0
  9 10  1  0     0  0
  3  4  2  0     0  0
  4  6  1  0     0  0
  5  6  2  0     0  0
  1  2  2  0     0  0
 18 24  1  0     0  0
 20 21  1  0     0  0
 21 22  1  0     0  0
 22 23  1  0     0  0
 23 24  1  0     0  0
  5  1  1  0     0  0
  1 25  1  0     0  0
  2  3  1  0     0  0
 25 26  1  0     0  0
  9 14  1  0     0  0
 11 27  1  0     0  0
 10 11  1  0     0  0
 22 28  1  0     0  0
 11 12  1  0     0  0
 28 29  2  0     0  0
 12 13  1  0     0  0
 29 30  1  0     0  0
 30 33  2  0     0  0
 13 14  1  0     0  0
 32 31  2  0     0  0
 31 28  1  0     0  0
  9 15  1  6     0  0
 32 33  1  0     0  0
  5  8  1  0     0  0
 33 34  1  0     0  0
 10 16  1  1     0  0
 34 35  2  0     0  0
  6  7  1  0     0  0
 35 36  1  0     0  0
 13 17  1  1     0  0
 36 37  2  0     0  0
 37 32  1  0     0  0
M  END