
          11280715482D 1   1.00000     0.00000     0

 53 57  0     1  0            999 V2000
    3.9792    0.0458    0.0000 C   0  0  0  0  0  0           0  0  0
    8.5292    0.0333    0.0000 C   0  0  0  0  0  0           0  0  0
    3.2292   -0.4000    0.0000 N   0  0  3  0  0  0           0  0  0
    9.2917   -0.4042    0.0000 N   0  0  3  0  0  0           0  0  0
    6.2542   -0.4000    0.0000 C   0  0  0  0  0  0           0  0  0
    1.2542   -3.3875    0.0000 C   0  0  0  0  0  0           0  0  0
    4.7292   -0.4000    0.0000 N   0  0  0  0  0  0           0  0  0
    7.0167    0.0333    0.0000 N   0  0  0  0  0  0           0  0  0
    7.4625    2.0625    0.0000 C   0  0  0  0  0  0           0  0  0
   11.4500   -0.7167    0.0000 N   0  0  3  0  0  0           0  0  0
    1.1917   -2.5667    0.0000 N   0  0  3  0  0  0           0  0  0
    5.5000    0.0333    0.0000 C   0  0  1  0  0  0           0  0  0
    6.8542    2.4083    0.0000 C   0  0  0  0  0  0           0  0  0
    7.4625    1.3583    0.0000 C   0  0  0  0  0  0           0  0  0
    7.7750   -0.4000    0.0000 C   0  0  2  0  0  0           0  0  0
    6.2500    1.3583    0.0000 C   0  0  0  0  0  0           0  0  0
    1.9042   -2.1375    0.0000 C   0  0  3  0  0  0           0  0  0
    6.2500    2.0625    0.0000 C   0  0  0  0  0  0           0  0  0
    6.8542    1.0083    0.0000 C   0  0  0  0  0  0           0  0  0
    5.5000    0.9125    0.0000 C   0  0  0  0  0  0           0  0  0
   12.1625   -1.1500    0.0000 C   0  0  0  0  0  0           0  0  0
    2.7750   -0.9542    0.0000 C   0  0  0  0  0  0           0  0  0
    2.3542   -0.5500    0.0000 C   0  0  0  0  0  0           0  0  0
    2.3792   -1.5417    0.0000 C   0  0  0  0  0  0           0  0  0
    2.7792   -1.9875    0.0000 C   0  0  0  0  0  0           0  0  0
    3.9792    0.9125    0.0000 O   0  0  0  0  0  0           0  0  0
    9.8417   -1.0917    0.0000 C   0  0  0  0  0  0           0  0  0
   10.0375   -0.5250    0.0000 C   0  0  0  0  0  0           0  0  0
   10.7500   -0.5917    0.0000 C   0  0  0  0  0  0           0  0  0
   10.8917   -0.0292    0.0000 C   0  0  0  0  0  0           0  0  0
    8.5417    0.5833    0.0000 O   0  0  0  0  0  0           0  0  0
    1.9917   -3.7500    0.0000 O   0  0  0  0  0  0           0  0  0
    6.2542   -1.2792    0.0000 O   0  0  0  0  0  0           0  0  0
    0.4375   -2.2417    0.0000 C   0  0  0  0  0  0           0  0  0
   13.5917   -2.0042    0.0000 N   0  0  0  0  0  0           0  0  0
    0.5667   -3.8500    0.0000 N   0  0  0  0  0  0           0  0  0
    8.0667    1.0000    0.0000 Br  0  0  0  0  0  0           0  0  0
    6.8542    3.1083    0.0000 Br  0  0  0  0  0  0           0  0  0
    8.0667    2.4208    0.0000 O   0  0  0  0  0  0           0  0  0
   12.1500   -1.9792    0.0000 C   0  0  0  0  0  0           0  0  0
   12.8875   -0.7417    0.0000 C   0  0  0  0  0  0           0  0  0
    9.3042   -3.9000    0.0000 N   0  0  0  0  0  0           0  0  0
   13.6042   -1.1667    0.0000 C   0  0  0  0  0  0           0  0  0
   12.8625   -2.4042    0.0000 C   0  0  0  0  0  0           0  0  0
    7.7750   -1.2792    0.0000 C   0  0  0  0  0  0           0  0  0
    0.1667   -1.4542    0.0000 C   0  0  0  0  0  0           0  0  0
   -0.1083   -2.8667    0.0000 C   0  0  0  0  0  0           0  0  0
    9.3000   -3.0250    0.0000 C   0  0  0  0  0  0           0  0  0
    8.5292   -1.7125    0.0000 C   0  0  0  0  0  0           0  0  0
    8.5417   -2.5875    0.0000 C   0  0  0  0  0  0           0  0  0
   -0.9208   -2.7042    0.0000 C   0  0  0  0  0  0           0  0  0
   -0.6458   -1.3000    0.0000 C   0  0  0  0  0  0           0  0  0
   -1.1875   -1.9292    0.0000 C   0  0  0  0  0  0           0  0  0
  2 15  1  0     0  0
  3  1  1  0     0  0
  4  2  1  0     0  0
  5 12  1  0     0  0
  6 11  1  0     0  0
  7  1  1  0     0  0
  8  5  1  0     0  0
  9 14  1  0     0  0
 10 30  1  0     0  0
 11 17  1  0     0  0
 12  7  1  0     0  0
 13 18  1  0     0  0
 14 19  2  0     0  0
 15  8  1  0     0  0
 16 20  1  0     0  0
 17 24  1  0     0  0
 18 16  2  0     0  0
 19 16  1  0     0  0
 12 20  1  1     0  0
 21 10  1  0     0  0
 22  3  1  0     0  0
 23  3  1  0     0  0
 24 23  1  0     0  0
 25 22  1  0     0  0
 26  1  2  0     0  0
 27  4  1  0     0  0
 28  4  1  0     0  0
 29 27  1  0     0  0
 30 28  1  0     0  0
 31  2  2  0     0  0
 32  6  2  0     0  0
 33  5  2  0     0  0
 34 11  1  0     0  0
 35 43  1  0     0  0
 36  6  1  0     0  0
 37 14  1  0     0  0
 38 13  1  0     0  0
 39  9  1  0     0  0
 40 21  2  0     0  0
 41 21  1  0     0  0
 42 48  1  0     0  0
 43 41  2  0     0  0
 44 40  1  0     0  0
 15 45  1  1     0  0
 46 34  1  0     0  0
 47 34  2  0     0  0
 48 50  1  0     0  0
 49 45  1  0     0  0
 50 49  1  0     0  0
 51 47  1  0     0  0
 52 46  2  0     0  0
 53 51  2  0     0  0
 25 17  1  0     0  0
  9 13  2  0     0  0
 10 29  1  0     0  0
 52 53  1  0     0  0
 44 35  2  0     0  0
M  END