
  SciTegic01161211242D

 20 21  0  0  0  0            999 V2000
   10.2402   -1.1458    0.0000 C   0  0
   10.2391   -1.9732    0.0000 C   0  0
   10.9539   -2.3860    0.0000 C   0  0
   11.6703   -1.9727    0.0000 C   0  0
   11.6675   -1.1422    0.0000 C   0  0
   10.9521   -0.7330    0.0000 C   0  0
    9.5257   -0.7335    0.0000 Cl  0  0
   12.3804   -0.7270    0.0000 C   0  0
   12.3773    0.0980    0.0000 N   0  0
   13.0395    0.5857    0.0000 C   0  0
   12.7816    1.3694    0.0000 N   0  0
   11.9566    1.3662    0.0000 C   0  0
   11.7047    0.5807    0.0000 C   0  0
   13.7500    0.1750    0.0000 N   0  0
   11.5375    2.0833    0.0000 C   0  0
   11.1292    1.3708    0.0000 C   0  0
   10.9875    0.1750    0.0000 O   0  0
   11.9462    2.8000    0.0000 C   0  0
   12.7712    2.8044    0.0000 C   0  0
   11.5299    3.5123    0.0000 C   0  0
  4  5  1  0
  2  3  1  0
  5  6  2  0
  6  1  1  0
 10 11  1  0
 11 12  1  0
 12 13  1  0
 13  9  1  0
  1  2  2  0
 10 14  2  0
  1  7  1  0
 12 15  1  0
  3  4  2  0
 12 16  1  0
  5  8  1  0
 13 17  2  0
 15 18  1  0
  8  9  1  0
 18 19  1  0
  9 10  1  0
 18 20  1  0
M  END