
          11280714582D 1   1.00000     0.00000     0

 16 17  0     0  0            999 V2000
    3.6292   -4.0167    0.0000 N   0  0  3  0  0  0           0  0  0
    3.1500   -3.3542    0.0000 C   0  0  0  0  0  0           0  0  0
    5.3000   -2.5500    0.0000 C   0  0  0  0  0  0           0  0  0
    4.8792   -3.2792    0.0000 C   0  0  0  0  0  0           0  0  0
    6.5542   -1.8292    0.0000 N   0  0  3  0  0  0           0  0  0
    4.4542   -4.0042    0.0000 C   0  0  3  0  0  0           0  0  0
    3.4167   -2.5542    0.0000 O   0  0  0  0  0  0           0  0  0
    5.7167   -1.8292    0.0000 C   0  0  0  0  0  0           0  0  0
    3.1500   -4.6917    0.0000 C   0  0  0  0  0  0           0  0  0
    2.3667   -3.6042    0.0000 C   0  0  0  0  0  0           0  0  0
    7.1167   -2.4417    0.0000 C   0  0  0  0  0  0           0  0  0
    6.9750   -1.1167    0.0000 C   0  0  0  0  0  0           0  0  0
    2.3667   -4.4375    0.0000 C   0  0  0  0  0  0           0  0  0
    4.8750   -4.7250    0.0000 C   0  0  0  0  0  0           0  0  0
    7.7875   -1.2917    0.0000 C   0  0  0  0  0  0           0  0  0
    7.8667   -2.1042    0.0000 C   0  0  0  0  0  0           0  0  0
  2  1  1  0     0  0
  3  4  3  0     0  0
  4  6  1  0     0  0
  5  8  1  0     0  0
  6  1  1  0     0  0
  7  2  2  0     0  0
  8  3  1  0     0  0
  9  1  1  0     0  0
 10  2  1  0     0  0
 11  5  1  0     0  0
 12  5  1  0     0  0
 13  9  1  0     0  0
 14  6  1  0     0  0
 15 12  1  0     0  0
 16 11  1  0     0  0
 13 10  1  0     0  0
 15 16  1  0     0  0
M  END