
  SciTegic01181116592D

 25 27  0  0  0  0            999 V2000
   13.0111    1.5209    0.0000 C   0  0
   13.0099    0.6935    0.0000 C   0  0
   13.7247    0.2806    0.0000 C   0  0
   14.4412    0.6940    0.0000 C   0  0
   14.4383    1.5245    0.0000 C   0  0
   13.7229    1.9336    0.0000 C   0  0
   12.2951    0.2816    0.0000 Cl  0  0
   15.1512    1.9397    0.0000 C   0  0
   15.8672    1.5299    0.0000 C   0  0
   15.1481    2.7647    0.0000 O   0  0
   13.7245   -0.5444    0.0000 S   0  0
   14.4389   -0.9570    0.0000 N   0  0
   12.9208   -0.3250    0.0000 O   0  0
   13.1333   -1.1250    0.0000 O   0  0
   16.5802    1.9452    0.0000 N   0  0
   17.3251    3.0483    0.0000 N   0  0
   16.5498    2.7664    0.0000 C   0  0
   17.8327    2.3979    0.0000 C   0  0
   17.3700    1.7158    0.0000 C   0  0
   17.7295    0.9762    0.0000 C   0  0
   18.5513    0.9174    0.0000 C   0  0
   19.0125    1.6044    0.0000 C   0  0
   18.6505    2.3412    0.0000 C   0  0
   15.8654    3.2271    0.0000 C   0  0
   15.9221    4.0582    0.0000 O   0  0
  6  1  1  0
 11 13  2  0
  1  2  2  0
 11 14  2  0
  2  7  1  0
  9 15  1  0
 15 19  1  0
  3  4  2  0
  5  8  1  0
 18 16  1  0
 16 17  2  0
 17 15  1  0
  8  9  1  0
 18 19  2  0
  4  5  1  0
 19 20  1  0
  8 10  2  0
 20 21  2  0
  2  3  1  0
 21 22  1  0
  3 11  1  0
 22 23  2  0
 23 18  1  0
  5  6  2  0
 17 24  1  0
 11 12  1  0
 24 25  1  0
M  END