
  SciTegic06051313522D

 34 37  0  0  0  0            999 V2000
    7.4517   -6.6073    0.0000 N   0  0
    5.3211   -5.3751    0.0000 C   0  0
    6.0339   -6.6060    0.0000 C   0  0
    5.3186   -6.1966    0.0000 C   0  0
    8.1522   -5.3732    0.0000 O   0  0
    6.7431   -5.3766    0.0000 N   0  0
    8.8743   -6.6061    0.0000 C   0  0
    8.1619   -6.1972    0.0000 S   0  0
    7.4505   -5.7910    0.0000 O   0  0
    6.7441   -6.1959    0.0000 C   0  0
    7.4528   -7.4267    0.0000 C   0  0
    6.0355   -4.9651    0.0000 C   0  0
    4.5783   -9.0496    0.0000 F   0  0
    8.1918  -10.1724    0.0000 N   0  0
    5.9989   -9.0694    0.0000 C   0  0
    4.5786   -8.2374    0.0000 F   0  0
   11.9658   -9.5614    0.0000 Br  0  0
    9.5024   -9.5265    0.0000 C   0  0
    5.9880   -9.8894    0.0000 C   0  0
    7.4231   -9.0902    0.0000 C   0  0
   11.1422   -9.5483    0.0000 C   0  0
    5.3059   -7.8261    0.0000 F   0  0
    9.9040  -10.2420    0.0000 C   0  0
    6.7145   -8.6677    0.0000 C   0  0
    5.2944   -8.6469    0.0000 C   0  0
    8.6824   -9.5155    0.0000 C   0  0
   10.7239  -10.2529    0.0000 C   0  0
   10.7447   -8.8327    0.0000 C   0  0
    6.6967  -10.3076    0.0000 N   0  0
    8.2085   -8.8459    0.0000 N   0  0
    7.4122   -9.9101    0.0000 C   0  0
    6.7254   -7.8477    0.0000 N   0  0
    9.9247   -8.8218    0.0000 C   0  0
    6.0207   -7.4296    0.0000 C   0  0
 10  3  1  0
  3  4  2  0
  8  1  1  0
  4  2  1  0
  1 10  1  0
  8  7  1  0
  8  9  2  0
  2 12  2  0
  8  5  2  0
 10  6  2  0
 12  6  1  0
  1 11  1  0
 25 22  1  0
 15 25  1  0
 18 23  1  0
 20 30  1  0
 27 21  1  0
 32 24  1  0
 19 29  1  0
 25 16  1  0
 25 13  1  0
 23 27  2  0
 26 30  2  0
 20 24  2  0
 28 33  1  0
 31 29  2  0
 15 19  2  0
 34 32  1  0
 26 14  1  0
  3 34  1  0
 31 14  1  0
 24 15  1  0
 21 28  2  0
 18 33  2  0
 26 18  1  0
 31 20  1  0
 21 17  1  0
M  END