
  SciTegic05061409512D

 24 27  0  0  0  0            999 V2000
    4.0818   -1.7293    0.0000 C   0  0
    3.2646   -1.7293    0.0000 C   0  0
    2.8583   -2.4331    0.0000 C   0  0
    3.2646   -3.1414    0.0000 C   0  0
    4.0818   -3.1414    0.0000 C   0  0
    4.4927   -2.4331    0.0000 N   0  0
    2.0427   -2.4283    0.0000 N   0  0
    1.5633   -1.7666    0.0000 C   0  0
    0.7857   -2.0180    0.0000 C   0  0
    0.7846   -2.8353    0.0000 C   0  0
    1.5614   -3.0887    0.0000 C   0  0
    5.3062   -2.4329    0.0000 C   0  0
    5.7151   -3.1417    0.0000 C   0  0
    6.5316   -3.1409    0.0000 C   0  0
    6.9400   -2.4321    0.0000 C   0  0
    6.5260   -1.7226    0.0000 C   0  0
    5.7109   -1.7268    0.0000 C   0  0
    7.7572   -2.4298    0.0000 C   0  0
    8.1639   -1.7210    0.0000 C   0  0
    8.9810   -1.7188    0.0000 N   0  0
    9.4610   -2.3799    0.0000 C   0  0
   10.2375   -2.1252    0.0000 C   0  0
   10.2353   -1.3080    0.0000 C   0  0
    9.4574   -1.0577    0.0000 C   0  0
  1  2  1  0
  1  6  1  0
  2  3  1  0
  3  4  1  0
  4  5  1  0
  5  6  1  0
  7  8  1  0
  8  9  1  0
  9 10  1  0
 10 11  1  0
 11  7  1  0
  3  7  1  0
 12 13  2  0
 13 14  1  0
 14 15  2  0
 15 16  1  0
 16 17  2  0
 17 12  1  0
  6 12  1  0
 15 18  1  0
 18 19  1  0
 19 20  1  0
 20 21  1  0
 21 22  1  0
 22 23  1  0
 23 24  1  0
 24 20  1  0
M  END