
  SciTegic12171313022D

 16 17  0  0  0  0            999 V2000
    6.3688   -2.0309    0.0000 O   0  0
    6.9208   -2.6440    0.0000 C   0  0
    6.5083   -3.3584    0.0000 N   0  0
    5.7013   -3.1869    0.0000 N   0  0
    5.6151   -2.3664    0.0000 C   0  0
    7.7413   -2.5577    0.0000 N   0  0
    4.9006   -1.9539    0.0000 C   0  0
    4.1861   -2.3664    0.0000 C   0  0
    3.4717   -1.9539    0.0000 C   0  0
    3.4717   -1.1289    0.0000 C   0  0
    4.1861   -0.7164    0.0000 C   0  0
    4.9006   -1.1289    0.0000 C   0  0
    2.7572   -2.3664    0.0000 C   0  0
    2.6688   -3.3166    0.0000 C   0  0
    2.0427   -2.7789    0.0000 C   0  0
    2.1090   -1.8877    0.0000 C   0  0
  1  2  1  0
  2  3  2  0
  3  4  1  0
  4  5  2  0
  1  5  1  0
  2  6  1  0
  7  8  1  0
  8  9  2  0
  9 10  1  0
 10 11  2  0
 11 12  1  0
  7 12  2  0
 13 14  1  0
 13 16  1  0
 13 15  1  0
  9 13  1  0
  5  7  1  0
M  END