
  SciTegic04191613082D

168176  0  0  1  0            999 V2000
   20.1519   -0.5194    0.0000 C   0  0  2  0  0  0
   19.1034   -1.5922    0.0000 N   0  0
   17.8605   -2.4319    0.0000 C   0  0
   18.3336   -3.3129    0.0000 O   0  0
   16.4740   -3.0042    0.0000 C   0  0  2  0  0  0
   16.3878   -4.5143    0.0000 C   0  0
   15.0479   -5.1903    0.0000 C   0  0
   15.4800   -6.6276    0.0000 C   0  0
   14.4520   -7.7211    0.0000 N   0  0
   14.8841   -9.1584    0.0000 C   0  0
   16.0522   -9.4334    0.0000 N   0  0
   14.0622  -10.0327    0.0000 N   0  0
   15.0006   -3.2857    0.0000 N   0  0
   13.5008   -3.2649    0.0000 C   0  0
   13.3628   -4.4569    0.0000 O   0  0
   12.0358   -2.9426    0.0000 C   0  0  1  0  0  0
   10.6657   -2.3320    0.0000 N   0  0
    9.4466   -1.4580    0.0000 C   0  0
    8.6524   -2.3576    0.0000 O   0  0
    8.4284   -0.3566    0.0000 C   0  0  1  0  0  0
    7.6527    0.9273    0.0000 N   0  0
    7.1513    2.3410    0.0000 C   0  0
    5.9855    2.0564    0.0000 O   0  0
    6.9448    3.8267    0.0000 C   0  0  1  0  0  0
    7.0415    5.3236    0.0000 N   0  0
    7.4376    6.7703    0.0000 C   0  0
    6.3154    7.1953    0.0000 O   0  0
    8.0995    8.1174    0.0000 C   0  0  2  0  0  0
    9.0556    9.2733    0.0000 C   0  0
   10.2130   10.2274    0.0000 N   0  0
   11.5302   10.9451    0.0000 C   0  0
   11.0587   12.0486    0.0000 O   0  0
   12.9593   11.4007    0.0000 C   0  0
   14.4561   11.5120    0.0000 C   0  0
   15.9461   11.3396    0.0000 C   0  0
   16.5506   11.4213    0.0000 C   0  0
   15.9449   11.4692    0.0000 C   0  0
   14.4488   11.5775    0.0000 C   0  0
   17.3935   11.0798    0.0000 C   0  0
   18.7422   10.4233    0.0000 N   0  0
   19.9422    9.5233    0.0000 C   0  0  1  0  0  0
   20.9503    8.4126    0.0000 C   0  0
   21.7299    7.1311    0.0000 N   0  0
   22.7232    6.4577    0.0000 C   0  0
   22.2530    5.7252    0.0000 C   0  0
   22.5005    4.2458    0.0000 C   0  0
   23.6975    4.3304    0.0000 O   0  0
   22.4635    2.7463    0.0000 N   0  0
   22.1435    1.2808    0.0000 C   0  0  1  0  0  0
   21.5518   -0.0976    0.0000 C   0  0
   22.6046   -0.6736    0.0000 O   0  0
   20.7100   -1.3391    0.0000 N   0  0
   19.6485   -2.3989    0.0000 C   0  0  2  0  0  0
   20.0426   -3.8552    0.0000 C   0  0
   21.4912   -4.2447    0.0000 C   0  0
   22.5527   -3.1849    0.0000 C   0  0
   22.1657   -1.7357    0.0000 C   0  0
   18.4056   -3.2386    0.0000 C   0  0
   18.9798   -4.2923    0.0000 O   0  0
   17.0262   -3.8279    0.0000 N   0  0
   15.5602   -4.1456    0.0000 C   0  0  1  0  0  0
   15.7414   -5.6474    0.0000 C   0  0
   17.1214   -6.2376    0.0000 C   0  0
   17.3115   -7.7372    0.0000 C   0  0
   18.6886   -8.3244    0.0000 C   0  0
   18.8683   -9.8107    0.0000 C   0  0
   20.2454  -10.3979    0.0000 C   0  0
   21.4427   -9.4989    0.0000 C   0  0
   21.2630   -8.0127    0.0000 C   0  0
   19.8859   -7.4254    0.0000 C   0  0
   19.7062   -5.9392    0.0000 C   0  0
   18.3182   -5.3374    0.0000 C   0  0
   14.0606   -4.1800    0.0000 C   0  0
   13.9740   -5.3769    0.0000 O   0  0
   12.5816   -3.9300    0.0000 N   0  0
   11.1766   -3.4047    0.0000 C   0  0  1  0  0  0
   10.5171   -4.7661    0.0000 C   0  0
   11.3589   -6.0086    0.0000 C   0  0
   10.7046   -7.3593    0.0000 C   0  0
   11.5465   -8.6018    0.0000 N   0  0
   10.8922   -9.9525    0.0000 C   0  0
   11.5653  -10.9460    0.0000 N   0  0
    9.6953  -10.0391    0.0000 N   0  0
    9.8964   -2.6229    0.0000 C   0  0
    8.7873   -1.6130    0.0000 N   0  0
    7.8894   -0.4114    0.0000 C   0  0  2  0  0  0
    7.2351    0.9383    0.0000 C   0  0
    6.8481    2.3875    0.0000 N   0  0
    6.7423    3.8838    0.0000 C   0  0  1  0  0  0
    6.9216    5.3731    0.0000 C   0  0
    5.7493    5.6291    0.0000 O   0  0
    7.3796    6.8015    0.0000 N   0  0
    5.7426    3.9084    0.0000 C   0  0
    6.1104    0.5199    0.0000 O   0  0
    7.0351   -0.9312    0.0000 C   0  0
    9.2965   -3.4230    0.0000 O   0  0
   23.5831    0.8162    0.0000 C   0  0  1  0  0  0
   23.8357   -0.3569    0.0000 O   0  0
   24.4730    1.6212    0.0000 C   0  0
   21.7514    9.0112    0.0000 O   0  0
   20.7502   10.4106    0.0000 C   0  0
   17.7437   12.0165    0.0000 O   0  0
   17.3710   10.8707    0.0000 C   0  0
   18.6723   10.1246    0.0000 N   0  0
   19.7967    9.1318    0.0000 C   0  0
   20.6983    7.9330    0.0000 C   0  0  1  0  0  0
   22.1829    8.2224    0.0000 C   0  0
   22.6717    9.6414    0.0000 N   0  0
   24.1448    9.9285    0.0000 C   0  0  2  0  0  0
   25.1320    8.7981    0.0000 C   0  0
   26.3096    9.0290    0.0000 O   0  0
   24.7435    7.6627    0.0000 O   0  0
   24.6336   11.3476    0.0000 C   0  0
   26.1067   11.6347    0.0000 C   0  0
   26.5955   13.0537    0.0000 C   0  0
   28.0686   13.3409    0.0000 C   0  0
   28.4594   14.4754    0.0000 N   0  0
   22.9704    7.3169    0.0000 O   0  0
   21.3401    6.5773    0.0000 N   0  0
   21.6959    5.1201    0.0000 C   0  0
   21.7511    3.6211    0.0000 C   0  0  1  0  0  0
   21.5034    2.1417    0.0000 N   0  0
   20.9630    0.7424    0.0000 C   0  0
   22.0329    0.1990    0.0000 O   0  0
   23.2607    3.5264    0.0000 C   0  0
   23.9291    2.1827    0.0000 C   0  0
   25.4270    2.0887    0.0000 C   0  0
   26.0954    0.7450    0.0000 N   0  0
   27.5933    0.6510    0.0000 C   0  0
   28.1278   -0.4234    0.0000 N   0  0
   28.2569    1.6509    0.0000 N   0  0
   22.8845    5.2853    0.0000 O   0  0
   17.7780   11.7841    0.0000 O   0  0
    5.7493    4.7534    0.0000 C   0  0
    4.3596    4.1867    0.0000 C   0  0
    2.9305    4.6427    0.0000 C   0  0
    1.8211    3.6332    0.0000 C   0  0
    2.1406    2.1676    0.0000 C   0  0
    3.5696    1.7116    0.0000 C   0  0
    4.6790    2.7211    0.0000 C   0  0
    7.2213   -1.2681    0.0000 C   0  0
    7.4047   -2.7577    0.0000 C   0  0
    8.7821   -3.3454    0.0000 C   0  0
    8.9535   -4.8486    0.0000 C   0  0
    7.7553   -5.7461    0.0000 C   0  0
    7.9338   -7.2325    0.0000 C   0  0
    6.7357   -8.1301    0.0000 C   0  0
    5.3590   -7.5413    0.0000 C   0  0
    5.1805   -6.0549    0.0000 C   0  0
    6.3787   -5.1573    0.0000 C   0  0
    6.2002   -3.6709    0.0000 C   0  0
   11.5658   -4.3803    0.0000 C   0  0
   12.5673   -5.4980    0.0000 C   0  0
   12.1010   -6.9246    0.0000 C   0  0
   13.1025   -8.0423    0.0000 N   0  0
   12.6361   -9.4689    0.0000 C   0  0
   13.4369  -10.3626    0.0000 N   0  0
   11.4618   -9.7159    0.0000 N   0  0
   20.9389   -1.8111    0.0000 C   0  0
   22.3606   -2.2919    0.0000 C   0  0
   22.6561   -3.7633    0.0000 C   0  0
   24.0779   -4.2441    0.0000 N   0  0
   24.3733   -5.7155    0.0000 C   0  0
   25.5101   -6.0999    0.0000 N   0  0
   23.4723   -6.5081    0.0000 N   0  0
   19.2998   -3.3361    0.0000 H   0  0
   23.0104    1.7792    0.0000 H   0  0
    7.6389    7.2298    0.0000 H   0  0
  1  2  1  0
  3  2  1  0
  3  4  2  0
  5  3  1  0
  5  6  1  6
  6  7  1  0
  7  8  1  0
  8  9  1  0
  9 10  1  0
 10 11  1  0
 10 12  2  0
 13  5  1  0
 14 13  1  0
 14 15  2  0
 16 14  1  0
 17 16  1  0
 18 17  1  0
 18 19  2  0
 20 18  1  0
 21 20  1  0
 22 21  1  0
 22 23  2  0
 24 22  1  0
 25 24  1  0
 26 25  1  0
 26 27  2  0
 28 26  1  0
 28 29  1  0
 29 30  1  0
 31 30  1  0
 31 32  2  0
 33 31  1  0
 34 33  1  0
 35 34  2  0
 36 35  1  0
 37 36  2  0
 38 37  1  0
 33 38  2  0
 39 37  1  0
 40 39  1  0
 41 40  1  0
 42 41  1  0
 43 42  1  0
 43 44  1  0
 45 43  1  0
 46 45  1  0
 46 47  2  0
 48 46  1  0
 49 48  1  0
 50 49  1  0
 50 51  2  0
 52 50  1  0
 53 52  1  0
 53 54  1  0
 54 55  1  0
 55 56  1  0
 56 57  1  0
 57 52  1  0
 53 58  1  0
 58 59  2  0
 60 58  1  0
 61 60  1  0
 61 62  1  1
 62 63  1  0
 63 64  2  0
 64 65  1  0
 65 66  2  0
 66 67  1  0
 67 68  2  0
 68 69  1  0
 69 70  2  0
 70 71  1  0
 71 72  2  0
 72 63  1  0
 70 65  1  0
 61 73  1  0
 73 74  2  0
 73 75  1  0
 75 76  1  0
 76 77  1  1
 77 78  1  0
 78 79  1  0
 79 80  1  0
 80 81  1  0
 81 82  2  0
 81 83  1  0
 76 84  1  0
 84 85  1  0
 85 86  1  0
 86 87  1  0
 87 88  1  0
 88 89  1  0
 89 90  1  0
 90 91  2  0
 90 92  1  0
 92 28  1  0
 89 93  1  6
 87 94  2  0
 86 95  1  1
 84 96  2  0
 49 97  1  0
 97 98  1  6
 97 99  1  0
 42100  2  0
 41101  1  6
 39102  2  0
 35103  1  0
103104  1  0
104105  1  0
106105  1  0
106107  1  1
107108  1  0
109108  1  1
109110  1  0
110111  2  0
110112  1  0
109113  1  0
113114  1  0
114115  1  0
115116  1  0
116117  1  0
107118  2  0
106119  1  0
119120  1  0
120121  1  0
121122  1  0
122123  1  0
123  1  1  0
123124  2  0
121125  1  6
125126  1  0
126127  1  0
127128  1  0
128129  1  0
129130  2  0
129131  1  0
120132  2  0
103133  2  0
 24134  1  6
134135  1  0
135136  2  0
136137  1  0
137138  2  0
138139  1  0
139140  2  0
140135  1  0
 20141  1  6
141142  1  0
143142  1  0
144143  2  0
145144  1  0
146145  2  0
147146  1  0
148147  2  0
149148  1  0
150149  2  0
145150  1  0
151150  1  0
142151  2  0
 16152  1  6
152153  1  0
153154  1  0
154155  1  0
155156  1  0
156157  2  0
156158  1  0
  1159  1  6
159160  1  0
160161  1  0
161162  1  0
162163  1  0
163164  2  0
163165  1  0
 53166  1  1
 49167  1  1
 28168  1  6
M  END