
          11280715482D 1   1.00000     0.00000     0

 33 37  0     0  0            999 V2000
    3.6917   -0.9667    0.0000 C   0  0  0  0  0  0           0  0  0
    2.9417   -0.6250    0.0000 N   0  0  0  0  0  0           0  0  0
    2.3792   -1.2375    0.0000 C   0  0  0  0  0  0           0  0  0
    3.6000   -1.7875    0.0000 C   0  0  0  0  0  0           0  0  0
    2.7917   -1.9542    0.0000 N   0  0  0  0  0  0           0  0  0
    4.4125   -0.5542    0.0000 C   0  0  0  0  0  0           0  0  0
    4.6417   -3.7042    0.0000 C   0  0  3  0  0  0           0  0  0
    5.1250   -0.9750    0.0000 N   0  0  0  0  0  0           0  0  0
    7.9750   -1.0000    0.0000 C   0  0  0  0  0  0           0  0  0
    1.5667   -1.1417    0.0000 C   0  0  3  0  0  0           0  0  0
    7.2667   -0.5792    0.0000 C   0  0  0  0  0  0           0  0  0
    5.9500   -4.0417    0.0000 C   0  0  3  0  0  0           0  0  0
    4.8167   -4.9625    0.0000 C   0  0  3  0  0  0           0  0  0
    5.2417   -5.1917    0.0000 C   0  0  3  0  0  0           0  0  0
    4.4167    0.2708    0.0000 O   0  0  0  0  0  0           0  0  0
    4.2042   -2.3417    0.0000 C   0  0  0  0  0  0           0  0  0
    5.8417   -0.5667    0.0000 C   0  0  0  0  0  0           0  0  0
    6.5500   -0.9917    0.0000 C   0  0  0  0  0  0           0  0  0
    5.4042   -3.4292    0.0000 C   0  0  0  0  0  0           0  0  0
    4.6667   -4.5667    0.0000 C   0  0  0  0  0  0           0  0  0
    4.2792   -4.3792    0.0000 C   0  0  0  0  0  0           0  0  0
    7.9667   -1.8250    0.0000 O   0  0  0  0  0  0           0  0  0
    4.0292   -3.1500    0.0000 C   0  0  0  0  0  0           0  0  0
    4.8042   -5.9000    0.0000 C   0  0  0  0  0  0           0  0  0
    5.5167   -4.6792    0.0000 C   0  0  0  0  0  0           0  0  0
    6.0042   -4.9125    0.0000 C   0  0  0  0  0  0           0  0  0
    8.6917   -0.5917    0.0000 O   0  0  0  0  0  0           0  0  0
    7.2667    0.2458    0.0000 C   0  0  0  0  0  0           0  0  0
    6.5542    0.6583    0.0000 C   0  0  0  0  0  0           0  0  0
    1.2875   -0.3542    0.0000 C   0  0  0  0  0  0           0  0  0
    1.4000   -1.9792    0.0000 C   0  0  0  0  0  0           0  0  0
    0.8125   -0.9667    0.0000 C   0  0  0  0  0  0           0  0  0
    5.8417    0.2500    0.0000 C   0  0  0  0  0  0           0  0  0
  2  1  1  0     0  0
  3  2  2  0     0  0
  4  1  2  0     0  0
  5  4  1  0     0  0
  6  1  1  0     0  0
  7 23  1  0     0  0
  8  6  1  0     0  0
  9 11  1  0     0  0
 10  3  1  0     0  0
 11 18  1  0     0  0
 12 19  1  0     0  0
 13 21  1  0     0  0
 14 20  1  0     0  0
 15  6  2  0     0  0
 16  4  1  0     0  0
 17  8  1  0     0  0
 18 17  2  0     0  0
 19  7  1  0     0  0
 20  7  1  0     0  0
 21  7  1  0     0  0
 22  9  2  0     0  0
 23 16  1  0     0  0
 24 13  1  0     0  0
 25 13  1  0     0  0
 26 14  1  0     0  0
 27  9  1  0     0  0
 28 29  1  0     0  0
 29 33  2  0     0  0
 30 10  1  0     0  0
 31 10  1  0     0  0
 32 10  1  0     0  0
 33 17  1  0     0  0
  3  5  1  0     0  0
 11 28  2  0     0  0
 25 12  1  0     0  0
 24 14  1  0     0  0
 12 26  1  0     0  0
M  END