
  SciTegic01161211252D

 29 31  0  0  0  0            999 V2000
    5.3792   -2.4125    0.0000 N   0  0
    6.1667   -2.1750    0.0000 C   0  0
    6.1833   -1.3458    0.0000 C   0  0
    5.4042   -1.0750    0.0000 N   0  3
    5.1042   -3.1875    0.0000 C   0  0  1  0  0  0
    6.8708   -2.6042    0.0000 N   0  0
    4.9083   -1.7333    0.0000 C   0  0
    6.9083   -0.9458    0.0000 C   0  0
    7.6167   -1.3792    0.0000 N   0  0
    5.5708   -3.8708    0.0000 C   0  0  1  0  0  0
    7.6000   -2.2083    0.0000 C   0  0
    4.3125   -3.4292    0.0000 O   0  0
    2.1917   -4.8417    0.0000 P   0  0
    0.8083   -5.2042    0.0000 P   0  0
    1.6042   -5.4208    0.0000 O   0  0
    4.2917   -4.2542    0.0000 C   0  0  1  0  0  0
    5.0708   -4.5292    0.0000 C   0  0  1  0  0  0
    3.6125   -4.7250    0.0000 C   0  0
    2.8708   -4.3708    0.0000 O   0  0
    6.9250   -0.1208    0.0000 O   0  0
    2.7208   -5.4750    0.0000 O   0  5
    0.2208   -5.7875    0.0000 O   0  0
    1.6625   -4.2042    0.0000 O   0  0
    1.2167   -5.9208    0.0000 O   0  0
    8.3042   -2.6333    0.0000 N   0  0
    5.1625   -0.2875    0.0000 C   0  0
    6.3958   -3.8917    0.0000 O   0  0
    0.5958   -4.4083    0.0000 O   0  0
    5.3083   -5.3167    0.0000 O   0  0
  2  1  1  0
  3  2  2  0
  4  7  2  0
  5  1  1  1
  6  2  1  0
  7  1  1  0
  8  3  1  0
  9 11  1  0
 10  5  1  0
 11  6  2  0
 12  5  1  0
 13 19  1  0
 14 15  1  0
 15 13  1  0
 16 12  1  0
 17 10  1  0
 16 18  1  1
 19 18  1  0
 20  8  2  0
 21 13  1  0
 22 14  1  0
 23 13  2  0
 24 14  2  0
 25 11  1  0
 26  4  1  0
 10 27  1  6
 28 14  1  0
 17 29  1  6
  4  3  1  0
 17 16  1  0
  8  9  1  0
M  CHG  2   4   1  21  -1
M  END