
  SciTegic12231509382D

 19 20  0  0  0  0            999 V2000
   -1.7674   -0.6296    0.0000 Cl  0  0
    1.0905   -0.6296    0.0000 Cl  0  0
   -0.3384    2.6704    0.0000 O   0  0
   -1.0529    1.4329    0.0000 O   0  0
   -0.3384    0.1954    0.0000 N   0  0
   -0.3384   -0.6296    0.0000 C   0  0
   -1.0529   -1.0421    0.0000 C   0  0
    0.3760    0.6079    0.0000 C   0  0
    0.3760   -1.0421    0.0000 C   0  0
    0.3760    1.4329    0.0000 C   0  0
   -1.0529   -1.8671    0.0000 C   0  0
    0.3760   -1.8671    0.0000 C   0  0
   -0.3384   -2.2796    0.0000 C   0  0
    1.0905    0.1954    0.0000 C   0  0
   -0.3384    1.8454    0.0000 C   0  0
    1.0905    1.8454    0.0000 C   0  0
    1.8050    0.6079    0.0000 C   0  0
    1.8050    1.4329    0.0000 C   0  0
   -1.7674   -2.2796    0.0000 C   0  0
  1  7  1  0
  2  9  1  0
  3 15  1  0
  4 15  2  0
  5  6  1  0
  5  8  1  0
  6  7  1  0
  6  9  2  0
  7 11  2  0
  8 10  2  0
  8 14  1  0
  9 12  1  0
 10 15  1  0
 10 16  1  0
 11 13  1  0
 11 19  1  0
 12 13  2  0
 14 17  2  0
 16 18  2  0
 17 18  1  0
M  END