
  SciTegic10311217562D

 58 53  0  0  0  0            999 V2000
    1.5154  -10.8333    0.0000 C   0  0
    2.2311  -10.4229    0.0000 C   0  0
    2.9444  -10.8375    0.0000 N   0  0
    3.6600  -10.4271    0.0000 C   0  0
    4.3733  -10.8417    0.0000 C   0  0
    3.6625   -9.6021    0.0000 O   0  0
    5.0890  -10.4313    0.0000 N   0  0
    5.8022  -10.8459    0.0000 C   0  0
    6.5179  -10.4355    0.0000 O   0  0
    5.7998  -11.6709    0.0000 C   0  0
    2.9494   -6.7208    0.0000 S   0  0
    3.6639   -7.1333    0.0000 O   0  5
    2.5293   -6.0042    0.0000 O   0  0
    3.3543   -6.0042    0.0000 O   0  0
    0.0916   -8.3666    0.0000 C   0  0  2  0  0  0
    0.0916   -9.1916    0.0000 C   0  0  1  0  0  0
    0.8037   -9.6000    0.0000 C   0  0  2  0  0  0
    1.5157   -9.1916    0.0000 O   0  0
    1.5157   -8.3666    0.0000 C   0  0  1  0  0  0
    0.8037   -7.9500    0.0000 C   0  0  1  0  0  0
   -0.6240   -7.9562    0.0000 O   0  0
   -0.6222   -9.6052    0.0000 O   0  0
    0.8037   -7.1250    0.0000 O   0  0
    0.8037  -10.4250    0.0000 O   0  0
    0.0892   -6.7125    0.0000 S   0  0
   -0.6253   -7.1250    0.0000 O   0  5
   -0.3292   -5.9958    0.0000 O   0  0
    0.4958   -5.9958    0.0000 O   0  0
   -1.3373   -8.3708    0.0000 S   0  0
   -2.0530   -7.9604    0.0000 O   0  5
   -1.7542   -9.0833    0.0000 O   0  0
   -0.9292   -9.0833    0.0000 O   0  0
   -0.6210  -10.4302    0.0000 S   0  0
   -1.3349  -10.8437    0.0000 O   0  5
    0.2000  -10.4291    0.0000 O   0  0
   -0.2167  -11.1416    0.0000 O   0  0
    2.2313   -7.9562    0.0000 C   0  0
    2.2338   -7.1312    0.0000 O   0  0
    5.0914   -9.6063    0.0000 C   0  0
    5.8071   -9.1959    0.0000 C   0  0
    6.5131  -12.0855    0.0000 C   0  0
    6.5107  -12.9105    0.0000 C   0  0
    7.2239  -13.3251    0.0000 C   0  0
    7.9396  -12.9147    0.0000 C   0  0
    8.6529  -13.3292    0.0000 C   0  0
    9.3685  -12.9188    0.0000 C   0  0
   10.0818  -13.3334    0.0000 C   0  0
   10.7975  -12.9230    0.0000 C   0  0
   11.5107  -13.3376    0.0000 O   0  0
   12.2264  -12.9272    0.0000 S   0  0
   12.9397  -13.3418    0.0000 O   0  5
   11.8083  -12.2083    0.0000 O   0  0
   12.6333  -12.2083    0.0000 O   0  0
    5.6417   -7.4083    0.0000 Na  0  3
   -0.3875   -5.1292    0.0000 Na  0  3
   -2.9167   -7.3792    0.0000 Na  0  3
   -2.9500  -10.7208    0.0000 Na  0  3
   12.5750  -14.4375    0.0000 Na  0  3
 25 28  2  0
  7  8  1  0
 21 29  1  0
 29 30  1  0
  8  9  2  0
 29 31  2  0
  4  5  1  0
 29 32  2  0
  8 10  1  0
  2  3  1  0
 22 33  1  0
 15 20  1  0
 33 34  1  0
 16 17  1  0
 33 35  2  0
 17 18  1  0
 33 36  2  0
 18 19  1  0
 19 20  1  0
 19 37  1  1
  4  6  2  0
 37 38  1  0
 38 11  1  0
 24  1  1  0
 15 21  1  1
  7 39  1  0
 11 12  1  0
 39 40  1  0
 16 22  1  1
 10 41  1  0
  1  2  1  0
 41 42  1  0
 20 23  1  6
 42 43  1  0
 11 13  2  0
 43 44  1  0
 17 24  1  6
 44 45  1  0
  5  7  1  0
 45 46  1  0
 23 25  1  0
 46 47  1  0
 11 14  2  0
 47 48  1  0
 25 26  1  0
 48 49  1  0
  3  4  1  0
 49 50  1  0
 50 51  1  0
 25 27  2  0
 50 52  2  0
 15 16  1  0
 50 53  2  0
M  CHG  8  12  -1  26  -1  30  -1  34  -1  51  -1  54   1  55   1  56   1
M  CHG  2  57   1  58   1
M  END