
  SciTegic01181116592D

 64 69  0  0  0  0            999 V2000
   16.7401  -12.2368    0.0000 C   0  0
   17.1613  -12.9490    0.0000 C   0  0
   16.7552  -13.6676    0.0000 C   0  0
   15.9281  -13.6754    0.0000 C   0  0
   15.5088  -12.9585    0.0000 C   0  0
   15.9173  -12.2427    0.0000 C   0  0
   15.5000  -11.5311    0.0000 N   0  0
   14.6791  -11.4499    0.0000 N   0  0
   14.5026  -10.6440    0.0000 C   0  0
   15.2146  -10.2271    0.0000 C   0  0
   15.8309  -10.7754    0.0000 C   0  0
   16.6514  -10.7770    0.0000 C   0  0
   17.0638  -10.0613    0.0000 C   0  0
   17.8881  -10.0615    0.0000 C   0  0
   18.3008  -10.7769    0.0000 C   0  0
   17.8834  -11.4934    0.0000 C   0  0
   17.0605  -11.4896    0.0000 C   0  0
   15.2959   -9.4061    0.0000 C   0  0
   13.7830  -10.2400    0.0000 C   0  0
   13.0734  -10.6609    0.0000 N   0  0
   13.7732   -9.4151    0.0000 O   0  0
   14.6838  -12.9629    0.0000 Cl  0  0
   17.1744  -14.3782    0.0000 Cl  0  0
   19.1258  -10.7786    0.0000 Cl  0  0
   -2.0237  -12.0683    0.0000 C   0  0
   -2.4449  -12.7805    0.0000 C   0  0
   -2.0388  -13.4991    0.0000 C   0  0
   -1.2117  -13.5069    0.0000 C   0  0
   -0.7924  -12.7900    0.0000 C   0  0
   -1.2009  -12.0742    0.0000 C   0  0
   -0.7836  -11.3626    0.0000 N   0  0
    0.0374  -11.2814    0.0000 N   0  0
    0.2138  -10.4755    0.0000 C   0  0
   -0.4982  -10.0586    0.0000 C   0  0
   -1.1145  -10.6069    0.0000 C   0  0
   -1.9350  -10.6086    0.0000 C   0  0
   -2.3474   -9.8928    0.0000 C   0  0
   -3.1717   -9.8930    0.0000 C   0  0
   -3.5844  -10.6084    0.0000 C   0  0
   -3.1669  -11.3249    0.0000 C   0  0
   -2.3441  -11.3211    0.0000 C   0  0
   -0.5795   -9.2376    0.0000 C   0  0
    0.9335  -10.0715    0.0000 C   0  0
    1.6430  -10.4924    0.0000 N   0  0
    0.9432   -9.2466    0.0000 O   0  0
    0.0326  -12.7944    0.0000 Cl  0  0
   -2.4579  -14.2097    0.0000 Cl  0  0
   -4.4094  -10.6101    0.0000 Cl  0  0
    2.3623  -10.0884    0.0000 C   0  0
    3.0719  -10.5093    0.0000 C   0  0
    3.7911  -10.1052    0.0000 C   0  0
    4.5007  -10.5261    0.0000 C   0  0
    5.2200  -10.1220    0.0000 C   0  0
    5.9296  -10.5429    0.0000 C   0  0
    6.6488  -10.1389    0.0000 C   0  0
    7.3584  -10.5598    0.0000 N   0  0
    8.0777  -10.1557    0.0000 C   0  0
    8.7872  -10.5766    0.0000 C   0  0
    9.5065  -10.1726    0.0000 C   0  0
   10.2161  -10.5934    0.0000 C   0  0
   10.9354  -10.1894    0.0000 C   0  0
   11.6449  -10.6103    0.0000 C   0  0
   12.3642  -10.2062    0.0000 C   0  0
    7.3487  -11.3847    0.0000 C   0  0
 14 15  2  0
  3  4  2  0
 15 16  1  0
 16 17  2  0
 32 33  2  0
 33 34  1  0
 34 35  2  0
 35 31  1  0
 30 31  1  0
 17 12  1  0
 11 12  1  0
 36 37  2  0
  4  5  1  0
 37 38  1  0
 10 18  1  0
 38 39  2  0
  2  3  1  0
 39 40  1  0
  9 19  1  0
 40 41  2  0
 41 36  1  0
 35 36  1  0
  8  9  2  0
 34 42  1  0
 19 20  1  0
 33 43  1  0
  9 10  1  0
 43 44  1  0
 19 21  2  0
 43 45  2  0
 10 11  2  0
 29 46  1  0
  5 22  1  0
 27 47  1  0
 11  7  1  0
 39 48  1  0
  3 23  1  0
 44 49  1  0
  6  7  1  0
 49 50  1  0
 15 24  1  0
 50 51  1  0
  5  6  2  0
 51 52  1  0
  6  1  1  0
 52 53  1  0
 25 26  2  0
 53 54  1  0
 12 13  2  0
 54 55  1  0
 26 27  1  0
 55 56  1  0
  7  8  1  0
 56 57  1  0
 27 28  2  0
 57 58  1  0
 13 14  1  0
 58 59  1  0
 28 29  1  0
 59 60  1  0
  1  2  2  0
 60 61  1  0
 29 30  2  0
 61 62  1  0
 30 25  1  0
 62 63  1  0
 63 20  1  0
 31 32  1  0
 56 64  1  0
M  END