
  SciTegic12231509382D

 51 55  0  0  0  0            999 V2000
   -7.7621   -8.2873    0.0000 C   0  0
   -9.0568   -9.0035    0.0000 C   0  0
   -9.0477  -10.5034    0.0000 C   0  0
   -7.7441  -11.2455    0.0000 O   0  0
   -6.4496  -10.4876    0.0000 C   0  0
   -6.4588   -8.9877    0.0000 C   0  0
   -2.5903   -3.7549    0.0000 C   0  0
   -3.8937   -3.0126    0.0000 C   0  0
   -5.1883   -3.7703    0.0000 C   0  0
   -5.1794   -5.2703    0.0000 C   0  0
   -3.8760   -6.0126    0.0000 C   0  0
   -2.5813   -5.2550    0.0000 C   0  0
   -1.2757   -5.9950    0.0000 C   0  0
    0.0186   -5.2351    0.0000 O   0  0
    1.3243   -5.9751    0.0000 C   0  0
    3.9352   -7.4416    0.0000 C   0  0
    2.6387   -8.2212    0.0000 C   0  0
    1.3332   -7.4880    0.0000 C   0  0
    3.9174   -5.9447    0.0000 C   0  0
    2.6119   -5.2114    0.0000 C   0  0
    2.5941   -3.7145    0.0000 N   0  0
    3.8817   -2.9507    0.0000 C   0  0
    5.1871   -3.6840    0.0000 C   0  0
    5.2050   -5.1809    0.0000 C   0  0
    3.8675   -1.7508    0.0000 C   0  0
   -1.5546   -3.1488    0.0000 Cl  0  0
   -3.8689   -7.2126    0.0000 Cl  0  0
   -6.4747   -6.0284    0.0000 S   0  0
   -6.4668   -7.5292    0.0000 N   0  0
   -7.5173   -5.4342    0.0000 O   0  0
   -7.5107   -6.6340    0.0000 O   0  0
    6.2512   -5.7686    0.0000 C   0  0
   -9.0668   -7.5448    0.0000 C   0  0
   -9.0740   -6.3448    0.0000 O   0  0
  -10.3624   -8.3025    0.0000 N   0  0
  -11.6672   -7.5625    0.0000 C   0  0
  -12.9604   -8.3224    0.0000 C   0  0
  -12.9490   -9.8223    0.0000 N   0  0
  -11.6443  -10.5624    0.0000 C   0  0
  -10.3510   -9.8025    0.0000 C   0  0
  -14.2414  -10.5853    0.0000 C   0  0
  -15.2862   -9.9951    0.0000 O   0  0
  -14.2278  -12.0861    0.0000 C   0  0  2  0  0  0
  -15.5202  -12.8491    0.0000 C   0  0
  -13.1830  -12.6763    0.0000 N   0  0
  -15.5066  -14.3498    0.0000 C   0  0
  -16.7990  -15.1128    0.0000 C   0  0
  -16.7854  -16.6136    0.0000 N   0  3
  -17.8188  -17.2236    0.0000 C   0  0
  -15.7406  -17.2038    0.0000 C   0  0
  -16.7740  -17.8135    0.0000 C   0  0
 11 12  2  0
 22 25  1  0
 12  7  1  0
  7 26  1  0
  4  5  1  0
 11 27  1  0
 12 13  1  0
 10 28  1  0
  5  6  1  0
 28 29  1  0
 13 14  1  0
 28 30  2  0
 28 31  2  0
 14 15  1  0
 24 32  1  0
 29  1  1  0
 15 20  2  0
  1 33  1  0
 33 34  2  0
 19 16  2  0
 33 35  1  0
 35 36  1  0
  7  8  2  0
 16 17  1  0
  1  2  1  0
 17 18  2  0
 18 15  1  0
 35 40  1  0
 36 37  1  0
 37 38  1  0
 38 39  1  0
 39 40  1  0
  8  9  1  0
 38 41  1  0
  1  6  1  0
 41 42  2  0
 19 20  1  0
 41 43  1  0
  9 10  2  0
 43 44  1  0
 20 21  1  0
 43 45  1  1
  2  3  1  0
 44 46  1  0
 21 22  2  0
 46 47  1  0
 10 11  1  0
 47 48  1  0
 22 23  1  0
 48 49  1  0
  3  4  1  0
 48 50  1  0
 23 24  2  0
 48 51  1  0
 24 19  1  0
M  CHG  1  48   1
M  END