
  SciTegic01161211252D

 42 46  0  0  0  0            999 V2000
    9.0663  -11.9532    0.0000 C   0  0
    4.1091  -10.5644    0.0000 N   0  0
    5.5355  -10.5715    0.0000 C   0  0  1  0  0  0
    4.8241  -10.1541    0.0000 C   0  0
    2.7352   -8.8712    0.0000 C   0  0
    3.4360   -9.3071    0.0000 C   0  0  1  0  0  0
    3.4123  -10.1339    0.0000 C   0  0
    6.2704  -10.2156    0.0000 C   0  0
    6.9712  -10.6475    0.0000 N   0  0
    6.2898   -9.3889    0.0000 O   0  0
    6.9431  -11.4707    0.0000 C   0  0
    7.6398  -11.9063    0.0000 C   0  0
    8.3663  -11.5149    0.0000 N   0  0
    8.3960  -10.6871    0.0000 C   0  0
    7.6910  -10.2509    0.0000 C   0  0
    4.1602   -8.9121    0.0000 C   0  0
    2.0110   -9.2662    0.0000 C   0  0
    1.3096   -8.8281    0.0000 C   0  0
    1.2675  -10.4819    0.0000 C   0  0
    1.9926  -10.0893    0.0000 C   0  0
    4.1049  -11.3915    0.0000 C   0  0
    5.5313  -11.3987    0.0000 C   0  0  2  0  0  0
    4.8131  -11.8099    0.0000 C   0  0  1  0  0  0
    4.8086  -12.6315    0.0000 C   0  0
    5.5206  -13.0479    0.0000 C   0  0
    6.2389  -12.6410    0.0000 C   0  0
    6.2450  -11.8132    0.0000 C   0  0
    9.0333  -12.7761    0.0000 C   0  0
    9.7323  -13.2143    0.0000 C   0  0
   10.4628  -12.8273    0.0000 C   0  0
   10.4899  -11.9977    0.0000 C   0  0
    9.7902  -11.5632    0.0000 C   0  0
   11.2176  -11.6084    0.0000 F   0  0
   11.1628  -13.2645    0.0000 F   0  0
    5.5311   -9.7450    0.0000 H   0  0
    6.2438  -10.9787    0.0000 H   0  0
    4.2222  -12.3917    0.0000 H   0  0
    0.5669  -10.0596    0.0000 C   0  0
    0.5851   -9.2243    0.0000 N   0  0
   -0.1516  -10.4551    0.0000 N   0  0
   -0.1684  -11.2802    0.0000 C   0  0
    0.5378  -11.7074    0.0000 C   0  0
 11 12  1  0
 12 13  1  0
 22 23  1  0
 13 14  1  0
 14 15  1  0
 22  3  1  0
  3  8  1  0
  3  4  1  0
 22 27  1  0
 23 24  1  0
 24 25  1  0
 25 26  1  0
 26 27  1  0
  8  9  1  0
  2 21  1  0
  8 10  2  0
 13  1  1  0
  1 28  2  0
  9 11  1  0
 28 29  1  0
  6 16  1  6
 29 30  2  0
  5 17  1  0
 30 31  1  0
  5  6  1  0
 31 32  2  0
 32  1  1  0
 17 18  2  0
 31 33  1  0
 18 39  1  0
 30 34  1  0
  2  4  1  0
  3 35  1  6
 38 19  1  0
 22 36  1  6
  6  7  1  0
 23 37  1  6
 38 39  2  0
 19 20  2  0
 20 17  1  0
  7  2  1  0
  9 15  1  0
 40 41  1  0
 38 40  1  0
 23 21  1  0
 41 42  1  0
M  END