
  SciTegic12131615002D

 29 32  0  0  0  0            999 V2000
    2.7979    7.3589    0.0000 C   0  0
   -0.0764    3.8550    0.0000 N   0  0
    3.8890    3.0026    0.0000 C   0  0
   -0.5364    5.2827    0.0000 C   0  0
   -1.2919    2.9980    0.0000 N   0  0
    0.8210    9.0446    0.0000 C   0  0
   -2.6111    0.7486    0.0000 N   0  0
    1.2964    1.4973    0.0000 C   0  0
   -2.5034    3.8610    0.0000 C   0  0
   -2.6111   -0.7486    0.0000 C   0  0
    0.3487    6.4947    0.0000 C   0  0
   -1.2964    1.4973    0.0000 C   0  0
    3.8911    1.5017    0.0000 O   0  0
   -2.0364    5.2864    0.0000 N   0  0
    3.8894   -2.7017    0.0000 C   0  0
    1.2964   -1.4973    0.0000 C   0  0
   -1.2964   -1.4973    0.0000 N   0  0
    2.5929    0.7486    0.0000 C   0  0
    2.2961    8.7724    0.0000 C   0  0
    0.0000    0.7486    0.0000 C   0  0
    3.8911   -1.5017    0.0000 O   0  0
    2.5929   -0.7486    0.0000 C   0  0
    0.0000   -0.7486    0.0000 C   0  0
    1.8246    6.2175    0.0000 N   0  0
   -3.6434    3.4862    0.0000 N   0  0
   -0.1523    7.9033    0.0000 C   0  0
    5.1872    3.7556    0.0000 C   0  0
    5.1850    5.2565    0.0000 O   0  0
    6.2230    5.8586    0.0000 C   0  0
 20  8  1  0
 17 23  2  0
 26  6  2  0
 16 23  1  0
 21 15  1  0
 11 26  1  0
  6 19  1  0
  4 11  1  0
  1 24  1  0
 11 24  2  0
  5  2  1  0
  2  4  2  0
 10  7  2  0
  8 18  2  0
 12 20  2  0
 20 23  1  0
  4 14  1  0
 13  3  1  0
  7 12  1  0
 18 13  1  0
 22 16  2  0
 18 22  1  0
 19  1  2  0
  5 12  1  0
 22 21  1  0
 17 10  1  0
  9 25  1  0
  5  9  1  0
 14  9  2  0
  3 27  1  0
 27 28  1  0
 28 29  1  0
M  END