
  SciTegic06051313522D

 29 33  0  0  0  0            999 V2000
   11.2370  -15.4069    0.0000 C   0  0
   11.2359  -16.2264    0.0000 C   0  0
   11.9439  -16.6354    0.0000 C   0  0
   11.9421  -14.9980    0.0000 C   0  0
   12.6508  -15.4033    0.0000 C   0  0
   12.6515  -16.2223    0.0000 C   0  0
   13.3601  -16.6294    0.0000 C   0  0
   14.0683  -16.2186    0.0000 C   0  0
   14.0636  -15.3964    0.0000 C   0  0
   13.3545  -14.9931    0.0000 C   0  0
   12.1560  -14.2018    0.0000 C   0  0
   13.1370  -14.1977    0.0000 C   0  0
   13.4362  -13.2634    0.0000 C   0  0
   12.6401  -12.6900    0.0000 C   0  0
   11.8490  -13.2701    0.0000 N   0  0
   12.6359  -11.7090    0.0000 O   0  0
   14.3680  -12.9563    0.0000 N   0  0
   15.0998  -13.6097    0.0000 C   0  0
   16.0315  -13.3026    0.0000 C   0  0
   16.7633  -13.9560    0.0000 C   0  0
   17.6950  -13.6490    0.0000 C   0  0
   13.3617  -17.4466    0.0000 S   0  0
   14.0703  -17.8537    0.0000 C   0  0
   14.0687  -18.6685    0.0000 C   0  0
   14.7764  -19.0756    0.0000 C   0  0
   15.4842  -18.6655    0.0000 C   0  0
   15.4799  -17.8441    0.0000 C   0  0
   14.7716  -17.4407    0.0000 C   0  0
   16.1933  -19.0716    0.0000 N   0  0
  1  2  2  0
  2  3  1  0
  3  6  2  0
  5  4  2  0
  4  1  1  0
  5  6  1  0
  6  7  1  0
  7  8  2  0
  8  9  1  0
  9 10  2  0
 10  5  1  0
  4 11  1  0
 10 12  1  0
 11 12  1  0
 12 13  2  0
 13 14  1  0
 14 15  1  0
 15 11  2  0
 14 16  2  0
 13 17  1  0
 17 18  1  0
 18 19  1  0
 19 20  1  0
 20 21  1  0
  7 22  1  0
 22 23  1  0
 23 24  2  0
 24 25  1  0
 25 26  2  0
 26 27  1  0
 27 28  2  0
 28 23  1  0
 26 29  1  0
M  END