
  CDK    9/16/09,9:46

 23 26  0  0  0  0  0  0  0  0999 V2000
   12.7138    1.6327    0.0000 C   0  0  0  0  0  0  0  0  0  0  0  0
   12.4300    0.8680    0.0000 C   0  0  0  0  0  0  0  0  0  0  0  0
   12.9482    0.2428    0.0000 C   0  0  0  0  0  0  0  0  0  0  0  0
   13.5109    1.7720    0.0000 C   0  0  0  0  0  0  0  0  0  0  0  0
   14.0352    1.1489    0.0000 C   0  0  0  0  0  0  0  0  0  0  0  0
   13.7518    0.3799    0.0000 C   0  0  0  0  0  0  0  0  0  0  0  0
   14.3956   -0.1274    0.0000 N   0  0  0  0  0  0  0  0  0  0  0  0
   16.6741    1.2377    0.0000 C   0  0  0  0  0  0  0  0  0  0  0  0
   15.0796    0.3274    0.0000 C   0  0  0  0  0  0  0  0  0  0  0  0
   14.8594    1.1131    0.0000 C   0  0  0  0  0  0  0  0  0  0  0  0
   15.3574    1.8038    0.0000 C   0  0  0  0  0  0  0  0  0  0  0  0
   16.1405    1.8400    0.0000 C   0  0  0  0  0  0  0  0  0  0  0  0
   16.5717    0.4446    0.0000 N   0  0  0  0  0  0  0  0  0  0  0  0
   15.8391    0.0173    0.0000 C   0  0  0  0  0  0  0  0  0  0  0  0
   17.3100   -0.8213    0.0000 C   0  0  0  0  0  0  0  0  0  0  0  0
   17.3081    0.0284    0.0000 C   0  0  0  0  0  0  0  0  0  0  0  0
   17.2685    0.8583    0.0000 C   0  0  0  0  0  0  0  0  0  0  0  0
   16.5774   -1.2485    0.0000 C   0  0  0  0  0  0  0  0  0  0  0  0
   15.8440   -0.8266    0.0000 C   0  0  0  0  0  0  0  0  0  0  0  0
   15.1140   -1.2507    0.0000 C   0  0  0  0  0  0  0  0  0  0  0  0
   15.1163   -2.0966    0.0000 C   0  0  0  0  0  0  0  0  0  0  0  0
   15.8545   -2.5166    0.0000 C   0  0  0  0  0  0  0  0  0  0  0  0
   16.5814   -2.0901    0.0000 C   0  0  0  0  0  0  0  0  0  0  0  0
 14  9  1  0  0  0  0 
 10 11  1  0  0  0  0 
 11 12  1  0  0  0  0 
 12  8  1  0  0  0  0 
  9 10  2  0  0  0  0 
  2  3  1  0  0  0  0 
  3  6  2  0  0  0  0 
  6  7  1  0  0  0  0 
  7  9  1  0  0  0  0 
 13 16  1  0  0  0  0 
 14 19  1  0  0  0  0 
 18 15  1  0  0  0  0 
 15 16  1  0  0  0  0 
 10  5  1  0  0  0  0 
 13 17  1  0  0  0  0 
  1  2  2  0  0  0  0 
  5  4  2  0  0  0  0 
 18 19  2  0  0  0  0 
  4  1  1  0  0  0  0 
 19 20  1  0  0  0  0 
  5  6  1  0  0  0  0 
 20 21  2  0  0  0  0 
 21 22  1  0  0  0  0 
 13  8  1  0  0  0  0 
 22 23  2  0  0  0  0 
 23 18  1  0  0  0  0 
M  END