
          11280714492D 1   1.00000     0.00000     0

 21 22  0     0  0            999 V2000
    3.8292   -3.2125    0.0000 C   0  0  0  0  0  0           0  0  0
    4.5417   -2.8042    0.0000 C   0  0  3  0  0  0           0  0  0
    3.8292   -4.0375    0.0000 C   0  0  0  0  0  0           0  0  0
    5.2542   -3.2125    0.0000 N   0  0  0  0  0  0           0  0  0
    5.2542   -4.0417    0.0000 C   0  0  0  0  0  0           0  0  0
    4.5417   -4.4417    0.0000 N   0  0  0  0  0  0           0  0  0
    4.5417   -1.9792    0.0000 C   0  0  0  0  0  0           0  0  0
    3.0042   -3.2125    0.0000 C   0  0  0  0  0  0           0  0  0
    3.8375   -1.5625    0.0000 C   0  0  0  0  0  0           0  0  0
    2.5917   -2.4917    0.0000 O   0  0  0  0  0  0           0  0  0
    5.9667   -4.4542    0.0000 S   0  0  0  0  0  0           0  0  0
    3.1167   -1.9750    0.0000 S   0  0  0  0  0  0           0  0  0
    2.5875   -3.9250    0.0000 O   0  0  0  0  0  0           0  0  0
    3.1125   -4.4417    0.0000 C   0  0  0  0  0  0           0  0  0
    5.2542   -1.5750    0.0000 C   0  0  0  0  0  0           0  0  0
    3.8375   -0.7500    0.0000 C   0  0  0  0  0  0           0  0  0
    5.9667   -5.2792    0.0000 C   0  0  0  0  0  0           0  0  0
    2.4042   -1.5542    0.0000 C   0  0  0  0  0  0           0  0  0
    1.7625   -3.9167    0.0000 C   0  0  0  0  0  0           0  0  0
    5.2542   -0.7500    0.0000 C   0  0  0  0  0  0           0  0  0
    4.5417   -0.3292    0.0000 C   0  0  0  0  0  0           0  0  0
  2  1  1  0     0  0
  3  1  2  0     0  0
  4  2  1  0     0  0
  5  6  2  0     0  0
  6  3  1  0     0  0
  7  2  1  0     0  0
  8  1  1  0     0  0
  9  7  1  0     0  0
 10  8  2  0     0  0
 11  5  1  0     0  0
 12  9  1  0     0  0
 13  8  1  0     0  0
 14  3  1  0     0  0
 15  7  2  0     0  0
 16  9  2  0     0  0
 17 11  1  0     0  0
 18 12  1  0     0  0
 19 13  1  0     0  0
 20 15  1  0     0  0
 21 20  2  0     0  0
  5  4  1  0     0  0
 21 16  1  0     0  0
M  END