
          11280714522D 1   1.00000     0.00000     0

 20 20  0     0  0            999 V2000
    4.0542   -5.7667    0.0000 C   0  0  0  0  0  0           0  0  0
    3.5292   -5.4750    0.0000 C   0  0  0  0  0  0           0  0  0
    3.5292   -4.8875    0.0000 C   0  0  0  0  0  0           0  0  0
    4.5750   -5.4667    0.0000 O   0  0  0  0  0  0           0  0  0
    4.5792   -3.0792    0.0000 N   0  0  0  0  0  0           0  0  0
    3.5417   -6.6750    0.0000 C   0  0  0  0  0  0           0  0  0
    4.0625   -6.3667    0.0000 O   0  0  0  0  0  0           0  0  0
    3.5417   -7.2750    0.0000 C   0  0  0  0  0  0           0  0  0
    3.0125   -3.9750    0.0000 O   0  0  0  0  0  0           0  0  0
    3.5292   -3.0667    0.0000 C   0  0  3  0  0  0           0  0  0
    3.0125   -4.5875    0.0000 C   0  0  0  0  0  0           0  0  0
    4.0542   -2.7792    0.0000 C   0  0  0  0  0  0           0  0  0
    3.5292   -3.6750    0.0000 C   0  0  0  0  0  0           0  0  0
    3.0125   -2.7750    0.0000 O   0  0  0  0  0  0           0  0  0
    3.0125   -5.7792    0.0000 C   0  0  0  0  0  0           0  0  0
    2.4792   -5.4875    0.0000 C   0  0  0  0  0  0           0  0  0
    5.1000   -2.7792    0.0000 C   0  0  3  0  0  0           0  0  0
    2.4792   -4.8792    0.0000 C   0  0  0  0  0  0           0  0  0
    5.6167   -3.0792    0.0000 C   0  0  0  0  0  0           0  0  0
    5.0917   -2.1792    0.0000 C   0  0  0  0  0  0           0  0  0
  2  1  1  0     0  0
  3  2  2  0     0  0
  4  1  2  0     0  0
  5 12  1  0     0  0
  6  7  1  0     0  0
  7  1  1  0     0  0
  8  6  2  0     0  0
  9 11  1  0     0  0
 10 13  1  0     0  0
 11  3  1  0     0  0
 12 10  1  0     0  0
 13  9  1  0     0  0
 14 10  1  0     0  0
 15  2  1  0     0  0
 16 15  2  0     0  0
 17  5  1  0     0  0
 18 16  1  0     0  0
 19 17  1  0     0  0
 20 17  1  0     0  0
 18 11  2  0     0  0
M  END