
          11280714492D 1   1.00000     0.00000     0

 28 30  0     0  0            999 V2000
    2.3792   -1.5792    0.0000 C   0  0  0  0  0  0           0  0  0
    0.9625   -1.5875    0.0000 C   0  0  0  0  0  0           0  0  0
    0.9625   -2.4042    0.0000 C   0  0  0  0  0  0           0  0  0
    3.0917   -1.1667    0.0000 C   0  0  0  0  0  0           0  0  0
    1.6667   -1.1750    0.0000 C   0  0  0  0  0  0           0  0  0
    1.6750   -2.8167    0.0000 C   0  0  0  0  0  0           0  0  0
    2.3792   -2.4042    0.0000 C   0  0  0  0  0  0           0  0  0
    0.2500   -1.1667    0.0000 C   0  0  3  0  0  0           0  0  0
    0.2500   -2.8167    0.0000 C   0  0  3  0  0  0           0  0  0
    5.9542   -2.8042    0.0000 C   0  0  0  0  0  0           0  0  0
    3.0917   -0.3417    0.0000 C   0  0  0  0  0  0           0  0  0
    3.8125   -1.5792    0.0000 C   0  0  0  0  0  0           0  0  0
    5.2375   -2.4000    0.0000 C   0  0  0  0  0  0           0  0  0
   -0.4583   -2.4125    0.0000 C   0  0  0  0  0  0           0  0  0
   -0.4583   -1.5875    0.0000 C   0  0  0  0  0  0           0  0  0
    6.6667   -2.3917    0.0000 O   0  0  0  0  0  0           0  0  0
    4.5167   -1.1625    0.0000 C   0  0  0  0  0  0           0  0  0
    3.8042   -2.4042    0.0000 C   0  0  0  0  0  0           0  0  0
    4.5250   -2.8125    0.0000 C   0  0  0  0  0  0           0  0  0
    5.2292   -1.5667    0.0000 C   0  0  0  0  0  0           0  0  0
    5.9542   -3.6292    0.0000 O   0  0  0  0  0  0           0  0  0
    3.1000   -2.8167    0.0000 C   0  0  0  0  0  0           0  0  0
    0.9625   -0.7542    0.0000 C   0  0  0  0  0  0           0  0  0
   -0.4708   -3.2292    0.0000 C   0  0  0  0  0  0           0  0  0
    0.9625   -3.2292    0.0000 C   0  0  0  0  0  0           0  0  0
   -0.4708   -0.7542    0.0000 C   0  0  0  0  0  0           0  0  0
    3.8042    0.0708    0.0000 C   0  0  0  0  0  0           0  0  0
    2.3792    0.0708    0.0000 C   0  0  0  0  0  0           0  0  0
  2  5  1  0     0  0
  3  6  1  0     0  0
  4  1  1  0     0  0
  5  1  2  0     0  0
  6  7  2  0     0  0
  7  1  1  0     0  0
  8  2  1  0     0  0
  9  3  1  0     0  0
 10 13  1  0     0  0
 11  4  2  0     0  0
 12  4  1  0     0  0
 13 19  2  0     0  0
 14  9  1  0     0  0
 15  8  1  0     0  0
 16 10  2  0     0  0
 17 12  1  0     0  0
 18 12  2  0     0  0
 19 18  1  0     0  0
 20 17  2  0     0  0
 21 10  1  0     0  0
 22  7  1  0     0  0
 23  8  1  0     0  0
 24  9  1  0     0  0
 25  9  1  0     0  0
 26  8  1  0     0  0
 27 11  1  0     0  0
 28 11  1  0     0  0
  2  3  2  0     0  0
 15 14  1  0     0  0
 13 20  1  0     0  0
M  END