
  SciTegic12171312552D

 80 90  0  0  0  0            999 V2000
    4.7350   -5.0344    0.0000 N   0  0
    4.7330   -5.8624    0.0000 C   0  0
    5.4504   -6.2759    0.0000 N   0  0
    5.4450   -4.6214    0.0000 C   0  0
    6.1642   -5.0330    0.0000 C   0  0
    6.1673   -5.8560    0.0000 C   0  0
    6.9563   -6.1068    0.0000 N   0  0
    7.4365   -5.4358    0.0000 C   0  0
    6.9486   -4.7725    0.0000 N   0  0
    4.0213   -6.2749    0.0000 O   0  0
    5.4450   -3.7964    0.0000 O   0  0
    8.2614   -5.4358    0.0000 C   0  0
    8.6794   -6.1467    0.0000 C   0  0
    9.5031   -6.1400    0.0000 C   0  0
    9.9106   -5.4192    0.0000 C   0  0
    9.4891   -4.7122    0.0000 C   0  0
    8.6674   -4.7160    0.0000 C   0  0
   10.7355   -5.4192    0.0000 O   0  0
    4.0232   -4.6219    0.0000 C   0  0
    3.3073   -5.0345    0.0000 C   0  0
    2.5915   -4.6220    0.0000 C   0  0
    5.4504   -7.1009    0.0000 C   0  0
    4.7352   -7.5131    0.0000 C   0  0
    4.7352   -8.3384    0.0000 C   0  0
   11.1499   -4.7042    0.0000 C   0  0
   11.9730   -4.7042    0.0000 C   0  0
   12.3860   -3.9916    0.0000 N   0  0
   12.3850   -5.4191    0.0000 O   0  0
   13.2105   -3.9916    0.0000 C   0  0
   13.6231   -3.2756    0.0000 C   0  0
   14.4480   -3.2756    0.0000 N   0  0
   14.8605   -2.5596    0.0000 C   0  0
   15.6855   -2.5596    0.0000 C   0  0
   14.4480   -1.8437    0.0000 O   0  0
   16.0979   -3.2755    0.0000 C   0  0
   16.9229   -3.2755    0.0000 C   0  0
   17.3354   -3.9913    0.0000 C   0  0
   18.1604   -3.9913    0.0000 C   0  0
   18.5729   -4.7030    0.0000 N   0  0
   18.1604   -5.4188    0.0000 S   0  0
   18.5729   -6.1306    0.0000 C   0  0
   18.1604   -6.8464    0.0000 C   0  0
   18.5729   -7.5623    0.0000 C   0  0
   19.3979   -7.5623    0.0000 C   0  0
   19.8104   -6.8464    0.0000 C   0  0
   19.3979   -6.1306    0.0000 C   0  0
   19.8104   -8.2782    0.0000 C   0  0
   19.3979   -8.9898    0.0000 C   0  0
   19.8104   -9.7057    0.0000 C   0  0
   20.6354   -9.7057    0.0000 O   0  0
   21.0479   -8.9898    0.0000 C   0  0
   20.6354   -8.2782    0.0000 C   0  0
   18.5729   -8.9898    0.0000 C   0  0
   18.1604   -9.7057    0.0000 C   0  0
   18.5729  -10.4174    0.0000 C   0  0
   19.3979  -10.4174    0.0000 C   0  0
   17.3354   -9.7057    0.0000 C   0  0
   16.9229  -10.4174    0.0000 C   0  0
   17.3354  -11.1333    0.0000 C   0  0
   18.1604  -11.1333    0.0000 N   0  0
   21.8729   -8.9898    0.0000 C   0  0
   22.2854   -8.2782    0.0000 C   0  0
   21.8729   -7.5623    0.0000 C   0  0
   21.0479   -7.5623    0.0000 C   0  0
   23.1104   -8.2782    0.0000 N   0  3
   23.5229   -7.5623    0.0000 C   0  0
   23.1104   -6.8464    0.0000 C   0  0
   22.2854   -6.8464    0.0000 C   0  0
   18.5729  -11.8491    0.0000 C   0  0
   19.3979  -11.8491    0.0000 C   0  0
   19.8104  -11.1333    0.0000 C   0  0
   22.2854   -9.7057    0.0000 C   0  0
   23.1104   -9.7057    0.0000 C   0  0
   23.5229   -8.9898    0.0000 C   0  0
   20.6354   -6.8464    0.0000 S   0  0
   21.0479   -6.1306    0.0000 O   0  5
   20.6354   -7.6714    0.0000 O   0  0
   21.3513   -7.2589    0.0000 O   0  0
   17.4488   -5.0063    0.0000 O   0  0
   17.4488   -5.8313    0.0000 O   0  0
  1  2  1  0
  2  3  1  0
  3  6  1  0
  5  4  1  0
  4  1  1  0
  5  6  2  0
  6  7  1  0
  7  8  2  0
  8  9  1  0
  9  5  1  0
  2 10  2  0
  4 11  2  0
 12 13  2  0
 13 14  1  0
 14 15  2  0
 15 16  1  0
 16 17  2  0
 17 12  1  0
  8 12  1  0
 15 18  1  0
  1 19  1  0
 19 20  1  0
 20 21  1  0
  3 22  1  0
 22 23  1  0
 23 24  1  0
 18 25  1  0
 25 26  1  0
 26 27  1  0
 26 28  2  0
 27 29  1  0
 29 30  1  0
 30 31  1  0
 31 32  1  0
 32 33  1  0
 32 34  2  0
 33 35  1  0
 35 36  1  0
 36 37  1  0
 37 38  1  0
 38 39  1  0
 39 40  1  0
 40 41  1  0
 41 42  2  0
 42 43  1  0
 43 44  2  0
 44 45  1  0
 45 46  2  0
 46 41  1  0
 44 47  1  0
 47 48  1  0
 48 49  2  0
 49 50  1  0
 50 51  1  0
 51 52  1  0
 52 47  2  0
 48 53  1  0
 53 54  2  0
 54 55  1  0
 55 56  2  0
 56 49  1  0
 54 57  1  0
 57 58  1  0
 58 59  1  0
 59 60  1  0
 60 55  1  0
 51 61  2  0
 61 62  1  0
 62 63  1  0
 63 64  2  0
 64 52  1  0
 62 65  2  0
 65 66  1  0
 66 67  1  0
 67 68  1  0
 68 63  1  0
 60 69  1  0
 69 70  1  0
 70 71  1  0
 71 56  1  0
 61 72  1  0
 72 73  1  0
 73 74  1  0
 74 65  1  0
 45 75  1  0
 75 76  1  0
 75 77  2  0
 78 75  2  0
 40 79  2  0
 80 40  2  0
M  CHG  2  65   1  76  -1
M  END