
  SciTegic01161211232D

 34 36  0  0  0  0            999 V2000
    6.2349   -3.6013    0.0000 C   0  0
    5.1951   -3.0023    0.0000 C   0  0
    5.1943   -1.8023    0.0000 C   0  0
    3.8956   -3.7531    0.0000 C   0  0
    2.5951   -3.0039    0.0000 N   0  0
    2.5973   -1.5031    0.0000 C   0  0
    1.2990   -0.7500    0.0000 C   0  0
    1.2990    0.7500    0.0000 C   0  0
    0.0000    1.5000    0.0000 C   0  0
   -1.2990    0.7500    0.0000 C   0  0
   -1.2990   -0.7500    0.0000 C   0  0
    0.0000   -1.5000    0.0000 C   0  0
   -2.5987    1.5004    0.0000 C   0  0
   -3.8967    0.7484    0.0000 C   0  0
   -5.1969    1.4963    0.0000 C   0  0
   -5.1993    2.9963    0.0000 C   0  0
   -3.9014    3.7484    0.0000 C   0  0
   -2.6012    3.0004    0.0000 C   0  0
   -1.3027    3.7529    0.0000 C   0  0
    0.0506    3.1362    0.0000 N   0  0
    1.0508    4.2541    0.0000 N   0  0
    0.2966    5.5507    0.0000 N   0  0
   -1.1696    5.2342    0.0000 N   0  0
    1.2948   -3.7533    0.0000 C   0  0
   -0.0022   -2.9997    0.0000 N   0  0
   -1.3034   -3.7460    0.0000 C   0  0
   -2.3409   -3.1431    0.0000 C   0  0
   -1.3076   -5.2460    0.0000 N   0  0
   -0.0107   -5.9996    0.0000 C   0  0
    1.2905   -5.2533    0.0000 C   0  0
    2.5865   -6.0101    0.0000 C   0  0
    2.5814   -7.2101    0.0000 O   0  0
    3.6285   -5.4149    0.0000 O   0  0
   10.2912   -0.9801    0.0000 Cl  0  0
  1  2  1  0
  2  3  1  0
  2  4  1  0
  4  5  1  0
  5  6  1  0
  6  7  1  0
  7  8  2  0
  8  9  1  0
  9 10  2  0
 10 11  1  0
 11 12  2  0
 12  7  1  0
 10 13  1  0
 13 14  2  0
 14 15  1  0
 15 16  2  0
 16 17  1  0
 17 18  2  0
 18 13  1  0
 18 19  1  0
 19 20  1  0
 20 21  2  0
 21 22  1  0
 22 23  1  0
 23 19  2  0
  5 24  1  0
 24 25  2  0
 25 26  1  0
 26 27  1  0
 26 28  2  0
 28 29  1  0
 29 30  2  0
 30 24  1  0
 30 31  1  0
 31 32  2  0
 31 33  1  0
M  END