
  SciTegic02131210002D

 51 55  0  0  0  0            999 V2000
   17.6175   -1.2175    0.0000 C   0  0
   17.2089   -0.5014    0.0000 C   0  0
   16.3834   -0.5014    0.0000 C   0  0
   15.9662   -1.2175    0.0000 C   0  0
   17.2089   -1.9292    0.0000 N   0  0
   16.3834   -1.9336    0.0000 C   0  0
   16.1339   -2.7204    0.0000 C   0  0
   16.8011   -3.2038    0.0000 C   0  0
   17.4670   -2.7131    0.0000 C   0  0
   15.1389   -1.2174    0.0000 C   0  0
   14.7282   -0.5019    0.0000 O   0  0
   14.7282   -1.9330    0.0000 O   0  0
   13.9025   -0.5019    0.0000 C   0  0
   17.6207    0.2136    0.0000 N   0  0
   18.4430   -1.2187    0.0000 O   0  0
   18.1797   -3.1240    0.0000 C   0  0
   18.1818   -3.9496    0.0000 O   0  0
   18.8942   -2.7073    0.0000 N   0  0
   19.6109   -3.1204    0.0000 C   0  0  2  0  0  0
   20.3254   -2.7038    0.0000 C   0  0
   19.6129   -3.9460    0.0000 C   0  0
   20.3294   -4.3550    0.0000 C   0  0
   21.0420   -3.1127    0.0000 O   0  0
   20.3233   -1.8782    0.0000 N   0  0
   21.0378   -1.4615    0.0000 C   0  0
   21.0358   -0.6360    0.0000 C   0  0
   21.7483   -0.2273    0.0000 C   0  0
   21.7465    0.5975    0.0000 C   0  0
   21.0336    1.0114    0.0000 C   0  0
   20.3167    0.5903    0.0000 C   0  0
   20.3220   -0.2331    0.0000 C   0  0
   17.2109    0.9255    0.0000 C   0  0
   17.6226    1.6405    0.0000 C   0  0
   16.3853    0.9267    0.0000 O   0  0
   20.3315   -5.1806    0.0000 C   0  0
   19.6684   -5.6700    0.0000 C   0  0
   19.9242   -6.4548    0.0000 N   0  0
   21.0016   -5.6667    0.0000 C   0  0
   20.7504   -6.4495    0.0000 C   0  0
   21.3028   -7.0543    0.0000 C   0  0
   22.1065   -6.8818    0.0000 C   0  0
   22.3549   -6.0948    0.0000 C   0  0
   21.8008   -5.4891    0.0000 C   0  0
   22.4580    1.0081    0.0000 C   0  0
   23.1694    0.5973    0.0000 F   0  0
   22.4581    1.8296    0.0000 F   0  0
   23.0379    1.5973    0.0000 F   0  0
   19.6025    0.9962    0.0000 C   0  0
   19.5968    1.8176    0.0000 F   0  0
   18.8939    0.5806    0.0000 F   0  0
   18.8851    1.4106    0.0000 F   0  0
 24 25  1  0
  4 10  1  0
 25 26  1  0
  6  4  2  0
 26 27  2  0
 11 13  1  0
 27 28  1  0
  5  1  1  0
 28 29  2  0
  2 14  1  0
 29 30  1  0
  1  2  1  0
 30 31  2  0
 31 26  1  0
  1 15  2  0
 14 32  1  0
  2  3  1  0
 32 33  1  0
  9 16  1  0
 32 34  2  0
  6  7  1  0
 22 35  1  0
 35 36  2  0
 16 17  2  0
  7  8  1  0
 36 37  1  0
 37 39  1  0
 38 35  1  0
 16 18  1  0
  8  9  1  0
 38 39  2  0
 18 19  1  0
 39 40  1  0
  9  5  1  0
 40 41  2  0
 19 20  1  0
 41 42  1  0
  3  4  1  0
 42 43  2  0
 43 38  1  0
 19 21  1  6
 28 44  1  0
  5  6  1  0
 44 45  1  0
 21 22  1  0
 44 46  1  0
 44 47  1  0
 20 23  2  0
 30 48  1  0
 10 11  1  0
 48 49  1  0
 20 24  1  0
 48 50  1  0
 10 12  2  0
 48 51  1  0
M  END