
  SciTegic01111613442D

  7  7  0  0  0  0            999 V2000
    0.7500   -1.0323    0.0000 N   0  0
    1.2135    0.3943    0.0000 N   0  0
    0.0000    1.2760    0.0000 C   0  0
   -1.2135    0.3943    0.0000 C   0  0
   -0.7500   -1.0323    0.0000 C   0  0
   -2.6394    0.8543    0.0000 C   0  0
   -3.5300    0.0501    0.0000 O   0  0
  1  2  1  0
  2  3  2  0
  3  4  1  0
  4  5  2  0
  1  5  1  0
  4  6  1  0
  6  7  1  0
M  END