
  SciTegic01061414252D

 14 15  0  0  0  0            999 V2000
   14.3531   -9.0097    0.0000 C   0  0
   14.3519   -9.8292    0.0000 C   0  0
   15.0600  -10.2382    0.0000 N   0  0
   15.7696   -9.8288    0.0000 C   0  0
   15.7668   -9.0061    0.0000 C   0  0
   15.0582   -8.6008    0.0000 C   0  0
   15.0542   -7.7893    0.0000 N   0  0
   15.7625   -7.3798    0.0000 C   0  0
   15.7620   -6.5662    0.0000 C   0  0
   15.0549   -6.1559    0.0000 N   0  0
   14.3466   -6.5654    0.0000 C   0  0
   14.3454   -7.3852    0.0000 C   0  0
   13.6453   -8.6013    0.0000 Cl  0  0
   16.4730   -8.5948    0.0000 Cl  0  0
  1  2  2  0
  2  3  1  0
  3  4  2  0
  4  5  1  0
  5  6  2  0
  6  1  1  0
  7  8  1  0
  7 12  1  0
  8  9  1  0
  9 10  1  0
 10 11  1  0
 11 12  1  0
  6  7  1  0
  1 13  1  0
  5 14  1  0
M  END