
          11280715192D 1   1.00000     0.00000     0

 18 19  0     0  0            999 V2000
    8.0542   -6.6167    0.0000 N   0  3  0  0  0  0           0  0  0
    7.5417   -6.9250    0.0000 C   0  0  0  0  0  0           0  0  0
    4.4250   -5.7292    0.0000 C   0  0  0  0  0  0           0  0  0
    7.0167   -6.6250    0.0000 C   0  0  0  0  0  0           0  0  0
    8.7750   -6.8667    0.0000 O   0  5  0  0  0  0           0  0  0
    6.5042   -6.9292    0.0000 C   0  0  0  0  0  0           0  0  0
    8.0542   -5.6167    0.0000 O   0  0  0  0  0  0           0  0  0
    4.9417   -6.0292    0.0000 C   0  0  0  0  0  0           0  0  0
    5.9792   -6.6292    0.0000 C   0  0  0  0  0  0           0  0  0
    4.4250   -5.1292    0.0000 O   0  0  0  0  0  0           0  0  0
    4.9500   -6.6292    0.0000 C   0  0  0  0  0  0           0  0  0
    5.4667   -5.7292    0.0000 C   0  0  0  0  0  0           0  0  0
    5.4667   -6.9292    0.0000 C   0  0  0  0  0  0           0  0  0
    5.9875   -6.0250    0.0000 C   0  0  0  0  0  0           0  0  0
    3.9042   -6.0292    0.0000 O   0  0  0  0  0  0           0  0  0
    7.5417   -7.5292    0.0000 C   0  0  0  0  0  0           0  0  0
    6.5042   -7.5292    0.0000 C   0  0  0  0  0  0           0  0  0
    7.0167   -7.8292    0.0000 C   0  0  0  0  0  0           0  0  0
  2  1  1  0     0  0
  3  8  1  0     0  0
  4  2  2  0     0  0
  5  1  1  0     0  0
  6  4  1  0     0  0
  7  1  2  0     0  0
  8 12  2  0     0  0
  9  6  1  0     0  0
 10  3  2  0     0  0
 11 13  2  0     0  0
 12 14  1  0     0  0
 13  9  1  0     0  0
 14  9  2  0     0  0
 15  3  1  0     0  0
 16  2  1  0     0  0
 17 18  1  0     0  0
 18 16  2  0     0  0
  6 17  2  0     0  0
  8 11  1  0     0  0
M  CHG  2   1   1   5  -1
M  END