
  SciTegic03291108482D

 26 28  0  0  0  0            999 V2000
    3.4556    4.9569    0.0000 F   0  0
    4.8846    2.4819    0.0000 F   0  0
    0.5977    1.6569    0.0000 O   0  0
    2.0267    4.1319    0.0000 N   0  0
    2.0267    1.6569    0.0000 N   0  0
    1.3122    0.4194    0.0000 N   0  0
   -1.5457   -1.2306    0.0000 N   0  0
    2.7411    2.8944    0.0000 C   0  0
    2.7411    3.7194    0.0000 C   0  0
    2.0267    2.4819    0.0000 C   0  0
    3.4556    4.1319    0.0000 C   0  0
    3.4556    2.4819    0.0000 C   0  0
    1.3122    3.7194    0.0000 C   0  0
    1.3122    2.8944    0.0000 C   0  0
    4.1701    2.8944    0.0000 C   0  0
    4.1701    3.7194    0.0000 C   0  0
    1.3122    1.2444    0.0000 C   0  0
    0.5977    0.0069    0.0000 C   0  0
    0.5977    4.1319    0.0000 C   0  0
   -0.8312   -0.8181    0.0000 C   0  0
    0.5977   -0.8181    0.0000 C   0  0
   -0.1167    0.4194    0.0000 C   0  0
   -0.1167   -1.2306    0.0000 C   0  0
   -0.8312    0.0069    0.0000 C   0  0
   -1.5457   -2.0556    0.0000 C   0  0
   -2.2602   -0.8181    0.0000 C   0  0
  1 11  1  0
  2 15  1  0
  3 17  2  0
  4  9  1  0
  4 13  2  0
  5 10  1  0
  5 17  1  0
  6 17  1  0
  6 18  1  0
  7 20  1  0
  7 25  1  0
  7 26  1  0
  8  9  1  0
  8 10  1  0
  8 12  2  0
  9 11  2  0
 10 14  2  0
 11 16  1  0
 12 15  1  0
 13 14  1  0
 13 19  1  0
 15 16  2  0
 18 21  2  0
 18 22  1  0
 20 23  2  0
 20 24  1  0
 21 23  1  0
 22 24  2  0
M  END