
  SciTegic02011310452D

 94103  0  0  0  0            999 V2000
   16.9459   -6.4758    0.0000 O   0  0
   17.5087   -7.0816    0.0000 S   0  0
   17.7519   -6.2913    0.0000 O   0  0
   16.7606   -9.8116    0.0000 C   0  0
   15.9724   -9.5679    0.0000 C   0  0
   16.1555  -10.3724    0.0000 C   0  0
    7.5841  -12.9028    0.0000 O   0  0
    8.0008  -12.1903    0.0000 S   0  0
    7.1754  -12.1857    0.0000 O   0  0
    3.5164  -16.8299    0.0000 N   0  0
    4.2661  -16.4637    0.0000 C   0  0
    4.4444  -15.6512    0.0000 C   0  0
    3.0921  -15.0199    0.0000 C   0  0
    3.9180  -15.0141    0.0000 C   0  0
    9.2118  -19.3359    0.0000 C   0  0
    9.2130  -20.1632    0.0000 C   0  0
    8.4940  -20.5761    0.0000 C   0  0
    7.7817  -20.1628    0.0000 C   0  0
    7.7846  -19.3322    0.0000 C   0  0
    8.4958  -18.9231    0.0000 C   0  0
    7.0723  -18.9177    0.0000 C   0  0
    6.3577  -19.3282    0.0000 N   0  0
    7.0746  -18.0927    0.0000 O   0  0
    5.6454  -18.9137    0.0000 C   0  0
    4.9302  -19.3273    0.0000 C   0  0
    4.2183  -18.9134    0.0000 C   0  0
    4.2203  -18.0877    0.0000 C   0  0
    4.9433  -17.6773    0.0000 C   0  0
    5.6527  -18.0933    0.0000 C   0  0
    3.5085  -17.6723    0.0000 C   0  0
    2.7934  -18.0820    0.0000 O   0  0
    8.5014  -18.0981    0.0000 C   0  0
    2.6865  -14.3232    0.0000 N   0  0
    9.2144  -17.6896    0.0000 C   0  0
    9.2161  -16.8653    0.0000 C   0  0
    8.5029  -16.4508    0.0000 C   0  0
    7.7826  -16.8701    0.0000 C   0  0
    7.7839  -17.6891    0.0000 C   0  0
    2.7745  -16.4804    0.0000 C   0  0
    2.5749  -15.6710    0.0000 C   0  0
    1.7750  -15.4382    0.0000 C   0  0
    1.1741  -16.0180    0.0000 C   0  0
    1.3777  -16.8291    0.0000 C   0  0
    2.1773  -17.0587    0.0000 C   0  0
    3.0963  -13.6072    0.0000 C   0  0
    2.6811  -12.8943    0.0000 O   0  0
    3.9213  -13.6040    0.0000 C   0  0
    4.3311  -12.8880    0.0000 C   0  0
    5.1561  -12.8848    0.0000 C   0  0
    5.5658  -12.1688    0.0000 N   0  0
    5.5713  -13.5977    0.0000 O   0  0
    6.3908  -12.1659    0.0000 C   0  0
    6.8592  -11.4868    0.0000 C   0  0
    7.6795  -11.4656    0.0000 N   0  0
    7.9152  -10.6749    0.0000 N   0  0
    7.2359  -10.2065    0.0000 N   0  0
    6.5807  -10.7077    0.0000 C   0  0
    7.2356   -9.3815    0.0000 C   0  0
    7.9419   -8.9663    0.0000 C   0  0
    8.6596   -9.3732    0.0000 N   0  0
    9.3708   -8.9551    0.0000 C   0  0
   10.0885   -9.3619    0.0000 C   0  0
    9.3643   -8.1301    0.0000 O   0  0
   10.0950  -10.1869    0.0000 C   0  0
   10.8127  -10.5938    0.0000 C   0  0
   10.8192  -11.4187    0.0000 C   0  0
   11.2455  -12.6869    0.0000 N   0  0
   11.4936  -11.9007    0.0000 C   0  0
   11.4008  -10.8278    0.0000 C   0  0
   10.4205  -12.6934    0.0000 C   0  0
   10.1626  -11.9113    0.0000 C   0  0
    9.3580  -11.7450    0.0000 C   0  0
    8.8105  -12.3598    0.0000 C   0  0
    9.0732  -13.1436    0.0000 C   0  0
    9.8771  -13.3062    0.0000 C   0  0
    8.2133  -11.3903    0.0000 O   0  0
   11.7357  -13.3504    0.0000 C   0  0
   11.4062  -14.1068    0.0000 C   0  0
   12.3184  -11.8820    0.0000 C   0  0
   12.7146  -11.1584    0.0000 C   0  0
   13.5394  -11.1397    0.0000 C   0  0
   13.9356  -10.4161    0.0000 C   0  0
   14.7604  -10.3974    0.0000 C   0  0
   15.1566   -9.6738    0.0000 C   0  0
   14.8020   -8.9277    0.0000 N   0  3
   13.9912   -8.7754    0.0000 C   0  0
   13.7176   -7.9971    0.0000 C   0  0
   15.4023   -8.3619    0.0000 C   0  0
   16.1220   -8.7579    0.0000 C   0  0
   16.8227   -8.3328    0.0000 C   0  0
   16.8050   -7.5118    0.0000 C   0  0
   16.0807   -7.1177    0.0000 C   0  0
   15.3829   -7.5451    0.0000 C   0  0
   18.2336   -7.4782    0.0000 O   0  5
  2  1  2  0
  3  2  2  0
  5  4  1  0
  6  5  1  0
  8  7  2  0
  9  8  2  0
 39 10  1  0
 10 11  1  0
 11 12  1  0
 40 13  1  0
 12 14  1  0
 13 14  1  0
 15 16  2  0
 16 17  1  0
 17 18  2  0
 18 19  1  0
 19 20  2  0
 20 15  1  0
 19 21  1  0
 21 22  1  0
 21 23  2  0
 22 24  1  0
 24 25  2  0
 25 26  1  0
 26 27  2  0
 27 28  1  0
 28 29  2  0
 29 24  1  0
 27 30  1  0
 30 31  2  0
 30 10  1  0
 20 32  1  0
 13 33  1  0
 32 34  2  0
 34 35  1  0
 35 36  2  0
 36 37  1  0
 37 38  2  0
 38 32  1  0
 39 40  2  0
 40 41  1  0
 41 42  2  0
 42 43  1  0
 43 44  2  0
 44 39  1  0
 33 45  1  0
 45 46  2  0
 45 47  1  0
 47 48  1  0
 48 49  1  0
 49 50  1  0
 49 51  2  0
 50 52  1  0
 52 53  1  0
 53 54  1  0
 54 55  2  0
 55 56  1  0
 56 57  1  0
 57 53  2  0
 56 58  1  0
 58 59  1  0
 59 60  1  0
 60 61  1  0
 61 62  1  0
 61 63  2  0
 62 64  1  0
 64 65  1  0
 65 66  1  0
 66 71  1  0
 70 67  1  0
 67 68  1  0
 68 66  1  0
 66 69  1  0
 70 71  2  0
 71 72  1  0
 72 73  2  0
 73 74  1  0
 74 75  2  0
 75 70  1  0
 73  8  1  0
  8 76  1  0
 67 77  1  0
 77 78  1  0
 68 79  2  0
 79 80  1  0
 80 81  2  0
 81 82  1  0
 82 83  2  0
 83 84  1  0
 84  5  1  0
  5 89  1  0
 88 85  1  0
 85 84  2  0
 85 86  1  0
 86 87  1  0
 88 89  2  0
 89 90  1  0
 90 91  2  0
 91 92  1  0
 92 93  2  0
 93 88  1  0
 91  2  1  0
  2 94  1  0
M  CHG  2  85   1  94  -1
M  END