
  CDK    9/16/09,9:56

 28 30  0  0  0  0  0  0  0  0999 V2000
   -1.4012   -8.2722    0.0000 O   0  0  0  0  0  0  0  0  0  0  0  0
   -1.4046   -9.0936    0.0000 C   0  0  0  0  0  0  0  0  0  0  0  0
   -2.1388   -9.4674    0.0000 C   0  0  0  0  0  0  0  0  0  0  0  0
   -2.8711   -9.0915    0.0000 C   0  0  0  0  0  0  0  0  0  0  0  0
   -3.0002   -8.2761    0.0000 O   0  0  0  0  0  0  0  0  0  0  0  0
   -3.4551   -9.6742    0.0000 C   0  0  0  0  0  0  0  0  0  0  0  0
   -4.2701   -9.5419    0.0000 O   0  0  0  0  0  0  0  0  0  0  0  0
   -3.0813  -10.4086    0.0000 C   0  0  0  0  0  0  0  0  0  0  0  0
   -2.2710  -10.2823    0.0000 O   0  0  0  0  0  0  0  0  0  0  0  0
   -3.4573  -11.1408    0.0000 N   0  0  0  0  0  0  0  0  0  0  0  0
   -4.2726  -11.2698    0.0000 C   0  0  0  0  0  0  0  0  0  0  0  0
   -4.4049  -12.0848    0.0000 N   0  0  0  0  0  0  0  0  0  0  0  0
   -3.6675  -12.4578    0.0000 C   0  0  0  0  0  0  0  0  0  0  0  0
   -3.4561  -13.2555    0.0000 C   0  0  0  0  0  0  0  0  0  0  0  0
   -4.0401  -13.8383    0.0000 N   0  0  0  0  0  0  0  0  0  0  0  0
   -2.6607  -13.4702    0.0000 N   0  0  0  0  0  0  0  0  0  0  0  0
   -2.0766  -12.8874    0.0000 C   0  0  0  0  0  0  0  0  0  0  0  0
   -2.2890  -12.0938    0.0000 N   0  0  0  0  0  0  0  0  0  0  0  0
   -3.0845  -11.8792    0.0000 C   0  0  0  0  0  0  0  0  0  0  0  0
   -0.7031   -9.5256    0.0000 N   0  0  0  0  0  0  0  0  0  0  0  0
    2.8462   -8.2765    0.0000 C   0  0  0  0  0  0  0  0  0  0  0  0
    3.5598   -7.8645    0.0000 N   0  0  0  0  0  0  0  0  0  0  0  0
    2.1285   -7.8645    0.0000 C   0  0  0  0  0  0  0  0  0  0  0  0
    2.8462   -9.1046    0.0000 O   0  0  0  0  0  0  0  0  0  0  0  0
    1.4109   -8.2765    0.0000 C   0  0  0  0  0  0  0  0  0  0  0  0
    0.6932   -7.8645    0.0000 C   0  0  0  0  0  0  0  0  0  0  0  0
   -0.0217   -8.2698    0.0000 C   0  0  0  0  0  0  0  0  0  0  0  0
   -0.0006   -9.0970    0.0000 C   0  0  0  0  0  0  0  0  0  0  0  0
  3  9  1  0  0  0  0 
  8 10  1  1  0  0  0 
 10 11  1  0  0  0  0 
 11 12  2  0  0  0  0 
 12 13  1  0  0  0  0 
 13 14  1  0  0  0  0 
 14 15  1  0  0  0  0 
 14 16  2  0  0  0  0 
 16 17  1  0  0  0  0 
 17 18  2  0  0  0  0 
 18 19  1  0  0  0  0 
 13 19  2  0  0  0  0 
 10 19  1  0  0  0  0 
  2 20  1  0  0  0  0 
  1  2  2  0  0  0  0 
  3  2  1  1  0  0  0 
 21 22  1  0  0  0  0 
  3  4  1  0  0  0  0 
 21 23  1  0  0  0  0 
  4  5  1  6  0  0  0 
 21 24  2  0  0  0  0 
  4  6  1  0  0  0  0 
 23 25  1  0  0  0  0 
  6  7  1  6  0  0  0 
 25 26  1  0  0  0  0 
  6  8  1  0  0  0  0 
 26 27  1  0  0  0  0 
  8  9  1  0  0  0  0 
 27 28  1  0  0  0  0 
 28 20  1  0  0  0  0 
M  END