
  SciTegic12231509382D

 13 12  0  0  0  0            999 V2000
   -5.3920    2.3571    0.0000 O   0  0
   -4.6775    2.7696    0.0000 C   0  0
   -3.9630    2.3571    0.0000 C   0  0
   -3.2486    2.7696    0.0000 C   0  0
   -2.5341    2.3571    0.0000 C   0  0
   -1.8196    2.7696    0.0000 C   0  0
   -1.1051    2.3571    0.0000 O   0  0
   -4.6775    3.5946    0.0000 O   0  0
   -3.0350    1.9728    0.0000 O   0  0
   -3.2486    3.5946    0.0000 C   0  0
   -2.5341    4.0071    0.0000 O   0  0
   -3.9630    4.0071    0.0000 O   0  0
   -1.8196    3.5946    0.0000 O   0  0
  1  2  1  0
  2  3  1  0
  3  4  1  0
  4  5  1  0
  5  6  1  0
  6  7  1  0
  2  8  2  0
  4  9  1  0
  4 10  1  0
 10 11  1  0
 10 12  2  0
  6 13  2  0
M  END