
          11280714582D 1   1.00000     0.00000     0

 48 51  0     1  0            999 V2000
    2.9042   -4.3542    0.0000 C   0  0  0  0  0  0           0  0  0
    3.4292   -4.0542    0.0000 N   0  0  0  0  0  0           0  0  0
    1.8667   -4.9542    0.0000 C   0  0  0  0  0  0           0  0  0
    4.4667   -4.0542    0.0000 C   0  0  0  0  0  0           0  0  0
    2.3792   -4.0542    0.0000 C   0  0  1  0  0  0           0  0  0
    1.8667   -4.3542    0.0000 N   0  0  0  0  0  0           0  0  0
    0.3125   -1.6542    0.0000 C   0  0  0  0  0  0           0  0  0
    0.8292   -4.9542    0.0000 C   0  0  0  0  0  0           0  0  0
    3.9417   -4.3542    0.0000 C   0  0  2  0  0  0           0  0  0
    4.9875   -4.3542    0.0000 N   0  0  0  0  0  0           0  0  0
    0.3125   -2.2542    0.0000 C   0  0  3  0  0  0           0  0  0
    1.3500   -5.2542    0.0000 C   0  0  0  0  0  0           0  0  0
    0.3167   -5.2542    0.0000 C   0  0  0  0  0  0           0  0  0
    3.4292   -5.8542    0.0000 C   0  0  0  0  0  0           0  0  0
    0.8292   -2.5500    0.0000 C   0  0  0  0  0  0           0  0  0
    2.9042   -4.9542    0.0000 O   0  0  0  0  0  0           0  0  0
    2.3792   -3.4542    0.0000 C   0  0  0  0  0  0           0  0  0
    4.4667   -3.4542    0.0000 O   0  0  0  0  0  0           0  0  0
    2.3792   -5.2542    0.0000 O   0  0  0  0  0  0           0  0  0
    0.8292   -1.3500    0.0000 O   0  0  0  0  0  0           0  0  0
    2.9042   -6.1542    0.0000 O   0  0  0  0  0  0           0  0  0
    3.9417   -4.9542    0.0000 C   0  0  0  0  0  0           0  0  0
    0.8292   -3.1542    0.0000 C   0  0  0  0  0  0           0  0  0
    1.3500   -2.2500    0.0000 C   0  0  0  0  0  0           0  0  0
   -0.2083   -4.9542    0.0000 C   0  0  0  0  0  0           0  0  0
    3.4292   -5.2542    0.0000 C   0  0  0  0  0  0           0  0  0
    1.8667   -3.1542    0.0000 C   0  0  0  0  0  0           0  0  0
    5.5042   -4.0542    0.0000 C   0  0  0  0  0  0           0  0  0
   -0.2083   -1.3542    0.0000 O   0  0  0  0  0  0           0  0  0
    6.0250   -4.3542    0.0000 C   0  0  0  0  0  0           0  0  0
    7.0625   -4.9542    0.0000 C   0  0  0  0  0  0           0  0  0
    3.9417   -6.1542    0.0000 O   0  0  0  0  0  0           0  0  0
   -0.2083   -2.5542    0.0000 O   0  0  0  0  0  0           0  0  0
    1.3542   -3.4500    0.0000 C   0  0  0  0  0  0           0  0  0
    1.8667   -2.5500    0.0000 C   0  0  0  0  0  0           0  0  0
    6.5417   -4.0542    0.0000 C   0  0  0  0  0  0           0  0  0
    6.0250   -4.9542    0.0000 C   0  0  0  0  0  0           0  0  0
    6.5417   -5.2542    0.0000 C   0  0  0  0  0  0           0  0  0
    7.0625   -4.3500    0.0000 C   0  0  0  0  0  0           0  0  0
    0.8292   -4.3500    0.0000 C   0  0  0  0  0  0           0  0  0
    7.5792   -5.2542    0.0000 O   0  0  0  0  0  0           0  0  0
    0.3125   -4.0500    0.0000 C   0  0  0  0  0  0           0  0  0
    0.3250   -5.8542    0.0000 C   0  0  0  0  0  0           0  0  0
   -0.2083   -4.3500    0.0000 C   0  0  0  0  0  0           0  0  0
   -0.7208   -5.2542    0.0000 C   0  0  0  0  0  0           0  0  0
    7.5792   -5.8542    0.0000 C   0  0  0  0  0  0           0  0  0
   -0.1958   -6.1542    0.0000 C   0  0  0  0  0  0           0  0  0
   -0.7208   -5.8542    0.0000 C   0  0  0  0  0  0           0  0  0
  2  1  1  0     0  0
  3  6  1  0     0  0
  4  9  1  0     0  0
  5  1  1  0     0  0
  6  5  1  0     0  0
  7 11  1  0     0  0
  8 12  1  0     0  0
  9  2  1  0     0  0
 10  4  1  0     0  0
 11 15  1  0     0  0
 12  3  1  0     0  0
 13  8  2  0     0  0
 14 26  1  0     0  0
 15 24  2  0     0  0
 16  1  2  0     0  0
  5 17  1  1     0  0
 18  4  2  0     0  0
 19  3  2  0     0  0
 20  7  2  0     0  0
 21 14  2  0     0  0
  9 22  1  6     0  0
 23 34  2  0     0  0
 24 35  1  0     0  0
 25 13  1  0     0  0
 26 22  1  0     0  0
 27 17  1  0     0  0
 28 10  1  0     0  0
 29  7  1  0     0  0
 30 28  1  0     0  0
 31 38  2  0     0  0
 32 14  1  0     0  0
 11 33  1  0     0  0
 34 27  1  0     0  0
 35 27  2  0     0  0
 36 30  1  0     0  0
 37 30  2  0     0  0
 38 37  1  0     0  0
 39 36  2  0     0  0
 40  8  1  0     0  0
 41 31  1  0     0  0
 42 40  2  0     0  0
 43 13  1  0     0  0
 44 42  1  0     0  0
 45 25  1  0     0  0
 46 41  1  0     0  0
 47 43  2  0     0  0
 48 47  1  0     0  0
 15 23  1  0     0  0
 25 44  2  0     0  0
 39 31  1  0     0  0
 45 48  2  0     0  0
M  END