
          11280715312D 1   1.00000     0.00000     0

 37 39  0     0  0            999 V2000
    0.2917   -1.3542    0.0000 N   0  0  0  0  0  0           0  0  0
    0.2917   -2.1917    0.0000 C   0  0  0  0  0  0           0  0  0
   -1.1333   -1.3542    0.0000 C   0  0  0  0  0  0           0  0  0
   -0.4208   -0.9625    0.0000 C   0  0  0  0  0  0           0  0  0
   -0.4208   -2.6042    0.0000 N   0  0  0  0  0  0           0  0  0
   -1.1333   -2.1917    0.0000 C   0  0  0  0  0  0           0  0  0
    6.7167   -2.5875    0.0000 C   0  0  0  0  0  0           0  0  0
   -1.8458   -0.9625    0.0000 C   0  0  0  0  0  0           0  0  0
   -1.8458   -2.6042    0.0000 C   0  0  0  0  0  0           0  0  0
   -2.5583   -1.3542    0.0000 C   0  0  0  0  0  0           0  0  0
   -2.5583   -2.1917    0.0000 C   0  0  0  0  0  0           0  0  0
    1.0042   -2.6000    0.0000 N   0  0  3  0  0  0           0  0  0
    7.4292   -2.1667    0.0000 C   0  0  0  0  0  0           0  0  0
    6.0042   -2.1792    0.0000 N   0  0  3  0  0  0           0  0  0
    6.7250   -3.4125    0.0000 O   0  0  0  0  0  0           0  0  0
   -0.4125   -0.1375    0.0000 N   0  0  0  0  0  0           0  0  0
    8.1500   -2.5792    0.0000 C   0  0  0  0  0  0           0  0  0
    7.4292   -1.3500    0.0000 C   0  0  0  0  0  0           0  0  0
   10.2875   -1.3292    0.0000 N   0  0  3  0  0  0           0  0  0
    9.5667   -0.9250    0.0000 C   0  0  0  0  0  0           0  0  0
    8.8542   -1.3417    0.0000 C   0  0  0  0  0  0           0  0  0
   -3.2625   -0.9292    0.0000 O   0  0  0  0  0  0           0  0  0
   -3.2625   -2.6167    0.0000 O   0  0  0  0  0  0           0  0  0
    8.1375   -0.9292    0.0000 C   0  0  0  0  0  0           0  0  0
    8.8625   -2.1667    0.0000 C   0  0  0  0  0  0           0  0  0
    1.7167   -2.1875    0.0000 C   0  0  0  0  0  0           0  0  0
    5.2917   -2.5917    0.0000 C   0  0  0  0  0  0           0  0  0
    1.0042   -3.4250    0.0000 C   0  0  0  0  0  0           0  0  0
    6.0042   -1.3500    0.0000 C   0  0  0  0  0  0           0  0  0
   10.2917   -2.1542    0.0000 C   0  0  0  0  0  0           0  0  0
   11.0042   -0.9167    0.0000 C   0  0  0  0  0  0           0  0  0
   -3.9875   -2.2167    0.0000 C   0  0  0  0  0  0           0  0  0
   -3.9875   -1.3292    0.0000 C   0  0  0  0  0  0           0  0  0
    4.5792   -2.1792    0.0000 C   0  0  0  0  0  0           0  0  0
    2.4375   -2.6000    0.0000 C   0  0  0  0  0  0           0  0  0
    3.1500   -2.1792    0.0000 C   0  0  0  0  0  0           0  0  0
    3.8667   -2.5917    0.0000 C   0  0  0  0  0  0           0  0  0
  2  1  2  0     0  0
  3  4  2  0     0  0
  4  1  1  0     0  0
  5  2  1  0     0  0
  6  3  1  0     0  0
  7 14  1  0     0  0
  8  3  1  0     0  0
  9  6  1  0     0  0
 10  8  2  0     0  0
 11 10  1  0     0  0
 12  2  1  0     0  0
 13  7  1  0     0  0
 14 27  1  0     0  0
 15  7  2  0     0  0
 16  4  1  0     0  0
 17 13  2  0     0  0
 18 13  1  0     0  0
 19 20  1  0     0  0
 20 21  1  0     0  0
 21 24  1  0     0  0
 22 10  1  0     0  0
 23 11  1  0     0  0
 24 18  2  0     0  0
 25 17  1  0     0  0
 26 12  1  0     0  0
 27 34  1  0     0  0
 28 12  1  0     0  0
 29 14  1  0     0  0
 30 19  1  0     0  0
 31 19  1  0     0  0
 32 23  1  0     0  0
 33 22  1  0     0  0
 34 37  1  0     0  0
 35 26  1  0     0  0
 36 35  1  0     0  0
 37 36  1  0     0  0
  5  6  2  0     0  0
 11  9  2  0     0  0
 21 25  2  0     0  0
M  END