
  SciTegic04091511462D

 41 45  0  0  1  0            999 V2000
    4.2735   -8.4962    0.0000 C   0  0
    3.6758   -9.0939    0.0000 C   0  0
    3.6758   -7.9276    0.0000 C   0  0
    3.0780   -8.4962    0.0000 C   0  0
    0.7432   -5.3962    0.0000 N   0  0
    0.7405   -4.5504    0.0000 C   0  0
    0.0000   -0.7433    0.0000 C   0  0
    0.6917    0.4646    0.0000 C   0  0
   -0.6917    0.4646    0.0000 C   0  0
   -0.6917   -0.3407    0.0000 C   0  0
    0.6917   -0.3407    0.0000 C   0  0
    0.0619   -5.8843    0.0000 C   0  0  2  0  0  0
    0.7365   -2.8571    0.0000 C   0  0
   -0.7410   -5.6231    0.0000 C   0  0
    1.4696   -3.2790    0.0000 N   0  0
    1.4714   -4.1247    0.0000 C   0  0  1  0  0  0
    0.0017   -1.5895    0.0000 C   0  0
    3.6740   -7.0818    0.0000 N   0  0
    2.4018   -8.4877    0.0000 O   0  0
    0.1537   -4.2143    0.0000 O   0  0
    0.7348   -2.0113    0.0000 O   0  0
    0.1515   -3.1962    0.0000 O   0  0
   -1.2441   -6.0750    0.0000 O   0  0
    3.6758   -9.7702    0.0000 O   0  0
    4.9497   -8.4878    0.0000 O   0  0
   -0.8812   -4.9615    0.0000 N   0  0
    1.4296   -5.8772    0.0000 C   0  0
   -1.4041    0.8672    0.0000 C   0  0
    1.3938    0.8672    0.0000 C   0  0
    1.3938   -0.7433    0.0000 C   0  0
   -1.4041   -0.7433    0.0000 C   0  0
    0.3272   -6.6869    0.0000 C   0  0
    1.1726   -6.6824    0.0000 C   0  0
    2.2044   -4.5466    0.0000 C   0  0
    2.9410   -6.6600    0.0000 C   0  0
    2.2062   -5.3924    0.0000 C   0  0
    2.9392   -5.8142    0.0000 C   0  0
   -2.0854   -0.3407    0.0000 C   0  0
   -2.0854    0.4646    0.0000 C   0  0
    2.1061    0.4646    0.0000 C   0  0
    2.1061   -0.3407    0.0000 C   0  0
  2  1  1  0
  3  1  1  0
  4  2  1  0
  5  6  1  0
  6 16  1  0
  7 17  1  0
  8 11  2  0
  9 10  2  0
 10  7  1  0
 11  7  1  0
 12  5  1  0
 13 15  1  0
 12 14  1  1
 16 15  1  1
 16 34  1  0
 17 21  1  0
 18  3  1  0
 19  4  1  0
 20  6  2  0
 21 13  1  0
 22 13  2  0
 23 14  2  0
 24  2  2  0
 25  1  2  0
 26 14  1  0
 27  5  1  0
 28  9  1  0
 29  8  1  0
 30 11  1  0
 31 10  1  0
 12 32  1  0
 33 27  1  0
 34 36  1  0
 35 18  1  0
 36 37  1  0
 37 35  1  0
 38 31  2  0
 39 38  1  0
 40 41  1  0
 41 30  2  0
  3  4  2  0
 32 33  1  0
  9  8  1  0
 29 40  2  0
 39 28  2  0
M  END