
  SciTegic06051315212D

 22 24  0  0  0  0            999 V2000
   12.6703  -20.5584    0.0000 C   0  0
   13.3864  -20.9570    0.0000 C   0  0
   14.0875  -20.5362    0.0000 C   0  0
   14.0739  -19.7173    0.0000 C   0  0
   13.3530  -19.3204    0.0000 C   0  0
   12.6549  -19.7435    0.0000 C   0  0
   14.7270  -19.2270    0.0000 C   0  0
   15.5074  -19.4707    0.0000 C   0  0
   15.9796  -18.8026    0.0000 N   0  0
   15.4890  -18.1477    0.0000 O   0  0
   14.7151  -18.4132    0.0000 C   0  0
   14.0466  -17.9432    0.0000 C   0  0
   15.7694  -20.2447    0.0000 C   0  0
   13.3997  -21.7741    0.0000 O   0  0
   11.9391  -19.3491    0.0000 C   0  0  2  0  0  0
   11.9227  -18.5321    0.0000 O   0  0
   11.2397  -19.7718    0.0000 C   0  0
   10.5262  -19.3750    0.0000 C   0  0
    9.8273  -19.7970    0.0000 C   0  0
    9.8433  -20.6149    0.0000 C   0  0
   10.5640  -21.0089    0.0000 C   0  0
   11.2600  -20.5846    0.0000 C   0  0
  1  2  2  0
  2  3  1  0
  3  4  2  0
  4  5  1  0
  5  6  2  0
  6  1  1  0
  8  9  2  0
  7  8  1  0
  9 10  1  0
 10 11  1  0
 11  7  2  0
  4  7  1  0
 11 12  1  0
  8 13  1  0
  2 14  1  0
  6 15  1  0
 15 16  1  1
 15 17  1  0
 17 18  2  0
 18 19  1  0
 19 20  2  0
 20 21  1  0
 21 22  2  0
 22 17  1  0
M  END