
  SciTegic05281310212D

 54 55  0  0  0  0            999 V2000
    4.4189    0.0956    0.0000 C   0  0  2  0  0  0
    7.7568   -3.5667    0.0000 C   0  0  2  0  0  0
    7.1624   -3.2591    0.0000 C   0  0  1  0  0  0
    5.3666    0.2993    0.0000 C   0  0  2  0  0  0
    6.2147   -3.4711    0.0000 C   0  0  2  0  0  0
    4.1029    0.8563    0.0000 C   0  0  1  0  0  0
    5.8987   -2.7104    0.0000 C   0  0  1  0  0  0
    9.1162   -3.9948    0.0000 S   0  0
    5.6119   -1.8000    0.0000 S   0  0
    6.5389   -3.0097    0.0000 C   0  0  1  0  0  0
    5.9610   -0.0042    0.0000 C   0  0  1  0  0  0
    3.8826   -1.5589    0.0000 S   0  0
    5.6410   -4.9509    0.0000 S   0  0
    3.0097   -0.3783    0.0000 S   0  0
    5.7283    1.6836    0.0000 S   0  0
    4.5062   -3.5043    0.0000 S   0  0
    7.4451   -2.7935    0.0000 O   0  0
    2.9681    1.8789    0.0000 S   0  0
    8.3097   -4.1694    0.0000 O   0  0
    6.3269   -2.2115    0.0000 O   0  0
    7.1582   -2.4360    0.0000 O   0  0
    4.7431    0.5570    0.0000 C   0  0  1  0  0  0
    5.6493    0.7690    0.0000 O   0  0
    4.1570   -0.7857    0.0000 O   0  0
    5.1504    1.0974    0.0000 O   0  0
    5.9154   -4.1777    0.0000 O   0  0
    3.5168    0.2702    0.0000 O   0  0
    5.1006   -2.9224    0.0000 C   0  0
    4.5311    1.3551    0.0000 C   0  0
    3.7330    1.5671    0.0000 O   0  0
    9.8935   -3.7412    0.0000 O   0  0
    4.9177   -1.3386    0.0000 O   0  0
    5.3666   -5.7283    0.0000 O   0  0
    3.6083   -2.3362    0.0000 O   0  0
    6.3102    2.2697    0.0000 O   0  0
    2.4984   -1.0268    0.0000 O   0  0
    3.9824   -4.1403    0.0000 O   0  0
    2.1824    2.1283    0.0000 O   0  0
    6.0650   -1.1099    0.0000 O   0  0
    5.1422   -2.4817    0.0000 O   0  0
    9.3698   -4.7805    0.0000 O   0  0
    8.8585   -3.2092    0.0000 O   0  0
    3.6581   -0.8771    0.0000 O   0  0
    4.6558   -1.8249    0.0000 O   0  0
    6.4142   -5.2170    0.0000 O   0  0
    4.8553   -4.6766    0.0000 O   0  0
    6.4391    1.2720    0.0000 O   0  0
    5.0133    2.0951    0.0000 O   0  0
    3.0970   -1.2845    0.0000 O   0  0
    2.3570    0.1330    0.0000 O   0  0
    3.8701   -2.9805    0.0000 O   0  0
    5.1422   -4.0323    0.0000 O   0  0
    3.2217    2.6563    0.0000 O   0  0
    2.7104    1.0808    0.0000 O   0  0
  2  3  1  0
  4  1  1  0
  5  3  1  0
  6  1  1  0
  7  5  1  0
  8 19  1  0
  9 20  1  0
 10  7  1  0
 11  4  1  0
 12 24  1  0
 13 26  1  0
 14 27  1  0
 15 25  1  0
 16 28  1  0
 17  2  1  0
 18 30  1  0
  2 19  1  6
 10 20  1  1
 11 21  1  6
 22  6  1  0
 23 22  1  0
  1 24  1  1
  4 25  1  1
  5 26  1  1
  6 27  1  6
  7 28  1  6
 22 29  1  1
 30 29  1  0
 31  8  1  0
 32  9  1  0
 33 13  1  0
 34 12  1  0
 35 15  1  0
 36 14  1  0
 37 16  1  0
 38 18  1  0
 39  9  2  0
 40  9  2  0
 41  8  2  0
 42  8  2  0
 43 14  2  0
 44 12  2  0
 45 13  2  0
 46 13  2  0
 47 15  2  0
 48 15  2  0
 49 12  2  0
 50 14  2  0
 51 16  2  0
 52 16  2  0
 53 18  2  0
 54 18  2  0
 11 23  1  0
 17 10  1  0
  3 21  1  1
M  END