
  SciTegic12171313022D

 33 36  0  0  0  0            999 V2000
   31.0864   -9.6707    0.0000 C   0  0
   31.0853  -10.4981    0.0000 C   0  0
   31.8001  -10.9109    0.0000 C   0  0
   32.5165  -10.4976    0.0000 C   0  0
   32.5137   -9.6671    0.0000 C   0  0
   31.7983   -9.2579    0.0000 C   0  0
   30.3705  -10.9100    0.0000 N   0  0
   30.3698  -11.7350    0.0000 C   0  0
   29.6550  -12.1469    0.0000 N   0  0
   31.0840  -12.1481    0.0000 O   0  0
   29.6544  -12.9719    0.0000 C   0  0
   28.9910  -13.4548    0.0000 N   0  0
   29.2453  -14.2396    0.0000 N   0  0
   30.0703  -14.2403    0.0000 C   0  0
   30.3258  -13.4558    0.0000 C   0  0
   30.5548  -14.9080    0.0000 C   0  0
   30.2187  -15.6615    0.0000 C   0  0
   31.3753  -14.8224    0.0000 C   0  0
   30.9629  -15.6166    0.0000 C   0  0
   28.1951  -13.2375    0.0000 C   0  0
   27.9903  -12.4415    0.0000 C   0  0
   27.1952  -12.2242    0.0000 C   0  0
   26.6083  -12.8053    0.0000 C   0  0
   26.8219  -13.6066    0.0000 C   0  0
   27.6166  -13.8200    0.0000 C   0  0
   25.8121  -12.5893    0.0000 C   0  0
   33.1876   -9.1911    0.0000 N   0  0
   33.9681   -9.4540    0.0000 C   0  0
   34.4620   -8.7931    0.0000 N   0  0
   33.9860   -8.1192    0.0000 C   0  0
   33.1981   -8.3637    0.0000 C   0  0
   34.2514   -7.3380    0.0000 Cl  0  0
   32.5370   -7.8702    0.0000 Cl  0  0
  1  2  2  0
  2  3  1  0
  3  4  2  0
  4  5  1  0
  5  6  2  0
  6  1  1  0
  2  7  1  0
  7  8  1  0
  8  9  1  0
  8 10  2  0
  9 11  1  0
 11 12  1  0
 12 13  1  0
 13 14  2  0
 14 15  1  0
 15 11  2  0
 14 16  1  0
 16 17  1  0
 16 18  1  0
 16 19  1  0
 12 20  1  0
 20 21  2  0
 21 22  1  0
 22 23  2  0
 23 24  1  0
 24 25  2  0
 25 20  1  0
 23 26  1  0
  5 27  1  0
 27 28  1  0
 28 29  2  0
 29 30  1  0
 30 31  2  0
 31 27  1  0
 30 32  1  0
 31 33  1  0
M  END