
  SciTegic01161211252D

 27 30  0  0  0  0            999 V2000
   -4.2602    2.2065    0.0000 C   0  0
   -1.6608    1.6557    0.0000 N   0  0
   -0.9463    1.2417    0.0000 C   0  0
   -0.9475    0.4160    0.0000 O   0  0
   -0.2306    1.6536    0.0000 C   0  0
    0.4823    1.2388    0.0000 C   0  0
    1.1975    1.6500    0.0000 N   0  0
    1.1992    2.4766    0.0000 C   0  0
    0.4796    2.8903    0.0000 C   0  0
   -0.2327    2.4769    0.0000 C   0  0
    1.9143    2.8893    0.0000 O   0  0
    2.6294    2.4765    0.0000 C   0  0
    2.6245    1.6504    0.0000 C   0  0
    3.3388    1.2375    0.0000 C   0  0
    4.0549    1.6504    0.0000 C   0  0
    4.0524    2.4805    0.0000 C   0  0
    3.3376    2.8895    0.0000 C   0  0
   -2.3443    1.1924    0.0000 C   0  0
   -3.1355    1.4358    0.0000 C   0  0
   -1.6020    2.4790    0.0000 C   0  0
   -3.4401    2.2019    0.0000 N   0  0
   -2.2088    3.0411    0.0000 C   0  0
   -3.0259    2.9149    0.0000 C   0  0
   -4.8368    2.7897    0.0000 C   0  0
   -5.4200    2.2130    0.0000 C   0  0
   -4.8433    1.6299    0.0000 C   0  0
    4.7706    1.2383    0.0000 F   0  0
 13 14  1  0
  7  8  2  0
 14 15  2  0
  3  5  1  0
 15 16  1  0
  8  9  1  0
 16 17  2  0
 17 12  1  0
  2 18  1  0
  9 10  2  0
 18 19  1  0
 10  5  1  0
  2 20  1  0
  5  6  2  0
 19 21  1  0
  8 11  1  0
 20 22  1  0
  3  4  2  0
 21 23  1  0
 22 23  1  0
 21  1  1  0
  1 24  1  0
 11 12  1  0
  6  7  1  0
 12 13  2  0
 24 25  1  0
 25 26  1  0
 26  1  1  0
  2  3  1  0
 15 27  1  0
M  END