
  SciTegic12121611482D

 17 19  0  0  0  0            999 V2000
   -2.3155    0.7475    0.0000 C   0  0
   -2.3155   -0.7475    0.0000 N   0  0
   -1.0028   -1.5132    0.0000 C   0  0
   -1.0028    1.5132    0.0000 N   0  0
    0.2917    0.7475    0.0000 C   0  0
    0.2917   -0.7475    0.0000 C   0  0
    1.7138   -1.2033    0.0000 C   0  0
    2.5889    0.0182    0.0000 C   0  0
    1.7138    1.2033    0.0000 S   0  0
   -0.9991   -2.7132    0.0000 O   0  0
    4.0872    0.0382    0.0000 C   0  0
    4.6738    1.0851    0.0000 C   0  0
   -3.6168    1.4950    0.0000 C   0  0
   -3.7580    2.9756    0.0000 C   0  0
   -5.2259    3.2843    0.0000 O   0  0
   -5.9730    1.9836    0.0000 C   0  0
   -4.9669    0.8711    0.0000 C   0  0
  1  2  1  0
  2  3  1  0
  3  6  1  0
  5  4  1  0
  4  1  2  0
  5  6  2  0
  6  7  1  0
  7  8  2  0
  8  9  1  0
  9  5  1  0
  3 10  2  0
  8 11  1  0
 11 12  1  0
 13 14  2  0
 14 15  1  0
 15 16  1  0
 16 17  2  0
 17 13  1  0
  1 13  1  0
M  END