
  SciTegic09261414462D

 30 33  0  0  0  0            999 V2000
   30.1026   -3.9704    0.0000 C   0  0
   30.1014   -4.7899    0.0000 C   0  0
   30.8095   -5.1989    0.0000 C   0  0
   30.8077   -3.5615    0.0000 C   0  0
   31.5163   -3.9668    0.0000 C   0  0
   31.5211   -4.7899    0.0000 C   0  0
   32.3055   -5.0397    0.0000 N   0  0
   32.7855   -4.3709    0.0000 C   0  0
   32.2977   -3.7079    0.0000 C   0  0
   32.5626   -5.8155    0.0000 C   0  0
   33.3629   -5.9807    0.0000 C   0  0
   33.6199   -6.7564    0.0000 O   0  0
   33.9061   -5.3702    0.0000 O   0  0
   33.6027   -4.3661    0.0000 C   0  0
   32.5457   -2.9292    0.0000 C   0  0
   33.3440   -2.7546    0.0000 C   0  0
   33.9556   -3.2963    0.0000 S   0  0
   34.6609   -2.8835    0.0000 C   0  0
   34.4863   -2.0852    0.0000 N   0  0
   33.6731   -2.0047    0.0000 C   0  0
   35.0295   -1.4746    0.0000 C   0  0
   33.2605   -1.2993    0.0000 O   0  0
   35.4093   -3.2118    0.0000 N   0  0
   36.1222   -2.8122    0.0000 C   0  0
   36.8214   -3.2308    0.0000 C   0  0
   37.5337   -2.8319    0.0000 C   0  0
   37.5445   -2.0139    0.0000 C   0  0
   36.8371   -1.5964    0.0000 C   0  0
   36.1276   -1.9977    0.0000 C   0  0
   38.2568   -1.6133    0.0000 C   0  0
  1  2  2  0
  2  3  1  0
  3  6  2  0
  5  4  2  0
  4  1  1  0
  5  6  1  0
  6  7  1  0
  7  8  1  0
  8  9  2  0
  9  5  1  0
  7 10  1  0
 10 11  1  0
 11 12  1  0
 11 13  2  0
  8 14  1  0
  9 15  1  0
 15 16  2  0
 16 17  1  0
 17 18  1  0
 18 19  1  0
 19 20  1  0
 20 16  1  0
 19 21  1  0
 20 22  2  0
 18 23  2  0
 23 24  1  0
 24 25  2  0
 25 26  1  0
 26 27  2  0
 27 28  1  0
 28 29  2  0
 29 24  1  0
 27 30  1  0
M  END