
  CDK    9/16/09,9:46

108113  0  0  0  0  0  0  0  0999 V2000
   19.2854   -2.1858    0.0000 N   0  0  0  0  0  0  0  0  0  0  0  0
   19.9352   -1.7199    0.0000 C   0  0  0  0  0  0  0  0  0  0  0  0
   20.6181   -2.9962    0.0000 O   0  0  0  0  0  0  0  0  0  0  0  0
   20.6150   -2.1734    0.0000 C   0  0  0  0  0  0  0  0  0  0  0  0
   19.9356   -0.8858    0.0000 C   0  0  0  0  0  0  0  0  0  0  0  0
   20.6448   -0.4786    0.0000 S   0  0  0  0  0  0  0  0  0  0  0  0
   21.3409   -1.7833    0.0000 O   0  0  0  0  0  0  0  0  0  0  0  0
   15.5737   -1.1210    0.0000 N   0  0  0  0  0  0  0  0  0  0  0  0
   16.2190   -0.6459    0.0000 C   0  0  0  0  0  0  0  0  0  0  0  0
   16.9019   -1.9314    0.0000 O   0  0  0  0  0  0  0  0  0  0  0  0
   16.8988   -1.1086    0.0000 C   0  0  0  0  0  0  0  0  0  0  0  0
   16.2193    0.1791    0.0000 C   0  0  0  0  0  0  0  0  0  0  0  0
   17.6265   -0.7218    0.0000 N   0  0  0  0  0  0  0  0  0  0  0  0
   13.5218   -0.7202    0.0000 N   0  0  0  0  0  0  0  0  0  0  0  0
   14.1672   -1.1908    0.0000 C   0  0  0  0  0  0  0  0  0  0  0  0
   14.8500    0.0902    0.0000 O   0  0  0  0  0  0  0  0  0  0  0  0
   14.8469   -0.7326    0.0000 C   0  0  0  0  0  0  0  0  0  0  0  0
   14.1675   -2.0158    0.0000 C   0  0  0  0  0  0  0  0  0  0  0  0
   14.8767   -2.4274    0.0000 C   0  0  0  0  0  0  0  0  0  0  0  0
   14.8770   -3.2468    0.0000 C   0  0  0  0  0  0  0  0  0  0  0  0
   15.5901   -2.0151    0.0000 C   0  0  0  0  0  0  0  0  0  0  0  0
   17.7417    0.0900    0.0000 C   0  0  0  0  0  0  0  0  0  0  0  0
   18.5532    0.2329    0.0000 C   0  0  0  0  0  0  0  0  0  0  0  0
   18.9400   -0.4947    0.0000 C   0  0  0  0  0  0  0  0  0  0  0  0
   18.3674   -1.0873    0.0000 C   0  0  0  0  0  0  0  0  0  0  0  0
   18.5085   -1.8992    0.0000 C   0  0  0  0  0  0  0  0  0  0  0  0
   17.8760   -2.4273    0.0000 O   0  0  0  0  0  0  0  0  0  0  0  0
   16.7964    0.7673    0.0000 C   0  0  0  0  0  0  0  0  0  0  0  0
   17.5948    0.5586    0.0000 C   0  0  0  0  0  0  0  0  0  0  0  0
   18.1716    1.1460    0.0000 C   0  0  0  0  0  0  0  0  0  0  0  0
   17.9510    1.9409    0.0000 C   0  0  0  0  0  0  0  0  0  0  0  0
   17.1482    2.1452    0.0000 C   0  0  0  0  0  0  0  0  0  0  0  0
   16.5748    1.5563    0.0000 C   0  0  0  0  0  0  0  0  0  0  0  0
   18.5273    2.5299    0.0000 O   0  0  0  0  0  0  0  0  0  0  0  0
    7.1753   -0.9722    0.0000 N   0  0  0  0  0  0  0  0  0  0  0  0
    7.8298   -0.4972    0.0000 C   0  0  0  0  0  0  0  0  0  0  0  0
    8.5218   -1.7917    0.0000 O   0  0  0  0  0  0  0  0  0  0  0  0
    8.5187   -0.9597    0.0000 C   0  0  0  0  0  0  0  0  0  0  0  0
    7.8301    0.3371    0.0000 C   0  0  0  0  0  0  0  0  0  0  0  0
    2.9591   -0.9722    0.0000 N   0  0  0  0  0  0  0  0  0  0  0  0
    3.6089   -0.4972    0.0000 C   0  0  0  0  0  0  0  0  0  0  0  0
    4.2964   -1.7871    0.0000 O   0  0  0  0  0  0  0  0  0  0  0  0
    4.2933   -0.9597    0.0000 C   0  0  0  0  0  0  0  0  0  0  0  0
    5.0204   -0.5719    0.0000 N   0  0  0  0  0  0  0  0  0  0  0  0
    0.8977   -0.5719    0.0000 N   0  0  0  0  0  0  0  0  0  0  0  0
    1.5476   -1.0470    0.0000 C   0  0  0  0  0  0  0  0  0  0  0  0
    2.2352    0.2430    0.0000 O   0  0  0  0  0  0  0  0  0  0  0  0
    2.2321   -0.5844    0.0000 C   0  0  0  0  0  0  0  0  0  0  0  0
    1.5479   -1.8765    0.0000 C   0  0  0  0  0  0  0  0  0  0  0  0
    2.2617   -2.2883    0.0000 O   0  0  0  0  0  0  0  0  0  0  0  0
    0.8346   -2.2889    0.0000 C   0  0  0  0  0  0  0  0  0  0  0  0
    5.7638   -1.0470    0.0000 C   0  0  0  0  0  0  0  0  0  0  0  0
    6.4513    0.2430    0.0000 O   0  0  0  0  0  0  0  0  0  0  0  0
    6.4483   -0.5844    0.0000 C   0  0  0  0  0  0  0  0  0  0  0  0
    5.7641   -1.8765    0.0000 C   0  0  0  0  0  0  0  0  0  0  0  0
    6.4900   -3.1141    0.0000 N   0  0  0  0  0  0  0  0  0  0  0  0
    7.2762   -3.3606    0.0000 C   0  0  0  0  0  0  0  0  0  0  0  0
    7.7537   -2.6891    0.0000 N   0  0  0  0  0  0  0  0  0  0  0  0
    7.2626   -2.0275    0.0000 C   0  0  0  0  0  0  0  0  0  0  0  0
    6.4816   -2.2901    0.0000 C   0  0  0  0  0  0  0  0  0  0  0  0
   -3.3166   -0.6003    0.0000 N   0  0  0  0  0  0  0  0  0  0  0  0
   -2.6667   -1.0754    0.0000 C   0  0  0  0  0  0  0  0  0  0  0  0
   -1.9747    0.2192    0.0000 O   0  0  0  0  0  0  0  0  0  0  0  0
   -1.9776   -0.6128    0.0000 C   0  0  0  0  0  0  0  0  0  0  0  0
   -2.6663   -1.9096    0.0000 C   0  0  0  0  0  0  0  0  0  0  0  0
   -1.9488   -3.1575    0.0000 C   0  0  0  0  0  0  0  0  0  0  0  0
   -1.9488   -2.3289    0.0000 C   0  0  0  0  0  0  0  0  0  0  0  0
   -1.2306   -1.9123    0.0000 C   0  0  0  0  0  0  0  0  0  0  0  0
   -0.5125   -2.3289    0.0000 C   0  0  0  0  0  0  0  0  0  0  0  0
   -0.5125   -3.1575    0.0000 C   0  0  0  0  0  0  0  0  0  0  0  0
   -1.2306   -3.5695    0.0000 C   0  0  0  0  0  0  0  0  0  0  0  0
   -1.2460   -1.0007    0.0000 N   0  0  0  0  0  0  0  0  0  0  0  0
   -3.3043    1.9424    0.0000 N   0  0  0  0  0  0  0  0  0  0  0  0
   -5.3916   -1.0007    0.0000 N   0  0  0  0  0  0  0  0  0  0  0  0
   -4.7372   -0.5210    0.0000 C   0  0  0  0  0  0  0  0  0  0  0  0
   -4.0451   -1.8201    0.0000 O   0  0  0  0  0  0  0  0  0  0  0  0
   -4.0482   -0.9882    0.0000 C   0  0  0  0  0  0  0  0  0  0  0  0
   -4.7369    0.3132    0.0000 C   0  0  0  0  0  0  0  0  0  0  0  0
   -4.0184    0.7249    0.0000 C   0  0  0  0  0  0  0  0  0  0  0  0
   -4.0181    1.5535    0.0000 C   0  0  0  0  0  0  0  0  0  0  0  0
   -3.2820    2.7707    0.0000 C   0  0  0  0  0  0  0  0  0  0  0  0
   -2.5575    3.1631    0.0000 N   0  0  0  0  0  0  0  0  0  0  0  0
   -3.9888    3.2018    0.0000 N   0  0  0  0  0  0  0  0  0  0  0  0
    0.1829   -0.9902    0.0000 C   0  0  0  0  0  0  0  0  0  0  0  0
   -0.5349   -0.5785    0.0000 C   0  0  0  0  0  0  0  0  0  0  0  0
   -0.5420    0.2495    0.0000 C   0  0  0  0  0  0  0  0  0  0  0  0
   -1.3699    0.2426    0.0000 C   0  0  0  0  0  0  0  0  0  0  0  0
   -0.5451    1.0798    0.0000 C   0  0  0  0  0  0  0  0  0  0  0  0
    0.2883    0.2526    0.0000 S   0  0  0  0  0  0  0  0  0  0  0  0
    0.1900   -1.8182    0.0000 O   0  0  0  0  0  0  0  0  0  0  0  0
    8.5439    0.7488    0.0000 C   0  0  0  0  0  0  0  0  0  0  0  0
    9.2545    0.3331    0.0000 C   0  0  0  0  0  0  0  0  0  0  0  0
    9.9678    0.7442    0.0000 C   0  0  0  0  0  0  0  0  0  0  0  0
    9.9687    1.5691    0.0000 C   0  0  0  0  0  0  0  0  0  0  0  0
    9.2501    1.9813    0.0000 C   0  0  0  0  0  0  0  0  0  0  0  0
    8.5398    1.5678    0.0000 C   0  0  0  0  0  0  0  0  0  0  0  0
    9.2452   -0.5708    0.0000 N   0  0  0  0  0  0  0  0  0  0  0  0
    9.9453   -1.0054    0.0000 C   0  0  0  0  0  0  0  0  0  0  0  0
    9.9146   -1.8315    0.0000 C   0  0  0  0  0  0  0  0  0  0  0  0
   10.6106   -2.2659    0.0000 C   0  0  0  0  0  0  0  0  0  0  0  0
   11.3394   -1.8806    0.0000 C   0  0  0  0  0  0  0  0  0  0  0  0
   11.3677   -1.0561    0.0000 N   0  0  0  0  0  0  0  0  0  0  0  0
   10.6673   -0.6170    0.0000 C   0  0  0  0  0  0  0  0  0  0  0  0
   10.6948    0.2066    0.0000 O   0  0  0  0  0  0  0  0  0  0  0  0
   12.0955   -0.6696    0.0000 C   0  0  0  0  0  0  0  0  0  0  0  0
   12.7940   -1.1067    0.0000 C   0  0  0  0  0  0  0  0  0  0  0  0
   12.7649   -1.9302    0.0000 O   0  0  0  0  0  0  0  0  0  0  0  0
   13.5803    0.1017    0.0000 C   0  0  0  0  0  0  0  0  0  0  0  0
  2  5  1  1  0  0  0 
 26 27  2  0  0  0  0 
 55 60  1  0  0  0  0 
 12 28  1  0  0  0  0 
 56 57  1  0  0  0  0 
 14 15  1  0  0  0  0 
 57 58  2  0  0  0  0 
 28 29  2  0  0  0  0 
 58 59  1  0  0  0  0 
 15 17  1  0  0  0  0 
 59 60  2  0  0  0  0 
 60 56  1  0  0  0  0 
 54 35  1  0  0  0  0 
 29 30  1  0  0  0  0 
 17 16  2  0  0  0  0 
 30 31  2  0  0  0  0 
 61 62  1  0  0  0  0 
 62 64  1  0  0  0  0 
 64 63  2  0  0  0  0 
 62 65  1  6  0  0  0 
 15 18  1  6  0  0  0 
 31 32  1  0  0  0  0 
 65 67  1  0  0  0  0 
  1  2  1  0  0  0  0 
 32 33  2  0  0  0  0 
 66 67  2  0  0  0  0 
 33 28  1  0  0  0  0 
 67 68  1  0  0  0  0 
  8  9  1  0  0  0  0 
 68 69  2  0  0  0  0 
 31 34  1  0  0  0  0 
 69 70  1  0  0  0  0 
  9 11  1  0  0  0  0 
 70 71  2  0  0  0  0 
 71 66  1  0  0  0  0 
 18 19  1  0  0  0  0 
 64 72  1  0  0  0  0 
 11 10  2  0  0  0  0 
 35 36  1  0  0  0  0 
 36 38  1  0  0  0  0 
 38 37  2  0  0  0  0 
 74 75  1  0  0  0  0 
 75 77  1  0  0  0  0 
 77 76  2  0  0  0  0 
 75 78  1  1  0  0  0 
 36 39  1  1  0  0  0 
 19 20  1  0  0  0  0 
  9 12  1  1  0  0  0 
 78 79  1  0  0  0  0 
 19 21  1  0  0  0  0 
 79 80  1  0  0  0  0 
 80 73  1  0  0  0  0 
 77 61  1  0  0  0  0 
 17  8  1  0  0  0  0 
 73 81  1  0  0  0  0 
 13 22  1  0  0  0  0 
 81 82  2  0  0  0  0 
 40 41  1  0  0  0  0 
 81 83  1  0  0  0  0 
 41 43  1  0  0  0  0 
 43 42  2  0  0  0  0 
  2  4  1  0  0  0  0 
  5  6  1  0  0  0  0 
 43 44  1  0  0  0  0 
  4  3  2  0  0  0  0 
 11 13  1  0  0  0  0 
 85 72  1  6  0  0  0 
 84 85  1  0  0  0  0 
 85 86  1  0  0  0  0 
 86 87  1  0  0  0  0 
 86 88  1  0  0  0  0 
 86 89  1  0  0  0  0 
 84 90  2  0  0  0  0 
 84 45  1  0  0  0  0 
 22 23  1  0  0  0  0 
 39 91  1  0  0  0  0 
 46 45  1  6  0  0  0 
 91 92  2  0  0  0  0 
 46 48  1  0  0  0  0 
 92 93  1  0  0  0  0 
 48 47  2  0  0  0  0 
 93 94  2  0  0  0  0 
 46 49  1  0  0  0  0 
 94 95  1  0  0  0  0 
 23 24  1  0  0  0  0 
 95 96  2  0  0  0  0 
 96 91  1  0  0  0  0 
 24 25  1  0  0  0  0 
 38 97  1  0  0  0  0 
 25 13  1  0  0  0  0 
 98 97  1  1  0  0  0 
 98 99  1  0  0  0  0 
 49 50  1  6  0  0  0 
  4  7  1  0  0  0  0 
 49 51  1  0  0  0  0 
 48 40  1  0  0  0  0 
 25 26  1  1  0  0  0 
 98103  1  0  0  0  0 
 99100  1  0  0  0  0 
100101  1  0  0  0  0 
101102  1  0  0  0  0 
102103  1  0  0  0  0 
 26  1  1  0  0  0  0 
103104  2  0  0  0  0 
 44 52  1  0  0  0  0 
102105  1  0  0  0  0 
 52 54  1  0  0  0  0 
105106  1  0  0  0  0 
106 14  1  0  0  0  0 
 54 53  2  0  0  0  0 
106107  2  0  0  0  0 
 52 55  1  6  0  0  0 
 14108  1  0  0  0  0 
M  END