
  SciTegic12231509382D

 21 23  0  0  0  0            999 V2000
    5.9621   -7.1046    0.0000 C   0  0
    5.9610   -7.9315    0.0000 C   0  0
    6.6754   -8.3441    0.0000 C   0  0
    6.6736   -6.6920    0.0000 C   0  0
    7.3886   -7.1010    0.0000 C   0  0
    7.3893   -7.9273    0.0000 C   0  0
    8.1042   -8.3381    0.0000 C   0  0
    8.8190   -7.9235    0.0000 C   0  0
    8.8142   -7.0940    0.0000 C   0  0
    8.0986   -6.6870    0.0000 O   0  3
    5.2479   -6.6925    0.0000 O   0  0
    6.6773   -9.1687    0.0000 O   0  0
    9.5227   -6.6791    0.0000 C   0  0
   10.2396   -7.0888    0.0000 C   0  0
   10.9507   -6.6728    0.0000 C   0  0
   10.9461   -5.8474    0.0000 C   0  0
   10.2245   -5.4396    0.0000 C   0  0
    9.5164   -5.8579    0.0000 C   0  0
   11.6670   -7.0811    0.0000 O   0  0
   11.6572   -5.4298    0.0000 O   0  0
    9.5347   -8.3330    0.0000 O   0  0
 15 16  2  0
  3  6  2  0
 16 17  1  0
  7  8  2  0
 17 18  2  0
 18 13  1  0
  9 13  1  0
 15 19  1  0
  8  9  1  0
 16 20  1  0
  5  4  2  0
  9 10  2  0
 10  5  1  0
  4  1  1  0
  1 11  1  0
  1  2  2  0
  3 12  1  0
  5  6  1  0
 13 14  2  0
  2  3  1  0
 14 15  1  0
  6  7  1  0
  8 21  1  0
M  CHG  1  10   1
M  END