
  SciTegic04021211102D

 38 41  0  0  0  0            999 V2000
   -3.9056   -2.1750    0.0000 C   0  0
   -3.9068   -3.0023    0.0000 C   0  0
   -3.1919   -3.4152    0.0000 C   0  0
   -2.4755   -3.0019    0.0000 C   0  0
   -2.4784   -2.1713    0.0000 C   0  0
   -3.1937   -1.7622    0.0000 C   0  0
   -3.1962   -0.9372    0.0000 N   0  0
   -2.5299   -0.4516    0.0000 C   0  0
   -2.7870    0.3340    0.0000 C   0  0
   -3.6135    0.3299    0.0000 C   0  0
   -3.8635   -0.4569    0.0000 N   0  0
   -4.0329    1.0403    0.0000 C   0  0
   -1.8141   -0.8618    0.0000 N   0  0
   -1.1009   -0.4471    0.0000 C   0  0
   -0.3852   -0.8574    0.0000 N   0  0
   -1.1035    0.3779    0.0000 O   0  0
    0.3199    0.3806    0.0000 N   0  0
    0.3280   -0.4426    0.0000 C   0  0
    1.1135   -0.6894    0.0000 S   0  0
    1.5909   -0.0186    0.0000 C   0  0
    1.1014    0.6429    0.0000 C   0  0
    1.1051    1.4679    0.0000 C   0  0
    1.8215    1.8771    0.0000 C   0  0
    1.8253    2.7021    0.0000 O   0  0
    2.5416    3.1113    0.0000 C   0  0
    3.2542    2.6955    0.0000 C   0  0
    3.2467    1.8723    0.0000 C   0  0
    3.9585    1.4566    0.0000 C   0  0
    4.6758    1.8659    0.0000 C   0  0
    4.6770    2.6951    0.0000 C   0  0
    3.9646    3.1071    0.0000 C   0  0
   -3.6272    1.7587    0.0000 C   0  0
   -4.8578    1.0324    0.0000 C   0  0
   -4.4500    1.7583    0.0000 C   0  0
   -4.6215   -3.4143    0.0000 C   0  0
   -5.3357   -3.0012    0.0000 C   0  0
   -6.0578   -3.4131    0.0000 O   0  0
   -5.3350   -2.1762    0.0000 O   0  0
  4  5  1  0
  2  3  1  0
  7  8  1  0
 18 19  1  0
 19 20  1  0
 20 21  2  0
 21 17  1  0
  9 10  1  0
 21 22  1  0
 10 11  2  0
 22 23  1  0
 11  7  1  0
 23 24  1  0
  5  6  2  0
 24 25  1  0
 10 12  1  0
 25 26  1  0
  6  1  1  0
 26 27  2  0
  8 13  1  0
 27 28  1  0
  1  2  2  0
 28 29  2  0
 13 14  1  0
 29 30  1  0
  6  7  1  0
 30 31  2  0
 31 26  1  0
 14 15  1  0
 12 32  1  0
  8  9  2  0
 12 33  1  0
 14 16  2  0
 12 34  1  0
 15 18  1  0
  2 35  1  0
 17 18  2  0
 35 36  1  0
  3  4  2  0
 36 37  1  0
 36 38  2  0
M  END