
          11280714582D 1   1.00000     0.00000     0

 31 35  0     0  0            999 V2000
    3.7250   -2.3625    0.0000 C   0  0  0  0  0  0           0  0  0
    4.4417   -1.9417    0.0000 C   0  0  0  0  0  0           0  0  0
    3.0042   -6.8917    0.0000 C   0  0  0  0  0  0           0  0  0
    2.2542   -7.2292    0.0000 N   0  0  0  0  0  0           0  0  0
    1.7042   -6.6167    0.0000 N   0  0  0  0  0  0           0  0  0
    2.9167   -6.0750    0.0000 N   0  0  0  0  0  0           0  0  0
    2.1167   -5.9042    0.0000 N   0  0  0  0  0  0           0  0  0
    4.4375   -1.1167    0.0000 C   0  0  0  0  0  0           0  0  0
    3.7250   -7.3042    0.0000 C   0  0  0  0  0  0           0  0  0
    5.7125   -1.5250    0.0000 N   0  0  0  0  0  0           0  0  0
    3.7250   -3.1875    0.0000 N   0  0  3  0  0  0           0  0  0
    3.0125   -1.9500    0.0000 N   0  0  0  0  0  0           0  0  0
    4.4417   -6.8917    0.0000 C   0  0  0  0  0  0           0  0  0
    3.7250   -0.7042    0.0000 N   0  0  0  0  0  0           0  0  0
    5.2167   -0.8542    0.0000 N   0  0  0  0  0  0           0  0  0
    3.0125   -1.1167    0.0000 C   0  0  0  0  0  0           0  0  0
    5.2292   -2.1917    0.0000 C   0  0  0  0  0  0           0  0  0
    4.4417   -6.0667    0.0000 C   0  0  0  0  0  0           0  0  0
    4.4417   -3.6000    0.0000 C   0  0  0  0  0  0           0  0  0
    3.7250   -5.6542    0.0000 C   0  0  0  0  0  0           0  0  0
    5.1542   -5.6542    0.0000 C   0  0  0  0  0  0           0  0  0
    4.4417   -4.4250    0.0000 C   0  0  0  0  0  0           0  0  0
    3.7250   -4.8292    0.0000 C   0  0  0  0  0  0           0  0  0
    5.1542   -4.8292    0.0000 C   0  0  0  0  0  0           0  0  0
    3.0125   -3.6000    0.0000 C   0  0  0  0  0  0           0  0  0
    3.7250   -8.1292    0.0000 C   0  0  0  0  0  0           0  0  0
    5.1542   -7.3000    0.0000 C   0  0  0  0  0  0           0  0  0
    2.2917   -3.1875    0.0000 C   0  0  0  0  0  0           0  0  0
    5.1542   -8.1250    0.0000 C   0  0  0  0  0  0           0  0  0
    4.4417   -8.5417    0.0000 C   0  0  0  0  0  0           0  0  0
    1.5792   -3.6000    0.0000 C   0  0  0  0  0  0           0  0  0
  2  1  2  0     0  0
  3  9  1  0     0  0
  4  3  1  0     0  0
  5  4  2  0     0  0
  6  3  2  0     0  0
  7  6  1  0     0  0
  8  2  1  0     0  0
  9 13  2  0     0  0
 10 17  2  0     0  0
 11  1  1  0     0  0
 12  1  1  0     0  0
 13 18  1  0     0  0
 14 16  2  0     0  0
 15  8  2  0     0  0
 16 12  1  0     0  0
 17  2  1  0     0  0
 18 21  2  0     0  0
 19 11  1  0     0  0
 20 23  2  0     0  0
 21 24  1  0     0  0
 22 19  1  0     0  0
 23 22  1  0     0  0
 24 22  2  0     0  0
 25 11  1  0     0  0
 26  9  1  0     0  0
 27 13  1  0     0  0
 28 25  1  0     0  0
 29 27  2  0     0  0
 30 29  1  0     0  0
 31 28  1  0     0  0
 14  8  1  0     0  0
 15 10  1  0     0  0
 18 20  1  0     0  0
 30 26  2  0     0  0
  5  7  1  0     0  0
M  END