
          11280715012D 1   1.00000     0.00000     0

 28 31  0     0  0            999 V2000
   -2.1500   -0.9000    0.0000 N   0  0  3  0  0  0           0  0  0
   -1.3583   -0.6542    0.0000 C   0  0  0  0  0  0           0  0  0
   -0.8750   -1.3167    0.0000 N   0  0  3  0  0  0           0  0  0
   -1.3583   -1.9875    0.0000 N   0  0  0  0  0  0           0  0  0
   -2.1458   -1.7292    0.0000 C   0  0  0  0  0  0           0  0  0
    3.6667   -0.5917    0.0000 C   0  0  0  0  0  0           0  0  0
    2.8417   -0.6000    0.0000 C   0  0  0  0  0  0           0  0  0
    4.0875   -1.3000    0.0000 C   0  0  0  0  0  0           0  0  0
    4.5042   -2.0125    0.0000 N   0  0  0  0  0  0           0  0  0
   -0.0500   -1.3125    0.0000 C   0  0  0  0  0  0           0  0  0
    1.1917   -0.6000    0.0000 N   0  0  3  0  0  0           0  0  0
   -1.1083    0.1333    0.0000 O   0  0  0  0  0  0           0  0  0
    4.0792    0.1333    0.0000 C   0  0  0  0  0  0           0  0  0
    2.4292   -1.3167    0.0000 C   0  0  0  0  0  0           0  0  0
    2.4292    0.1125    0.0000 C   0  0  0  0  0  0           0  0  0
    0.3625   -0.6000    0.0000 C   0  0  0  0  0  0           0  0  0
   -2.8708   -0.5000    0.0000 C   0  0  0  0  0  0           0  0  0
    4.9042    0.1333    0.0000 C   0  0  0  0  0  0           0  0  0
    3.6542    0.8458    0.0000 C   0  0  0  0  0  0           0  0  0
    1.6042    0.1125    0.0000 C   0  0  0  0  0  0           0  0  0
    1.6042   -1.3167    0.0000 C   0  0  0  0  0  0           0  0  0
    4.8917    1.5750    0.0000 C   0  0  0  0  0  0           0  0  0
   -2.8500   -2.1542    0.0000 C   0  0  0  0  0  0           0  0  0
    5.3167    0.8458    0.0000 C   0  0  0  0  0  0           0  0  0
    4.0667    1.5708    0.0000 C   0  0  0  0  0  0           0  0  0
    5.3042    2.2958    0.0000 F   0  0  0  0  0  0           0  0  0
   -3.5875   -0.9167    0.0000 C   0  0  0  0  0  0           0  0  0
   -3.5750   -1.7500    0.0000 C   0  0  0  0  0  0           0  0  0
  2  1  1  0     0  0
  3  2  1  0     0  0
  4  5  2  0     0  0
  5  1  1  0     0  0
  6  7  2  0     0  0
  7 14  1  0     0  0
  8  6  1  0     0  0
  9  8  3  0     0  0
 10  3  1  0     0  0
 11 16  1  0     0  0
 12  2  2  0     0  0
 13  6  1  0     0  0
 14 21  1  0     0  0
 15 20  1  0     0  0
 16 10  1  0     0  0
 17  1  1  0     0  0
 18 13  2  0     0  0
 19 13  1  0     0  0
 20 11  1  0     0  0
 21 11  1  0     0  0
 22 25  1  0     0  0
 23  5  1  0     0  0
 24 18  1  0     0  0
 25 19  2  0     0  0
 26 22  1  0     0  0
 27 17  1  0     0  0
 28 27  1  0     0  0
  4  3  1  0     0  0
 28 23  1  0     0  0
 15  7  1  0     0  0
 24 22  2  0     0  0
M  END