
  SciTegic10311316212D

 26 29  0  0  0  0            999 V2000
    1.6470  -13.6833    0.0000 C   0  0
    2.3696  -14.0824    0.0000 O   0  0
    2.3361  -12.4358    0.0000 N   0  0
    1.6266  -12.8578    0.0000 C   0  0
    3.0589  -12.8352    0.0000 C   0  0
    3.0679  -13.6565    0.0000 C   0  0
    3.7799  -14.0571    0.0000 C   0  0
    4.4873  -13.6408    0.0000 C   0  0
    4.4781  -12.8194    0.0000 C   0  0
    3.7617  -12.4143    0.0000 C   0  0
    0.9038  -12.4587    0.0000 O   0  0
    5.1891  -12.3993    0.0000 C   0  0
    5.9081  -12.8050    0.0000 N   0  0
    5.9106  -13.6279    0.0000 C   0  0
    6.6257  -14.0335    0.0000 C   0  0
    7.3389  -13.6170    0.0000 C   0  0
    7.3326  -12.7904    0.0000 C   0  0
    6.6130  -12.3803    0.0000 C   0  0
    8.0565  -14.0253    0.0000 C   0  0
    8.0586  -14.8501    0.0000 C   0  0
    8.7755  -15.2585    0.0000 C   0  0
    9.4888  -14.8410    0.0000 C   0  0
    9.4809  -14.0112    0.0000 C   0  0
    8.7636  -13.6066    0.0000 C   0  0
   10.2070  -15.2485    0.0000 Cl  0  0
    0.9411  -14.1115    0.0000 C   0  0
  1  2  1  0
  1  4  1  0
  2  6  1  0
  5  3  1  0
  3  4  1  0
  5  6  1  0
  5 10  2  0
  6  7  2  0
  7  8  1  0
  8  9  2  0
  9 10  1  0
  4 11  2  0
  9 12  1  0
 12 13  1  0
 13 14  1  0
 13 18  1  0
 14 15  1  0
 15 16  2  0
 16 17  1  0
 17 18  1  0
 16 19  1  0
 19 20  2  0
 20 21  1  0
 21 22  2  0
 22 23  1  0
 23 24  2  0
 24 19  1  0
 22 25  1  0
  1 26  1  0
M  END