
          11280715132D 1   1.00000     0.00000     0

 14 14  0     0  0            999 V2000
    2.0292   -3.2167    0.0000 N   0  0  0  0  0  0           0  0  0
    1.0917   -2.9667    0.0000 N   0  0  0  0  0  0           0  0  0
    1.4667   -3.4375    0.0000 C   0  0  0  0  0  0           0  0  0
    2.0000   -2.6167    0.0000 C   0  0  0  0  0  0           0  0  0
    1.4167   -2.4625    0.0000 C   0  0  0  0  0  0           0  0  0
    6.6542   -2.3042    0.0000 N   0  0  0  0  0  0           0  0  0
    2.5167   -2.3167    0.0000 C   0  0  0  0  0  0           0  0  0
    6.1417   -2.6125    0.0000 C   0  0  0  0  0  0           0  0  0
    3.0292   -2.6167    0.0000 C   0  0  0  0  0  0           0  0  0
    5.6167   -2.3125    0.0000 C   0  0  0  0  0  0           0  0  0
    5.1000   -2.6125    0.0000 C   0  0  0  0  0  0           0  0  0
    3.5500   -2.3167    0.0000 C   0  0  0  0  0  0           0  0  0
    4.0667   -2.6167    0.0000 C   0  0  0  0  0  0           0  0  0
    4.5792   -2.3167    0.0000 C   0  0  0  0  0  0           0  0  0
  2  3  1  0     0  0
  3  1  2  0     0  0
  4  1  1  0     0  0
  5  4  2  0     0  0
  6  8  1  0     0  0
  7  4  1  0     0  0
  8 10  1  0     0  0
  9  7  1  0     0  0
 10 11  1  0     0  0
 11 14  1  0     0  0
 12  9  1  0     0  0
 13 12  1  0     0  0
 14 13  1  0     0  0
  2  5  1  0     0  0
M  END