
  SciTegic11261311332D

 24 23  0  0  0  0            999 V2000
    2.2112    0.4281    0.0000 C   0  0
    1.7987    1.1425    0.0000 O   0  0
    1.7987   -0.2864    0.0000 C   0  0
    0.9737   -0.2864    0.0000 C   0  0
    0.5612    0.4281    0.0000 C   0  0
    0.5612   -1.0009    0.0000 C   0  0
   -0.2638   -1.0009    0.0000 C   0  0
   -0.6763   -1.7154    0.0000 C   0  0
   -1.5013   -1.7154    0.0000 C   0  0
   -1.9138   -1.0009    0.0000 C   0  0
   -1.9138   -2.4298    0.0000 C   0  0
   -2.7388   -2.4298    0.0000 C   0  0
   -3.1513   -3.1443    0.0000 C   0  0
   -3.9763   -3.1443    0.0000 C   0  0
   -4.3888   -3.8588    0.0000 C   0  0
   -4.3888   -2.4298    0.0000 C   0  0
    2.2112    1.8570    0.0000 P   0  0
    2.9257    1.4445    0.0000 O   0  0
    1.4968    2.2695    0.0000 O   0  0
    2.6237    2.5715    0.0000 O   0  0
    2.2112    3.2859    0.0000 P   0  0
    1.7987    4.0004    0.0000 O   0  0
    2.9257    3.6984    0.0000 O   0  0
    1.4968    2.8734    0.0000 O   0  0
  1  2  1  0
  1  3  1  0
 17  2  1  0
  3  4  2  0
  4  5  1  0
  4  6  1  0
  6  7  1  0
  7  8  1  0
  8  9  2  0
 10  9  1  0
  9 11  1  0
 12 11  1  0
 12 13  1  0
 13 14  2  0
 14 15  1  0
 14 16  1  0
 18 17  2  0
 17 19  1  0
 20 17  1  0
 20 21  1  0
 22 21  2  0
 23 21  1  0
 24 21  1  0
M  END