
          11280715352D 1   1.00000     0.00000     0

 20 18  0     0  0            999 V2000
   -1.1083   -4.3292    0.0000 C   0  0  0  0  0  0           0  0  0
   -1.5208   -5.0542    0.0000 C   0  0  0  0  0  0           0  0  0
    1.6417   -0.7667    0.0000 N   0  0  0  0  0  0           0  0  0
   -1.5208   -3.6167    0.0000 O   0  0  0  0  0  0           0  0  0
   -1.1083   -5.7667    0.0000 O   0  0  0  0  0  0           0  0  0
    1.6292   -4.4417    0.0000 N   0  0  0  0  0  0           0  0  0
    1.6417   -1.5917    0.0000 O   0  0  0  0  0  0           0  0  0
    0.9292   -0.3625    0.0000 C   0  0  0  0  0  0           0  0  0
    1.6417   -3.0250    0.0000 C   0  0  3  0  0  0           0  0  0
   -0.2833   -4.3292    0.0000 O   0  0  0  0  0  0           0  0  0
   -2.3500   -5.0542    0.0000 O   0  0  0  0  0  0           0  0  0
    2.0542   -2.3125    0.0000 C   0  0  0  0  0  0           0  0  0
    2.0417   -3.7375    0.0000 C   0  0  0  0  0  0           0  0  0
    0.8167   -3.0125    0.0000 O   0  0  0  0  0  0           0  0  0
    2.0292   -5.1667    0.0000 C   0  0  3  0  0  0           0  0  0
    0.2167   -0.7750    0.0000 C   0  0  0  0  0  0           0  0  0
    0.9292    0.4625    0.0000 C   0  0  0  0  0  0           0  0  0
    2.8542   -5.1750    0.0000 C   0  0  0  0  0  0           0  0  0
    1.6167   -5.8792    0.0000 C   0  0  0  0  0  0           0  0  0
   -0.5083   -0.3625    0.0000 C   0  0  0  0  0  0           0  0  0
  2  1  1  0     0  0
  4  1  2  0     0  0
  5  2  2  0     0  0
  6 13  1  0     0  0
  7  3  1  0     0  0
  8  3  2  0     0  0
  9 12  1  0     0  0
 10  1  1  0     0  0
 11  2  1  0     0  0
 12  7  1  0     0  0
 13  9  1  0     0  0
 14  9  1  0     0  0
 15  6  1  0     0  0
 16  8  1  0     0  0
 17  8  1  0     0  0
 18 15  1  0     0  0
 19 15  1  0     0  0
 20 16  1  0     0  0
M  END