
  SciTegic04071410272D

 32 35  0  0  0  0            999 V2000
    4.4115    0.8409    0.0000 C   0  0  1  0  0  0
    5.4974    0.0301    0.0000 C   0  0  2  0  0  0
    4.9723    0.4629    0.0000 C   0  0
    3.9858    0.4629    0.0000 C   0  0  1  0  0  0
    3.8457    1.2881    0.0000 N   0  3
    5.3547    0.8592    0.0000 C   0  0
    3.4571   -0.2577    0.0000 C   0  0
    4.0899    0.1236    0.0000 C   0  0
    5.9119   -0.6840    0.0000 C   0  0
    6.7376   -0.6820    0.0000 C   0  0
    7.1523   -1.3963    0.0000 C   0  0
    6.9479    0.1209    0.0000 C   0  0
    7.1582    0.9241    0.0000 N   0  0
    7.5318   -0.4629    0.0000 C   0  0
    6.7397   -2.1090    0.0000 C   0  0
    7.1537   -2.8226    0.0000 C   0  0
    7.9803   -2.8212    0.0000 C   0  0
    8.3912   -2.1001    0.0000 C   0  0
    7.9751   -1.3894    0.0000 C   0  0
    8.1175   -1.0438    0.0000 C   0  0
    8.9109   -0.8251    0.0000 C   0  0
    9.1188   -0.0270    0.0000 C   0  0
    8.5269    0.5521    0.0000 C   0  0
    7.7357    0.3305    0.0000 C   0  0
    3.0445    1.5055    0.0000 C   0  0
    4.2539    2.0060    0.0000 C   0  0
    3.8361    2.7182    0.0000 C   0  0
    3.8342    3.5401    0.0000 C   0  0
    3.1220    3.1225    0.0000 C   0  0
    5.8761    1.8474    0.0000 Br  0  5
    3.1830    0.6529    0.0000 H   0  0
    4.6747    1.6228    0.0000 H   0  0
 10 14  1  0
  1  6  1  0
 11 15  2  0
  6  2  1  0
 15 16  1  0
  4  7  1  0
 16 17  2  0
  1  8  1  0
 17 18  1  0
  7  8  1  0
 18 19  2  0
 19 11  1  0
 14 20  2  0
  2  9  1  6
 20 21  1  0
 21 22  2  0
  9 10  1  0
 22 23  1  0
  2  3  1  0
 23 24  2  0
 24 14  1  0
 10 11  1  0
  5 25  1  0
  3  4  1  0
  5 26  1  0
 10 12  1  0
 26 27  1  0
 28 27  1  0
 29 28  1  0
 27 29  1  0
  4  5  1  0
 12 13  3  0
  5  1  1  0
  4 31  1  1
  1 32  1  6
M  CHG  2   5   1  30  -1
M  END