
  SciTegic05221516342D

 52 55  0  0  0  0            999 V2000
    5.9350   -9.2780    0.0000 O   0  0
    5.5305   -9.9879    0.0000 S   0  0
    6.3475   -9.9832    0.0000 O   0  0
    2.0003  -11.2260    0.0000 C   0  0
    1.9991  -12.0456    0.0000 C   0  0
    2.7072  -12.4545    0.0000 C   0  0
    3.4169  -12.0451    0.0000 C   0  0
    3.4140  -11.2224    0.0000 C   0  0
    2.7054  -10.8172    0.0000 C   0  0
    1.2911  -12.4536    0.0000 O   0  0
    2.7078  -13.2746    0.0000 C   0  0
    2.0000  -13.6830    0.0000 O   0  0
    3.4154  -13.6834    0.0000 O   0  0
    2.7030  -10.0000    0.0000 N   0  0
    3.4094   -9.5893    0.0000 C   0  0
    3.4070   -8.7721    0.0000 O   0  0
    4.1184   -9.9957    0.0000 C   0  0
    4.8249   -9.5850    0.0000 N   0  0
    4.8224   -8.7679    0.0000 C   0  0
    5.5362  -10.8087    0.0000 C   0  0
    1.9940   -9.5935    0.0000 C   0  0
    1.9916   -8.7763    0.0000 C   0  0
    4.8282  -11.2190    0.0000 C   0  0
    4.8336  -12.0391    0.0000 C   0  0
    5.5479  -12.4453    0.0000 C   0  0
    6.2582  -12.0255    0.0000 C   0  0
    6.2493  -11.2069    0.0000 C   0  0
    4.1189  -10.8133    0.0000 F   0  0
    4.1286  -12.4523    0.0000 F   0  0
    5.5547  -13.2625    0.0000 F   0  0
    6.9518  -10.7894    0.0000 F   0  0
    6.9702  -12.4267    0.0000 F   0  0
    2.7011   -8.3638    0.0000 C   0  0
    2.7006   -7.5502    0.0000 C   0  0
    1.2840   -8.3691    0.0000 C   0  0
    1.2852   -7.5493    0.0000 C   0  0
    1.9934   -7.1429    0.0000 C   0  0
    3.4080   -7.1410    0.0000 C   0  0
    4.1160   -7.5490    0.0000 C   0  0
    3.4073   -6.3238    0.0000 C   0  0
    0.5783   -7.1393    0.0000 C   0  0
    0.5799   -6.3222    0.0000 C   0  0
   -0.1339   -7.5465    0.0000 C   0  0
   -0.0041   -6.5540    0.0000 C   0  0
    4.1933   -6.9255    0.0000 C   0  0
    5.5289   -8.3571    0.0000 C   0  0
    6.2330   -8.7669    0.0000 C   0  0
    6.9390   -8.3569    0.0000 C   0  0
    6.9370   -7.5389    0.0000 C   0  0
    6.2231   -7.1326    0.0000 C   0  0
    5.5200   -7.5449    0.0000 C   0  0
    7.6429   -7.1272    0.0000 Cl  0  0
  2  1  2  0
  3  2  2  0
  4  5  2  0
  5  6  1  0
  6  7  2  0
  7  8  1  0
  8  9  2  0
  9  4  1  0
  5 10  1  0
 11 12  1  0
 11 13  2  0
  6 11  1  0
  9 14  1  0
 14 15  1  0
 15 16  2  0
 15 17  1  0
 17 18  1  0
 18  2  1  0
 18 19  1  0
  2 20  1  0
 14 21  1  0
 21 22  1  0
 20 23  2  0
 23 24  1  0
 24 25  2  0
 25 26  1  0
 26 27  2  0
 27 20  1  0
 23 28  1  0
 24 29  1  0
 25 30  1  0
 27 31  1  0
 26 32  1  0
 22 33  1  0
 22 35  2  0
 33 34  2  0
 34 37  1  0
 36 35  1  0
 36 37  2  0
 34 38  1  0
 38 39  1  0
 38 40  1  0
 36 41  1  0
 41 42  1  0
 41 43  1  0
 41 44  1  0
 38 45  1  0
 19 46  1  0
 46 47  2  0
 47 48  1  0
 48 49  2  0
 49 50  1  0
 50 51  2  0
 51 46  1  0
 49 52  1  0
M  END