
          08180812472D 1   1.00000     0.00000     0

 21 24  0     0  0            999 V2000
    2.1926   -0.0293    0.0000 C   0  0  0  0  0  0           0  0  0
    2.1926   -0.8562    0.0000 C   0  0  0  0  0  0           0  0  0
    2.9062   -1.2654    0.0000 C   0  0  0  0  0  0           0  0  0
    2.9062    0.3884    0.0000 C   0  0  0  0  0  0           0  0  0
    3.6199   -0.0293    0.0000 C   0  0  0  0  0  0           0  0  0
    3.6199   -0.8526    0.0000 C   0  0  0  0  0  0           0  0  0
    4.4029   -1.1071    0.0000 S   0  0  0  0  0  0           0  0  0
    4.4030    0.2251    0.0000 C   0  0  0  0  0  0           0  0  0
    4.8875   -0.4429    0.0000 C   0  0  0  0  0  0           0  0  0
    5.7037   -0.3578    0.0000 N   0  0  0  0  0  0           0  0  0
    6.0419    0.3943    0.0000 C   0  0  0  0  0  0           0  0  0
    5.5574    1.0623    0.0000 N   0  0  0  0  0  0           0  0  0
    4.7348    0.9783    0.0000 C   0  0  0  0  0  0           0  0  0
    4.2484    1.6469    0.0000 O   0  0  0  0  0  0           0  0  0
    6.8642    0.3866    0.0000 C   0  0  0  0  0  0           0  0  0
    7.2713   -0.3345    0.0000 C   0  0  0  0  0  0           0  0  0
    8.0974   -0.3415    0.0000 C   0  0  0  0  0  0           0  0  0
    8.5174    0.3719    0.0000 C   0  0  0  0  0  0           0  0  0
    8.1053    1.0937    0.0000 C   0  0  0  0  0  0           0  0  0
    7.2805    1.0971    0.0000 C   0  0  0  0  0  0           0  0  0
    8.5219    1.8080    0.0000 O   0  0  0  0  0  0           0  0  0
  5  6  2  0     0  0
  1  2  1  0     0  0
  8 13  1  0     0  0
  9 10  1  0     0  0
 10 11  2  0     0  0
 11 12  1  0     0  0
 12 13  1  0     0  0
  1  4  1  0     0  0
 13 14  2  0     0  0
  6  7  1  0     0  0
  7  9  1  0     0  0
 15 16  2  0     0  0
  8  5  1  0     0  0
 16 17  1  0     0  0
  8  9  2  0     0  0
 17 18  2  0     0  0
  2  3  1  0     0  0
 18 19  1  0     0  0
  3  6  1  0     0  0
 19 20  2  0     0  0
 20 15  1  0     0  0
 11 15  1  0     0  0
  5  4  1  0     0  0
 19 21  1  0     0  0
M  END