
          11280714522D 1   1.00000     0.00000     0

 34 37  0     0  0            999 V2000
    1.0917   -4.0667    0.0000 C   0  0  0  0  0  0           0  0  0
    1.7542   -3.5917    0.0000 N   0  0  0  0  0  0           0  0  0
    0.8292   -3.3917    0.0000 C   0  0  3  0  0  0           0  0  0
    2.4292   -4.0667    0.0000 C   0  0  0  0  0  0           0  0  0
    0.9792   -2.7042    0.0000 C   0  0  3  0  0  0           0  0  0
   -0.4833   -3.4792    0.0000 C   0  0  3  0  0  0           0  0  0
   -0.1458   -4.2667    0.0000 O   0  0  0  0  0  0           0  0  0
    1.3417   -4.8542    0.0000 O   0  0  0  0  0  0           0  0  0
    0.1917   -2.9292    0.0000 C   0  0  3  0  0  0           0  0  0
    2.1667   -4.8542    0.0000 C   0  0  0  0  0  0           0  0  0
    1.4542   -3.1792    0.0000 C   0  0  0  0  0  0           0  0  0
    3.0917   -3.7917    0.0000 C   0  0  0  0  0  0           0  0  0
    7.8875   -5.2917    0.0000 C   0  0  0  0  0  0           0  0  0
    1.9292   -2.7042    0.0000 C   0  0  0  0  0  0           0  0  0
    8.4750   -5.8667    0.0000 C   0  0  0  0  0  0           0  0  0
   -0.4083   -1.2292    0.0000 C   0  0  0  0  0  0           0  0  0
   -0.7583   -2.9417    0.0000 C   0  0  0  0  0  0           0  0  0
   -0.2833   -2.4542    0.0000 C   0  0  0  0  0  0           0  0  0
    1.4917   -2.0042    0.0000 C   0  0  0  0  0  0           0  0  0
    3.1792   -3.0417    0.0000 O   0  0  0  0  0  0           0  0  0
   -1.2083   -1.4417    0.0000 O   0  0  0  0  0  0           0  0  0
    3.7417   -4.2042    0.0000 N   0  0  0  0  0  0           0  0  0
    0.9042   -1.4167    0.0000 C   0  0  0  0  0  0           0  0  0
    0.1917   -1.8250    0.0000 C   0  0  0  0  0  0           0  0  0
   -0.1833   -0.4292    0.0000 O   0  0  0  0  0  0           0  0  0
    7.3042   -4.7125    0.0000 C   0  0  0  0  0  0           0  0  0
    2.7542   -2.6792    0.0000 C   0  0  0  0  0  0           0  0  0
    1.8917   -1.2667    0.0000 C   0  0  0  0  0  0           0  0  0
    4.5417   -3.9875    0.0000 C   0  0  0  0  0  0           0  0  0
    6.5042   -4.9292    0.0000 C   0  0  0  0  0  0           0  0  0
    5.1167   -4.5667    0.0000 C   0  0  0  0  0  0           0  0  0
    5.9167   -4.3500    0.0000 C   0  0  0  0  0  0           0  0  0
    3.1542   -1.9542    0.0000 C   0  0  0  0  0  0           0  0  0
    2.7167   -1.2542    0.0000 C   0  0  0  0  0  0           0  0  0
  2  1  2  0     0  0
  3  1  1  0     0  0
  4  2  1  0     0  0
  5  3  1  0     0  0
  6  3  1  0     0  0
  7  6  1  0     0  0
  8  1  1  0     0  0
  9  5  1  0     0  0
 10  8  1  0     0  0
 11  5  1  0     0  0
 12  4  1  0     0  0
 13 26  1  0     0  0
 14 11  1  0     0  0
 15 13  3  0     0  0
 16 24  1  0     0  0
 17  6  1  0     0  0
 18 17  1  0     0  0
 19 14  2  0     0  0
 20 12  2  0     0  0
 21 16  2  0     0  0
 22 12  1  0     0  0
 23 19  1  0     0  0
 24 23  1  0     0  0
 25 16  1  0     0  0
 26 30  1  0     0  0
 27 14  1  0     0  0
 28 19  1  0     0  0
 29 22  1  0     0  0
 30 32  1  0     0  0
 31 29  1  0     0  0
 32 31  1  0     0  0
 33 27  2  0     0  0
 34 33  1  0     0  0
  4 10  2  0     0  0
  7  9  1  0     0  0
 18  9  1  0     0  0
 28 34  2  0     0  0
M  END