
  SciTegic12121614132D

 26 29  0  0  0  0            999 V2000
    7.6937    6.3070    0.0000 C   0  0
    8.4953    7.5748    0.0000 C   0  0
    7.7981    8.9030    0.0000 C   0  0
    6.2993    8.9632    0.0000 C   0  0
    5.4977    7.6954    0.0000 C   0  0
    6.1948    6.3672    0.0000 C   0  0
    4.2987    7.7436    0.0000 O   0  0
    5.3954    5.0970    0.0000 C   0  0
    4.1963    5.1432    0.0000 O   0  0
    6.0948    3.7691    0.0000 C   0  0
    5.2954    2.4990    0.0000 C   0  0
    5.9871    1.1802    0.0000 N   0  0
    5.3927    0.0086    0.0000 C   0  0  1  0  0  0
    6.0646   -1.3611    0.0000 C   0  0
    7.7530   -1.3180    0.0000 N   0  0
    8.4164    0.1292    0.0000 C   0  0  1  0  0  0
    7.7014    1.2233    0.0000 C   0  0
    8.6748   -2.3259    0.0000 C   0  0
   10.1629   -2.2346    0.0000 C   0  0
   10.9908   -3.4854    0.0000 C   0  0
   10.3216   -4.8278    0.0000 C   0  0
    8.8244   -4.9194    0.0000 C   0  0
    7.9964   -3.6686    0.0000 N   0  0
    6.9519   -0.5513    0.0000 C   0  0
    4.3931    0.0372    0.0000 H   0  0
    9.2778   -0.3786    0.0000 H   0  0
  1  2  2  0
  2  3  1  0
  3  4  2  0
  4  5  1  0
  5  6  2  0
  6  1  1  0
  5  7  1  0
  6  8  1  0
  8  9  2  0
  8 10  1  0
 10 11  2  0
 11 12  1  0
 12 13  1  0
 12 17  1  0
 13 14  1  0
 14 15  1  0
 15 16  1  0
 16 17  1  0
 18 19  2  0
 19 20  1  0
 20 21  2  0
 21 22  1  0
 22 23  2  0
 23 18  1  0
 15 18  1  0
 16 24  1  0
 13 24  1  0
 13 25  1  1
 16 26  1  1
M  END