
  Mrv0541 04051115152D          

 10 10  0  0  0  0            999 V2000
    0.2858   -0.1607    0.0000 C   0  0  0  0  0  0  0  0  0  0  0  0
    1.0003   -0.5732    0.0000 C   0  0  0  0  0  0  0  0  0  0  0  0
    1.0003   -1.3982    0.0000 C   0  0  0  0  0  0  0  0  0  0  0  0
    0.2858   -1.8107    0.0000 C   0  0  0  0  0  0  0  0  0  0  0  0
   -0.4286   -1.3982    0.0000 C   0  0  0  0  0  0  0  0  0  0  0  0
   -0.4286   -0.5732    0.0000 C   0  0  0  0  0  0  0  0  0  0  0  0
    0.2858    0.6643    0.0000 C   0  0  0  0  0  0  0  0  0  0  0  0
   -0.4286    1.0768    0.0000 C   0  0  0  0  0  0  0  0  0  0  0  0
   -0.4286    1.9018    0.0000 C   0  0  0  0  0  0  0  0  0  0  0  0
   -1.1431    2.3143    0.0000 C   0  0  0  0  0  0  0  0  0  0  0  0
  1  2  2  0  0  0  0
  1  6  1  0  0  0  0
  1  7  1  0  0  0  0
  2  3  1  0  0  0  0
  3  4  2  0  0  0  0
  4  5  1  0  0  0  0
  5  6  2  0  0  0  0
  7  8  1  0  0  0  0
  8  9  1  0  0  0  0
  9 10  1  0  0  0  0
M  END