
  SciTegic12231509382D

 12 12  0  0  0  0            999 V2000
    2.1214    1.3406    0.0000 O   0  0
    2.8359   -2.3719    0.0000 O   0  0
    3.5504    2.1656    0.0000 N   0  0
    2.8359    0.1031    0.0000 C   0  0
    2.8359    0.9281    0.0000 C   0  0
    3.5504   -0.3094    0.0000 C   0  0
    2.1214   -0.3094    0.0000 C   0  0
    3.5504    1.3406    0.0000 C   0  0
    2.8359   -1.5469    0.0000 C   0  0
    3.5504   -1.1344    0.0000 C   0  0
    2.1214   -1.1344    0.0000 C   0  0
    4.2648    0.9281    0.0000 C   0  0
  1  5  2  0
  2  9  1  0
  3  8  1  0
  4  5  1  0
  4  6  2  0
  4  7  1  0
  5  8  1  0
  6 10  1  0
  7 11  2  0
  8 12  1  0
  9 10  2  0
  9 11  1  0
M  END