
          11280714572D 1   1.00000     0.00000     0

 18 19  0     0  0            999 V2000
    0.3792   -0.9667    0.0000 N   0  0  0  0  0  0           0  0  0
    3.1125   -0.0792    0.0000 C   0  0  0  0  0  0           0  0  0
   -0.4583   -0.4792    0.0000 N   0  0  0  0  0  0           0  0  0
   -0.2125   -1.0292    0.0000 C   0  0  0  0  0  0           0  0  0
    0.5125   -0.3792    0.0000 C   0  0  0  0  0  0           0  0  0
    3.6292   -0.3792    0.0000 N   0  0  0  0  0  0           0  0  0
   -0.0125   -0.0792    0.0000 C   0  0  0  0  0  0           0  0  0
    3.1042    0.5208    0.0000 O   0  0  0  0  0  0           0  0  0
    2.5917   -0.3792    0.0000 N   0  0  0  0  0  0           0  0  0
    4.1417   -0.0792    0.0000 C   0  0  3  0  0  0           0  0  0
    1.0375   -0.0792    0.0000 C   0  0  0  0  0  0           0  0  0
    2.0792   -0.0792    0.0000 C   0  0  0  0  0  0           0  0  0
    3.9792    0.5083    0.0000 C   0  0  0  0  0  0           0  0  0
    4.7250   -0.2292    0.0000 C   0  0  0  0  0  0           0  0  0
    1.5625   -0.3792    0.0000 C   0  0  0  0  0  0           0  0  0
    4.4042    0.9333    0.0000 C   0  0  0  0  0  0           0  0  0
    5.1417    0.1958    0.0000 C   0  0  0  0  0  0           0  0  0
    4.9875    0.7708    0.0000 C   0  0  0  0  0  0           0  0  0
  2  9  1  0     0  0
  3  4  1  0     0  0
  4  1  2  0     0  0
  5  1  1  0     0  0
  6  2  1  0     0  0
  7  5  2  0     0  0
  8  2  2  0     0  0
  9 12  1  0     0  0
 10  6  1  0     0  0
 11  5  1  0     0  0
 12 15  1  0     0  0
 13 10  1  0     0  0
 14 10  1  0     0  0
 15 11  1  0     0  0
 16 13  1  0     0  0
 17 14  1  0     0  0
 18 17  1  0     0  0
  7  3  1  0     0  0
 16 18  1  0     0  0
M  END