
          11280714482D 1   1.00000     0.00000     0

  7  7  0     0  0            999 V2000
    4.5917   -2.6375    0.0000 N   0  0  0  0  0  0           0  0  0
    5.1167   -2.9375    0.0000 C   0  0  3  0  0  0           0  0  0
    4.0792   -2.9375    0.0000 C   0  0  0  0  0  0           0  0  0
    5.6375   -2.6292    0.0000 C   0  0  0  0  0  0           0  0  0
    5.1167   -3.5375    0.0000 C   0  0  0  0  0  0           0  0  0
    4.0792   -3.5375    0.0000 C   0  0  0  0  0  0           0  0  0
    4.5917   -3.8375    0.0000 C   0  0  0  0  0  0           0  0  0
  2  1  1  0     0  0
  3  1  1  0     0  0
  4  2  1  0     0  0
  5  2  1  0     0  0
  6  3  1  0     0  0
  7  6  1  0     0  0
  5  7  1  0     0  0
M  END