
          11280714462D 1   1.00000     0.00000     0

 24 27  0     1  0            999 V2000
    4.8167   -1.4167    0.0000 C   0  0  3  0  0  0           0  0  0
    3.2625   -2.9167    0.0000 C   0  0  0  0  0  0           0  0  0
    4.3042   -2.3125    0.0000 C   0  0  3  0  0  0           0  0  0
    3.7792   -2.0125    0.0000 C   0  0  3  0  0  0           0  0  0
    4.8167   -2.0125    0.0000 C   0  0  3  0  0  0           0  0  0
    3.2625   -2.3125    0.0000 C   0  0  1  0  0  0           0  0  0
    2.7417   -3.2167    0.0000 C   0  0  0  0  0  0           0  0  0
    4.3042   -1.1125    0.0000 C   0  0  0  0  0  0           0  0  0
    5.3375   -0.5042    0.0000 C   0  0  0  0  0  0           0  0  0
    3.7792   -1.4167    0.0000 C   0  0  0  0  0  0           0  0  0
    4.3042   -2.9167    0.0000 C   0  0  0  0  0  0           0  0  0
    5.8542   -0.2042    0.0000 C   0  0  0  0  0  0           0  0  0
    2.7417   -2.0125    0.0000 C   0  0  0  0  0  0           0  0  0
    4.8167   -0.8042    0.0000 C   0  0  1  0  0  0           0  0  0
    3.7792   -3.2167    0.0000 C   0  0  0  0  0  0           0  0  0
    2.2250   -2.9167    0.0000 C   0  0  0  0  0  0           0  0  0
    1.6917   -3.2250    0.0000 O   0  0  0  0  0  0           0  0  0
    2.2250   -2.3125    0.0000 C   0  0  0  0  0  0           0  0  0
    5.3875   -1.2292    0.0000 C   0  0  0  0  0  0           0  0  0
    5.3875   -2.2042    0.0000 C   0  0  0  0  0  0           0  0  0
    4.8125   -0.2042    0.0000 O   0  0  0  0  0  0           0  0  0
    5.7417   -1.7125    0.0000 C   0  0  0  0  0  0           0  0  0
    3.2542   -1.7125    0.0000 H   0  0  0  0  0  0           0  0  0
    4.3000   -0.5042    0.0000 H   0  0  0  0  0  0           0  0  0
  2  6  1  0     0  0
  3  5  1  0     0  0
  4 10  1  0     0  0
  5  1  1  0     0  0
  6  4  1  0     0  0
  7  2  2  0     0  0
  8  1  1  0     0  0
  9 14  1  0     0  0
 10  8  1  0     0  0
 11  3  1  0     0  0
 12  9  3  0     0  0
 13  6  1  0     0  0
 14  1  1  0     0  0
 15 11  1  0     0  0
 16 18  1  0     0  0
 17 16  2  0     0  0
 18 13  1  0     0  0
 19  1  1  0     0  0
 20  5  1  0     0  0
 14 21  1  6     0  0
 22 19  1  0     0  0
  6 23  1  1     0  0
 14 24  1  1     0  0
 20 22  1  0     0  0
  3  4  1  0     0  0
  2 15  1  0     0  0
  7 16  1  0     0  0
M  END