
  SciTegic07061118172D

 26 29  0  0  0  0            999 V2000
    7.6194    0.1084    0.0000 C   0  0
    7.6182   -0.7190    0.0000 C   0  0
    8.3331   -1.1319    0.0000 C   0  0
    9.0495   -0.7185    0.0000 C   0  0
    9.0466    0.1120    0.0000 C   0  0
    8.3313    0.5211    0.0000 C   0  0
    6.9034   -1.1309    0.0000 Cl  0  0
    9.7596    0.5272    0.0000 C   0  0
    9.7564    1.3522    0.0000 C   0  0
   10.4711    1.7626    0.0000 N   0  0
   10.4684    2.5868    0.0000 N   0  0
    9.7518    2.9974    0.0000 C   0  0
    9.7476    3.8224    0.0000 O   0  0
    9.0428    1.7549    0.0000 C   0  0
    9.0382    2.5746    0.0000 C   0  0
    8.3271    2.9786    0.0000 C   0  0
    7.6203    2.5641    0.0000 C   0  0
    7.6289    1.7414    0.0000 C   0  0
    8.3405    1.3410    0.0000 C   0  0
   11.1815    3.0016    0.0000 C   0  0
   11.8973    2.5913    0.0000 C   0  0  1  0  0  0
   11.9017    1.7680    0.0000 C   0  0
   12.6876    1.5171    0.0000 C   0  0
   13.1691    2.1870    0.0000 C   0  0
   12.6807    2.8519    0.0000 N   0  0
   12.9309    3.6380    0.0000 C   0  0
 14  9  1  0
  6  1  1  0
 12 13  2  0
  1  2  2  0
  2  7  1  0
 14 15  2  0
  3  4  2  0
 15 16  1  0
  5  8  1  0
 16 17  2  0
 17 18  1  0
  8  9  1  0
 18 19  2  0
 19 14  1  0
  4  5  1  0
 11 20  1  0
  9 10  2  0
 21 20  1  6
 21 22  1  0
  2  3  1  0
 10 11  1  0
  5  6  2  0
 11 12  1  0
 22 23  1  0
 23 24  1  0
 24 25  1  0
 25 21  1  0
 12 15  1  0
 25 26  1  0
M  END