
  SciTegic10311316262D

 30 32  0  0  0  0            999 V2000
    2.2654   -5.4146    0.0000 O   0  0
    1.8570   -4.7021    0.0000 S   0  0
    1.4442   -5.4120    0.0000 O   0  0
    2.5765   -3.4646    0.0000 C   0  0
    2.5753   -4.2919    0.0000 C   0  0
    3.2901   -4.7048    0.0000 C   0  0
    4.0065   -4.2915    0.0000 C   0  0
    4.0037   -3.4609    0.0000 C   0  0
    3.2883   -3.0518    0.0000 C   0  0
    1.1464   -4.2908    0.0000 N   0  0
    4.7166   -3.0457    0.0000 N   0  0
    5.4326   -3.4555    0.0000 C   0  0
    6.1455   -3.0404    0.0000 C   0  0
    5.4357   -4.2805    0.0000 O   0  0
    6.8616   -3.4502    0.0000 S   0  0
    7.5745   -3.0350    0.0000 C   0  0
    8.2904   -3.4479    0.0000 N   0  0
    9.0012   -3.0363    0.0000 C   0  0
    9.0023   -2.2109    0.0000 C   0  0
    8.2864   -1.7989    0.0000 C   0  0
    7.5694   -2.2123    0.0000 N   0  0
    8.2861   -0.9739    0.0000 O   0  0
    9.7175   -1.8027    0.0000 C   0  0
   10.4319   -1.3902    0.0000 N   0  0
    9.7140   -3.4479    0.0000 C   0  0
    9.7126   -4.2740    0.0000 C   0  0
   10.4262   -4.6864    0.0000 C   0  0
   11.1417   -4.2739    0.0000 C   0  0
   11.1390   -3.4446    0.0000 C   0  0
   10.4248   -3.0359    0.0000 C   0  0
  2  1  2  0
  3  2  2  0
  4  5  2  0
  5  6  1  0
  6  7  2  0
  7  8  1  0
  8  9  2  0
  9  4  1  0
  5  2  1  0
  2 10  1  0
  8 11  1  0
 11 12  1  0
 12 13  1  0
 12 14  2  0
 13 15  1  0
 15 16  1  0
 16 17  2  0
 16 21  1  0
 17 18  1  0
 18 19  2  0
 19 20  1  0
 20 21  1  0
 20 22  2  0
 23 24  3  0
 19 23  1  0
 25 26  2  0
 26 27  1  0
 27 28  2  0
 28 29  1  0
 29 30  2  0
 30 25  1  0
 18 25  1  0
M  END