
          11280715362D 1   1.00000     0.00000     0

 27 29  0     0  0            999 V2000
    4.3167   -6.7792    0.0000 C   0  0  0  0  0  0           0  0  0
    3.7917   -6.4792    0.0000 C   0  0  3  0  0  0           0  0  0
    4.3167   -7.3792    0.0000 C   0  0  0  0  0  0           0  0  0
    3.7917   -7.6792    0.0000 O   0  0  0  0  0  0           0  0  0
    3.2667   -7.3875    0.0000 C   0  0  3  0  0  0           0  0  0
    3.2667   -6.7792    0.0000 C   0  0  3  0  0  0           0  0  0
    8.9917   -7.0125    0.0000 N   0  3  0  0  0  0           0  0  0
    4.8292   -6.4792    0.0000 C   0  0  0  0  0  0           0  0  0
    2.7417   -6.4792    0.0000 C   0  0  0  0  0  0           0  0  0
    6.3917   -7.3625    0.0000 C   0  0  0  0  0  0           0  0  0
    6.9167   -7.0500    0.0000 C   0  0  0  0  0  0           0  0  0
    3.7917   -5.8750    0.0000 C   0  0  0  0  0  0           0  0  0
    2.7417   -5.8750    0.0000 C   0  0  0  0  0  0           0  0  0
    3.2792   -5.5750    0.0000 C   0  0  0  0  0  0           0  0  0
    4.8292   -7.6792    0.0000 C   0  0  0  0  0  0           0  0  0
    9.0042   -7.6125    0.0000 O   0  5  0  0  0  0           0  0  0
    5.3542   -6.7792    0.0000 C   0  0  0  0  0  0           0  0  0
    9.5042   -6.7042    0.0000 O   0  0  0  0  0  0           0  0  0
    5.3542   -7.3792    0.0000 C   0  0  0  0  0  0           0  0  0
    4.8167   -5.8792    0.0000 O   0  0  0  0  0  0           0  0  0
    8.4667   -6.7167    0.0000 C   0  0  0  0  0  0           0  0  0
    5.8792   -7.6667    0.0000 C   0  0  0  0  0  0           0  0  0
    2.7042   -7.1875    0.0000 C   0  0  0  0  0  0           0  0  0
    3.0667   -7.9542    0.0000 C   0  0  0  0  0  0           0  0  0
    7.4292   -6.7375    0.0000 C   0  0  0  0  0  0           0  0  0
    3.2917   -4.9750    0.0000 C   0  0  0  0  0  0           0  0  0
    7.9542   -7.0292    0.0000 C   0  0  0  0  0  0           0  0  0
  2  1  1  0     0  0
  3  1  1  0     0  0
  4  3  1  0     0  0
  5  4  1  0     0  0
  6  2  1  0     0  0
  7 21  1  0     0  0
  8  1  2  0     0  0
  9  6  1  0     0  0
 10 22  1  0     0  0
 11 10  3  0     0  0
 12  2  1  0     0  0
 13 14  2  0     0  0
 14 12  1  0     0  0
 15  3  2  0     0  0
 16  7  1  0     0  0
 17  8  1  0     0  0
 18  7  2  0     0  0
 19 17  2  0     0  0
 20  8  1  0     0  0
 21 27  1  0     0  0
 22 19  1  0     0  0
 23  5  1  0     0  0
 24  5  1  0     0  0
 25 11  1  0     0  0
 26 14  1  0     0  0
 27 25  1  0     0  0
  5  6  1  0     0  0
 19 15  1  0     0  0
 13  9  1  0     0  0
M  CHG  2   7   1  16  -1
M  END