
  CDK    9/16/09,9:48

 32 36  0  0  0  0  0  0  0  0999 V2000
   13.1610  -12.3298    0.0000 N   0  0  0  0  0  0  0  0  0  0  0  0
   12.3713  -12.5878    0.0000 C   0  0  0  0  0  0  0  0  0  0  0  0
   12.3752  -13.4167    0.0000 C   0  0  0  0  0  0  0  0  0  0  0  0
   13.1647  -13.6698    0.0000 N   0  0  0  0  0  0  0  0  0  0  0  0
   13.6498  -12.9975    0.0000 C   0  0  0  0  0  0  0  0  0  0  0  0
   11.7042  -12.1072    0.0000 C   0  0  0  0  0  0  0  0  0  0  0  0
   11.7894  -11.2856    0.0000 C   0  0  0  0  0  0  0  0  0  0  0  0
   11.1214  -10.8029    0.0000 C   0  0  0  0  0  0  0  0  0  0  0  0
   10.3679  -11.1407    0.0000 N   0  0  0  0  0  0  0  0  0  0  0  0
   10.2864  -11.9659    0.0000 C   0  0  0  0  0  0  0  0  0  0  0  0
   10.9553  -12.4448    0.0000 C   0  0  0  0  0  0  0  0  0  0  0  0
   11.7108  -13.9048    0.0000 C   0  0  0  0  0  0  0  0  0  0  0  0
   10.9554  -13.5709    0.0000 C   0  0  0  0  0  0  0  0  0  0  0  0
   10.2905  -14.0579    0.0000 C   0  0  0  0  0  0  0  0  0  0  0  0
   11.8016  -14.7213    0.0000 C   0  0  0  0  0  0  0  0  0  0  0  0
   11.1399  -15.2104    0.0000 C   0  0  0  0  0  0  0  0  0  0  0  0
   10.3752  -14.8786    0.0000 C   0  0  0  0  0  0  0  0  0  0  0  0
    9.8233  -15.5035    0.0000 C   0  0  0  0  0  0  0  0  0  0  0  0
   10.2471  -16.2215    0.0000 C   0  0  0  0  0  0  0  0  0  0  0  0
   11.0607  -16.0402    0.0000 C   0  0  0  0  0  0  0  0  0  0  0  0
    9.0021  -15.4251    0.0000 N   0  0  0  0  0  0  0  0  0  0  0  0
    8.5237  -16.0971    0.0000 O   0  0  0  0  0  0  0  0  0  0  0  0
   14.4747  -12.9947    0.0000 C   0  0  0  0  0  0  0  0  0  0  0  0
   14.8867  -13.7099    0.0000 C   0  0  0  0  0  0  0  0  0  0  0  0
   15.7080  -13.7091    0.0000 C   0  0  0  0  0  0  0  0  0  0  0  0
   16.1219  -12.9951    0.0000 N   0  0  0  0  0  0  0  0  0  0  0  0
   15.7083  -12.2803    0.0000 C   0  0  0  0  0  0  0  0  0  0  0  0
   14.8807  -12.2794    0.0000 C   0  0  0  0  0  0  0  0  0  0  0  0
   16.9468  -12.9954    0.0000 C   0  0  0  0  0  0  0  0  0  0  0  0
   17.3590  -13.7101    0.0000 C   0  0  0  0  0  0  0  0  0  0  0  0
   18.1838  -13.7104    0.0000 O   0  0  0  0  0  0  0  0  0  0  0  0
   18.5961  -14.4249    0.0000 C   0  0  0  0  0  0  0  0  0  0  0  0
 15 12  1  0  0  0  0 
  3 12  1  0  0  0  0 
 16 17  1  0  0  0  0 
  7  8  1  0  0  0  0 
  3  4  1  0  0  0  0 
  8  9  2  0  0  0  0 
  4  5  2  0  0  0  0 
  9 10  1  0  0  0  0 
 17 18  1  0  0  0  0 
 18 19  1  0  0  0  0 
 19 20  1  0  0  0  0 
 20 16  1  0  0  0  0 
  5  1  1  0  0  0  0 
 18 21  2  0  0  0  0 
 10 11  2  0  0  0  0 
 21 22  1  0  0  0  0 
 11  6  1  0  0  0  0 
  5 23  1  0  0  0  0 
 23 24  1  0  0  0  0 
  2  6  1  0  0  0  0 
  2  3  2  0  0  0  0 
 12 13  2  0  0  0  0 
  6  7  2  0  0  0  0 
 23 28  1  0  0  0  0 
 24 25  1  0  0  0  0 
 25 26  1  0  0  0  0 
 26 27  1  0  0  0  0 
 27 28  1  0  0  0  0 
 13 14  1  0  0  0  0 
 26 29  1  0  0  0  0 
 14 17  2  0  0  0  0 
 29 30  1  0  0  0  0 
  1  2  1  0  0  0  0 
 30 31  1  0  0  0  0 
 16 15  2  0  0  0  0 
 31 32  1  0  0  0  0 
M  END