
  CDK    9/16/09,9:56

 28 30  0  0  0  0  0  0  0  0999 V2000
   11.1428   -4.7339    0.0000 C   0  0  0  0  0  0  0  0  0  0  0  0
   11.3768   -3.9405    0.0000 N   0  0  0  0  0  0  0  0  0  0  0  0
   10.3408   -4.9247    0.0000 C   0  0  0  0  0  0  0  0  0  0  0  0
   11.7130   -5.3361    0.0000 O   0  0  0  0  0  0  0  0  0  0  0  0
   10.1078   -5.7162    0.0000 C   0  0  0  0  0  0  0  0  0  0  0  0
    9.3030   -5.9100    0.0000 C   0  0  0  0  0  0  0  0  0  0  0  0
    9.0753   -6.7043    0.0000 N   0  0  0  0  0  0  0  0  0  0  0  0
    8.2728   -6.9076    0.0000 C   0  0  0  0  0  0  0  0  0  0  0  0
    7.6974   -6.3154    0.0000 O   0  0  0  0  0  0  0  0  0  0  0  0
    7.0190   -8.7127    0.0000 C   0  0  0  0  0  0  0  0  0  0  0  0
    6.2417   -9.0049    0.0000 C   0  0  0  0  0  0  0  0  0  0  0  0
    5.5576   -8.5456    0.0000 O   0  0  0  0  0  0  0  0  0  0  0  0
    6.2815   -9.8287    0.0000 C   0  0  0  0  0  0  0  0  0  0  0  0
    5.6325  -10.3394    0.0000 O   0  0  0  0  0  0  0  0  0  0  0  0
    7.0806  -10.0426    0.0000 C   0  0  0  0  0  0  0  0  0  0  0  0
    7.5323   -9.3527    0.0000 O   0  0  0  0  0  0  0  0  0  0  0  0
    7.4074  -10.8066    0.0000 N   0  0  0  0  0  0  0  0  0  0  0  0
    6.9530  -11.4670    0.0000 C   0  0  0  0  0  0  0  0  0  0  0  0
    7.4696  -12.1157    0.0000 N   0  0  0  0  0  0  0  0  0  0  0  0
    8.2341  -11.8331    0.0000 C   0  0  0  0  0  0  0  0  0  0  0  0
    8.9577  -12.2066    0.0000 C   0  0  0  0  0  0  0  0  0  0  0  0
    8.9883  -13.0219    0.0000 N   0  0  0  0  0  0  0  0  0  0  0  0
    9.6505  -11.7587    0.0000 N   0  0  0  0  0  0  0  0  0  0  0  0
    9.6149  -10.9612    0.0000 C   0  0  0  0  0  0  0  0  0  0  0  0
    8.8813  -10.5800    0.0000 N   0  0  0  0  0  0  0  0  0  0  0  0
    8.1939  -11.0157    0.0000 C   0  0  0  0  0  0  0  0  0  0  0  0
    7.2412   -7.9081    0.0000 C   0  0  0  0  0  0  0  0  0  0  0  0
    8.0470   -7.7044    0.0000 O   0  0  0  0  0  0  0  0  0  0  0  0
  1  3  1  0  0  0  0 
  5  6  1  0  0  0  0 
  1  2  1  0  0  0  0 
  6  7  1  0  0  0  0 
  1  4  2  0  0  0  0 
  8  7  1  0  0  0  0 
 10 11  1  0  0  0  0 
 11 12  1  6  0  0  0 
 11 13  1  0  0  0  0 
 13 14  1  6  0  0  0 
 13 15  1  0  0  0  0 
 15 16  1  0  0  0  0 
 10 16  1  0  0  0  0 
 15 17  1  1  0  0  0 
 17 18  1  0  0  0  0 
 18 19  2  0  0  0  0 
 19 20  1  0  0  0  0 
 20 21  1  0  0  0  0 
 21 22  1  0  0  0  0 
 21 23  2  0  0  0  0 
 23 24  1  0  0  0  0 
 24 25  2  0  0  0  0 
 25 26  1  0  0  0  0 
 20 26  2  0  0  0  0 
 17 26  1  0  0  0  0 
  8  9  2  0  0  0  0 
 10 27  1  1  0  0  0 
  3  5  1  0  0  0  0 
 27 28  1  0  0  0  0 
 28  8  1  0  0  0  0 
M  END