
  SciTegic04091414152D

 15 15  0  0  0  0            999 V2000
    4.0542  -21.0961    0.0000 C   0  0
    4.0542  -21.9210    0.0000 C   0  0
    4.7663  -22.3294    0.0000 C   0  0
    5.4783  -21.9210    0.0000 C   0  0
    5.4783  -21.0961    0.0000 C   0  0
    4.7663  -20.6793    0.0000 N   0  0
    6.1940  -20.6856    0.0000 O   0  0
    3.3385  -20.6856    0.0000 O   0  0
    3.3403  -22.3346    0.0000 C   0  0
    2.6297  -22.7475    0.0000 N   0  0
    4.7663  -23.1544    0.0000 C   0  0
    6.1922  -22.3346    0.0000 C   0  0
    6.9072  -21.9231    0.0000 N   0  0
    7.6211  -22.3366    0.0000 C   0  0
    6.9085  -21.0981    0.0000 C   0  0
  1  2  1  0
  1  6  1  0
  2  3  2  0
  3  4  1  0
  4  5  2  0
  5  6  1  0
  5  7  1  0
  1  8  2  0
  2  9  1  0
  9 10  3  0
  3 11  1  0
  4 12  1  0
 12 13  1  0
 13 14  1  0
 13 15  1  0
M  END