
  SciTegic12161611472D

 34 37  0  0  0  0            999 V2000
   -0.9991   -2.7132    0.0000 O   0  0
   -1.0028   -1.5132    0.0000 C   0  0
    0.2917   -0.7475    0.0000 C   0  0
    0.2917    0.7475    0.0000 C   0  0
    1.7138    1.2033    0.0000 N   0  0
    2.5889    0.0182    0.0000 C   0  0
    4.0872    0.0382    0.0000 C   0  0
    4.8208    1.3475    0.0000 S   0  0
    6.3215    1.3677    0.0000 C   0  0
    7.1738    2.5889    0.0000 N   0  0
    8.5967    2.1355    0.0000 N   0  0
    8.5992    0.6405    0.0000 C   0  0
    9.8950   -0.1230    0.0000 N   0  0
   11.2064    0.6450    0.0000 C   0  0
   12.2480    0.0491    0.0000 C   0  0
   11.2038    2.1400    0.0000 C   0  0
   12.5058    2.8866    0.0000 C   0  0
   12.5112    4.3874    0.0000 C   0  0
   13.8133    5.1339    0.0000 C   0  0
   13.8176    6.3339    0.0000 C   0  0
    9.8898    2.9035    0.0000 C   0  0
    9.8841    4.1035    0.0000 C   0  0
    7.1779    0.1823    0.0000 N   0  0
    1.7138   -1.2033    0.0000 N   0  0
    2.1855   -2.6254    0.0000 C   0  0
    3.3606   -2.8684    0.0000 C   0  0
   -1.0028    1.5132    0.0000 N   0  0
   -0.9971    3.0138    0.0000 C   0  0
   -2.2935    3.7700    0.0000 C   0  0
   -2.2878    5.2708    0.0000 C   0  0
   -3.3243    5.8754    0.0000 C   0  0
   -2.3155    0.7475    0.0000 C   0  0
   -2.3155   -0.7475    0.0000 N   0  0
   -3.3560    1.3452    0.0000 O   0  0
  1  2  2  0
  2  3  1  0
  3  4  2  0
  4  5  1  0
  5  6  2  0
  6  7  1  0
  7  8  1  0
  8  9  1  0
  9 10  2  0
 10 11  1  0
 11 12  1  0
 12 13  1  0
 13 14  2  0
 14 15  1  0
 14 16  1  0
 16 17  1  0
 17 18  1  0
 18 19  1  0
 19 20  1  0
 16 21  2  0
 11 21  1  0
 21 22  1  0
 12 23  2  0
  9 23  1  0
  6 24  1  0
  3 24  1  0
 24 25  1  0
 25 26  1  0
  4 27  1  0
 27 28  1  0
 28 29  1  0
 29 30  1  0
 30 31  1  0
 27 32  1  0
 32 33  1  0
  2 33  1  0
 32 34  2  0
M  END