
  SciTegic11201309402D

 44 48  0  0  1  0            999 V2000
    1.4542    0.0583    0.0000 S   0  0
    0.7417   -0.3750    0.0000 N   0  0
    4.3667    1.5625    0.0000 N   0  0
    4.8667    0.9000    0.0000 C   0  0
    2.1667    0.4625    0.0000 C   0  0
   -2.8208    0.0458    0.0000 C   0  0
    4.3917    0.2250    0.0000 O   0  0
    3.6042    0.4833    0.0000 C   0  0
   -4.4208   -1.4125    0.0000 C   0  0  2  0  0  0
    0.0292    0.0458    0.0000 C   0  0
    3.5917    1.3000    0.0000 C   0  0
    2.8917    0.0583    0.0000 C   0  0
   -5.2208   -1.5792    0.0000 C   0  0  1  0  0  0
   -4.3333   -0.6000    0.0000 C   0  0  1  0  0  0
   -2.1083   -0.3750    0.0000 N   0  0
   -5.6333   -0.8750    0.0000 O   0  0
   -0.6833   -0.3750    0.0000 C   0  0  2  0  0  0
   -1.3958    0.0458    0.0000 C   0  0  2  0  0  0
   -3.5333   -0.3792    0.0000 O   0  0
    2.0417   -0.5375    0.0000 O   0  0
    0.8667    0.6458    0.0000 O   0  0
    0.7417   -1.2000    0.0000 C   0  0
   -5.0833   -0.2542    0.0000 C   0  0
   -5.3208   -2.4125    0.0000 O   0  0
   -2.8333    0.8625    0.0000 O   0  0
    2.1667    1.2875    0.0000 C   0  0
   -1.3958    0.8625    0.0000 C   0  0
    2.8667    1.7000    0.0000 C   0  0
    5.6917    0.9000    0.0000 N   0  0
   -0.6833   -1.2000    0.0000 O   0  0
   -4.0083   -2.1167    0.0000 C   0  0
   -0.6833    1.2833    0.0000 C   0  0
   -4.5583   -2.7375    0.0000 C   0  0
    1.4542   -1.6125    0.0000 C   0  0
    6.1042    0.2000    0.0000 C   0  0
   -0.6833    2.1000    0.0000 C   0  0
    0.0292    0.8625    0.0000 C   0  0
    1.4417   -2.4375    0.0000 C   0  0
    2.1667   -1.2125    0.0000 C   0  0
    0.0292    2.5208    0.0000 C   0  0
    0.7417    1.2833    0.0000 C   0  0
    0.7417    2.1000    0.0000 C   0  0
   -6.1998   -1.7830    0.0000 H   0  0
   -3.4430   -1.2028    0.0000 H   0  0
  2  1  1  0
  3 11  1  0
  4  7  1  0
  5  1  1  0
  6 15  1  0
  7  8  1  0
  8 12  1  0
  9 14  1  0
 10  2  1  0
 11 28  1  0
 12  5  2  0
 13  9  1  0
 14 19  1  6
 18 15  1  1
 16 23  1  0
 17 10  1  0
 18 17  1  0
 19  6  1  0
 20  1  2  0
 21  1  2  0
 22  2  1  0
 23 14  1  0
 13 24  1  0
 25  6  2  0
 26  5  1  0
 18 27  1  0
 28 26  2  0
 29  4  1  0
 17 30  1  1
  9 31  1  0
 32 27  1  0
 33 31  1  0
 34 22  1  0
 35 29  1  0
 36 32  1  0
 37 32  2  0
 38 34  1  0
 39 34  1  0
 40 36  2  0
 41 37  1  0
 42 41  2  0
 11  8  2  0
  4  3  2  0
 42 40  1  0
 16 13  1  0
 33 24  1  0
 13 43  1  1
  9 44  1  1
M  END