
          11280715132D 1   1.00000     0.00000     0

 50 53  0     1  0            999 V2000
   -3.3000   -4.7417    0.0000 P   0  0  3  0  0  0           0  0  0
    3.2667   -3.0375    0.0000 C   0  0  0  0  0  0           0  0  0
    1.7042   -3.5375    0.0000 C   0  0  0  0  0  0           0  0  0
    3.2375   -3.8542    0.0000 C   0  0  3  0  0  0           0  0  0
    2.4167   -3.9500    0.0000 N   0  0  0  0  0  0           0  0  0
    2.5750   -2.5917    0.0000 N   0  0  0  0  0  0           0  0  0
    2.6125   -1.7750    0.0000 C   0  0  1  0  0  0           0  0  0
    3.3417   -1.3875    0.0000 C   0  0  0  0  0  0           0  0  0
    1.9167   -1.3375    0.0000 C   0  0  0  0  0  0           0  0  0
    0.9875   -3.9417    0.0000 C   0  0  1  0  0  0           0  0  0
    3.3792   -0.5667    0.0000 C   0  0  0  0  0  0           0  0  0
    0.3917   -5.3500    0.0000 C   0  0  0  0  0  0           0  0  0
   -3.3083   -3.9167    0.0000 O   0  0  0  0  0  0           0  0  0
    0.9792   -4.7667    0.0000 C   0  0  0  0  0  0           0  0  0
   -2.3625   -1.1500    0.0000 C   0  0  0  0  0  0           0  0  0
    4.0042   -2.6500    0.0000 O   0  0  0  0  0  0           0  0  0
    1.7042   -2.7125    0.0000 O   0  0  0  0  0  0           0  0  0
    0.2792   -3.5250    0.0000 C   0  0  0  0  0  0           0  0  0
   -2.5875   -5.1542    0.0000 C   0  0  0  0  0  0           0  0  0
    1.9500   -0.5125    0.0000 O   0  0  0  0  0  0           0  0  0
    2.6792   -0.1250    0.0000 O   0  0  0  0  0  0           0  0  0
   -0.4083   -5.5625    0.0000 O   0  0  0  0  0  0           0  0  0
   -1.6708   -1.5875    0.0000 C   0  0  0  0  0  0           0  0  0
   -4.1250   -4.7417    0.0000 O   0  0  0  0  0  0           0  0  0
   -3.5625   -5.5167    0.0000 O   0  0  0  0  0  0           0  0  0
    1.1792   -1.7125    0.0000 N   0  0  0  0  0  0           0  0  0
   -3.0875   -1.5250    0.0000 C   0  0  0  0  0  0           0  0  0
    4.1042   -0.1875    0.0000 N   0  0  0  0  0  0           0  0  0
   -0.4458   -3.9375    0.0000 C   0  0  0  0  0  0           0  0  0
   -1.8708   -4.7500    0.0000 C   0  0  0  0  0  0           0  0  0
    0.6000   -6.1500    0.0000 O   0  0  0  0  0  0           0  0  0
   -1.1500   -3.5125    0.0000 C   0  0  0  0  0  0           0  0  0
   -0.4458   -4.7625    0.0000 C   0  0  0  0  0  0           0  0  0
   -1.1583   -5.1625    0.0000 C   0  0  0  0  0  0           0  0  0
   -1.8708   -3.9250    0.0000 C   0  0  0  0  0  0           0  0  0
    4.0500   -3.7625    0.0000 C   0  0  0  0  0  0           0  0  0
    2.9042   -4.6042    0.0000 C   0  0  0  0  0  0           0  0  0
   -2.4250   -2.7875    0.0000 C   0  0  0  0  0  0           0  0  0
   -1.7000   -2.4042    0.0000 C   0  0  0  0  0  0           0  0  0
   -2.3208   -0.3375    0.0000 C   0  0  0  0  0  0           0  0  0
   -3.1250   -2.3417    0.0000 C   0  0  0  0  0  0           0  0  0
   -0.9458   -1.2125    0.0000 C   0  0  0  0  0  0           0  0  0
    0.4875   -1.2750    0.0000 C   0  0  0  0  0  0           0  0  0
   -3.7708   -1.0875    0.0000 C   0  0  0  0  0  0           0  0  0
   -0.2458   -1.6500    0.0000 C   0  0  0  0  0  0           0  0  0
    4.5417   -4.4250    0.0000 C   0  0  0  0  0  0           0  0  0
    3.3917   -5.2750    0.0000 C   0  0  0  0  0  0           0  0  0
   -3.0083    0.1083    0.0000 C   0  0  0  0  0  0           0  0  0
   -3.7375   -0.2750    0.0000 C   0  0  0  0  0  0           0  0  0
    4.2167   -5.1875    0.0000 C   0  0  0  0  0  0           0  0  0
  2  4  1  0     0  0
  3 10  1  0     0  0
  4  5  1  0     0  0
  5  3  1  0     0  0
  6  2  1  0     0  0
  7  6  1  6     0  0
  8  7  1  0     0  0
  9  7  1  0     0  0
 10 18  1  0     0  0
 11  8  1  0     0  0
 12 14  1  0     0  0
 13  1  2  0     0  0
 10 14  1  1     0  0
 15 23  2  0     0  0
 16  2  2  0     0  0
 17  3  2  0     0  0
 18 29  1  0     0  0
 19  1  1  0     0  0
 20  9  2  0     0  0
 21 11  2  0     0  0
 22 12  2  0     0  0
 23 42  1  0     0  0
 24  1  1  0     0  0
 25  1  1  0     0  0
 26  9  1  0     0  0
 27 15  1  0     0  0
 28 11  1  0     0  0
 29 32  2  0     0  0
 30 19  1  0     0  0
 31 12  1  0     0  0
 32 35  1  0     0  0
 33 34  2  0     0  0
 34 30  1  0     0  0
 35 30  2  0     0  0
 36  4  1  0     0  0
 37  4  1  0     0  0
 38 39  2  0     0  0
 39 23  1  0     0  0
 40 15  1  0     0  0
 41 38  1  0     0  0
 42 45  1  0     0  0
 43 26  1  0     0  0
 44 27  1  0     0  0
 45 43  1  0     0  0
 46 36  1  0     0  0
 47 37  1  0     0  0
 48 40  2  0     0  0
 49 48  1  0     0  0
 50 47  1  0     0  0
 29 33  1  0     0  0
 50 46  1  0     0  0
 41 27  2  0     0  0
 49 44  2  0     0  0
M  END