
          11280715012D 1   1.00000     0.00000     0

 25 25  0     0  0            999 V2000
    0.8125   -6.2917    0.0000 C   0  0  0  0  0  0           0  0  0
    1.5250   -5.8792    0.0000 C   0  0  0  0  0  0           0  0  0
    0.8125   -7.1167    0.0000 C   0  0  0  0  0  0           0  0  0
    0.1000   -5.8792    0.0000 C   0  0  3  0  0  0           0  0  0
    2.2375   -6.2917    0.0000 C   0  0  0  0  0  0           0  0  0
    7.2250   -5.8625    0.0000 C   0  0  0  0  0  0           0  0  0
    6.5125   -6.2792    0.0000 C   0  0  0  0  0  0           0  0  0
    4.3750   -5.8750    0.0000 C   0  0  0  0  0  0           0  0  0
    5.8000   -5.8667    0.0000 C   0  0  0  0  0  0           0  0  0
    2.9500   -5.8792    0.0000 C   0  0  0  0  0  0           0  0  0
    5.0875   -6.2792    0.0000 C   0  0  0  0  0  0           0  0  0
    3.6625   -6.2875    0.0000 C   0  0  0  0  0  0           0  0  0
    7.2167   -5.0375    0.0000 O   0  0  0  0  0  0           0  0  0
    7.9375   -6.2667    0.0000 N   0  0  0  0  0  0           0  0  0
    0.1000   -7.5292    0.0000 C   0  0  0  0  0  0           0  0  0
   -0.6125   -6.2917    0.0000 C   0  0  0  0  0  0           0  0  0
    1.5292   -7.5292    0.0000 C   0  0  0  0  0  0           0  0  0
   10.0792   -5.8542    0.0000 O   0  0  0  0  0  0           0  0  0
   -0.4875   -5.2917    0.0000 C   0  0  0  0  0  0           0  0  0
    0.6792   -5.2917    0.0000 C   0  0  0  0  0  0           0  0  0
   -0.6125   -7.1167    0.0000 C   0  0  0  0  0  0           0  0  0
    5.7917   -5.0417    0.0000 C   0  0  0  0  0  0           0  0  0
    2.9417   -5.0542    0.0000 C   0  0  0  0  0  0           0  0  0
    8.6542   -5.8542    0.0000 C   0  0  0  0  0  0           0  0  0
    9.3667   -6.2667    0.0000 C   0  0  0  0  0  0           0  0  0
  2  1  1  0     0  0
  3  1  2  0     0  0
  4  1  1  0     0  0
  5  2  2  0     0  0
  6  7  1  0     0  0
  7  9  2  0     0  0
  8 12  1  0     0  0
  9 11  1  0     0  0
 10  5  1  0     0  0
 11  8  2  0     0  0
 12 10  2  0     0  0
 13  6  2  0     0  0
 14  6  1  0     0  0
 15  3  1  0     0  0
 16  4  1  0     0  0
 17  3  1  0     0  0
 18 25  1  0     0  0
 19  4  1  0     0  0
 20  4  1  0     0  0
 21 16  1  0     0  0
 22  9  1  0     0  0
 23 10  1  0     0  0
 24 14  1  0     0  0
 25 24  1  0     0  0
 21 15  1  0     0  0
M  END