
          08180812472D 1   1.00000     0.00000     0

 13 13  0     1  0            999 V2000
    9.3094   -0.4440    0.0000 C   0  0  2  0  0  0           0  0  0
    9.3094   -1.2723    0.0000 C   0  0  1  0  0  0           0  0  0
   10.0229   -1.6843    0.0000 C   0  0  2  0  0  0           0  0  0
   10.7409   -1.2723    0.0000 C   0  0  1  0  0  0           0  0  0
   10.7409   -0.4440    0.0000 O   0  0  0  0  0  0           0  0  0
   10.0229   -0.0275    0.0000 C   0  0  2  0  0  0           0  0  0
    8.5960   -1.6843    0.0000 O   0  0  0  0  0  0           0  0  0
    8.5950   -0.0337    0.0000 O   0  0  0  0  0  0           0  0  0
   11.4538   -1.6853    0.0000 S   0  0  0  0  0  0           0  0  0
   12.1678   -1.2743    0.0000 C   0  0  0  0  0  0           0  0  0
   10.0218   -2.5081    0.0000 O   0  0  0  0  0  0           0  0  0
   10.0218    0.7964    0.0000 C   0  0  0  0  0  0           0  0  0
   10.7347    1.2093    0.0000 O   0  0  0  0  0  0           0  0  0
  2  7  1  1     0  0
  1  2  1  0     0  0
  1  8  1  1     0  0
  1  6  1  0     0  0
  4  9  1  1     0  0
  2  3  1  0     0  0
  9 10  1  0     0  0
  3  4  1  0     0  0
  3 11  1  6     0  0
  4  5  1  0     0  0
  6 12  1  1     0  0
  5  6  1  0     0  0
 12 13  1  0     0  0
M  END