
  Mrv0541 04051115152D          

 21 22  0  0  0  0            999 V2000
    0.1358    0.5804    0.0000 C   0  0  0  0  0  0  0  0  0  0  0  0
   -0.5787    0.1679    0.0000 O   0  0  0  0  0  0  0  0  0  0  0  0
    0.1358    1.4054    0.0000 N   0  0  0  0  0  0  0  0  0  0  0  0
   -0.5787    1.8179    0.0000 C   0  0  0  0  0  0  0  0  0  0  0  0
   -1.2932    1.4054    0.0000 C   0  0  0  0  0  0  0  0  0  0  0  0
   -2.0077    1.8179    0.0000 C   0  0  0  0  0  0  0  0  0  0  0  0
   -2.0077    2.6429    0.0000 C   0  0  0  0  0  0  0  0  0  0  0  0
   -2.7221    3.0554    0.0000 Cl  0  0  0  0  0  0  0  0  0  0  0  0
   -1.2932    3.0554    0.0000 C   0  0  0  0  0  0  0  0  0  0  0  0
   -0.5787    2.6429    0.0000 C   0  0  0  0  0  0  0  0  0  0  0  0
    0.8502    0.1679    0.0000 N   0  0  0  0  0  0  0  0  0  0  0  0
    0.8502   -0.6571    0.0000 C   0  0  0  0  0  0  0  0  0  0  0  0
    1.5177   -1.1421    0.0000 C   0  0  0  0  0  0  0  0  0  0  0  0
    1.2627   -1.9267    0.0000 C   0  0  0  0  0  0  0  0  0  0  0  0
    0.4377   -1.9267    0.0000 N   0  0  0  0  0  0  0  0  0  0  0  0
    0.1828   -1.1421    0.0000 N   0  0  0  0  0  0  0  0  0  0  0  0
   -0.6018   -0.8871    0.0000 C   0  0  0  0  0  0  0  0  0  0  0  0
    2.2326   -3.2616    0.0000 C   0  0  0  0  0  0  0  0  0  0  0  0
    1.0802   -3.0790    0.0000 C   0  0  0  0  0  0  0  0  0  0  0  0
    2.4151   -2.1092    0.0000 C   0  0  0  0  0  0  0  0  0  0  0  0
    1.7476   -2.5941    0.0000 C   0  0  0  0  0  0  0  0  0  0  0  0
  1  2  2  0  0  0  0
  1  3  1  0  0  0  0
  1 11  1  0  0  0  0
  4  3  1  0  0  0  0
  4  5  2  0  0  0  0
  4 10  1  0  0  0  0
  5  6  1  0  0  0  0
  6  7  2  0  0  0  0
  7  8  1  0  0  0  0
  7  9  1  0  0  0  0
  9 10  2  0  0  0  0
 12 11  1  0  0  0  0
 12 13  2  0  0  0  0
 12 16  1  0  0  0  0
 14 13  1  0  0  0  0
 14 15  2  0  0  0  0
 14 21  1  0  0  0  0
 16 15  1  0  0  0  0
 17 16  1  0  0  0  0
 21 18  1  0  0  0  0
 21 19  1  0  0  0  0
 21 20  1  0  0  0  0
M  END