
          11280715062D 1   1.00000     0.00000     0

 51 47  0     0  0            999 V2000
    4.2792   -2.3167    0.0000 C   0  0  3  0  0  0           0  0  0
    3.6042   -2.0917    0.0000 C   0  0  3  0  0  0           0  0  0
    4.0042   -2.8125    0.0000 C   0  0  3  0  0  0           0  0  0
    5.5625   -2.7042    0.0000 C   0  0  3  0  0  0           0  0  0
    4.9292   -2.4792    0.0000 C   0  0  3  0  0  0           0  0  0
    6.9667   -2.9625    0.0000 S   0  0  3  0  0  0           0  0  0
    5.1542   -1.9792    0.0000 O   0  0  0  0  0  0           0  0  0
    2.9042   -3.7167    0.0000 S   0  0  3  0  0  0           0  0  0
    2.1667   -1.7750    0.0000 S   0  0  3  0  0  0           0  0  0
    4.9250   -3.9042    0.0000 S   0  0  3  0  0  0           0  0  0
    2.6167    1.0833    0.0000 S   0  0  3  0  0  0           0  0  0
    4.0625   -1.5167    0.0000 C   0  0  0  0  0  0           0  0  0
    6.1917   -3.2375    0.0000 O   0  0  0  0  0  0           0  0  0
    2.9667   -1.5625    0.0000 O   0  0  0  0  0  0           0  0  0
    3.7167   -3.5792    0.0000 O   0  0  0  0  0  0           0  0  0
    5.3417   -3.1917    0.0000 O   0  0  0  0  0  0           0  0  0
    4.6417   -0.9292    0.0000 N   0  0  3  0  0  0           0  0  0
    5.6417    0.0875    0.0000 C   0  0  0  0  0  0           0  0  0
    7.5917   -3.4917    0.0000 O   0  5  0  0  0  0           0  0  0
    3.3125   -4.4292    0.0000 O   0  5  0  0  0  0           0  0  0
    5.3375   -4.6250    0.0000 O   0  5  0  0  0  0           0  0  0
    1.5792   -1.1875    0.0000 O   0  5  0  0  0  0           0  0  0
    2.0417    0.5000    0.0000 O   0  5  0  0  0  0           0  0  0
    5.4375   -0.7125    0.0000 C   0  0  0  0  0  0           0  0  0
    6.2167   -2.6042    0.0000 O   0  0  0  0  0  0           0  0  0
    7.4042   -2.4292    0.0000 O   0  0  0  0  0  0           0  0  0
    2.1500   -4.0542    0.0000 O   0  0  0  0  0  0           0  0  0
    1.9417   -2.5667    0.0000 O   0  0  0  0  0  0           0  0  0
    2.3750   -3.0792    0.0000 O   0  0  0  0  0  0           0  0  0
    2.8750   -2.1917    0.0000 O   0  0  0  0  0  0           0  0  0
    4.7042   -4.7042    0.0000 O   0  0  0  0  0  0           0  0  0
    4.1000   -3.9042    0.0000 O   0  0  0  0  0  0           0  0  0
    3.0292    1.8000    0.0000 O   0  0  0  0  0  0           0  0  0
    2.4042    1.8833    0.0000 O   0  0  0  0  0  0           0  0  0
    6.4375    0.3083    0.0000 N   0  0  0  0  0  0           0  0  0
    3.2625   -1.3042    0.0000 O   0  0  0  0  0  0           0  0  0
    3.4167    0.8750    0.0000 O   0  0  0  0  0  0           0  0  0
    5.0542    0.6708    0.0000 O   0  0  0  0  0  0           0  0  0
    3.6292    0.0833    0.0000 C   0  0  0  0  0  0           0  0  0
    4.4250   -0.1292    0.0000 C   0  0  0  0  0  0           0  0  0
    6.6417    1.1083    0.0000 C   0  0  3  0  0  0           0  0  0
    1.8792   -6.3417    0.0000 Na  0  3  0  0  0  0           0  0  0
    7.4375   -5.3417    0.0000 Na  0  3  0  0  0  0           0  0  0
    9.6167   -0.7167    0.0000 Na  0  3  0  0  0  0           0  0  0
    0.1292   -1.1542    0.0000 Na  0  3  0  0  0  0           0  0  0
    0.1625    1.4375    0.0000 Na  0  3  0  0  0  0           0  0  0
    7.4417    1.3333    0.0000 C   0  0  0  0  0  0           0  0  0
    6.0542    1.6875    0.0000 C   0  0  0  0  0  0           0  0  0
    6.2667    2.4958    0.0000 C   0  0  0  0  0  0           0  0  0
    7.6500    2.1250    0.0000 C   0  0  0  0  0  0           0  0  0
    7.0667    2.7083    0.0000 C   0  0  0  0  0  0           0  0  0
  2  1  1  0     0  0
  3  2  1  0     0  0
  4  7  1  0     0  0
  5  4  1  0     0  0
  6 13  1  0     0  0
  7  1  1  0     0  0
  8 15  1  0     0  0
  9 14  1  0     0  0
 10 16  1  0     0  0
 11 37  1  0     0  0
 12  1  1  0     0  0
 13  4  1  0     0  0
 14  2  1  0     0  0
 15  3  1  0     0  0
 16  5  1  0     0  0
 17 12  1  0     0  0
 18 24  1  0     0  0
 19  6  1  0     0  0
 20  8  1  0     0  0
 21 10  1  0     0  0
 22  9  1  0     0  0
 23 11  1  0     0  0
 24 17  1  0     0  0
 25  6  2  0     0  0
 26  6  2  0     0  0
 27  8  2  0     0  0
 28  9  2  0     0  0
 29  8  2  0     0  0
 30  9  2  0     0  0
 31 10  2  0     0  0
 32 10  2  0     0  0
 33 11  2  0     0  0
 34 11  2  0     0  0
 35 18  1  0     0  0
 36 12  2  0     0  0
 37 39  1  0     0  0
 38 18  2  0     0  0
 39 40  1  0     0  0
 40 17  1  0     0  0
 41 35  1  0     0  0
 47 41  1  0     0  0
 48 41  1  0     0  0
 49 48  1  0     0  0
 50 47  1  0     0  0
 51 50  1  0     0  0
  3  5  1  0     0  0
 49 51  1  0     0  0
M  CHG  8  19  -1  20  -1  21  -1  22  -1  23  -1  42   1  43   1  44   1
M  CHG  2  45   1  46   1
M  END