
  Mrv0541 05211314572D          

 23 24  0  0  0  0            999 V2000
    0.0509   -4.9061    0.0000 C   0  0  0  0  0  0  0  0  0  0  0  0
   -0.6636   -5.3186    0.0000 C   0  0  0  0  0  0  0  0  0  0  0  0
   -0.6636   -6.1436    0.0000 C   0  0  0  0  0  0  0  0  0  0  0  0
    0.0509   -6.5561    0.0000 C   0  0  0  0  0  0  0  0  0  0  0  0
    0.7653   -6.1436    0.0000 C   0  0  0  0  0  0  0  0  0  0  0  0
    0.7653   -5.3186    0.0000 C   0  0  0  0  0  0  0  0  0  0  0  0
    0.0509   -4.0811    0.0000 C   0  0  0  0  0  0  0  0  0  0  0  0
    0.7653   -3.6686    0.0000 C   0  0  0  0  0  0  0  0  0  0  0  0
    1.4798   -4.0811    0.0000 C   0  0  0  0  0  0  0  0  0  0  0  0
    2.1943   -3.6686    0.0000 O   0  0  0  0  0  0  0  0  0  0  0  0
    1.4798   -4.9061    0.0000 O   0  0  0  0  0  0  0  0  0  0  0  0
   -0.6636   -3.6686    0.0000 C   0  0  0  0  0  0  0  0  0  0  0  0
   -1.3781   -4.0811    0.0000 C   0  0  0  0  0  0  0  0  0  0  0  0
   -2.0925   -3.6686    0.0000 C   0  0  0  0  0  0  0  0  0  0  0  0
   -2.8070   -4.0811    0.0000 C   0  0  0  0  0  0  0  0  0  0  0  0
   -3.5215   -3.6686    0.0000 C   0  0  0  0  0  0  0  0  0  0  0  0
   -3.5215   -2.8436    0.0000 C   0  0  0  0  0  0  0  0  0  0  0  0
   -2.8070   -2.4311    0.0000 C   0  0  0  0  0  0  0  0  0  0  0  0
   -2.0925   -2.8436    0.0000 C   0  0  0  0  0  0  0  0  0  0  0  0
   -4.2360   -2.4311    0.0000 C   0  0  0  0  0  0  0  0  0  0  0  0
   -4.9504   -2.0186    0.0000 F   0  0  0  0  0  0  0  0  0  0  0  0
   -3.8235   -1.7166    0.0000 F   0  0  0  0  0  0  0  0  0  0  0  0
   -4.6485   -3.1456    0.0000 F   0  0  0  0  0  0  0  0  0  0  0  0
  5  6  2  0  0  0  0
  7 12  1  0  0  0  0
  6  1  1  0  0  0  0
 12 13  1  0  0  0  0
  1  2  2  0  0  0  0
 13 14  1  0  0  0  0
  1  7  1  0  0  0  0
 14 15  2  0  0  0  0
  3  4  2  0  0  0  0
 15 16  1  0  0  0  0
  7  8  2  0  0  0  0
 16 17  2  0  0  0  0
 17 18  1  0  0  0  0
  8  9  1  0  0  0  0
 18 19  2  0  0  0  0
 19 14  1  0  0  0  0
  4  5  1  0  0  0  0
 17 20  1  0  0  0  0
  9 10  2  0  0  0  0
 20 21  1  0  0  0  0
  2  3  1  0  0  0  0
 20 22  1  0  0  0  0
  9 11  1  0  0  0  0
 20 23  1  0  0  0  0
M  END