
  SciTegic09261414532D

 38 43  0  0  0  0            999 V2000
   11.4393   -3.9415    0.0000 C   0  0
   11.4381   -3.1179    0.0000 C   0  0
   12.1462   -2.7089    0.0000 C   0  0
   12.1444   -4.3545    0.0000 C   0  0
   12.8571   -3.9451    0.0000 C   0  0
   12.8619   -3.1224    0.0000 C   0  0
   13.6461   -2.8740    0.0000 N   0  0
   14.1276   -3.5432    0.0000 C   0  0
   13.6383   -4.2026    0.0000 N   0  0
   13.9072   -2.0941    0.0000 C   0  0
   13.3598   -1.4795    0.0000 C   0  0
   14.9469   -3.5485    0.0000 C   0  0
   15.4222   -4.2134    0.0000 C   0  0
   16.2032   -3.9666    0.0000 N   0  0
   16.2085   -3.1472    0.0000 C   0  0
   15.4307   -2.8903    0.0000 C   0  0
   16.8753   -2.6726    0.0000 C   0  0
   17.6242   -3.0115    0.0000 C   0  0
   18.2921   -2.5320    0.0000 C   0  0
   18.2123   -1.7137    0.0000 C   0  0
   17.4589   -1.3772    0.0000 C   0  0
   16.7941   -1.8587    0.0000 C   0  0
   15.1641   -4.9929    0.0000 C   0  0
   14.3594   -5.1613    0.0000 C   0  0
   15.7107   -5.6082    0.0000 C   0  0
   16.8653   -4.4553    0.0000 C   0  0
   17.6182   -4.1237    0.0000 C   0  0
   18.2803   -4.6124    0.0000 C   0  0
   19.0331   -4.2808    0.0000 N   0  0
   19.7381   -4.6999    0.0000 C   0  0
   20.3489   -4.1529    0.0000 N   0  0
   20.0214   -3.4000    0.0000 C   0  0
   19.2041   -3.4844    0.0000 C   0  0
   19.8164   -5.5174    0.0000 C   0  0
   13.5367   -0.6776    0.0000 C   0  0
   12.8272   -0.2649    0.0000 C   0  0
   12.2126   -0.8082    0.0000 C   0  0
   12.5449   -1.5607    0.0000 C   0  0
  1  2  2  0
  2  3  1  0
  3  6  2  0
  5  4  2  0
  4  1  1  0
  5  6  1  0
  6  7  1  0
  7  8  1  0
  8  9  2  0
  9  5  1  0
  7 10  1  0
 10 11  1  0
  8 12  1  0
 12 13  2  0
 13 14  1  0
 14 15  1  0
 15 16  2  0
 16 12  1  0
 17 18  2  0
 18 19  1  0
 19 20  2  0
 20 21  1  0
 21 22  2  0
 22 17  1  0
 15 17  1  0
 13 23  1  0
 23 24  1  0
 23 25  1  0
 14 26  1  0
 26 27  1  0
 27 28  1  0
 28 29  1  0
 29 30  1  0
 30 31  2  0
 31 32  1  0
 32 33  2  0
 33 29  1  0
 30 34  1  0
 11 35  1  0
 35 36  1  0
 36 37  1  0
 37 38  1  0
 38 11  1  0
M  END