
  SciTegic11201309402D

 40 44  0  0  1  0            999 V2000
   -0.9505  -21.9947    0.0000 C   0  0
   -2.3801  -21.9692    0.0000 N   0  0
   -1.6572  -21.5689    0.0000 C   0  0  1  0  0  0
   -1.6432  -20.7463    0.0000 C   0  0
   -2.3500  -20.3206    0.0000 C   0  0
   -3.0706  -20.7173    0.0000 C   0  0
   -3.7772  -20.2915    0.0000 C   0  0
   -3.7633  -19.4689    0.0000 C   0  0
   -4.4700  -19.0432    0.0000 O   0  0
   -3.0405  -19.0687    0.0000 C   0  0
   -2.3338  -19.4944    0.0000 C   0  0
   -1.6116  -19.0956    0.0000 C   0  0
   -3.0871  -21.5440    0.0000 C   0  0
   -0.2284  -21.5956    0.0000 N   0  0
   -0.9659  -22.8196    0.0000 O   0  0
    0.4753  -22.0228    0.0000 C   0  0  1  0  0  0
    1.1952  -21.6272    0.0000 C   0  0
   -0.2178  -20.7712    0.0000 C   0  0
    0.5083  -20.3740    0.0000 C   0  0
    1.2124  -20.8013    0.0000 C   0  0
    1.9323  -20.4053    0.0000 C   0  0
    1.9494  -19.5822    0.0000 C   0  0
    1.2407  -19.1567    0.0000 C   0  0
    0.5236  -19.5551    0.0000 C   0  0
    0.4575  -22.8477    0.0000 C   0  0
   -0.2657  -23.2447    0.0000 O   0  0
    1.1630  -23.2755    0.0000 N   0  0
    1.8862  -22.8785    0.0000 C   0  0
    2.5917  -23.3064    0.0000 C   0  0
    2.6606  -24.1240    0.0000 N   0  0
    3.3528  -22.9827    0.0000 N   0  0
    3.8915  -23.6074    0.0000 C   0  0
    3.4610  -24.3105    0.0000 C   0  0
    3.8545  -25.0327    0.0000 C   0  0
    4.6785  -25.0531    0.0000 C   0  0
    5.1072  -24.3454    0.0000 C   0  0
    4.7113  -23.6260    0.0000 C   0  0
    3.5397  -22.1790    0.0000 C   0  0
    4.3291  -21.9391    0.0000 C   0  0
    4.5160  -21.1356    0.0000 C   0  0
  8  9  1  0
 19 20  2  0
  8 10  1  0
 20 21  1  0
 10 11  2  0
 21 22  2  0
  5 11  1  0
 22 23  1  0
 23 24  2  0
 24 19  1  0
 11 12  1  0
 16 25  1  1
  6 13  1  0
 25 26  2  0
  3  2  1  1
 25 27  1  0
  1  3  1  0
 27 28  1  0
  1 14  1  0
 28 29  1  0
 29 30  2  0
  3  4  1  0
  1 15  2  0
 30 33  1  0
 32 31  1  0
 31 29  1  0
 16 14  1  0
  4  5  1  0
 32 33  2  0
  5  6  2  0
 33 34  1  0
  6  7  1  0
 34 35  2  0
 14 18  1  0
 35 36  1  0
 16 17  1  0
 36 37  2  0
 37 32  1  0
 17 20  1  0
 31 38  1  0
 19 18  1  0
 38 39  1  0
  7  8  2  0
 39 40  2  0
M  END