
  SciTegic09291413392D

 26 27  0  0  0  0            999 V2000
   19.7117   -5.1373    0.0000 O   0  0
   19.0398   -5.6228    0.0000 C   0  0
   19.2951   -6.4123    0.0000 C   0  0
   20.1242   -6.4123    0.0000 C   0  0
   20.3811   -5.6240    0.0000 C   0  0
   21.1658   -5.3695    0.0000 O   0  0
   20.6089   -7.0799    0.0000 C   0  0
   18.6202   -4.9039    0.0000 C   0  0
   18.6153   -6.3296    0.0000 C   0  0
   17.7904   -6.3153    0.0000 O   0  0
   17.7952   -4.9062    0.0000 O   0  0
   17.3808   -4.1928    0.0000 C   0  0
   16.5558   -4.1950    0.0000 C   0  0
   17.7914   -3.4773    0.0000 O   0  0
   20.1834   -7.7869    0.0000 C   0  0
   19.3579   -7.7705    0.0000 C   0  0
   18.9327   -8.4765    0.0000 C   0  0
   19.3323   -9.1993    0.0000 C   0  0
   20.1615   -9.2115    0.0000 C   0  0
   20.5830   -8.5049    0.0000 C   0  0
   16.1415   -3.4816    0.0000 C   0  0
   16.1452   -4.9105    0.0000 C   0  0
   15.7286   -4.1874    0.0000 C   0  0
   18.9080   -9.9067    0.0000 C   0  0
   18.0831   -9.8930    0.0000 O   0  0
   19.3084  -10.6280    0.0000 O   0  0
  2  3  1  0
  1  2  1  0
  3  4  1  0
  4  5  1  0
  5  1  1  0
  5  6  2  0
  4  7  2  0
  2  8  1  0
  2  9  1  0
  9 10  1  0
  8 11  1  0
 11 12  1  0
 12 13  1  0
 12 14  2  0
  7 15  1  0
 15 16  2  0
 16 17  1  0
 17 18  2  0
 18 19  1  0
 19 20  2  0
 20 15  1  0
 13 21  1  0
 13 22  1  0
 13 23  1  0
 18 24  1  0
 24 25  2  0
 24 26  1  0
M  END