
          11280715032D 1   1.00000     0.00000     0

 30 31  0     0  0            999 V2000
    3.0792    0.5708    0.0000 S   0  0  3  0  0  0           0  0  0
    2.2542    0.5458    0.0000 C   0  0  0  0  0  0           0  0  0
    3.0542    1.3958    0.0000 O   0  0  0  0  0  0           0  0  0
    3.1042   -0.2542    0.0000 O   0  0  0  0  0  0           0  0  0
    8.9542   -2.0792    0.0000 C   0  0  0  0  0  0           0  0  0
    3.9042    0.6000    0.0000 N   0  0  0  0  0  0           0  0  0
    3.2375   -3.7125    0.0000 N   0  0  0  0  0  0           0  0  0
    9.3417   -1.3500    0.0000 O   0  0  0  0  0  0           0  0  0
    1.8250    1.2500    0.0000 C   0  0  0  0  0  0           0  0  0
    1.8625   -0.1792    0.0000 C   0  0  0  0  0  0           0  0  0
    8.1292   -2.1042    0.0000 C   0  0  0  0  0  0           0  0  0
    0.6042    0.5000    0.0000 C   0  0  0  0  0  0           0  0  0
    9.3917   -2.7750    0.0000 O   0  0  0  0  0  0           0  0  0
    1.0042    1.2250    0.0000 C   0  0  0  0  0  0           0  0  0
    1.0292   -0.2042    0.0000 C   0  0  0  0  0  0           0  0  0
   -0.2208    0.4875    0.0000 Cl  0  0  0  0  0  0           0  0  0
    7.6917   -1.4042    0.0000 C   0  0  0  0  0  0           0  0  0
    4.4417   -2.9542    0.0000 C   0  0  0  0  0  0           0  0  0
    4.0625   -3.6792    0.0000 C   0  0  0  0  0  0           0  0  0
    5.6542   -2.1917    0.0000 C   0  0  0  0  0  0           0  0  0
    2.7917   -3.0167    0.0000 C   0  0  0  0  0  0           0  0  0
    4.3417   -0.0917    0.0000 C   0  0  0  0  0  0           0  0  0
    5.2667   -2.9250    0.0000 C   0  0  0  0  0  0           0  0  0
    6.8667   -1.4375    0.0000 C   0  0  3  0  0  0           0  0  0
    6.4792   -2.1667    0.0000 C   0  0  0  0  0  0           0  0  0
    4.0125   -2.2542    0.0000 C   0  0  0  0  0  0           0  0  0
    6.4292   -0.7375    0.0000 C   0  0  0  0  0  0           0  0  0
    5.1667   -0.0667    0.0000 C   0  0  0  0  0  0           0  0  0
    5.6042   -0.7667    0.0000 C   0  0  0  0  0  0           0  0  0
    3.1875   -2.2792    0.0000 C   0  0  0  0  0  0           0  0  0
  2  1  1  0     0  0
  3  1  2  0     0  0
  4  1  2  0     0  0
  5 11  1  0     0  0
  6  1  1  0     0  0
  7 19  1  0     0  0
  8  5  2  0     0  0
  9  2  2  0     0  0
 10  2  1  0     0  0
 11 17  1  0     0  0
 12 15  1  0     0  0
 13  5  1  0     0  0
 14  9  1  0     0  0
 15 10  2  0     0  0
 16 12  1  0     0  0
 17 24  1  0     0  0
 18 23  1  0     0  0
 19 18  2  0     0  0
 20 25  1  0     0  0
 21 30  1  0     0  0
 22  6  1  0     0  0
 23 20  1  0     0  0
 24 27  1  0     0  0
 25 24  1  0     0  0
 26 18  1  0     0  0
 27 29  1  0     0  0
 28 22  1  0     0  0
 29 28  1  0     0  0
 30 26  2  0     0  0
 14 12  2  0     0  0
  7 21  2  0     0  0
M  END