
  SciTegic01161211252D

 16 16  0  0  0  0            999 V2000
    3.3917   -2.4917    0.0000 C   0  0
    3.7875   -1.7542    0.0000 C   0  0
    3.8375   -3.1875    0.0000 C   0  0
    5.0500   -2.4292    0.0000 C   0  0
    4.6125   -1.7292    0.0000 C   0  0
    4.6542   -3.1625    0.0000 C   0  0
    7.1292   -3.0792    0.0000 N   0  0
    6.3042   -3.1042    0.0000 C   0  0
    5.8750   -2.4042    0.0000 C   0  0
    2.5750   -2.5167    0.0000 N   0  0
    3.3500   -1.0542    0.0000 Cl  0  0
    3.4500   -3.9167    0.0000 Cl  0  0
    7.5667   -3.7792    0.0000 C   0  0
    6.2625   -1.6792    0.0000 O   0  0
    8.3917   -3.7542    0.0000 C   0  0
    7.1792   -4.5042    0.0000 C   0  0
  2  1  1  0
  3  1  2  0
  4  6  2  0
  5  2  2  0
  6  3  1  0
  7  8  1  0
  8  9  1  0
  9  4  1  0
 10  1  1  0
 11  2  1  0
 12  3  1  0
 13  7  1  0
 14  9  1  0
 15 13  1  0
 16 13  1  0
  5  4  1  0
M  END