
  SciTegic05061116452D

 28 31  0  0  0  0            999 V2000
   19.6755  -13.9086    0.0000 N   0  0
   20.3872  -13.5000    0.0000 C   0  0
   20.3872  -12.6749    0.0000 N   0  0
   19.6755  -12.2585    0.0000 C   0  0
   18.9638  -13.5000    0.0000 C   0  0
   18.9638  -12.6703    0.0000 C   0  0
   18.1749  -12.4140    0.0000 N   0  0
   17.6871  -13.0851    0.0000 C   0  0
   18.1748  -13.7562    0.0000 N   0  0
   17.9198  -14.5408    0.0000 C   0  0
   17.1128  -14.7124    0.0000 C   0  0
   16.8578  -15.4969    0.0000 O   0  0
   16.5607  -14.0992    0.0000 O   0  0
   19.6775  -11.4336    0.0000 N   0  0
   21.1012  -13.9134    0.0000 N   0  0
   21.8162  -13.5017    0.0000 C   0  0
   22.5301  -13.9151    0.0000 C   0  0
   21.8171  -12.6767    0.0000 O   0  0
   20.3934  -11.0216    0.0000 C   0  0
   20.3973  -10.2001    0.0000 C   0  0
   19.6857   -9.7821    0.0000 O   0  0
   18.9684  -10.1916    0.0000 C   0  0
   18.9627  -11.0192    0.0000 C   0  0
   22.5252  -14.7380    0.0000 C   0  0
   23.2351  -15.1513    0.0000 C   0  0
   23.9525  -14.7431    0.0000 C   0  0
   23.9555  -13.9172    0.0000 C   0  0
   23.2411  -13.4993    0.0000 C   0  0
  5  1  1  0
  4 14  1  0
  1  2  2  0
  2 15  1  0
  2  3  1  0
 15 16  1  0
  6  7  1  0
 16 17  1  0
  7  8  2  0
 16 18  2  0
 14 19  1  0
  8  9  1  0
  9  5  1  0
  3  4  2  0
  9 10  1  0
  5  6  2  0
 14 23  1  0
 19 20  1  0
 20 21  1  0
 21 22  1  0
 22 23  1  0
 17 24  1  0
 10 11  1  0
 11 12  1  0
  6  4  1  0
 11 13  2  0
 17 28  1  0
 24 25  1  0
 25 26  1  0
 26 27  1  0
 27 28  1  0
M  END