
          11280715272D 1   1.00000     0.00000     0

 46 48  0     0  0            999 V2000
   -1.2000   -4.7167    0.0000 N   0  0  3  0  0  0           0  0  0
   -1.4958   -5.4792    0.0000 C   0  0  0  0  0  0           0  0  0
   -0.2625   -6.3125    0.0000 C   0  0  0  0  0  0           0  0  0
   -1.0833   -6.1917    0.0000 C   0  0  0  0  0  0           0  0  0
   -0.4208   -4.4667    0.0000 C   0  0  0  0  0  0           0  0  0
    0.3375   -5.7417    0.0000 N   0  0  0  0  0  0           0  0  0
   -1.9125   -4.3042    0.0000 C   0  0  0  0  0  0           0  0  0
    0.2667   -4.9250    0.0000 C   0  0  0  0  0  0           0  0  0
   -0.3625   -3.6417    0.0000 N   0  0  0  0  0  0           0  0  0
   -0.0125   -7.0917    0.0000 O   0  0  0  0  0  0           0  0  0
   -1.9208   -3.4792    0.0000 C   0  0  0  0  0  0           0  0  0
   -2.6333   -4.7167    0.0000 O   0  0  0  0  0  0           0  0  0
    1.6542   -0.5875    0.0000 N   0  0  3  0  0  0           0  0  0
    8.0667   -0.9792    0.0000 N   0  0  3  0  0  0           0  0  0
   -1.4958   -6.9000    0.0000 C   0  0  0  0  0  0           0  0  0
   -2.3083   -5.4792    0.0000 C   0  0  0  0  0  0           0  0  0
   -1.2000   -2.2417    0.0000 N   0  0  0  0  0  0           0  0  0
   10.2167   -3.0417    0.0000 N   0  0  0  0  0  0           0  0  0
    1.0042   -4.5625    0.0000 C   0  0  0  0  0  0           0  0  0
   -1.2000   -3.0667    0.0000 C   0  0  0  0  0  0           0  0  0
    0.3792   -3.2792    0.0000 C   0  0  0  0  0  0           0  0  0
    8.7792   -0.5667    0.0000 C   0  0  0  0  0  0           0  0  0
    0.9417   -1.0000    0.0000 C   0  0  0  0  0  0           0  0  0
    2.3667   -1.0000    0.0000 C   0  0  0  0  0  0           0  0  0
    7.3542   -0.5750    0.0000 C   0  0  0  0  0  0           0  0  0
   -1.9208   -1.8292    0.0000 C   0  0  0  0  0  0           0  0  0
    8.0667   -1.8042    0.0000 C   0  0  0  0  0  0           0  0  0
    1.6542    0.2375    0.0000 C   0  0  0  0  0  0           0  0  0
   10.2167   -2.2167    0.0000 C   0  0  0  0  0  0           0  0  0
    6.6417   -0.9875    0.0000 C   0  0  0  0  0  0           0  0  0
    3.0792   -0.5875    0.0000 C   0  0  0  0  0  0           0  0  0
    9.5000   -0.9792    0.0000 C   0  0  0  0  0  0           0  0  0
    0.2250   -0.5875    0.0000 C   0  0  0  0  0  0           0  0  0
   -1.9208   -1.0042    0.0000 C   0  0  0  0  0  0           0  0  0
   10.9292   -1.8042    0.0000 C   0  0  0  0  0  0           0  0  0
    1.0667   -3.7417    0.0000 C   0  0  0  0  0  0           0  0  0
   -2.3083   -6.9000    0.0000 C   0  0  0  0  0  0           0  0  0
   -2.7208   -6.1875    0.0000 C   0  0  0  0  0  0           0  0  0
    3.7917   -0.9917    0.0000 C   0  0  0  0  0  0           0  0  0
    4.5042   -0.5792    0.0000 C   0  0  0  0  0  0           0  0  0
   10.2042   -0.5667    0.0000 C   0  0  0  0  0  0           0  0  0
   -0.4875   -1.0000    0.0000 C   0  0  0  0  0  0           0  0  0
   -1.2083   -0.5917    0.0000 C   0  0  0  0  0  0           0  0  0
   10.9250   -0.9792    0.0000 C   0  0  0  0  0  0           0  0  0
    5.2167   -0.9917    0.0000 C   0  0  0  0  0  0           0  0  0
    5.9292   -0.5792    0.0000 C   0  0  0  0  0  0           0  0  0
  2  1  1  0     0  0
  3  4  1  0     0  0
  4  2  2  0     0  0
  5  1  1  0     0  0
  6  8  1  0     0  0
  7  1  1  0     0  0
  8  5  2  0     0  0
  9  5  1  0     0  0
 10  3  2  0     0  0
 11  7  1  0     0  0
 12  7  2  0     0  0
 13 23  1  0     0  0
 14 25  1  0     0  0
 15  4  1  0     0  0
 16  2  1  0     0  0
 17 20  1  0     0  0
 18 29  1  0     0  0
 19  8  1  0     0  0
 20 11  1  0     0  0
 21  9  2  0     0  0
 22 14  1  0     0  0
 23 33  1  0     0  0
 24 13  1  0     0  0
 25 30  1  0     0  0
 26 17  1  0     0  0
 27 14  1  0     0  0
 28 13  1  0     0  0
 29 35  1  0     0  0
 30 46  1  0     0  0
 31 24  1  0     0  0
 32 22  1  0     0  0
 33 42  1  0     0  0
 34 26  1  0     0  0
 35 44  1  0     0  0
 36 21  1  0     0  0
 37 38  1  0     0  0
 38 16  2  0     0  0
 39 31  1  0     0  0
 40 39  1  0     0  0
 41 32  1  0     0  0
 42 43  1  0     0  0
 43 34  1  0     0  0
 44 41  1  0     0  0
 45 40  1  0     0  0
 46 45  1  0     0  0
  3  6  1  0     0  0
 19 36  2  0     0  0
 15 37  2  0     0  0
M  END