
          11280715122D 1   1.00000     0.00000     0

 36 39  0     0  0            999 V2000
    7.8792   -5.2167    0.0000 C   0  0  0  0  0  0           0  0  0
    7.8792   -4.3917    0.0000 C   0  0  0  0  0  0           0  0  0
    7.1667   -5.6292    0.0000 C   0  0  0  0  0  0           0  0  0
    7.1667   -6.4542    0.0000 C   0  0  0  0  0  0           0  0  0
    8.6000   -6.4542    0.0000 N   0  0  0  0  0  0           0  0  0
    7.8792   -6.8667    0.0000 C   0  0  0  0  0  0           0  0  0
    3.0042   -5.8542    0.0000 N   0  0  3  0  0  0           0  0  0
    8.6000   -5.6292    0.0000 C   0  0  0  0  0  0           0  0  0
    2.2917   -5.4500    0.0000 C   0  0  0  0  0  0           0  0  0
    2.2917   -4.6167    0.0000 C   0  0  0  0  0  0           0  0  0
    9.3167   -8.5167    0.0000 N   0  0  0  0  0  0           0  0  0
    7.8875   -7.6917    0.0000 C   0  0  0  0  0  0           0  0  0
    8.6042   -8.1000    0.0000 C   0  0  0  0  0  0           0  0  0
    4.4417   -6.6500    0.0000 N   0  0  3  0  0  0           0  0  0
    1.5750   -4.2042    0.0000 C   0  0  0  0  0  0           0  0  0
    8.5917   -3.9792    0.0000 N   0  0  3  0  0  0           0  0  0
    1.5750   -5.8625    0.0000 C   0  0  0  0  0  0           0  0  0
    7.1667   -3.9792    0.0000 O   0  0  0  0  0  0           0  0  0
    3.7125   -5.4292    0.0000 C   0  0  0  0  0  0           0  0  0
    3.0167   -6.6792    0.0000 C   0  0  0  0  0  0           0  0  0
    6.4625   -5.2167    0.0000 N   0  0  0  0  0  0           0  0  0
    0.8625   -4.6250    0.0000 C   0  0  0  0  0  0           0  0  0
    4.4292   -5.8292    0.0000 C   0  0  0  0  0  0           0  0  0
    3.7417   -7.0792    0.0000 C   0  0  0  0  0  0           0  0  0
    0.8625   -5.4500    0.0000 C   0  0  0  0  0  0           0  0  0
    3.0042   -4.2042    0.0000 O   0  0  0  0  0  0           0  0  0
    6.4542   -6.8667    0.0000 C   0  0  0  0  0  0           0  0  0
    0.1500   -4.2125    0.0000 F   0  0  0  0  0  0           0  0  0
    5.1667   -7.0500    0.0000 C   0  0  0  0  0  0           0  0  0
    5.7542   -6.4625    0.0000 C   0  0  0  0  0  0           0  0  0
    7.1792   -8.1042    0.0000 C   0  0  0  0  0  0           0  0  0
    6.4542   -7.6917    0.0000 C   0  0  0  0  0  0           0  0  0
    5.7500   -5.6375    0.0000 C   0  0  0  0  0  0           0  0  0
    9.3042   -4.3792    0.0000 C   0  0  0  0  0  0           0  0  0
    8.5917   -3.1542    0.0000 C   0  0  0  0  0  0           0  0  0
    3.7167   -4.6125    0.0000 C   0  0  0  0  0  0           0  0  0
  2  1  1  0     0  0
  3  1  1  0     0  0
  4  3  2  0     0  0
  5  8  1  0     0  0
  6  5  2  0     0  0
  7 20  1  0     0  0
  8  1  2  0     0  0
  9  7  1  0     0  0
 10  9  1  0     0  0
 11 13  3  0     0  0
 12  6  1  0     0  0
 13 12  1  0     0  0
 14 29  1  0     0  0
 15 10  2  0     0  0
 16  2  1  0     0  0
 17  9  2  0     0  0
 18  2  2  0     0  0
 19 23  1  0     0  0
 20 24  1  0     0  0
 21  3  1  0     0  0
 22 25  2  0     0  0
 23 14  1  0     0  0
 24 14  1  0     0  0
 25 17  1  0     0  0
 26 10  1  0     0  0
 27  4  1  0     0  0
 28 22  1  0     0  0
 29 30  1  0     0  0
 30 33  1  0     0  0
 31 12  2  0     0  0
 32 27  2  0     0  0
 33 21  1  0     0  0
 34 16  1  0     0  0
 35 16  1  0     0  0
 36 26  1  0     0  0
  6  4  1  0     0  0
 31 32  1  0     0  0
  7 19  1  0     0  0
 22 15  1  0     0  0
M  END