
  CDK    9/16/09,10:0

 25 27  0  0  0  0  0  0  0  0999 V2000
   -4.5385   -3.8037    0.0000 C   0  0  0  0  0  0  0  0  0  0  0  0
   -4.5399   -4.6313    0.0000 C   0  0  0  0  0  0  0  0  0  0  0  0
   -3.8269   -5.0440    0.0000 C   0  0  0  0  0  0  0  0  0  0  0  0
   -3.1077   -4.6307    0.0000 C   0  0  0  0  0  0  0  0  0  0  0  0
   -3.1109   -3.7997    0.0000 C   0  0  0  0  0  0  0  0  0  0  0  0
   -3.8289   -3.3909    0.0000 C   0  0  0  0  0  0  0  0  0  0  0  0
   -2.3985   -3.3837    0.0000 C   0  0  0  0  0  0  0  0  0  0  0  0
   -1.6820   -3.7926    0.0000 C   0  0  0  0  0  0  0  0  0  0  0  0
   -1.5892   -4.6124    0.0000 C   0  0  0  0  0  0  0  0  0  0  0  0
   -0.7815   -4.7800    0.0000 N   0  0  0  0  0  0  0  0  0  0  0  0
   -0.3729   -4.0638    0.0000 C   0  0  0  0  0  0  0  0  0  0  0  0
   -0.9275   -3.4533    0.0000 N   0  0  0  0  0  0  0  0  0  0  0  0
   -5.2548   -5.0426    0.0000 Cl  0  0  0  0  0  0  0  0  0  0  0  0
   -0.7597   -2.6456    0.0000 C   0  0  0  0  0  0  0  0  0  0  0  0
    0.4519   -4.0713    0.0000 N   0  0  0  0  0  0  0  0  0  0  0  0
    0.8579   -4.7894    0.0000 C   0  0  0  0  0  0  0  0  0  0  0  0
    1.6828   -4.7969    0.0000 C   0  0  0  0  0  0  0  0  0  0  0  0
    2.0888   -5.5150    0.0000 C   0  0  0  0  0  0  0  0  0  0  0  0
    2.9136   -5.5226    0.0000 N   0  0  0  0  0  0  0  0  0  0  0  0
    3.3146   -6.2409    0.0000 C   0  0  0  0  0  0  0  0  0  0  0  0
    4.1359   -6.2503    0.0000 C   0  0  0  0  0  0  0  0  0  0  0  0
    4.5587   -5.5416    0.0000 C   0  0  0  0  0  0  0  0  0  0  0  0
    4.1539   -4.8216    0.0000 C   0  0  0  0  0  0  0  0  0  0  0  0
    3.3265   -4.8105    0.0000 C   0  0  0  0  0  0  0  0  0  0  0  0
   -2.4026   -2.5589    0.0000 O   0  0  0  0  0  0  0  0  0  0  0  0
 12  8  1  0  0  0  0 
  6  1  1  0  0  0  0 
  2 13  1  0  0  0  0 
  1  2  2  0  0  0  0 
 12 14  1  0  0  0  0 
  5  7  1  0  0  0  0 
 11 15  1  0  0  0  0 
  3  4  2  0  0  0  0 
 15 16  1  0  0  0  0 
  7  8  1  0  0  0  0 
 16 17  1  0  0  0  0 
  8  9  2  0  0  0  0 
 17 18  1  0  0  0  0 
 18 19  1  0  0  0  0 
 19 20  1  0  0  0  0 
  4  5  1  0  0  0  0 
  2  3  1  0  0  0  0 
  5  6  2  0  0  0  0 
  9 10  1  0  0  0  0 
 10 11  2  0  0  0  0 
 19 24  1  0  0  0  0 
 20 21  1  0  0  0  0 
 21 22  1  0  0  0  0 
 22 23  1  0  0  0  0 
 23 24  1  0  0  0  0 
 11 12  1  0  0  0  0 
  7 25  2  0  0  0  0 
M  END