
          11280714592D 1   1.00000     0.00000     0

 28 30  0     0  0            999 V2000
    1.2917   -2.1292    0.0000 C   0  0  0  0  0  0           0  0  0
    1.2917   -1.5292    0.0000 C   0  0  0  0  0  0           0  0  0
    1.3000   -4.5292    0.0000 N   0  3  0  0  0  0           0  0  0
    1.8167   -2.4292    0.0000 C   0  0  0  0  0  0           0  0  0
    0.7792   -2.4375    0.0000 C   0  0  0  0  0  0           0  0  0
    1.2917   -3.3375    0.0000 C   0  0  0  0  0  0           0  0  0
    1.8167   -3.0375    0.0000 C   0  0  0  0  0  0           0  0  0
    1.3000   -5.1292    0.0000 N   0  5  0  0  0  0           0  0  0
    0.7792   -3.0375    0.0000 C   0  0  0  0  0  0           0  0  0
    1.8125   -1.2292    0.0000 N   0  0  0  0  0  0           0  0  0
    1.2917   -3.9375    0.0000 N   0  0  0  0  0  0           0  0  0
    3.7542   -1.0792    0.0000 N   0  0  3  0  0  0           0  0  0
    0.7667   -1.2375    0.0000 O   0  0  0  0  0  0           0  0  0
    2.3292   -1.5292    0.0000 C   0  0  3  0  0  0           0  0  0
    4.2167   -0.7042    0.0000 C   0  0  0  0  0  0           0  0  0
    2.6292   -1.0042    0.0000 C   0  0  0  0  0  0           0  0  0
    2.7917   -1.3667    0.0000 C   0  0  0  0  0  0           0  0  0
    3.4625   -1.6042    0.0000 C   0  0  0  0  0  0           0  0  0
    3.2667   -1.2417    0.0000 C   0  0  0  0  0  0           0  0  0
    0.2542   -3.3375    0.0000 I   0  0  0  0  0  0           0  0  0
    2.3292   -2.1292    0.0000 O   0  0  0  0  0  0           0  0  0
    4.7792   -0.9167    0.0000 C   0  0  0  0  0  0           0  0  0
    2.8542   -2.4250    0.0000 C   0  0  0  0  0  0           0  0  0
    4.8792   -1.5042    0.0000 C   0  0  0  0  0  0           0  0  0
    5.2417   -0.5375    0.0000 C   0  0  0  0  0  0           0  0  0
    5.8042   -0.7417    0.0000 C   0  0  0  0  0  0           0  0  0
    5.4375   -1.7167    0.0000 C   0  0  0  0  0  0           0  0  0
    5.9042   -1.3375    0.0000 C   0  0  0  0  0  0           0  0  0
  2  1  1  0     0  0
  3 11  2  0     0  0
  4  1  2  0     0  0
  5  1  1  0     0  0
  6  9  1  0     0  0
  7  4  1  0     0  0
  8  3  2  0     0  0
  9  5  2  0     0  0
 10  2  1  0     0  0
 11  6  1  0     0  0
 12 18  1  0     0  0
 13  2  2  0     0  0
 14 10  1  0     0  0
 15 12  1  0     0  0
 16 14  1  0     0  0
 17 14  1  0     0  0
 18 17  1  0     0  0
 19 16  1  0     0  0
 20  9  1  0     0  0
 21  4  1  0     0  0
 22 15  1  0     0  0
 23 21  1  0     0  0
 24 22  2  0     0  0
 25 22  1  0     0  0
 26 25  2  0     0  0
 27 24  1  0     0  0
 28 26  1  0     0  0
  7  6  2  0     0  0
 12 19  1  0     0  0
 28 27  2  0     0  0
M  CHG  2   3   1   8  -1
M  END