
          11280715472D 1   1.00000     0.00000     0

  9  9  0     0  0            999 V2000
    0.1792   -0.5042    0.0000 C   0  0  0  0  0  0           0  0  0
   -1.4708   -0.5292    0.0000 C   0  0  0  0  0  0           0  0  0
   -0.2208   -1.2250    0.0000 C   0  0  0  0  0  0           0  0  0
   -0.2375    0.1958    0.0000 C   0  0  0  0  0  0           0  0  0
   -1.0583    0.1875    0.0000 C   0  0  0  0  0  0           0  0  0
   -1.0458   -1.2417    0.0000 C   0  0  0  0  0  0           0  0  0
   -2.2958   -0.5375    0.0000 C   0  0  0  0  0  0           0  0  0
    1.0042   -0.4917    0.0000 C   0  0  0  0  0  0           0  0  0
   -2.7125    0.1750    0.0000 C   0  0  0  0  0  0           0  0  0
  2  5  1  0     0  0
  3  1  2  0     0  0
  4  1  1  0     0  0
  5  4  2  0     0  0
  6  3  1  0     0  0
  7  2  1  0     0  0
  8  1  1  0     0  0
  9  7  1  0     0  0
  6  2  2  0     0  0
M  END