
  SciTegic12231509382D

 15 15  0  0  0  0            999 V2000
    3.8792   -3.8292    0.0000 N   0  0
    3.4042   -3.1750    0.0000 C   0  0
    5.1167   -3.1042    0.0000 C   0  0
    5.5292   -2.3792    0.0000 C   0  0
    6.7917   -1.6625    0.0000 N   0  3
    3.4042   -4.5042    0.0000 C   0  0
    2.6250   -3.4250    0.0000 C   0  0
    3.6667   -2.3792    0.0000 O   0  0
    2.6250   -4.2500    0.0000 C   0  0
    4.7042   -3.8292    0.0000 C   0  0
    5.9542   -1.6625    0.0000 C   0  0
    7.6042   -1.5750    0.0000 C   0  0
    7.3417   -2.2750    0.0000 C   0  0
    7.2042   -0.9500    0.0000 C   0  0
    3.6625   -5.2792    0.0000 C   0  0
  2  1  1  0
  3 10  1  0
  4  3  3  0
  5 11  1  0
  6  1  1  0
  7  2  1  0
  8  2  2  0
  9  6  1  0
 10  1  1  0
 11  4  1  0
 12  5  1  0
 13  5  1  0
 14  5  1  0
 15  6  1  0
  9  7  1  0
M  CHG  1   5   1
M  END