
  SciTegic10191216002D

 27 29  0  0  0  0            999 V2000
   -0.4920   -2.6774    0.0000 C   0  0
    0.2204   -3.0942    0.0000 C   0  0
    0.9340   -2.6817    0.0000 C   0  0
    0.9338   -1.8558    0.0000 C   0  0
    0.2138   -1.4442    0.0000 C   0  0
   -0.4968   -1.8590    0.0000 C   0  0
    0.2102   -0.6192    0.0000 Br  0  0
   -1.2065   -3.0899    0.0000 Br  0  0
   -1.2134   -1.4504    0.0000 O   0  0
   -1.9257   -1.8666    0.0000 C   0  0
   -2.6414   -1.4560    0.0000 C   0  0
   -3.3532   -1.8716    0.0000 C   0  0
   -3.3492   -2.6975    0.0000 C   0  0
   -2.6276   -3.1060    0.0000 C   0  0
   -1.9188   -2.6881    0.0000 C   0  0
   -4.0609   -3.1147    0.0000 O   0  0
   -4.0696   -1.4626    0.0000 C   0  0
   -4.0736   -0.6376    0.0000 C   0  0
   -4.7821   -1.8785    0.0000 C   0  0
    1.6487   -3.0940    0.0000 C   0  0
    2.3631   -2.6812    0.0000 C   0  0
    3.1162   -3.0113    0.0000 C   0  0
    3.6680   -2.3979    0.0000 N   0  0
    3.2552   -1.6836    0.0000 C   0  0
    2.4483   -1.8556    0.0000 N   0  0
    3.5903   -0.9297    0.0000 O   0  0
    3.2904   -3.8177    0.0000 O   0  0
  1  2  2  0
 13 14  1  0
  5  7  1  0
 14 15  2  0
 15 10  1  0
  3  4  2  0
 13 16  1  0
  1  8  1  0
 12 17  1  0
 17 18  1  0
  6  9  1  0
 17 19  1  0
  4  5  1  0
  3 20  1  0
  9 10  1  0
 21 20  1  0
 21 22  1  0
  2  3  1  0
 10 11  2  0
  5  6  2  0
 11 12  1  0
 22 23  1  0
 23 24  1  0
 24 25  1  0
 25 21  1  0
  6  1  1  0
 24 26  2  0
 12 13  2  0
 22 27  2  0
M  END