
  SciTegic09081514182D

 30 33  0  0  0  0            999 V2000
   -2.6111    0.7486    0.0000 C   0  0
   -2.6111   -0.7486    0.0000 C   0  0
   -1.2964   -1.4973    0.0000 C   0  0
   -1.2964    1.4973    0.0000 C   0  0
    0.0000    0.7486    0.0000 C   0  0
    0.0000   -0.7486    0.0000 C   0  0
    1.2964   -1.4973    0.0000 N   0  0
    2.5929   -0.7486    0.0000 C   0  0
    2.5929    0.7486    0.0000 N   0  0
    1.2964    1.4973    0.0000 C   0  0
    3.6321   -1.3486    0.0000 N   0  0
    1.2964    2.6973    0.0000 N   0  0
   -3.9091    1.5019    0.0000 N   0  0
   -3.9067    3.0027    0.0000 C   0  0
   -5.2049    3.7560    0.0000 C   0  0
   -5.2025    5.2568    0.0000 N   0  0
   -3.9861    6.1163    0.0000 C   0  0
   -4.4408    7.5176    0.0000 N   0  0
   -6.4076    6.1177    0.0000 C   0  0
   -5.9340    7.5357    0.0000 C   0  0
   -6.9193    8.6720    0.0000 C   0  0
   -8.4069    8.3615    0.0000 C   0  0
   -8.8805    6.9435    0.0000 C   0  0
   -7.8779    5.8014    0.0000 C   0  0
   -9.2046    9.2581    0.0000 Cl  0  0
  -10.0568    6.7062    0.0000 Cl  0  0
   -2.5632    5.6468    0.0000 C   0  0
   -2.3183    4.4721    0.0000 F   0  0
   -1.6681    6.4460    0.0000 F   0  0
   -1.4235    5.2714    0.0000 F   0  0
  1  2  2  0
  2  3  1  0
  3  6  2  0
  5  4  2  0
  4  1  1  0
  5  6  1  0
  6  7  1  0
  7  8  2  0
  8  9  1  0
  9 10  2  0
 10  5  1  0
  8 11  1  0
 10 12  1  0
  1 13  1  0
 13 14  1  0
 14 15  1  0
 15 16  1  0
 16 17  1  0
 17 18  2  0
 18 20  1  0
 19 16  1  0
 19 20  2  0
 20 21  1  0
 21 22  2  0
 22 23  1  0
 23 24  2  0
 24 19  1  0
 22 25  1  0
 23 26  1  0
 17 27  1  0
 27 28  1  0
 27 29  1  0
 27 30  1  0
M  END