
          11280714452D 1   1.00000     0.00000     0

 24 26  0     0  0            999 V2000
    0.7417   -0.5792    0.0000 N   0  0  0  0  0  0           0  0  0
    0.3500   -1.0292    0.0000 C   0  0  0  0  0  0           0  0  0
    0.6542   -1.5417    0.0000 N   0  0  0  0  0  0           0  0  0
    1.2875   -0.8125    0.0000 C   0  0  0  0  0  0           0  0  0
    1.2417   -1.4125    0.0000 C   0  0  0  0  0  0           0  0  0
   -1.1583   -0.5375    0.0000 C   0  0  3  0  0  0           0  0  0
   -0.5583   -0.5250    0.0000 C   0  0  0  0  0  0           0  0  0
   -0.2458   -1.0417    0.0000 C   0  0  0  0  0  0           0  0  0
   -1.4708   -0.0125    0.0000 C   0  0  0  0  0  0           0  0  0
   -1.4458   -1.0667    0.0000 C   0  0  0  0  0  0           0  0  0
    1.8042   -0.4917    0.0000 C   0  0  0  0  0  0           0  0  0
    2.3042    0.4125    0.0000 N   0  0  0  0  0  0           0  0  0
    1.7917    0.1083    0.0000 C   0  0  0  0  0  0           0  0  0
   -2.0833   -0.0042    0.0000 C   0  0  0  0  0  0           0  0  0
   -1.1708    0.4958    0.0000 C   0  0  0  0  0  0           0  0  0
   -2.0458   -1.0750    0.0000 C   0  0  0  0  0  0           0  0  0
   -1.1375   -1.5792    0.0000 C   0  0  0  0  0  0           0  0  0
    2.2875    1.0083    0.0000 C   0  0  0  0  0  0           0  0  0
   -2.3708    0.5125    0.0000 C   0  0  0  0  0  0           0  0  0
   -2.3333   -1.6042    0.0000 C   0  0  0  0  0  0           0  0  0
   -1.4250   -2.1000    0.0000 C   0  0  0  0  0  0           0  0  0
   -1.4708    1.0250    0.0000 C   0  0  0  0  0  0           0  0  0
   -2.0625    1.0333    0.0000 C   0  0  0  0  0  0           0  0  0
   -2.0250   -2.1125    0.0000 C   0  0  0  0  0  0           0  0  0
  2  1  2  0     0  0
  3  2  1  0     0  0
  4  1  1  0     0  0
  5  4  2  0     0  0
  6  7  1  0     0  0
  7  8  1  0     0  0
  8  2  1  0     0  0
  9  6  1  0     0  0
 10  6  1  0     0  0
 11  4  1  0     0  0
 12 13  1  0     0  0
 13 11  1  0     0  0
 14  9  1  0     0  0
 15  9  2  0     0  0
 16 10  2  0     0  0
 17 10  1  0     0  0
 18 12  1  0     0  0
 19 14  2  0     0  0
 20 16  1  0     0  0
 21 17  2  0     0  0
 22 15  1  0     0  0
 23 22  2  0     0  0
 24 21  1  0     0  0
  5  3  1  0     0  0
 24 20  2  0     0  0
 19 23  1  0     0  0
M  END