
          08180812472D 1   1.00000     0.00000     0

 26 28  0     0  0            999 V2000
   -4.1527   -1.7529    0.0000 C   0  0  0  0  0  0           0  0  0
   -4.1539   -2.5797    0.0000 C   0  0  0  0  0  0           0  0  0
   -3.4395   -2.9923    0.0000 C   0  0  0  0  0  0           0  0  0
   -2.7236   -2.5792    0.0000 C   0  0  0  0  0  0           0  0  0
   -2.7265   -1.7493    0.0000 C   0  0  0  0  0  0           0  0  0
   -3.4413   -1.3405    0.0000 C   0  0  0  0  0  0           0  0  0
   -2.0048   -2.9986    0.0000 O   0  0  0  0  0  0           0  0  0
   -3.4396   -0.5160    0.0000 C   0  0  0  0  0  0           0  0  0
   -2.7311   -0.1016    0.0000 C   0  0  0  0  0  0           0  0  0
   -1.9451   -0.3556    0.0000 S   0  0  0  0  0  0           0  0  0
   -1.4619    0.3129    0.0000 C   0  0  0  0  0  0           0  0  0
   -1.9477    0.9796    0.0000 C   0  0  0  0  0  0           0  0  0
   -2.7279    0.7268    0.0000 C   0  0  0  0  0  0           0  0  0
   -3.3995    1.2195    0.0000 O   0  0  0  0  0  0           0  0  0
   -1.5479    1.7040    0.0000 C   0  0  0  0  0  0           0  0  0
   -0.7261    1.7235    0.0000 O   0  0  0  0  0  0           0  0  0
   -1.9741    2.4098    0.0000 O   0  0  0  0  0  0           0  0  0
   -2.7964    2.3923    0.0000 C   0  0  0  0  0  0           0  0  0
   -3.2226    3.0982    0.0000 C   0  0  0  0  0  0           0  0  0
   -0.6376    0.3166    0.0000 N   0  0  0  0  0  0           0  0  0
   -0.2250   -0.3939    0.0000 C   0  0  0  0  0  0           0  0  0
   -0.6381   -1.1054    0.0000 C   0  0  0  0  0  0           0  0  0
   -0.2262   -1.8237    0.0000 C   0  0  0  0  0  0           0  0  0
    0.6031   -1.8205    0.0000 C   0  0  0  0  0  0           0  0  0
    1.0153   -1.1055    0.0000 C   0  0  0  0  0  0           0  0  0
    0.6008   -0.3940    0.0000 C   0  0  0  0  0  0           0  0  0
 12 13  1  0     0  0
 13  9  1  0     0  0
  1  2  2  0     0  0
 13 14  2  0     0  0
  4  7  1  0     0  0
 12 15  1  0     0  0
  3  4  2  0     0  0
 15 16  2  0     0  0
  6  8  1  0     0  0
 15 17  1  0     0  0
 17 18  1  0     0  0
  8  9  2  0     0  0
 18 19  1  0     0  0
  9 10  1  0     0  0
 11 20  1  0     0  0
  4  5  1  0     0  0
 20 21  1  0     0  0
  2  3  1  0     0  0
 21 22  2  0     0  0
  5  6  2  0     0  0
 22 23  1  0     0  0
  6  1  1  0     0  0
 23 24  2  0     0  0
 10 11  1  0     0  0
 24 25  1  0     0  0
 11 12  2  0     0  0
 25 26  2  0     0  0
 26 21  1  0     0  0
M  END