
          11280715362D 1   1.00000     0.00000     0

 38 39  0     1  0            999 V2000
    2.5875   -2.8667    0.0000 P   0  0  3  0  0  0           0  0  0
    5.7375   -5.0667    0.0000 C   0  0  0  0  0  0           0  0  0
    6.0875   -4.5917    0.0000 N   0  0  0  0  0  0           0  0  0
    7.0417   -4.1792    0.0000 C   0  0  0  0  0  0           0  0  0
    5.1292   -5.0042    0.0000 C   0  0  1  0  0  0           0  0  0
    6.6875   -4.6542    0.0000 C   0  0  2  0  0  0           0  0  0
    4.7750   -5.4792    0.0000 N   0  0  0  0  0  0           0  0  0
    7.6500   -4.2417    0.0000 N   0  0  0  0  0  0           0  0  0
    4.1750   -5.4167    0.0000 C   0  0  0  0  0  0           0  0  0
    3.1875   -2.7542    0.0000 O   0  0  0  0  0  0           0  0  0
    2.4750   -2.2792    0.0000 O   0  0  0  0  0  0           0  0  0
    5.9750   -5.6292    0.0000 O   0  0  0  0  0  0           0  0  0
    4.8875   -4.4417    0.0000 C   0  0  0  0  0  0           0  0  0
    6.8000   -3.6292    0.0000 O   0  0  0  0  0  0           0  0  0
    9.6917   -4.3167    0.0000 C   0  0  0  0  0  0           0  0  0
    6.9375   -5.2167    0.0000 C   0  0  0  0  0  0           0  0  0
    3.9292   -4.8667    0.0000 O   0  0  0  0  0  0           0  0  0
    2.7000   -3.4667    0.0000 O   0  0  0  0  0  0           0  0  0
    1.9917   -2.9917    0.0000 O   0  0  0  0  0  0           0  0  0
    9.2125   -4.6792    0.0000 C   0  0  0  0  0  0           0  0  0
    9.6375   -3.7292    0.0000 C   0  0  0  0  0  0           0  0  0
    3.5792   -3.2167    0.0000 C   0  0  0  0  0  0           0  0  0
    4.3667   -4.1417    0.0000 C   0  0  0  0  0  0           0  0  0
    8.0000   -3.7667    0.0000 C   0  0  0  0  0  0           0  0  0
    8.6000   -3.8292    0.0000 C   0  0  0  0  0  0           0  0  0
   10.2375   -4.5667    0.0000 C   0  0  3  0  0  0           0  0  0
    9.0875   -3.4792    0.0000 C   0  0  0  0  0  0           0  0  0
    8.6625   -4.4292    0.0000 C   0  0  0  0  0  0           0  0  0
    4.5625   -3.5667    0.0000 C   0  0  0  0  0  0           0  0  0
    3.7750   -4.2417    0.0000 C   0  0  0  0  0  0           0  0  0
    4.1667   -3.1167    0.0000 C   0  0  0  0  0  0           0  0  0
    3.3792   -3.7917    0.0000 C   0  0  0  0  0  0           0  0  0
    7.3000   -5.6792    0.0000 C   0  0  3  0  0  0           0  0  0
    3.8250   -5.8917    0.0000 C   0  0  0  0  0  0           0  0  0
   10.3000   -5.1667    0.0000 C   0  0  0  0  0  0           0  0  0
   10.7250   -4.2167    0.0000 C   0  0  0  0  0  0           0  0  0
    7.9000   -5.7542    0.0000 C   0  0  0  0  0  0           0  0  0
    7.0792   -6.2417    0.0000 C   0  0  0  0  0  0           0  0  0
  2  5  1  0     0  0
  3  2  1  0     0  0
  4  6  1  0     0  0
  5 13  1  1     0  0
  6  3  1  0     0  0
  7  5  1  0     0  0
  8  4  1  0     0  0
  9  7  1  0     0  0
 10  1  1  0     0  0
 11  1  2  0     0  0
 12  2  2  0     0  0
 13 23  1  0     0  0
 14  4  2  0     0  0
 15 20  1  0     0  0
  6 16  1  6     0  0
 17  9  2  0     0  0
 18  1  1  0     0  0
 19  1  1  0     0  0
 20 28  2  0     0  0
 21 27  1  0     0  0
 22 10  1  0     0  0
 23 30  2  0     0  0
 24  8  1  0     0  0
 25 24  1  0     0  0
 26 15  1  0     0  0
 27 25  2  0     0  0
 28 25  1  0     0  0
 29 31  2  0     0  0
 30 32  1  0     0  0
 31 22  1  0     0  0
 32 22  2  0     0  0
 33 16  1  0     0  0
 34  9  1  0     0  0
 35 26  1  0     0  0
 36 26  1  0     0  0
 37 33  1  0     0  0
 38 33  1  0     0  0
 23 29  1  0     0  0
 15 21  2  0     0  0
M  END