
  SciTegic01161211242D

 40 44  0  0  0  0            999 V2000
    3.3490    1.0018    0.0000 C   0  0
    4.1349    1.2550    0.0000 N   0  0
    4.6206    0.5870    0.0000 N   0  0
    4.1316   -0.0831    0.0000 C   0  0
    3.3492    0.1771    0.0000 C   0  0
    4.1481   -0.9089    0.0000 C   0  0
    4.8716   -1.3075    0.0000 C   0  0
    3.4413   -1.3361    0.0000 C   0  0
    4.9415   -0.6792    0.0000 C   0  0
    2.6810    1.4874    0.0000 N   0  0
    1.9631    1.0806    0.0000 C   0  0
    1.2509    1.4987    0.0000 N   0  0
    1.9572    0.2547    0.0000 O   0  0
    0.5326    1.0909    0.0000 C   0  0
   -0.1781    1.5099    0.0000 C   0  0
   -0.8958    1.1027    0.0000 C   0  0
   -0.9023    0.2760    0.0000 C   0  0
   -0.1850   -0.1421    0.0000 C   0  0
    0.5298    0.2675    0.0000 C   0  0
   -1.6200   -0.1327    0.0000 N   0  0
   -1.6248   -0.9587    0.0000 C   0  0
   -1.6347   -2.6052    0.0000 N   0  0
   -0.9146   -2.1921    0.0000 C   0  0
   -0.9129   -1.3683    0.0000 N   0  0
   -2.3480   -2.1873    0.0000 C   0  0
   -2.3389   -1.3662    0.0000 C   0  0
   -3.0443   -0.9496    0.0000 C   0  0
   -3.7593   -1.3528    0.0000 C   0  0
   -3.7645   -2.1770    0.0000 C   0  0
   -3.0585   -2.5900    0.0000 C   0  0
   -4.4697   -0.9284    0.0000 N   0  3
   -5.1884   -1.3355    0.0000 O   0  0
   -4.4630   -0.1025    0.0000 O   0  5
    4.5451    1.9719    0.0000 C   0  0
    5.3685    1.9735    0.0000 C   0  0
    5.7786    2.6896    0.0000 C   0  0
    5.3627    3.4042    0.0000 C   0  0
    4.5326    3.3983    0.0000 C   0  0
    4.1262    2.6816    0.0000 C   0  0
    6.6045    2.6925    0.0000 C   0  0
  4  5  1  0
 17 20  1  0
  1 10  1  0
 20 21  1  0
 21 26  2  0
  5  1  2  0
 25 22  2  0
 10 11  1  0
 22 23  1  0
  1  2  1  0
 23 24  2  0
 24 21  1  0
 11 12  1  0
  4  6  1  0
 25 26  1  0
 11 13  2  0
 26 27  1  0
 27 28  2  0
 12 14  1  0
 28 29  1  0
  6  7  1  0
 29 30  2  0
 30 25  1  0
 14 15  2  0
  2  3  1  0
 15 16  1  0
 31 32  2  0
 31 33  1  0
 28 31  1  0
  6  8  1  0
  2 34  1  0
 16 17  2  0
 34 35  2  0
  3  4  2  0
 35 36  1  0
 17 18  1  0
 36 37  2  0
  6  9  1  0
 37 38  1  0
 18 19  2  0
 38 39  2  0
 39 34  1  0
 19 14  1  0
 36 40  1  0
M  CHG  2  31   1  33  -1
M  END