
  SciTegic12231509382D

 15 15  0  0  0  0            999 V2000
   -3.5000    0.2833    0.0000 N   0  0
   -3.4708    0.8833    0.0000 C   0  0
   -1.8833    0.2083    0.0000 C   0  0
   -2.4583    0.0500    0.0000 C   0  0
   -3.0375   -0.0917    0.0000 C   0  0
   -0.7208    0.2125    0.0000 N   0  3
   -3.9708    1.2083    0.0000 O   0  0
   -1.3000    0.3708    0.0000 C   0  0
   -4.0083   -0.0417    0.0000 C   0  0
   -2.9333    1.1500    0.0000 C   0  0
   -3.8583   -0.6250    0.0000 C   0  0
   -0.7208    0.7708    0.0000 C   0  0
   -0.0333    0.1458    0.0000 C   0  0
   -0.5083   -0.3417    0.0000 C   0  0
   -3.2583   -0.6542    0.0000 C   0  0
  2  1  1  0
  3  4  3  0
  4  5  1  0
  5  1  1  0
  6  8  1  0
  7  2  2  0
  8  3  1  0
  9  1  1  0
 10  2  1  0
 11  9  1  0
 12  6  1  0
 13  6  1  0
 14  6  1  0
 15  5  1  0
 11 15  1  0
M  CHG  1   6   1
M  END