
          11280715162D 1   1.00000     0.00000     0

 34 37  0     0  0            999 V2000
    6.2417   -6.8917    0.0000 C   0  0  0  0  0  0           0  0  0
    5.5292   -7.3125    0.0000 N   0  0  3  0  0  0           0  0  0
    6.9542   -9.7917    0.0000 S   0  0  3  0  0  0           0  0  0
    6.2417   -6.0667    0.0000 C   0  0  0  0  0  0           0  0  0
    4.8167   -6.0667    0.0000 C   0  0  0  0  0  0           0  0  0
    4.8167   -6.8917    0.0000 C   0  0  0  0  0  0           0  0  0
    7.6750   -6.8917    0.0000 N   0  0  3  0  0  0           0  0  0
    8.9792   -6.6042    0.0000 N   0  0  0  0  0  0           0  0  0
    6.9625   -7.3042    0.0000 C   0  0  0  0  0  0           0  0  0
    7.7500  -10.0042    0.0000 C   0  0  0  0  0  0           0  0  0
    8.4292   -7.2167    0.0000 C   0  0  0  0  0  0           0  0  0
    4.1042   -7.3042    0.0000 C   0  0  0  0  0  0           0  0  0
    6.7375  -10.5875    0.0000 O   0  0  0  0  0  0           0  0  0
    7.1667   -8.9917    0.0000 O   0  0  0  0  0  0           0  0  0
    6.2375   -9.3750    0.0000 N   0  0  0  0  0  0           0  0  0
    4.1042   -5.6542    0.0000 C   0  0  0  0  0  0           0  0  0
    1.9625   -4.4167    0.0000 C   0  0  0  0  0  0           0  0  0
    8.5667   -5.8917    0.0000 C   0  0  0  0  0  0           0  0  0
    7.7542   -6.0667    0.0000 C   0  0  0  0  0  0           0  0  0
    1.2500   -4.8292    0.0000 O   0  0  0  0  0  0           0  0  0
    5.5292   -8.1375    0.0000 C   0  0  0  0  0  0           0  0  0
    6.2417   -8.5500    0.0000 C   0  0  0  0  0  0           0  0  0
    7.9542  -10.8000    0.0000 C   0  0  0  0  0  0           0  0  0
    8.3250   -9.4167    0.0000 C   0  0  0  0  0  0           0  0  0
    3.3917   -6.0667    0.0000 C   0  0  0  0  0  0           0  0  0
    3.3917   -6.8917    0.0000 C   0  0  0  0  0  0           0  0  0
    2.6792   -4.8292    0.0000 C   0  0  0  0  0  0           0  0  0
    9.3375  -10.4250    0.0000 C   0  0  0  0  0  0           0  0  0
    6.8292   -5.4875    0.0000 C   0  0  0  0  0  0           0  0  0
    1.9625   -3.5917    0.0000 O   0  0  0  0  0  0           0  0  0
    8.7542  -11.0042    0.0000 C   0  0  0  0  0  0           0  0  0
    9.1167   -9.6292    0.0000 C   0  0  0  0  0  0           0  0  0
   10.1292  -10.6375    0.0000 F   0  0  0  0  0  0           0  0  0
    2.6792   -5.6542    0.0000 C   0  0  0  0  0  0           0  0  0
  2  1  1  0     0  0
  3 15  1  0     0  0
  4  1  2  0     0  0
  5  4  1  0     0  0
  6  2  1  0     0  0
  7  9  1  0     0  0
  8 11  2  0     0  0
  9  1  1  0     0  0
 10  3  1  0     0  0
 11  7  1  0     0  0
 12  6  2  0     0  0
 13  3  2  0     0  0
 14  3  2  0     0  0
 15 22  1  0     0  0
 16  5  2  0     0  0
 17 27  1  0     0  0
 18 19  2  0     0  0
 19  7  1  0     0  0
 20 17  2  0     0  0
 21  2  1  0     0  0
 22 21  1  0     0  0
 23 10  2  0     0  0
 24 10  1  0     0  0
 25 16  1  0     0  0
 26 12  1  0     0  0
 27 34  1  0     0  0
 28 32  1  0     0  0
 29  4  1  0     0  0
 30 17  1  0     0  0
 31 23  1  0     0  0
 32 24  2  0     0  0
 33 28  1  0     0  0
 34 25  1  0     0  0
  5  6  1  0     0  0
 18  8  1  0     0  0
 26 25  2  0     0  0
 28 31  2  0     0  0
M  END