
          02060813462D 1   1.00000     0.00000     0

 22 24  0     0  0            999 V2000
    3.6755   -2.5615    0.0000 C   0  0  0  0  0  0           0  0  0
    3.2491   -3.2707    0.0000 C   0  0  0  0  0  0           0  0  0
    3.6483   -3.9913    0.0000 C   0  0  0  0  0  0           0  0  0
    4.4965   -2.5723    0.0000 C   0  0  0  0  0  0           0  0  0
    4.9023   -3.2920    0.0000 C   0  0  0  0  0  0           0  0  0
    4.4749   -4.0043    0.0000 C   0  0  0  0  0  0           0  0  0
    5.0202   -4.6308    0.0000 N   0  0  0  0  0  0           0  0  0
    5.7847   -4.3059    0.0000 C   0  0  0  0  0  0           0  0  0
    5.7116   -3.4784    0.0000 C   0  0  0  0  0  0           0  0  0
    6.3339   -2.9368    0.0000 C   0  0  0  0  0  0           0  0  0
    6.1760   -2.1272    0.0000 N   0  0  0  0  0  0           0  0  0
    6.7982   -1.5856    0.0000 N   0  0  0  0  0  0           0  0  0
    7.5784   -1.8538    0.0000 C   0  0  0  0  0  0           0  0  0
    7.7363   -2.6634    0.0000 O   0  0  0  0  0  0           0  0  0
    8.2007   -1.3122    0.0000 C   0  0  0  0  0  0           0  0  0
    8.0427   -0.5024    0.0000 C   0  0  0  0  0  0           0  0  0
    8.6655    0.0361    0.0000 C   0  0  0  0  0  0           0  0  0
    8.5081    0.8452    0.0000 C   0  0  0  0  0  0           0  0  0
    7.7273    1.1139    0.0000 C   0  0  0  0  0  0           0  0  0
    7.1035    0.5675    0.0000 C   0  0  0  0  0  0           0  0  0
    7.2641   -0.2394    0.0000 C   0  0  0  0  0  0           0  0  0
    7.5682    1.9234    0.0000 Cl  0  0  0  0  0  0           0  0  0
  5  6  1  0     0  0
 10 11  2  0     0  0
 11 12  1  0     0  0
  2  3  1  0     0  0
 12 13  1  0     0  0
  3  6  2  0     0  0
 13 14  2  0     0  0
  1  2  2  0     0  0
 13 15  1  0     0  0
  5  4  2  0     0  0
 15 16  1  0     0  0
  6  7  1  0     0  0
 16 17  2  0     0  0
  7  8  1  0     0  0
 17 18  1  0     0  0
  8  9  2  0     0  0
 18 19  2  0     0  0
  9  5  1  0     0  0
 19 20  1  0     0  0
  4  1  1  0     0  0
 20 21  2  0     0  0
 21 16  1  0     0  0
  9 10  1  0     0  0
 19 22  1  0     0  0
M  END