
  SciTegic01161211252D

 19 19  0  0  0  0            999 V2000
    0.4917   -2.2167    0.0000 S   0  0
    3.1167   -1.1500    0.0000 S   0  0
    1.7167   -3.1625    0.0000 C   0  0
    1.2917   -2.4542    0.0000 O   0  0
    2.5417   -3.1375    0.0000 C   0  0  1  0  0  0
    2.5167   -1.7042    0.0000 O   0  0
   -0.3000   -1.9792    0.0000 O   0  0
    3.8542   -0.7667    0.0000 O   0  0
    0.7292   -1.4292    0.0000 O   0  0
    0.2542   -3.0042    0.0000 O   0  0
    2.9417   -2.4167    0.0000 C   0  0
    3.5000   -1.8792    0.0000 O   0  0
    2.7417   -0.4167    0.0000 O   0  0
    1.3250   -3.8792    0.0000 C   0  0  1  0  0  0
    2.9667   -3.8417    0.0000 O   0  0
    2.5750   -4.5667    0.0000 C   0  0
    1.7542   -4.5792    0.0000 C   0  0
    0.5000   -3.9042    0.0000 O   0  0
    0.1042   -4.6250    0.0000 C   0  0
  2  6  1  0
  4  3  1  0
  4  1  1  0
  5  3  1  0
  6 11  1  0
  7  1  1  0
  8  2  1  0
  9  1  2  0
 10  1  2  0
  5 11  1  1
 12  2  2  0
 13  2  2  0
 14  3  1  0
 15  5  1  0
 16 17  1  0
 17 14  1  0
 14 18  1  1
 19 18  1  0
 15 16  1  0
M  END