
          05080814042D 1   1.00000     0.00000     0

 39 43  0     1  0            999 V2000
    7.1385    1.1014    0.0000 C   0  0  0  0  0  0           0  0  0
    7.1373    0.2761    0.0000 C   0  0  0  0  0  0           0  0  0
    7.8504   -0.1357    0.0000 C   0  0  0  0  0  0           0  0  0
    7.8486    1.5131    0.0000 C   0  0  0  0  0  0           0  0  0
    8.5621    1.1050    0.0000 C   0  0  0  0  0  0           0  0  0
    8.5656    0.2741    0.0000 C   0  0  0  0  0  0           0  0  0
    9.2828   -0.1361    0.0000 C   0  0  0  0  0  0           0  0  0
    9.2760    1.5257    0.0000 C   0  0  0  0  0  0           0  0  0
    9.9980    1.1108    0.0000 C   0  0  2  0  0  0           0  0  0
    9.9991    0.2783    0.0000 C   0  0  2  0  0  0           0  0  0
   10.7166   -0.1348    0.0000 N   0  0  3  0  0  0           0  0  0
   11.4378    0.2801    0.0000 C   0  0  0  0  0  0           0  0  0
   11.4367    1.1127    0.0000 C   0  0  1  0  0  0           0  0  0
   10.7145    1.5304    0.0000 C   0  0  0  0  0  0           0  0  0
   10.7165   -0.9576    0.0000 C   0  0  0  0  0  0           0  0  0
   12.1492    1.5244    0.0000 C   0  0  0  0  0  0           0  0  0
   12.8620    1.1131    0.0000 N   0  0  3  0  0  0           0  0  0
   12.1490    2.3473    0.0000 O   0  0  0  0  0  0           0  0  0
   12.8565    0.2855    0.0000 C   0  0  0  0  0  0           0  0  0
   13.5651   -0.1257    0.0000 C   0  0  0  0  0  0           0  0  0
   14.2801    0.2825    0.0000 N   0  0  3  0  0  0           0  0  0
   14.2819    1.1063    0.0000 C   0  0  0  0  0  0           0  0  0
   13.5687    1.5220    0.0000 C   0  0  0  0  0  0           0  0  0
    9.9910   -0.5444    0.0000 H   0  0  0  0  0  0           0  0  0
    9.9910    1.9367    0.0000 H   0  0  0  0  0  0           0  0  0
   14.9913   -0.1315    0.0000 C   0  0  0  0  0  0           0  0  0
   14.9849   -0.9527    0.0000 C   0  0  0  0  0  0           0  0  0
   15.6953   -1.3667    0.0000 C   0  0  0  0  0  0           0  0  0
   16.4104   -0.9576    0.0000 C   0  0  0  0  0  0           0  0  0
   16.4106   -0.1305    0.0000 C   0  0  0  0  0  0           0  0  0
   15.6997    0.2797    0.0000 N   0  0  0  0  0  0           0  0  0
    7.8459    2.3365    0.0000 O   0  0  0  0  0  0           0  0  0
    7.1319    2.7456    0.0000 S   0  0  3  0  0  0           0  0  0
    6.4168    3.1586    0.0000 C   0  0  3  0  0  0           0  0  0
    6.7216    2.0323    0.0000 O   0  0  0  0  0  0           0  0  0
    7.5448    3.4574    0.0000 O   0  0  0  0  0  0           0  0  0
    5.7020    3.5700    0.0000 F   0  0  0  0  0  0           0  0  0
    6.8278    3.8714    0.0000 F   0  0  0  0  0  0           0  0  0
    6.0049    2.4461    0.0000 F   0  0  0  0  0  0           0  0  0
 17 19  1  0     0  0
  9  8  1  0     0  0
  9 10  1  0     0  0
  5  4  2  0     0  0
  4  1  1  0     0  0
  5  6  1  0     0  0
 17 23  1  0     0  0
 19 20  1  0     0  0
 20 21  1  0     0  0
 21 22  1  0     0  0
 22 23  1  0     0  0
 10 24  1  1     0  0
  2  3  1  0     0  0
  9 25  1  6     0  0
  3  6  2  0     0  0
 21 26  1  0     0  0
  9 14  1  0     0  0
 26 27  2  0     0  0
 10 11  1  0     0  0
 27 28  1  0     0  0
 11 12  1  0     0  0
 28 29  2  0     0  0
 12 13  1  0     0  0
 29 30  1  0     0  0
 13 14  1  0     0  0
 30 31  2  0     0  0
 31 26  1  0     0  0
  1  2  2  0     0  0
  4 32  1  0     0  0
 11 15  1  0     0  0
 32 33  1  0     0  0
  5  8  1  0     0  0
 33 34  1  0     0  0
 13 16  1  1     0  0
 33 35  2  0     0  0
  6  7  1  0     0  0
 33 36  2  0     0  0
 16 17  1  0     0  0
 34 37  1  0     0  0
  7 10  1  0     0  0
 34 38  1  0     0  0
 16 18  2  0     0  0
 34 39  1  0     0  0
M  END