
          11280714502D 1   1.00000     0.00000     0

 25 28  0     0  0            999 V2000
    5.6000   -0.1417    0.0000 C   0  0  0  0  0  0           0  0  0
    6.4167   -0.2167    0.0000 N   0  0  3  0  0  0           0  0  0
    5.2667   -0.9000    0.0000 O   0  0  0  0  0  0           0  0  0
    7.2917   -5.5792    0.0000 O   0  0  0  0  0  0           0  0  0
    5.8792   -1.4500    0.0000 C   0  0  3  0  0  0           0  0  0
    6.5792   -5.1667    0.0000 C   0  0  3  0  0  0           0  0  0
    5.8500   -6.3917    0.0000 O   0  0  0  0  0  0           0  0  0
    5.8792   -3.1042    0.0000 N   0  0  3  0  0  0           0  0  0
    7.2792   -6.4125    0.0000 C   0  0  0  0  0  0           0  0  0
    6.5875   -4.3417    0.0000 C   0  0  3  0  0  0           0  0  0
    6.5917   -1.0292    0.0000 C   0  0  0  0  0  0           0  0  0
    5.8792   -3.9292    0.0000 C   0  0  0  0  0  0           0  0  0
    6.5625   -6.8125    0.0000 C   0  0  0  0  0  0           0  0  0
    5.1792    0.5708    0.0000 O   0  0  0  0  0  0           0  0  0
    5.8625   -5.5667    0.0000 C   0  0  0  0  0  0           0  0  0
    6.5917   -1.8667    0.0000 C   0  0  0  0  0  0           0  0  0
    5.1750   -1.8667    0.0000 C   0  0  0  0  0  0           0  0  0
    5.1750   -2.6917    0.0000 C   0  0  0  0  0  0           0  0  0
    6.5917   -2.6917    0.0000 C   0  0  0  0  0  0           0  0  0
    7.3042   -3.9417    0.0000 O   0  0  0  0  0  0           0  0  0
    6.8292    0.4958    0.0000 C   0  0  0  0  0  0           0  0  0
    7.9792   -6.8292    0.0000 C   0  0  0  0  0  0           0  0  0
    6.5500   -7.6292    0.0000 C   0  0  0  0  0  0           0  0  0
    7.9750   -7.6417    0.0000 C   0  0  0  0  0  0           0  0  0
    7.2542   -8.0542    0.0000 C   0  0  0  0  0  0           0  0  0
  2  1  1  0     0  0
  3  1  1  0     0  0
  4  6  1  0     0  0
  5  3  1  0     0  0
  6 10  1  0     0  0
  7 15  1  0     0  0
  8 18  1  0     0  0
  9  4  1  0     0  0
 10 12  1  0     0  0
 11  2  1  0     0  0
 12  8  1  0     0  0
 13  7  1  0     0  0
 14  1  2  0     0  0
 15  6  1  0     0  0
 16  5  1  0     0  0
 17  5  1  0     0  0
 18 17  1  0     0  0
 19 16  1  0     0  0
 20 10  1  0     0  0
 21  2  1  0     0  0
 22  9  1  0     0  0
 23 13  1  0     0  0
 24 22  2  0     0  0
 25 23  2  0     0  0
  5 11  1  0     0  0
 19  8  1  0     0  0
  9 13  2  0     0  0
 24 25  1  0     0  0
M  END