
  SciTegic12011113542D

 12 11  0  0  0  0            999 V2000
   -3.4657    1.2278    0.0000 C   0  0  1  0  0  0
   -2.7538    1.6397    0.0000 C   0  0
   -2.0378    1.2299    0.0000 C   0  0
   -1.3259    1.6460    0.0000 C   0  0
   -0.6098    1.2361    0.0000 C   0  0
    0.1020    1.6481    0.0000 B   0  0
    0.8217    1.2374    0.0000 O   0  0
    0.1005    2.4761    0.0000 O   0  0
   -4.1813    1.6384    0.0000 C   0  0
   -4.1841    2.4667    0.0000 O   0  0
   -4.9008    1.2256    0.0000 O   0  5
   -3.4642    0.3997    0.0000 N   0  3
  1  2  1  0
  2  3  1  0
  3  4  1  0
  4  5  1  0
  5  6  1  0
  6  7  1  0
  6  8  1  0
  1  9  1  0
  9 10  2  0
  9 11  1  0
  1 12  1  6
M  CHG  2  11  -1  12   1
M  END