
          11280714552D 1   1.00000     0.00000     0

 16 18  0     0  0            999 V2000
    2.1292   -3.3042    0.0000 C   0  0  0  0  0  0           0  0  0
    1.6542   -3.9792    0.0000 N   0  0  3  0  0  0           0  0  0
    1.6417   -2.6375    0.0000 C   0  0  0  0  0  0           0  0  0
    2.9625   -3.3000    0.0000 C   0  0  0  0  0  0           0  0  0
    0.8625   -3.7292    0.0000 C   0  0  0  0  0  0           0  0  0
    3.3792   -4.0042    0.0000 C   0  0  0  0  0  0           0  0  0
    0.8542   -2.9000    0.0000 C   0  0  0  0  0  0           0  0  0
    4.2042   -4.0917    0.0000 N   0  0  0  0  0  0           0  0  0
    3.0542   -4.7667    0.0000 N   0  0  0  0  0  0           0  0  0
    1.9125   -4.7667    0.0000 C   0  0  0  0  0  0           0  0  0
    4.3792   -4.9000    0.0000 C   0  0  0  0  0  0           0  0  0
    0.1417   -4.1417    0.0000 C   0  0  0  0  0  0           0  0  0
    0.1417   -2.4875    0.0000 C   0  0  0  0  0  0           0  0  0
    3.6667   -5.3167    0.0000 C   0  0  0  0  0  0           0  0  0
   -0.5708   -3.7292    0.0000 C   0  0  0  0  0  0           0  0  0
   -0.5708   -2.9000    0.0000 C   0  0  0  0  0  0           0  0  0
  2  1  1  0     0  0
  3  1  2  0     0  0
  4  1  1  0     0  0
  5  2  1  0     0  0
  6  4  1  0     0  0
  7  3  1  0     0  0
  8  6  2  0     0  0
  9  6  1  0     0  0
 10  2  1  0     0  0
 11  8  1  0     0  0
 12  5  2  0     0  0
 13  7  2  0     0  0
 14  9  1  0     0  0
 15 12  1  0     0  0
 16 13  1  0     0  0
  7  5  1  0     0  0
 14 11  1  0     0  0
 16 15  2  0     0  0
M  END