
  Mrv0541 04051115152D          

 29 30  0  0  0  0            999 V2000
   -2.4697   -0.1498    0.0000 C   0  0  0  0  0  0  0  0  0  0  0  0
   -2.4697    0.6752    0.0000 C   0  0  0  0  0  0  0  0  0  0  0  0
   -3.1842   -0.5623    0.0000 C   0  0  0  0  0  0  0  0  0  0  0  0
   -1.7552   -0.5623    0.0000 C   0  0  0  0  0  0  0  0  0  0  0  0
   -3.1842    1.0877    0.0000 C   0  0  0  0  0  0  0  0  0  0  0  0
   -1.7552    1.0877    0.0000 O   0  0  0  0  0  0  0  0  0  0  0  0
   -3.8986   -0.1498    0.0000 C   0  0  0  0  0  0  0  0  0  0  0  0
   -3.1842   -1.3873    0.0000 O   0  0  0  0  0  0  0  0  0  0  0  0
   -1.0407   -0.1498    0.0000 C   0  0  0  0  0  0  0  0  0  0  0  0
   -3.8986    0.6752    0.0000 C   0  0  0  0  0  0  0  0  0  0  0  0
   -1.0407    0.6752    0.0000 C   0  0  0  0  0  0  0  0  0  0  0  0
   -4.6131   -0.5623    0.0000 C   0  0  0  0  0  0  0  0  0  0  0  0
   -0.3263   -0.5623    0.0000 C   0  0  0  0  0  0  0  0  0  0  0  0
   -0.3263    1.0877    0.0000 C   0  0  0  0  0  0  0  0  0  0  0  0
   -5.3276   -0.1498    0.0000 C   0  0  0  0  0  0  0  0  0  0  0  0
   -4.6131   -1.3873    0.0000 O   0  0  0  0  0  0  0  0  0  0  0  0
    0.3882    0.6752    0.0000 C   0  0  0  0  0  0  0  0  0  0  0  0
    1.1027    1.0877    0.0000 O   0  0  0  0  0  0  0  0  0  0  0  0
    1.8171    0.6752    0.0000 C   0  0  0  0  0  0  0  0  0  0  0  0
    2.5316    1.0877    0.0000 C   0  0  0  0  0  0  0  0  0  0  0  0
    1.8171   -0.1498    0.0000 C   0  0  0  0  0  0  0  0  0  0  0  0
    3.2461    0.6752    0.0000 C   0  0  0  0  0  0  0  0  0  0  0  0
    2.5316   -0.5623    0.0000 C   0  0  0  0  0  0  0  0  0  0  0  0
    3.2461   -0.1498    0.0000 C   0  0  0  0  0  0  0  0  0  0  0  0
    3.9606   -0.5623    0.0000 O   0  0  0  0  0  0  0  0  0  0  0  0
    4.6750   -0.1498    0.0000 C   0  0  0  0  0  0  0  0  0  0  0  0
    5.3895   -0.5623    0.0000 C   0  0  0  0  0  0  0  0  0  0  0  0
    6.1040   -0.1498    0.0000 O   0  0  0  0  0  0  0  0  0  0  0  0
    5.3895   -1.3873    0.0000 O   0  0  0  0  0  0  0  0  0  0  0  0
  1  3  1  0  0  0  0
  1  2  2  0  0  0  0
  1  4  1  0  0  0  0
  2  5  1  0  0  0  0
  2  6  1  0  0  0  0
  3  7  2  0  0  0  0
  3  8  1  0  0  0  0
  4  9  1  0  0  0  0
 10  5  2  0  0  0  0
 11  6  1  0  0  0  0
 12  7  1  0  0  0  0
 10  7  1  0  0  0  0
 13  9  1  0  0  0  0
 11 14  1  0  0  0  0
 12 15  1  0  0  0  0
 12 16  2  0  0  0  0
 14 17  1  0  0  0  0
 17 18  1  0  0  0  0
 19 18  1  0  0  0  0
 19 20  2  0  0  0  0
 19 21  1  0  0  0  0
 20 22  1  0  0  0  0
 21 23  2  0  0  0  0
 22 24  2  0  0  0  0
 23 24  1  0  0  0  0
 24 25  1  0  0  0  0
 26 25  1  0  0  0  0
 26 27  1  0  0  0  0
 27 29  2  0  0  0  0
 27 28  1  0  0  0  0
M  END