
          11280715442D 1   1.00000     0.00000     0

 25 27  0     1  0            999 V2000
   -0.3625   -0.6167    0.0000 N   0  0  3  0  0  0           0  0  0
   -0.1125   -1.4042    0.0000 C   0  0  0  0  0  0           0  0  0
    0.3000   -0.1292    0.0000 C   0  0  0  0  0  0           0  0  0
    0.9625   -0.6167    0.0000 C   0  0  2  0  0  0           0  0  0
    0.7125   -1.4042    0.0000 N   0  0  3  0  0  0           0  0  0
   -1.1875   -0.6167    0.0000 C   0  0  0  0  0  0           0  0  0
   -1.4000    0.1750    0.0000 C   0  0  0  0  0  0           0  0  0
   -1.7833   -1.2042    0.0000 C   0  0  0  0  0  0           0  0  0
   -0.6000   -2.0667    0.0000 O   0  0  0  0  0  0           0  0  0
    1.6875   -0.2042    0.0000 C   0  0  0  0  0  0           0  0  0
    0.3000    0.6958    0.0000 O   0  0  0  0  0  0           0  0  0
   -2.5750   -0.9875    0.0000 C   0  0  0  0  0  0           0  0  0
   -2.2000    0.3958    0.0000 C   0  0  0  0  0  0           0  0  0
   -2.7875   -0.1917    0.0000 C   0  0  0  0  0  0           0  0  0
    1.2000   -2.0667    0.0000 C   0  0  0  0  0  0           0  0  0
    1.6250   -1.1167    0.0000 C   0  0  0  0  0  0           0  0  0
    1.6750    0.6208    0.0000 C   0  0  0  0  0  0           0  0  0
    1.6750    2.2708    0.0000 C   0  0  0  0  0  0           0  0  0
   -2.4125    1.1875    0.0000 Cl  0  0  0  0  0  0           0  0  0
   -3.1625   -1.5667    0.0000 Cl  0  0  0  0  0  0           0  0  0
    1.6750    3.0958    0.0000 Br  0  0  0  0  0  0           0  0  0
    0.9625    1.0333    0.0000 C   0  0  0  0  0  0           0  0  0
    2.4000    1.0333    0.0000 C   0  0  0  0  0  0           0  0  0
    0.9625    1.8625    0.0000 C   0  0  0  0  0  0           0  0  0
    2.4000    1.8625    0.0000 C   0  0  0  0  0  0           0  0  0
  2  1  1  0     0  0
  3  1  1  0     0  0
  4  3  1  0     0  0
  5  2  1  0     0  0
  6  1  1  0     0  0
  7  6  2  0     0  0
  8  6  1  0     0  0
  9  2  2  0     0  0
  4 10  1  1     0  0
 11  3  2  0     0  0
 12  8  2  0     0  0
 13  7  1  0     0  0
 14 12  1  0     0  0
 15  5  1  0     0  0
  4 16  1  6     0  0
 17 10  1  0     0  0
 18 25  2  0     0  0
 19 13  1  0     0  0
 20 12  1  0     0  0
 21 18  1  0     0  0
 22 17  1  0     0  0
 23 17  2  0     0  0
 24 22  2  0     0  0
 25 23  1  0     0  0
  5  4  1  0     0  0
 14 13  2  0     0  0
 18 24  1  0     0  0
M  END