
          11290715122D 1   1.00000     0.00000     0

 31 34  0     0  0            999 V2000
    7.3937   -8.6033    0.0000 C   0  0  0  0  0  0           0  0  0
    7.3925   -9.4306    0.0000 C   0  0  0  0  0  0           0  0  0
    8.1073   -9.8435    0.0000 C   0  0  0  0  0  0           0  0  0
    8.1055   -8.1906    0.0000 C   0  0  0  0  0  0           0  0  0
    8.8207   -8.5997    0.0000 C   0  0  0  0  0  0           0  0  0
    8.8241   -9.4281    0.0000 C   0  0  0  0  0  0           0  0  0
    9.5394   -9.8371    0.0000 C   0  0  0  0  0  0           0  0  0
   10.2557   -9.4222    0.0000 C   0  0  0  0  0  0           0  0  0
   10.2523   -8.5938    0.0000 C   0  0  0  0  0  0           0  0  0
    9.5326   -8.1802    0.0000 C   0  0  3  0  0  0           0  0  0
    9.5280   -7.3554    0.0000 N   0  0  0  0  0  0           0  0  0
   10.2401   -6.9389    0.0000 C   0  0  0  0  0  0           0  0  0
   10.2356   -6.1140    0.0000 O   0  0  0  0  0  0           0  0  0
   10.9568   -7.3475    0.0000 C   0  0  0  0  0  0           0  0  0
   11.6689   -6.9311    0.0000 C   0  0  0  0  0  0           0  0  0
   12.3856   -7.3397    0.0000 C   0  0  0  0  0  0           0  0  0
   13.0977   -6.9232    0.0000 C   0  0  0  0  0  0           0  0  0
   13.8144   -7.3318    0.0000 C   0  0  0  0  0  0           0  0  0
   14.5265   -6.9154    0.0000 N   0  0  3  0  0  0           0  0  0
   15.2380   -7.3270    0.0000 C   0  0  0  0  0  0           0  0  0
   15.9481   -6.9141    0.0000 C   0  0  0  0  0  0           0  0  0
   15.9478   -6.0888    0.0000 N   0  0  3  0  0  0           0  0  0
   15.2312   -5.6781    0.0000 C   0  0  0  0  0  0           0  0  0
   14.5150   -6.0926    0.0000 C   0  0  0  0  0  0           0  0  0
   16.6614   -5.6752    0.0000 C   0  0  0  0  0  0           0  0  0
   17.3752   -6.0894    0.0000 C   0  0  0  0  0  0           0  0  0
   18.0885   -5.6765    0.0000 C   0  0  0  0  0  0           0  0  0
   18.0875   -4.8506    0.0000 C   0  0  0  0  0  0           0  0  0
   17.3673   -4.4396    0.0000 C   0  0  0  0  0  0           0  0  0
   16.6571   -4.8549    0.0000 C   0  0  0  0  0  0           0  0  0
   15.9405   -4.4464    0.0000 O   0  0  0  0  0  0           0  0  0
 14 15  1  0     0  0
  5  4  2  0     0  0
 15 16  1  0     0  0
  4  1  1  0     0  0
 16 17  1  0     0  0
  5 10  1  0     0  0
 17 18  1  0     0  0
  6  7  1  0     0  0
 18 19  1  0     0  0
 19 20  1  0     0  0
  7  8  1  0     0  0
  8  9  1  0     0  0
  9 10  1  0     0  0
  5  6  1  0     0  0
 10 11  1  0     0  0
 19 24  1  0     0  0
 20 21  1  0     0  0
 21 22  1  0     0  0
 22 23  1  0     0  0
 23 24  1  0     0  0
 22 25  1  0     0  0
 11 12  1  0     0  0
 25 26  2  0     0  0
  2  3  1  0     0  0
 26 27  1  0     0  0
 12 13  2  0     0  0
 27 28  2  0     0  0
  3  6  2  0     0  0
 28 29  1  0     0  0
 12 14  1  0     0  0
 29 30  2  0     0  0
 30 25  1  0     0  0
  1  2  2  0     0  0
 30 31  1  0     0  0
M  END