
          01230816042D 1   1.00000     0.00000     0

 40 43  0     0  0            999 V2000
   13.7194  -18.2291    0.0000 C   0  0  0  0  0  0           0  0  0
   13.7182  -19.0565    0.0000 C   0  0  0  0  0  0           0  0  0
   14.4331  -19.4694    0.0000 C   0  0  0  0  0  0           0  0  0
   14.4312  -17.8164    0.0000 C   0  0  0  0  0  0           0  0  0
   15.8124  -19.5724    0.0000 C   0  0  0  0  0  0           0  0  0
   16.6455  -19.3534    0.0000 N   0  0  0  0  0  0           0  0  0
   16.9642  -18.6021    0.0000 N   0  0  3  0  0  0           0  0  0
   15.1469  -19.0582    0.0000 C   0  0  0  0  0  0           0  0  0
   15.1466  -18.2255    0.0000 C   0  0  0  0  0  0           0  0  0
   15.8258  -17.6838    0.0000 N   0  0  3  0  0  0           0  0  0
   16.6055  -17.8635    0.0000 C   0  0  0  0  0  0           0  0  0
   17.1195  -17.2183    0.0000 O   0  0  0  0  0  0           0  0  0
   17.7889  -18.5811    0.0000 C   0  0  0  0  0  0           0  0  0
   18.2195  -19.2849    0.0000 C   0  0  0  0  0  0           0  0  0
   19.0442  -19.2639    0.0000 N   0  0  0  0  0  0           0  0  0
   17.8253  -20.0096    0.0000 O   0  0  0  0  0  0           0  0  0
   19.4748  -19.9676    0.0000 C   0  0  0  0  0  0           0  0  0
   19.0783  -20.6913    0.0000 C   0  0  0  0  0  0           0  0  0
   19.5081  -21.3945    0.0000 C   0  0  0  0  0  0           0  0  0
   20.3338  -21.3740    0.0000 C   0  0  0  0  0  0           0  0  0
   20.7277  -20.6442    0.0000 C   0  0  0  0  0  0           0  0  0
   20.2955  -19.9439    0.0000 C   0  0  0  0  0  0           0  0  0
   15.7907  -16.8596    0.0000 C   0  0  0  0  0  0           0  0  0
   21.5523  -20.6203    0.0000 S   0  0  0  0  0  0           0  0  0
   15.6482  -20.3809    0.0000 C   0  0  3  0  0  0           0  0  0
   14.8654  -20.6383    0.0000 C   0  0  0  0  0  0           0  0  0
   14.7000  -21.4429    0.0000 C   0  0  0  0  0  0           0  0  0
   15.3156  -21.9927    0.0000 C   0  0  0  0  0  0           0  0  0
   16.0994  -21.7322    0.0000 C   0  0  0  0  0  0           0  0  0
   16.2677  -20.9219    0.0000 C   0  0  0  0  0  0           0  0  0
   15.0593  -16.4778    0.0000 C   0  0  0  0  0  0           0  0  0
   14.3631  -16.9204    0.0000 O   0  0  0  0  0  0           0  0  0
   15.0242  -15.6536    0.0000 C   0  0  3  0  0  0           0  0  0
   15.0167  -14.8250    0.0000 C   0  0  0  0  0  0           0  0  0
   14.1995  -15.6749    0.0000 C   0  0  0  0  0  0           0  0  0
   15.8491  -15.6360    0.0000 C   0  0  0  0  0  0           0  0  0
   21.9853  -21.3225    0.0000 C   0  0  0  0  0  0           0  0  0
   22.8100  -21.2986    0.0000 C   0  0  0  0  0  0           0  0  0
   23.2430  -22.0009    0.0000 O   0  0  0  0  0  0           0  0  0
   23.2016  -20.5725    0.0000 O   0  0  0  0  0  0           0  0  0
  5  8  1  0     0  0
 19 20  2  0     0  0
  9 10  1  0     0  0
 20 21  1  0     0  0
 10 11  1  0     0  0
 21 22  2  0     0  0
 22 17  1  0     0  0
 11  7  1  0     0  0
 10 23  1  0     0  0
  8  9  1  0     0  0
 21 24  1  0     0  0
  2  3  1  0     0  0
  5 25  1  0     0  0
 25 26  1  0     0  0
 11 12  2  0     0  0
  3  8  2  0     0  0
  7 13  1  0     0  0
  1  2  2  0     0  0
 13 14  1  0     0  0
 25 30  1  0     0  0
 26 27  1  0     0  0
 27 28  1  0     0  0
 28 29  1  0     0  0
 29 30  1  0     0  0
  9  4  2  0     0  0
 23 31  1  0     0  0
 14 15  1  0     0  0
 31 32  2  0     0  0
  4  1  1  0     0  0
 31 33  1  0     0  0
 14 16  2  0     0  0
 33 34  1  0     0  0
 33 35  1  0     0  0
 15 17  1  0     0  0
 33 36  1  0     0  0
  5  6  2  0     0  0
 24 37  1  0     0  0
 17 18  2  0     0  0
 37 38  1  0     0  0
  6  7  1  0     0  0
 38 39  2  0     0  0
 18 19  1  0     0  0
 38 40  1  0     0  0
M  END