
          05080814042D 1   1.00000     0.00000     0

 36 40  0     1  0            999 V2000
    7.5976   -1.5530    0.0000 C   0  0  0  0  0  0           0  0  0
    6.8869   -1.9679    0.0000 C   0  0  0  0  0  0           0  0  0
    6.8939   -2.7942    0.0000 C   0  0  0  0  0  0           0  0  0
    7.6077   -3.1977    0.0000 C   0  0  0  0  0  0           0  0  0
    8.3109   -1.9602    0.0000 C   0  0  0  0  0  0           0  0  0
    8.3170   -2.7879    0.0000 C   0  0  0  0  0  0           0  0  0
    9.0328   -3.1942    0.0000 C   0  0  0  0  0  0           0  0  0
    9.0207   -1.5389    0.0000 C   0  0  0  0  0  0           0  0  0
    9.7412   -1.9497    0.0000 C   0  0  2  0  0  0           0  0  0
    9.7457   -2.7793    0.0000 C   0  0  2  0  0  0           0  0  0
   10.4625   -3.1880    0.0000 N   0  0  3  0  0  0           0  0  0
   11.1793   -2.7715    0.0000 C   0  0  0  0  0  0           0  0  0
   11.1747   -1.9419    0.0000 C   0  0  1  0  0  0           0  0  0
   10.4534   -1.5287    0.0000 C   0  0  0  0  0  0           0  0  0
    9.7333   -1.1208    0.0000 H   0  0  0  0  0  0           0  0  0
    9.7375   -3.6042    0.0000 H   0  0  0  0  0  0           0  0  0
   11.8874   -1.5262    0.0000 C   0  0  0  0  0  0           0  0  0
   12.6037   -1.9355    0.0000 N   0  0  3  0  0  0           0  0  0
   11.8837   -0.7012    0.0000 O   0  0  0  0  0  0           0  0  0
   12.6014   -2.7637    0.0000 C   0  0  0  0  0  0           0  0  0
   13.3136   -3.1729    0.0000 C   0  0  0  0  0  0           0  0  0
   14.0286   -2.7607    0.0000 N   0  0  3  0  0  0           0  0  0
   14.0269   -1.9347    0.0000 C   0  0  0  0  0  0           0  0  0
   13.3101   -1.5210    0.0000 C   0  0  0  0  0  0           0  0  0
    7.5937   -0.7280    0.0000 O   0  0  0  0  0  0           0  0  0
    6.8772   -0.3189    0.0000 C   0  0  0  0  0  0           0  0  0
   10.4658   -4.0129    0.0000 C   0  0  0  0  0  0           0  0  0
   14.7434   -3.1727    0.0000 C   0  0  0  0  0  0           0  0  0
   14.7395   -3.9969    0.0000 C   0  0  0  0  0  0           0  0  0
   15.4534   -4.4088    0.0000 C   0  0  0  0  0  0           0  0  0
   16.1685   -3.9958    0.0000 C   0  0  0  0  0  0           0  0  0
   16.1653   -3.1665    0.0000 C   0  0  0  0  0  0           0  0  0
   15.4508   -2.7583    0.0000 C   0  0  0  0  0  0           0  0  0
   15.4464   -1.9339    0.0000 C   0  0  0  0  0  0           0  0  0
   15.4419   -1.1090    0.0000 N   0  0  0  0  0  0           0  0  0
   16.8780   -2.7510    0.0000 F   0  0  0  0  0  0           0  0  0
 13 17  1  1     0  0
  7 10  1  0     0  0
 17 18  1  0     0  0
  9  8  1  0     0  0
 17 19  2  0     0  0
 18 20  1  0     0  0
  9 10  1  0     0  0
  3  4  2  0     0  0
  4  6  1  0     0  0
  5  6  2  0     0  0
  1  2  2  0     0  0
 18 24  1  0     0  0
 20 21  1  0     0  0
 21 22  1  0     0  0
 22 23  1  0     0  0
 23 24  1  0     0  0
  5  1  1  0     0  0
  1 25  1  0     0  0
  2  3  1  0     0  0
 25 26  1  0     0  0
  9 14  1  0     0  0
 11 27  1  0     0  0
 10 11  1  0     0  0
 22 28  1  0     0  0
 11 12  1  0     0  0
 28 29  2  0     0  0
 12 13  1  0     0  0
 29 30  1  0     0  0
 13 14  1  0     0  0
 30 31  2  0     0  0
 31 32  1  0     0  0
  9 15  1  6     0  0
 32 33  2  0     0  0
 33 28  1  0     0  0
  5  8  1  0     0  0
 10 16  1  1     0  0
 34 35  3  0     0  0
 33 34  1  0     0  0
  6  7  1  0     0  0
 32 36  1  0     0  0
M  END