
          11280715472D 1   1.00000     0.00000     0

 21 23  0     0  0            999 V2000
    1.5792    1.9833    0.0000 N   0  0  3  0  0  0           0  0  0
   -1.9833   -2.5417    0.0000 C   0  0  3  0  0  0           0  0  0
   -2.3875   -1.8292    0.0000 C   0  0  0  0  0  0           0  0  0
   -2.8000   -2.5375    0.0000 C   0  0  0  0  0  0           0  0  0
    1.5792    1.1625    0.0000 C   0  0  0  0  0  0           0  0  0
    0.8750    2.4083    0.0000 C   0  0  0  0  0  0           0  0  0
   -1.2708   -2.9542    0.0000 N   0  0  0  0  0  0           0  0  0
    0.1417    1.9833    0.0000 C   0  0  0  0  0  0           0  0  0
    0.8750    0.7583    0.0000 C   0  0  0  0  0  0           0  0  0
   -0.5583    0.7583    0.0000 O   0  0  0  0  0  0           0  0  0
    2.3000    2.4083    0.0000 C   0  0  3  0  0  0           0  0  0
    0.1542    1.1708    0.0000 C   0  0  3  0  0  0           0  0  0
   -0.5583   -0.0667    0.0000 C   0  0  0  0  0  0           0  0  0
   -0.5583   -2.5417    0.0000 C   0  0  0  0  0  0           0  0  0
   -0.5583   -1.7167    0.0000 C   0  0  0  0  0  0           0  0  0
   -1.2625   -0.4792    0.0000 C   0  0  0  0  0  0           0  0  0
    0.1542   -0.4792    0.0000 C   0  0  0  0  0  0           0  0  0
    0.1542   -1.3042    0.0000 C   0  0  0  0  0  0           0  0  0
   -1.2708   -1.3042    0.0000 C   0  0  0  0  0  0           0  0  0
    2.3000    3.2333    0.0000 C   0  0  0  0  0  0           0  0  0
    3.0125    1.9833    0.0000 C   0  0  0  0  0  0           0  0  0
  2  7  1  0     0  0
  3  2  1  0     0  0
  4  2  1  0     0  0
  5  1  1  0     0  0
  6  1  1  0     0  0
  7 14  1  0     0  0
  8  6  1  0     0  0
  9  5  1  0     0  0
 10 12  1  0     0  0
 11  1  1  0     0  0
 12  8  1  0     0  0
 13 10  1  0     0  0
 14 15  1  0     0  0
 15 18  2  0     0  0
 16 13  1  0     0  0
 17 13  2  0     0  0
 18 17  1  0     0  0
 19 16  2  0     0  0
 20 11  1  0     0  0
 21 11  1  0     0  0
  9 12  1  0     0  0
 15 19  1  0     0  0
  4  3  1  0     0  0
M  END