
  Mrv0541 05211314572D          

 15 15  0  0  0  0            999 V2000
    2.8677   -2.1823    0.0000 C   0  0  0  0  0  0  0  0  0  0  0  0
    5.7256   -2.1823    0.0000 N   0  0  0  0  0  0  0  0  0  0  0  0
    2.1532   -1.7698    0.0000 C   0  0  0  0  0  0  0  0  0  0  0  0
    2.8677   -3.0073    0.0000 O   0  0  0  0  0  0  0  0  0  0  0  0
    2.1532   -0.9448    0.0000 C   0  0  0  0  0  0  0  0  0  0  0  0
    1.4387   -2.1823    0.0000 C   0  0  0  0  0  0  0  0  0  0  0  0
    3.5822   -1.7698    0.0000 O   0  0  0  0  0  0  0  0  0  0  0  0
    0.7243   -0.9448    0.0000 C   0  0  0  0  0  0  0  0  0  0  0  0
    0.0098   -0.5323    0.0000 N   0  0  0  0  0  0  0  0  0  0  0  0
    0.7243   -1.7698    0.0000 C   0  0  0  0  0  0  0  0  0  0  0  0
    1.4387   -0.5323    0.0000 C   0  0  0  0  0  0  0  0  0  0  0  0
    5.0111   -1.7698    0.0000 C   0  0  0  0  0  0  0  0  0  0  0  0
    4.2966   -2.1823    0.0000 C   0  0  0  0  0  0  0  0  0  0  0  0
    6.4400   -1.7698    0.0000 C   0  0  0  0  0  0  0  0  0  0  0  0
    5.7256   -3.0073    0.0000 C   0  0  0  0  0  0  0  0  0  0  0  0
  2 12  1  0  0  0  0
  3  1  1  0  0  0  0
  4  1  2  0  0  0  0
  5  3  2  0  0  0  0
  6  3  1  0  0  0  0
  7  1  1  0  0  0  0
  8 10  1  0  0  0  0
  9  8  1  0  0  0  0
 10  6  2  0  0  0  0
 11  5  1  0  0  0  0
 12 13  1  0  0  0  0
 13  7  1  0  0  0  0
 14  2  1  0  0  0  0
 15  2  1  0  0  0  0
 11  8  2  0  0  0  0
M  END