
  CDK    9/16/09,9:48

 20 21  0  0  0  0  0  0  0  0999 V2000
   11.4848   -0.1023    0.0000 C   0  0  0  0  0  0  0  0  0  0  0  0
   11.4848   -0.8944    0.0000 N   0  0  0  0  0  0  0  0  0  0  0  0
   10.7443    0.3440    0.0000 O   0  0  0  0  0  0  0  0  0  0  0  0
   12.1683    0.3440    0.0000 C   0  0  0  0  0  0  0  0  0  0  0  0
   10.8193   -1.3738    0.0000 C   0  0  0  0  0  0  0  0  0  0  0  0
   12.1396   -1.3930    0.0000 N   0  0  0  0  0  0  0  0  0  0  0  0
   10.0213   -0.0851    0.0000 C   0  0  0  0  0  0  0  0  0  0  0  0
   12.8866   -0.0851    0.0000 C   0  0  0  0  0  0  0  0  0  0  0  0
   12.1683    1.1488    0.0000 O   0  0  0  0  0  0  0  0  0  0  0  0
   11.0583   -2.1621    0.0000 N   0  0  0  0  0  0  0  0  0  0  0  0
   11.8707   -2.1621    0.0000 C   0  0  0  0  0  0  0  0  0  0  0  0
    9.3069    0.3173    0.0000 C   0  0  0  0  0  0  0  0  0  0  0  0
   10.0213   -0.9281    0.0000 C   0  0  0  0  0  0  0  0  0  0  0  0
   13.6030   -0.4913    0.0000 C   0  0  0  0  0  0  0  0  0  0  0  0
   13.3322    0.6447    0.0000 C   0  0  0  0  0  0  0  0  0  0  0  0
   12.4613   -0.7927    0.0000 C   0  0  0  0  0  0  0  0  0  0  0  0
    8.5867   -0.0851    0.0000 C   0  0  0  0  0  0  0  0  0  0  0  0
    9.3069   -1.3305    0.0000 C   0  0  0  0  0  0  0  0  0  0  0  0
    8.5867   -0.9281    0.0000 C   0  0  0  0  0  0  0  0  0  0  0  0
    7.8453   -1.3305    0.0000 Cl  0  0  0  0  0  0  0  0  0  0  0  0
  1  2  1  0  0  0  0 
  1  3  1  0  0  0  0 
  1  4  1  0  0  0  0 
  2  5  1  0  0  0  0 
  2  6  1  0  0  0  0 
  3  7  1  0  0  0  0 
  4  8  1  0  0  0  0 
  4  9  1  0  0  0  0 
  5 10  2  0  0  0  0 
  6 11  2  0  0  0  0 
  7 12  1  0  0  0  0 
  7 13  2  0  0  0  0 
  8 14  1  0  0  0  0 
  8 15  1  0  0  0  0 
  8 16  1  0  0  0  0 
 12 17  2  0  0  0  0 
 13 18  1  0  0  0  0 
 17 19  1  0  0  0  0 
 19 20  1  0  0  0  0 
 10 11  1  0  0  0  0 
 18 19  2  0  0  0  0 
M  END