
  SciTegic05281310212D

 52 53  0  0  0  0            999 V2000
    4.3267   -0.8162    0.0000 C   0  0  2  0  0  0
    8.4743   -0.6163    0.0000 C   0  0  2  0  0  0
    5.2762   -0.6039    0.0000 C   0  0  1  0  0  0
    9.4238   -0.4040    0.0000 C   0  0  1  0  0  0
    4.0144   -0.0542    0.0000 C   0  0  2  0  0  0
    5.8758   -0.9120    0.0000 C   0  0  1  0  0  0
    7.8997   -2.0988    0.0000 S   0  0
    3.7895   -2.4653    0.0000 S   0  0
    6.0507   -1.9406    0.0000 S   0  0
    9.9610   -2.2279    0.0000 S   0  0
    2.9150   -1.2868    0.0000 S   0  0
    8.1578    0.1457    0.0000 C   0  0  1  0  0  0
   10.1983    1.5366    0.0000 S   0  0
    3.1649    1.1951    0.0000 S   0  0
    4.6598   -0.3540    0.0000 C   0  0  1  0  0  0
    5.5635   -0.1374    0.0000 O   0  0
    8.7992   -0.1541    0.0000 C   0  0  1  0  0  0
    6.6712   -0.6913    0.0000 O   0  0
   10.0110   -0.7121    0.0000 C   0  0  1  0  0  0
    9.7069    0.0625    0.0000 O   0  0
    4.0644   -1.6907    0.0000 O   0  0
    8.1745   -1.3242    0.0000 O   0  0
    5.3511   -1.5033    0.0000 O   0  0
    9.4863   -1.5533    0.0000 O   0  0
    3.4272   -0.6371    0.0000 O   0  0
    4.6515    0.4705    0.0000 C   0  0
    8.7992    0.6704    0.0000 C   0  0
    9.5070    1.0952    0.0000 O   0  0
    3.9352    0.8828    0.0000 O   0  0
    7.6248   -2.8775    0.0000 O   0  0
    3.5147   -3.2481    0.0000 O   0  0
    6.7461   -2.3861    0.0000 O   0  0
   10.4357   -2.9025    0.0000 O   0  0
    2.4111   -1.9364    0.0000 O   0  0
   10.8688    2.0321    0.0000 O   0  0
    2.3778    1.4450    0.0000 O   0  0
    5.6010   -2.6402    0.0000 O   0  0
    6.4880   -1.2493    0.0000 O   0  0
    2.2654   -0.7746    0.0000 O   0  0
    3.5647   -1.7865    0.0000 O   0  0
    8.6742   -2.3653    0.0000 O   0  0
   10.6356   -1.7532    0.0000 O   0  0
    9.2864   -2.7109    0.0000 O   0  0
    3.0108   -2.1904    0.0000 O   0  0
    4.5641   -2.7401    0.0000 O   0  0
    7.1126   -1.8240    0.0000 O   0  0
   10.6939    0.8703    0.0000 O   0  0
    3.4272    1.9739    0.0000 O   0  0
    2.9108    0.3998    0.0000 O   0  0
    9.7069    2.2070    0.0000 O   0  0
   10.5731   -1.3159    0.0000 O   0  0
   11.3810   -1.1410    0.0000 C   0  0
  2 12  1  0
  3  1  1  0
  4  2  1  0
  5  1  1  0
  6  3  1  0
  7 22  1  0
  8 21  1  0
  9 23  1  0
 10 24  1  0
 11 25  1  0
 12 18  1  6
 13 28  1  0
 14 29  1  0
 15  5  1  0
 16 15  1  0
 17 12  1  0
  6 18  1  1
 19 20  1  0
 20 17  1  0
  1 21  1  1
  2 22  1  1
  3 23  1  6
  4 24  1  6
  5 25  1  1
 15 26  1  1
 17 27  1  1
 28 27  1  0
 29 26  1  0
 30  7  1  0
 31  8  1  0
 32  9  1  0
 33 10  1  0
 34 11  1  0
 35 13  1  0
 36 14  1  0
 37  9  2  0
 38  9  2  0
 39 11  2  0
 40 11  2  0
 41  7  2  0
 42 10  2  0
 43 10  2  0
 44  8  2  0
 45  8  2  0
 46  7  2  0
 47 13  2  0
 48 14  2  0
 49 14  2  0
 50 13  2  0
 19 51  1  1
 52 51  1  0
  6 16  1  0
  4 19  1  0
M  END