
  SciTegic05061409512D

 31 34  0  0  0  0            999 V2000
   16.0590  -22.3943    0.0000 C   0  0
   15.2419  -22.3902    0.0000 C   0  0
   14.8320  -23.0920    0.0000 C   0  0
   15.2347  -23.8023    0.0000 C   0  0
   16.0519  -23.8065    0.0000 C   0  0
   16.4663  -23.1002    0.0000 N   0  0
   14.0148  -23.0867    0.0000 C   0  0  1  0  0  0
   13.6108  -22.3764    0.0000 C   0  0
   14.0247  -21.6737    0.0000 C   0  0
   13.6214  -20.9638    0.0000 C   0  0
   12.8033  -20.9581    0.0000 C   0  0
   12.3903  -21.6682    0.0000 C   0  0
   12.7960  -22.3751    0.0000 C   0  0
   17.2835  -23.1032    0.0000 C   0  0
   17.6947  -22.3970    0.0000 C   0  0
   18.5119  -22.4000    0.0000 C   0  0
   18.9231  -21.6938    0.0000 O   0  0
   19.7403  -21.6968    0.0000 C   0  0
   20.1426  -22.4046    0.0000 C   0  0
   20.9591  -22.4080    0.0000 C   0  0
   21.3711  -21.7012    0.0000 C   0  0
   20.9607  -20.9896    0.0000 C   0  0
   20.1456  -20.9898    0.0000 C   0  0
   22.1879  -21.7053    0.0000 C   0  0
   23.0051  -21.7072    0.0000 N   0  0
   13.6042  -23.7896    0.0000 C   0  0
   12.7909  -23.8698    0.0000 C   0  0
   12.6159  -24.6681    0.0000 C   0  0
   13.3210  -25.0812    0.0000 C   0  0
   13.9317  -24.5383    0.0000 C   0  0
   13.1947  -23.0836    0.0000 N   0  0
  1  2  1  0
  1  6  1  0
  2  3  1  0
  3  4  1  0
  4  5  1  0
  5  6  1  0
  3  7  1  0
  7  8  1  0
  8  9  2  0
  9 10  1  0
 10 11  2  0
 11 12  1  0
 12 13  2  0
 13  8  1  0
  6 14  1  0
 14 15  1  0
 15 16  1  0
 16 17  1  0
 17 18  1  0
 18 19  2  0
 19 20  1  0
 20 21  2  0
 21 22  1  0
 22 23  2  0
 23 18  1  0
 24 25  3  0
 21 24  1  0
 26 27  1  0
 27 28  1  0
 28 29  1  0
 29 30  1  0
 30 26  1  0
  7 26  1  0
  7 31  1  1
M  END