
  SciTegic12171313022D

 43 47  0  0  0  0            999 V2000
    7.0356   -6.3222    0.0000 O   0  0
    6.3213   -6.7337    0.0000 C   0  0  1  0  0  0
    6.3213   -7.5569    0.0000 C   0  0  2  0  0  0
    7.0356   -7.9684    0.0000 O   0  0
    5.6071   -7.9684    0.0000 C   0  0  1  0  0  0
    5.6071   -8.7916    0.0000 O   0  0
    4.8970   -7.5569    0.0000 C   0  0  2  0  0  0
    4.1827   -7.9684    0.0000 O   0  0
    4.8970   -6.7337    0.0000 C   0  0  2  0  0  0
    5.6071   -6.3222    0.0000 O   0  0
    4.1827   -6.3222    0.0000 C   0  0
    4.1827   -5.4990    0.0000 O   0  0
    9.9026   -5.4793    0.0000 O   0  0
    9.8954   -6.3035    0.0000 C   0  0  1  0  0  0
   10.6050   -6.7207    0.0000 C   0  0  2  0  0  0
   11.3218   -6.3136    0.0000 O   0  0
   10.5978   -7.5450    0.0000 C   0  0  1  0  0  0
   11.3075   -7.9622    0.0000 O   0  0
    9.8832   -7.9486    0.0000 C   0  0  2  0  0  0
    9.8760   -8.7730    0.0000 O   0  0
    9.1735   -7.5315    0.0000 C   0  0  2  0  0  0
    9.1787   -6.7108    0.0000 O   0  0
    8.4568   -7.9386    0.0000 C   0  0
    7.7472   -7.5215    0.0000 O   0  0
    8.4641   -3.8330    0.0000 O   0  3
    7.7492   -4.2487    0.0000 C   0  0
    9.1751   -4.2362    0.0000 C   0  0
    7.7492   -5.0760    0.0000 C   0  0
    8.4725   -5.4918    0.0000 C   0  0
    9.1833   -5.0718    0.0000 C   0  0
    9.8901   -3.8247    0.0000 C   0  0
    7.0341   -5.4918    0.0000 C   0  0
    7.0341   -3.8371    0.0000 C   0  0
    6.3190   -5.0760    0.0000 C   0  0
    9.8859   -2.9973    0.0000 C   0  0
   10.5927   -2.5816    0.0000 C   0  0
    6.3190   -4.2487    0.0000 C   0  0
   11.3201   -2.9932    0.0000 C   0  0
   10.6052   -4.2362    0.0000 C   0  0
   11.3201   -3.8205    0.0000 C   0  0
   10.5886   -1.7544    0.0000 O   0  0
    5.6040   -3.8371    0.0000 O   0  0
   12.0352   -2.5692    0.0000 O   0  0
  2  1  1  1
  2  3  1  0
  3  4  1  6
  3  5  1  0
  5  6  1  1
  5  7  1  0
  7  8  1  6
  7  9  1  0
  9 10  1  0
  9 11  1  1
 11 12  1  0
  2 10  1  0
 14 13  1  1
 14 15  1  0
 15 16  1  6
 15 17  1  0
 17 18  1  1
 17 19  1  0
 19 20  1  6
 19 21  1  0
 21 22  1  0
 21 23  1  1
 23 24  1  0
 14 22  1  0
 26 25  1  0
 27 25  2  0
 28 26  1  0
 29 30  2  0
 30 27  1  0
 31 27  1  0
 32 28  2  0
 33 26  2  0
 34 37  2  0
 35 31  1  0
 36 35  2  0
 37 33  1  0
 38 40  2  0
 39 31  2  0
 40 39  1  0
 13 30  1  0
  1 32  1  0
 41 36  1  0
 42 37  1  0
 43 38  1  0
 29 28  1  0
 34 32  1  0
 38 36  1  0
M  CHG  1  25   1
M  END