
          11280715502D 1   1.00000     0.00000     0

 47 51  0     1  0            999 V2000
    2.7274   -3.5272    0.0000 N   0  0  3  0  0  0           0  0  0
    2.7260   -4.3496    0.0000 C   0  0  0  0  0  0           0  0  0
    3.4370   -4.7609    0.0000 C   0  0  0  0  0  0           0  0  0
    4.1532   -4.3508    0.0000 O   0  0  0  0  0  0           0  0  0
    4.1540   -3.5249    0.0000 C   0  0  0  0  0  0           0  0  0
    3.4384   -3.1090    0.0000 C   0  0  0  0  0  0           0  0  0
    3.3958    0.2208    0.0000 C   0  0  0  0  0  0           0  0  0
    4.1007    0.6496    0.0000 C   0  0  0  0  0  0           0  0  0
    3.4148   -0.6039    0.0000 N   0  0  0  0  0  0           0  0  0
    2.7099   -1.0327    0.0000 O   0  0  0  0  0  0           0  0  0
    2.7289   -1.8575    0.0000 C   0  0  0  0  0  0           0  0  0
    2.0241   -2.2863    0.0000 C   0  0  0  0  0  0           0  0  0
   -3.0264    1.4417    0.0000 C   0  0  0  0  0  0           0  0  0
   -3.0276    0.6143    0.0000 C   0  0  0  0  0  0           0  0  0
   -2.3128    0.2015    0.0000 C   0  0  0  0  0  0           0  0  0
   -1.5963    0.6148    0.0000 C   0  0  0  0  0  0           0  0  0
   -1.5992    1.4453    0.0000 C   0  0  0  0  0  0           0  0  0
   -2.3146    1.8545    0.0000 C   0  0  0  0  0  0           0  0  0
   -0.8863    1.8605    0.0000 C   0  0  0  0  0  0           0  0  0
   -0.1703    1.4507    0.0000 N   0  0  3  0  0  0           0  0  0
   -0.8894    2.6855    0.0000 O   0  0  0  0  0  0           0  0  0
   -0.1698    0.6240    0.0000 C   0  0  1  0  0  0           0  0  0
    0.5422    0.2142    0.0000 C   0  0  0  0  0  0           0  0  0
    1.2575    0.6259    0.0000 N   0  0  3  0  0  0           0  0  0
    1.2564    1.4519    0.0000 C   0  0  0  0  0  0           0  0  0
    0.5399    1.8662    0.0000 C   0  0  0  0  0  0           0  0  0
   -0.8838    0.2108    0.0000 C   0  0  0  0  0  0           0  0  0
   -0.8917   -0.6125    0.0000 C   0  0  0  0  0  0           0  0  0
   -1.5596   -1.0937    0.0000 C   0  0  0  0  0  0           0  0  0
   -1.3127   -1.8792    0.0000 N   0  0  0  0  0  0           0  0  0
   -0.2276   -1.1064    0.0000 C   0  0  0  0  0  0           0  0  0
   -0.4896   -1.8855    0.0000 C   0  0  0  0  0  0           0  0  0
    0.0536   -2.4999    0.0000 C   0  0  0  0  0  0           0  0  0
    0.8589   -2.3364    0.0000 C   0  0  0  0  0  0           0  0  0
    1.1181   -1.5531    0.0000 C   0  0  0  0  0  0           0  0  0
    0.5732   -0.9421    0.0000 C   0  0  0  0  0  0           0  0  0
   -2.3208   -0.6208    0.0000 C   0  0  3  0  0  0           0  0  0
   -1.4958   -0.6208    0.0000 F   0  0  0  0  0  0           0  0  0
   -2.3250   -1.4458    0.0000 F   0  0  0  0  0  0           0  0  0
   -3.1458   -0.6167    0.0000 F   0  0  0  0  0  0           0  0  0
   -3.7410    1.8540    0.0000 C   0  0  3  0  0  0           0  0  0
   -4.1583    1.1417    0.0000 F   0  0  0  0  0  0           0  0  0
   -3.3333    2.5708    0.0000 F   0  0  0  0  0  0           0  0  0
   -4.4583    2.2667    0.0000 F   0  0  0  0  0  0           0  0  0
    1.9720    0.2134    0.0000 C   0  0  0  0  0  0           0  0  0
    2.6833    0.6333    0.0000 C   0  0  0  0  0  0           0  0  0
    2.0167   -3.1083    0.0000 C   0  0  0  0  0  0           0  0  0
  1  2  1  0     0  0
 20 26  1  0     0  0
 22 23  1  0     0  0
 23 24  1  0     0  0
 24 25  1  0     0  0
 25 26  1  0     0  0
 13 14  2  0     0  0
 22 27  1  1     0  0
 27 28  1  0     0  0
 28 29  2  0     0  0
 14 15  1  0     0  0
  7  8  1  0     0  0
 29 30  1  0     0  0
 30 32  1  0     0  0
 31 28  1  0     0  0
 15 16  2  0     0  0
  1  6  1  0     0  0
 31 32  2  0     0  0
 16 17  1  0     0  0
 32 33  1  0     0  0
  7  9  2  0     0  0
 33 34  2  0     0  0
 17 18  2  0     0  0
 34 35  1  0     0  0
 18 13  1  0     0  0
 35 36  2  0     0  0
 36 31  1  0     0  0
  2  3  1  0     0  0
 15 37  1  0     0  0
 17 19  1  0     0  0
 37 38  1  0     0  0
  9 10  1  0     0  0
 37 39  1  0     0  0
 19 20  1  0     0  0
 37 40  1  0     0  0
  3  4  1  0     0  0
 13 41  1  0     0  0
 19 21  2  0     0  0
 41 42  1  0     0  0
 20 22  1  0     0  0
 41 43  1  0     0  0
 10 11  1  0     0  0
 41 44  1  0     0  0
  4  5  1  0     0  0
 24 45  1  0     0  0
 11 12  1  0     0  0
 45 46  1  0     0  0
 46  7  1  0     0  0
  5  6  1  0     0  0
 12 47  1  0     0  0
 47  1  1  0     0  0
M  END