
          11280715142D 1   1.00000     0.00000     0

 20 23  0     0  0            999 V2000
    5.8667   -6.6667    0.0000 N   0  0  3  0  0  0           0  0  0
    6.5875   -7.0792    0.0000 C   0  0  0  0  0  0           0  0  0
    7.2000   -6.5292    0.0000 N   0  0  0  0  0  0           0  0  0
    6.5875   -7.9167    0.0000 C   0  0  0  0  0  0           0  0  0
    6.0417   -5.8625    0.0000 C   0  0  0  0  0  0           0  0  0
    6.8667   -5.7750    0.0000 C   0  0  0  0  0  0           0  0  0
    5.8667   -8.3292    0.0000 N   0  0  0  0  0  0           0  0  0
    5.1542   -7.0875    0.0000 C   0  0  0  0  0  0           0  0  0
    5.1542   -7.9125    0.0000 C   0  0  0  0  0  0           0  0  0
    7.3000   -8.3292    0.0000 O   0  0  0  0  0  0           0  0  0
    7.2792   -5.0625    0.0000 C   0  0  0  0  0  0           0  0  0
    4.4417   -6.6750    0.0000 C   0  0  0  0  0  0           0  0  0
    4.4417   -8.3292    0.0000 C   0  0  0  0  0  0           0  0  0
    8.1042   -5.0667    0.0000 C   0  0  0  0  0  0           0  0  0
    6.8667   -4.3542    0.0000 C   0  0  0  0  0  0           0  0  0
    3.7292   -7.0917    0.0000 C   0  0  0  0  0  0           0  0  0
    3.7292   -7.9167    0.0000 C   0  0  0  0  0  0           0  0  0
    7.2750   -3.6375    0.0000 C   0  0  0  0  0  0           0  0  0
    8.5167   -4.3500    0.0000 C   0  0  0  0  0  0           0  0  0
    8.1042   -3.6375    0.0000 C   0  0  0  0  0  0           0  0  0
  2  1  1  0     0  0
  3  2  2  0     0  0
  4  2  1  0     0  0
  5  1  1  0     0  0
  6  5  2  0     0  0
  7  9  1  0     0  0
  8  1  1  0     0  0
  9  8  2  0     0  0
 10  4  1  0     0  0
 11  6  1  0     0  0
 12  8  1  0     0  0
 13  9  1  0     0  0
 14 11  2  0     0  0
 15 11  1  0     0  0
 16 12  2  0     0  0
 17 16  1  0     0  0
 18 15  2  0     0  0
 19 14  1  0     0  0
 20 18  1  0     0  0
  6  3  1  0     0  0
  7  4  2  0     0  0
 13 17  2  0     0  0
 20 19  2  0     0  0
M  END