
  CDK    9/16/09,10:4

 17 17  0  0  0  0  0  0  0  0999 V2000
   13.7833  -19.0500    0.0000 C   0  0  0  0  0  0  0  0  0  0  0  0
   14.4978  -18.6375    0.0000 C   0  0  0  0  0  0  0  0  0  0  0  0
   15.2123  -19.0500    0.0000 C   0  0  0  0  0  0  0  0  0  0  0  0
   15.9267  -18.6375    0.0000 C   0  0  0  0  0  0  0  0  0  0  0  0
   16.6412  -19.0500    0.0000 N   0  0  0  0  0  0  0  0  0  0  0  0
   17.3557  -18.6375    0.0000 C   0  0  0  0  0  0  0  0  0  0  0  0
   18.0702  -19.0500    0.0000 N   0  0  0  0  0  0  0  0  0  0  0  0
   17.3557  -17.8125    0.0000 N   0  0  0  0  0  0  0  0  0  0  0  0
   18.7846  -18.6375    0.0000 C   0  0  0  0  0  0  0  0  0  0  0  0
   19.4991  -19.0500    0.0000 C   0  0  0  0  0  0  0  0  0  0  0  0
   18.7846  -17.8125    0.0000 O   0  0  0  0  0  0  0  0  0  0  0  0
   12.9966  -18.8019    0.0000 N   0  0  0  0  0  0  0  0  0  0  0  0
   12.5175  -19.4736    0.0000 C   0  0  0  0  0  0  0  0  0  0  0  0
   13.0082  -20.1368    0.0000 N   0  0  0  0  0  0  0  0  0  0  0  0
   13.7905  -19.8749    0.0000 C   0  0  0  0  0  0  0  0  0  0  0  0
   19.4991  -19.8750    0.0000 C   0  0  0  0  0  0  0  0  0  0  0  0
   20.2136  -18.6375    0.0000 C   0  0  0  0  0  0  0  0  0  0  0  0
  7  9  1  0  0  0  0 
  4  5  1  0  0  0  0 
  9 10  1  0  0  0  0 
  2  3  1  0  0  0  0 
  9 11  2  0  0  0  0 
  1 12  1  0  0  0  0 
  5  6  1  0  0  0  0 
  1  2  1  0  0  0  0 
  6  7  2  0  0  0  0 
  3  4  1  0  0  0  0 
 12 13  2  0  0  0  0 
 13 14  1  0  0  0  0 
 14 15  1  0  0  0  0 
 15  1  2  0  0  0  0 
  6  8  1  0  0  0  0 
 10 16  1  0  0  0  0 
 10 17  1  0  0  0  0 
M  END