
  SciTegic02271514512D

 40 44  0  0  0  0            999 V2000
    9.6667  -13.6638    0.0000 C   0  0
    8.5920  -14.4663    0.0000 C   0  0
    9.1117  -14.0379    0.0000 C   0  0
   10.0881  -14.0379    0.0000 C   0  0
   10.2266  -13.2213    0.0000 N   0  0
    8.7333  -13.6457    0.0000 C   0  0
   10.6111  -14.7511    0.0000 C   0  0
    9.9850  -14.3737    0.0000 C   0  0
   10.9357  -11.9937    0.0000 C   0  0
   10.9346  -12.8132    0.0000 C   0  0
   11.6426  -13.2222    0.0000 C   0  0
   12.3523  -12.8128    0.0000 C   0  0
   12.3495  -11.9901    0.0000 C   0  0
   11.6408  -11.5848    0.0000 C   0  0
   13.0556  -11.5788    0.0000 C   0  0
   13.7649  -11.9848    0.0000 N   0  0
   13.0526  -10.7616    0.0000 O   0  0
   14.4710  -11.5735    0.0000 C   0  0
   15.1803  -11.9794    0.0000 C   0  0
   15.1803  -12.7955    0.0000 C   0  0
   15.8887  -13.2013    0.0000 C   0  0
   16.5958  -12.7900    0.0000 C   0  0
   16.5901  -11.9686    0.0000 C   0  0
   15.8811  -11.5665    0.0000 C   0  0
   17.2948  -11.5549    0.0000 C   0  0
   18.0055  -11.9583    0.0000 C   0  0  2  0  0  0
   18.7102  -11.5445    0.0000 C   0  0
   14.4732  -13.2053    0.0000 O   0  0
   14.4746  -14.0224    0.0000 C   0  0
   13.7676  -14.4322    0.0000 C   0  0
   13.7689  -15.2494    0.0000 C   0  0
   19.4214  -11.9475    0.0000 O   0  0
   18.7048  -10.7269    0.0000 O   0  0
   18.0114  -12.7755    0.0000 C   0  0
   18.7221  -13.1789    0.0000 C   0  0
   18.7243  -13.9965    0.0000 C   0  0
   19.4342  -14.3999    0.0000 C   0  0
   20.1398  -13.9860    0.0000 C   0  0
   20.1312  -13.1647    0.0000 C   0  0
   19.4208  -12.7650    0.0000 C   0  0
  2  3  1  0
  3  4  1  0
  4  5  1  0
  5  1  1  0
  1  6  1  0
  6  2  1  0
  4  7  1  0
  1  8  1  0
  7  8  1  0
  9 10  2  0
 10 11  1  0
 11 12  2  0
 12 13  1  0
 13 14  2  0
 14  9  1  0
 13 15  1  0
 15 16  1  0
 15 17  2  0
 16 18  1  0
 18 19  1  0
 19 20  2  0
 20 21  1  0
 21 22  2  0
 22 23  1  0
 23 24  2  0
 24 19  1  0
 23 25  1  0
 25 26  1  0
 26 27  1  0
 20 28  1  0
 28 29  1  0
 29 30  1  0
 30 31  1  0
 27 32  1  0
 27 33  2  0
 26 34  1  6
 34 35  1  0
 35 36  2  0
 36 37  1  0
 37 38  2  0
 38 39  1  0
 39 40  2  0
 40 35  1  0
 10  5  1  0
M  END