
  SciTegic12121614122D

 30 33  0  0  0  0            999 V2000
   -2.6111    0.7486    0.0000 C   0  0
   -2.6111   -0.7486    0.0000 C   0  0
   -1.2964   -1.4973    0.0000 N   0  0
   -1.2964    1.4973    0.0000 C   0  0
    0.0000    0.7486    0.0000 C   0  0
    0.0000   -0.7486    0.0000 C   0  0
    1.2964   -1.4973    0.0000 C   0  0
    2.5929   -0.7486    0.0000 C   0  0
    2.5929    0.7486    0.0000 C   0  0
    1.2964    1.4973    0.0000 C   0  0
   -1.2907   -2.9981    0.0000 C   0  0
   -2.5870   -3.7544    0.0000 C   0  0
   -2.5812   -5.2552    0.0000 C   0  0
   -3.8775   -6.0115    0.0000 N   0  0
   -3.8717   -7.5123    0.0000 C   0  0
   -5.1681   -8.2686    0.0000 C   0  0
   -2.8300   -8.1079    0.0000 O   0  0
   -7.7500   -9.7861    0.0000 C   0  0
   -7.7703   -8.2733    0.0000 C   0  0
   -6.4792   -7.5150    0.0000 C   0  0
   -6.4479  -10.5248    0.0000 C   0  0
   -5.1569   -9.7665    0.0000 C   0  0
   -3.8548  -10.5053    0.0000 N   0  0
   -3.8437  -12.0023    0.0000 C   0  0  1  0  0  0
   -5.1348  -12.7606    0.0000 C   0  0
   -6.4369  -12.0218    0.0000 N   0  0
   -2.8001  -12.5946    0.0000 C   0  0
   -5.1258  -13.9605    0.0000 O   0  0
    3.8942   -1.4964    0.0000 O   0  0
    4.9326   -0.8949    0.0000 C   0  0
  1  2  1  0
  1  4  1  0
  2  3  1  0
  3  6  1  0
  5  4  1  0
  5  6  2  0
  6  7  1  0
  7  8  2  0
  8  9  1  0
  9 10  2  0
 10  5  1  0
  3 11  1  0
 11 12  1  0
 12 13  1  0
 13 14  1  0
 14 15  1  0
 15 16  1  0
 15 17  2  0
 16 22  2  0
 21 18  2  0
 18 19  1  0
 19 20  2  0
 20 16  1  0
 21 22  1  0
 21 26  1  0
 22 23  1  0
 23 24  1  0
 24 25  1  0
 25 26  1  0
 24 27  1  6
 25 28  2  0
  8 29  1  0
 29 30  1  0
M  END