
          11280715492D 1   1.00000     0.00000     0

 26 29  0     1  0            999 V2000
    1.3213   -9.3918    0.0000 C   0  0  0  0  0  0           0  0  0
    0.5257   -9.2673    0.0000 N   0  0  3  0  0  0           0  0  0
    0.9755   -8.7164    0.0000 C   0  0  0  0  0  0           0  0  0
   -0.1671   -9.8299    0.0000 C   0  0  0  0  0  0           0  0  0
    0.3802   -8.2547    0.0000 C   0  0  0  0  0  0           0  0  0
    0.1921   -8.6019    0.0000 C   0  0  3  0  0  0           0  0  0
   -0.4681   -9.1488    0.0000 C   0  0  2  0  0  0           0  0  0
   -0.0106   -7.7503    0.0000 C   0  0  0  0  0  0           0  0  0
   -0.8982   -8.4405    0.0000 O   0  0  0  0  0  0           0  0  0
   -1.7212   -8.4587    0.0000 C   0  0  0  0  0  0           0  0  0
   -1.1822   -9.5714    0.0000 C   0  0  0  0  0  0           0  0  0
   -1.8922   -9.9934    0.0000 C   0  0  0  0  0  0           0  0  0
   -2.6022  -10.4155    0.0000 C   0  0  2  0  0  0           0  0  0
   -3.3123  -10.8375    0.0000 C   0  0  0  0  0  0           0  0  0
   -2.1816  -11.1231    0.0000 C   0  0  0  0  0  0           0  0  0
   -3.0228   -9.7078    0.0000 O   0  0  0  0  0  0           0  0  0
   -4.0344  -10.4343    0.0000 C   0  0  0  0  0  0           0  0  0
   -4.7404  -10.8547    0.0000 C   0  0  0  0  0  0           0  0  0
   -4.7305  -11.6815    0.0000 C   0  0  0  0  0  0           0  0  0
   -4.0077  -12.0859    0.0000 C   0  0  0  0  0  0           0  0  0
   -3.3018  -11.6624    0.0000 C   0  0  0  0  0  0           0  0  0
   -2.1677  -12.5482    0.0000 N   0  0  0  0  0  0           0  0  0
   -1.3435  -12.5370    0.0000 C   0  0  0  0  0  0           0  0  0
   -0.9435  -11.8216    0.0000 C   0  0  0  0  0  0           0  0  0
   -1.3630  -11.1128    0.0000 C   0  0  0  0  0  0           0  0  0
   -2.5917  -11.8441    0.0000 C   0  0  0  0  0  0           0  0  0
  2  5  1  0     0  0
 12 13  1  0     0  0
  3  6  1  0     0  0
 13 14  1  0     0  0
  4  7  1  0     0  0
 13 15  1  6     0  0
  5  8  1  0     0  0
 13 16  1  0     0  0
  6  7  1  0     0  0
 14 17  2  0     0  0
  6  8  1  0     0  0
 17 18  1  0     0  0
 18 19  2  0     0  0
  7  9  1  1     0  0
 19 20  1  0     0  0
  1  2  1  0     0  0
 20 21  2  0     0  0
 21 14  1  0     0  0
  9 10  1  0     0  0
  1  3  1  0     0  0
  7 11  1  0     0  0
  2  4  1  0     0  0
 11 12  3  0     0  0
 22 26  2  0     0  0
 22 23  1  0     0  0
 23 24  2  0     0  0
 24 25  1  0     0  0
 25 15  2  0     0  0
 15 26  1  0     0  0
M  END