
          11280715352D 1   1.00000     0.00000     0

 17 17  0     0  0            999 V2000
   -2.6875    0.5000    0.0000 C   0  0  0  0  0  0           0  0  0
   -2.0458    0.4875    0.0000 C   0  0  0  0  0  0           0  0  0
   -3.2125    0.2083    0.0000 S   0  0  0  0  0  0           0  0  0
   -1.5250    0.1875    0.0000 O   0  0  0  0  0  0           0  0  0
   -2.6833    1.1000    0.0000 C   0  0  0  0  0  0           0  0  0
   -3.7333    0.5083    0.0000 C   0  0  0  0  0  0           0  0  0
    0.5542    0.1875    0.0000 N   0  0  0  0  0  0           0  0  0
   -2.0458    1.0875    0.0000 O   0  0  0  0  0  0           0  0  0
   -3.7250    1.1083    0.0000 C   0  0  0  0  0  0           0  0  0
    1.0667    0.4875    0.0000 C   0  0  3  0  0  0           0  0  0
   -0.4875    0.1875    0.0000 C   0  0  3  0  0  0           0  0  0
   -1.0083    0.4875    0.0000 C   0  0  0  0  0  0           0  0  0
    0.0292    0.4875    0.0000 C   0  0  0  0  0  0           0  0  0
   -0.4875   -0.4125    0.0000 O   0  0  0  0  0  0           0  0  0
    1.0667    1.0875    0.0000 C   0  0  0  0  0  0           0  0  0
    1.5917    0.1875    0.0000 C   0  0  0  0  0  0           0  0  0
    1.5875    0.7958    0.0000 C   0  0  0  0  0  0           0  0  0
  2  1  1  0     0  0
  3  1  1  0     0  0
  4  2  1  0     0  0
  5  1  2  0     0  0
  6  3  1  0     0  0
  7 13  1  0     0  0
  8  2  2  0     0  0
  9  5  1  0     0  0
 10  7  1  0     0  0
 11 12  1  0     0  0
 12  4  1  0     0  0
 13 11  1  0     0  0
 14 11  1  0     0  0
 15 10  1  0     0  0
 16 10  1  0     0  0
 17 10  1  0     0  0
  9  6  2  0     0  0
M  END