
          11280714552D 1   1.00000     0.00000     0

 37 41  0     0  0            999 V2000
   -0.7500  -14.1625    0.0000 N   0  0  3  0  0  0           0  0  0
    0.0500  -13.9375    0.0000 C   0  0  0  0  0  0           0  0  0
   -0.7000  -12.8125    0.0000 N   0  0  0  0  0  0           0  0  0
    0.0792  -13.1042    0.0000 C   0  0  0  0  0  0           0  0  0
   -1.2208  -13.4667    0.0000 C   0  0  0  0  0  0           0  0  0
    0.6667  -14.4750    0.0000 C   0  0  0  0  0  0           0  0  0
   -0.7833  -18.7667    0.0000 C   0  0  0  0  0  0           0  0  0
   -2.0583  -18.3667    0.0000 N   0  0  0  0  0  0           0  0  0
   -1.2750  -18.1042    0.0000 N   0  0  0  0  0  0           0  0  0
   -2.0500  -19.1917    0.0000 N   0  0  0  0  0  0           0  0  0
   -1.2625  -19.4375    0.0000 N   0  0  0  0  0  0           0  0  0
    0.0417  -18.7542    0.0000 C   0  0  0  0  0  0           0  0  0
    0.4542  -15.2667    0.0000 C   0  0  0  0  0  0           0  0  0
    0.4500  -18.0417    0.0000 C   0  0  0  0  0  0           0  0  0
   -1.2250  -15.2000    0.0000 C   0  0  0  0  0  0           0  0  0
    1.0292  -15.8542    0.0000 C   0  0  0  0  0  0           0  0  0
    0.0292  -17.3292    0.0000 C   0  0  0  0  0  0           0  0  0
    0.8125  -16.6542    0.0000 O   0  0  0  0  0  0           0  0  0
   -0.7958  -17.3375    0.0000 C   0  0  0  0  0  0           0  0  0
    0.4375  -16.6042    0.0000 C   0  0  0  0  0  0           0  0  0
   -0.8083  -15.9125    0.0000 C   0  0  0  0  0  0           0  0  0
    0.7542  -12.6292    0.0000 C   0  0  0  0  0  0           0  0  0
   -2.0375  -13.4375    0.0000 C   0  0  0  0  0  0           0  0  0
    1.4792  -14.3292    0.0000 C   0  0  0  0  0  0           0  0  0
    1.8292  -15.6500    0.0000 O   0  0  0  0  0  0           0  0  0
   -1.2125  -16.6292    0.0000 C   0  0  0  0  0  0           0  0  0
    0.0167  -15.9000    0.0000 C   0  0  0  0  0  0           0  0  0
    0.4625  -19.4667    0.0000 C   0  0  0  0  0  0           0  0  0
    1.2667  -18.0292    0.0000 C   0  0  0  0  0  0           0  0  0
   -2.4250  -12.7042    0.0000 C   0  0  0  0  0  0           0  0  0
    1.5500  -12.8500    0.0000 C   0  0  0  0  0  0           0  0  0
    1.8750  -13.6000    0.0000 C   0  0  0  0  0  0           0  0  0
   -3.6333  -11.9417    0.0000 C   0  0  0  0  0  0           0  0  0
   -3.2458  -12.6750    0.0000 C   0  0  0  0  0  0           0  0  0
    1.2917  -19.4542    0.0000 C   0  0  0  0  0  0           0  0  0
    1.6917  -18.7375    0.0000 C   0  0  0  0  0  0           0  0  0
   -4.4583  -11.9125    0.0000 C   0  0  0  0  0  0           0  0  0
  2  1  1  0     0  0
  3  5  2  0     0  0
  4  2  2  0     0  0
  5  1  1  0     0  0
  6  2  1  0     0  0
  7 12  1  0     0  0
  8  9  2  0     0  0
  9  7  1  0     0  0
 10 11  1  0     0  0
 11  7  2  0     0  0
 12 14  2  0     0  0
 13  6  2  0     0  0
 14 17  1  0     0  0
 15  1  1  0     0  0
 16 13  1  0     0  0
 17 20  2  0     0  0
 18 16  2  0     0  0
 19 26  2  0     0  0
 20 27  1  0     0  0
 21 15  1  0     0  0
 22  4  1  0     0  0
 23  5  1  0     0  0
 24  6  1  0     0  0
 25 16  1  0     0  0
 26 21  1  0     0  0
 27 21  2  0     0  0
 28 12  1  0     0  0
 29 14  1  0     0  0
 30 23  1  0     0  0
 31 22  1  0     0  0
 32 24  1  0     0  0
 33 34  1  0     0  0
 34 30  1  0     0  0
 35 36  1  0     0  0
 36 29  2  0     0  0
 37 33  1  0     0  0
  4  3  1  0     0  0
 19 17  1  0     0  0
 31 32  1  0     0  0
 28 35  2  0     0  0
  8 10  1  0     0  0
M  END