
  SciTegic04021211102D

 37 41  0  0  0  0            999 V2000
    2.6652  -22.7708    0.0000 C   0  0
    2.6641  -23.5982    0.0000 C   0  0
    3.3789  -24.0110    0.0000 C   0  0
    4.0953  -23.5977    0.0000 C   0  0
    4.0925  -22.7672    0.0000 C   0  0
    3.3771  -22.3580    0.0000 C   0  0
    3.3746  -21.5330    0.0000 N   0  0
    4.0410  -21.0474    0.0000 C   0  0
    3.7838  -20.2619    0.0000 C   0  0
    2.9573  -20.2660    0.0000 C   0  0
    2.7073  -21.0528    0.0000 N   0  0
    2.5380  -19.5555    0.0000 C   0  0
    4.7567  -21.4577    0.0000 N   0  0
    5.4699  -21.0429    0.0000 C   0  0
    6.1856  -21.4532    0.0000 N   0  0
    5.4673  -20.2179    0.0000 O   0  0
    6.8908  -20.2152    0.0000 N   0  0
    6.8988  -21.0385    0.0000 C   0  0
    7.6843  -21.2853    0.0000 S   0  0
    8.1618  -20.6144    0.0000 C   0  0
    7.6722  -19.9529    0.0000 C   0  0
    7.6760  -19.1279    0.0000 C   0  0
    8.3923  -18.7187    0.0000 C   0  0
    8.3961  -17.8937    0.0000 O   0  0
    9.1125  -17.4845    0.0000 C   0  0
    9.8250  -17.9003    0.0000 C   0  0
    9.8176  -18.7235    0.0000 C   0  0
   10.5293  -19.1392    0.0000 C   0  0
   11.2467  -18.7300    0.0000 C   0  0
   11.2478  -17.9007    0.0000 C   0  0
   10.5355  -17.4887    0.0000 C   0  0
    2.5286  -18.7311    0.0000 C   0  0
    1.8181  -19.1504    0.0000 C   0  0
    1.9493  -24.0101    0.0000 C   0  0
    1.9486  -24.8351    0.0000 C   0  0
    1.2338  -25.2470    0.0000 O   0  0
    2.6628  -25.2482    0.0000 O   0  0
  4  5  1  0
  2  3  1  0
  7  8  1  0
 18 19  1  0
 19 20  1  0
 20 21  2  0
 21 17  1  0
  9 10  1  0
 21 22  1  0
 10 11  2  0
 22 23  1  0
 11  7  1  0
 23 24  1  0
  5  6  2  0
 24 25  1  0
 10 12  1  0
 25 26  1  0
  6  1  1  0
 26 27  2  0
  8 13  1  0
 27 28  1  0
  1  2  2  0
 28 29  2  0
 13 14  1  0
 29 30  1  0
  6  7  1  0
 30 31  2  0
 31 26  1  0
 32 12  1  0
 33 32  1  0
 12 33  1  0
 14 15  1  0
  8  9  2  0
 14 16  2  0
  2 34  1  0
 15 18  1  0
 34 35  1  0
 17 18  2  0
 35 36  2  0
  3  4  2  0
 35 37  1  0
M  END