
          05080814042D 1   1.00000     0.00000     0

 38 42  0     1  0            999 V2000
   -5.1140   -2.7538    0.0000 C   0  0  0  0  0  0           0  0  0
   -5.1151   -3.5799    0.0000 C   0  0  0  0  0  0           0  0  0
   -4.4014   -3.9920    0.0000 C   0  0  0  0  0  0           0  0  0
   -4.4032   -2.3417    0.0000 C   0  0  0  0  0  0           0  0  0
   -3.6890   -2.7502    0.0000 C   0  0  0  0  0  0           0  0  0
   -3.6856   -3.5819    0.0000 C   0  0  0  0  0  0           0  0  0
   -2.9676   -3.9925    0.0000 C   0  0  0  0  0  0           0  0  0
   -2.9745   -2.3291    0.0000 C   0  0  0  0  0  0           0  0  0
   -2.2518   -2.7443    0.0000 C   0  0  2  0  0  0           0  0  0
   -2.2507   -3.5777    0.0000 C   0  0  2  0  0  0           0  0  0
   -1.5324   -3.9911    0.0000 N   0  0  3  0  0  0           0  0  0
   -0.8107   -3.5759    0.0000 C   0  0  0  0  0  0           0  0  0
   -0.8117   -2.7424    0.0000 C   0  0  1  0  0  0           0  0  0
   -1.5346   -2.3244    0.0000 C   0  0  0  0  0  0           0  0  0
   -1.5325   -4.8148    0.0000 C   0  0  0  0  0  0           0  0  0
   -0.0985   -2.3304    0.0000 C   0  0  0  0  0  0           0  0  0
    0.6149   -2.7420    0.0000 N   0  0  3  0  0  0           0  0  0
   -0.0987   -1.5067    0.0000 O   0  0  0  0  0  0           0  0  0
    0.6094   -3.5705    0.0000 C   0  0  0  0  0  0           0  0  0
    1.3188   -3.9820    0.0000 C   0  0  0  0  0  0           0  0  0
    2.0344   -3.5735    0.0000 N   0  0  3  0  0  0           0  0  0
    2.0361   -2.7489    0.0000 C   0  0  0  0  0  0           0  0  0
    1.3222   -2.3328    0.0000 C   0  0  0  0  0  0           0  0  0
   -2.2588   -4.4011    0.0000 H   0  0  0  0  0  0           0  0  0
   -2.2588   -1.9177    0.0000 H   0  0  0  0  0  0           0  0  0
    2.7462   -3.9878    0.0000 C   0  0  0  0  0  0           0  0  0
   -4.4059   -1.5175    0.0000 O   0  0  0  0  0  0           0  0  0
   -5.1205   -1.1079    0.0000 C   0  0  0  0  0  0           0  0  0
    2.7398   -4.8099    0.0000 C   0  0  0  0  0  0           0  0  0
    3.4509   -5.2242    0.0000 C   0  0  0  0  0  0           0  0  0
    4.1666   -4.8148    0.0000 C   0  0  0  0  0  0           0  0  0
    4.1669   -3.9868    0.0000 C   0  0  0  0  0  0           0  0  0
    3.4553   -3.5764    0.0000 C   0  0  0  0  0  0           0  0  0
    4.8843   -5.2293    0.0000 N   0  3  0  0  0  0           0  0  0
    5.5986   -4.8190    0.0000 O   0  0  0  0  0  0           0  0  0
    4.8825   -6.0529    0.0000 O   0  5  0  0  0  0           0  0  0
   -4.4029   -4.8157    0.0000 S   0  0  0  0  0  0           0  0  0
   -5.1169   -5.2263    0.0000 C   0  0  0  0  0  0           0  0  0
 16 18  2  0     0  0
 17 19  1  0     0  0
  9  8  1  0     0  0
  9 10  1  0     0  0
  5  4  2  0     0  0
  4  1  1  0     0  0
  5  6  1  0     0  0
 17 23  1  0     0  0
 19 20  1  0     0  0
 20 21  1  0     0  0
 21 22  1  0     0  0
 22 23  1  0     0  0
 10 24  1  1     0  0
  2  3  1  0     0  0
  9 25  1  6     0  0
  3  6  2  0     0  0
 21 26  1  0     0  0
  9 14  1  0     0  0
 10 11  1  0     0  0
 27 28  1  0     0  0
  4 27  1  0     0  0
 11 12  1  0     0  0
 26 29  2  0     0  0
 12 13  1  0     0  0
 29 30  1  0     0  0
 13 14  1  0     0  0
 30 31  2  0     0  0
  1  2  2  0     0  0
 31 32  1  0     0  0
 11 15  1  0     0  0
 32 33  2  0     0  0
 33 26  1  0     0  0
  5  8  1  0     0  0
 13 16  1  1     0  0
  6  7  1  0     0  0
 34 35  2  0     0  0
 34 36  1  0     0  0
 31 34  1  0     0  0
 16 17  1  0     0  0
  3 37  1  0     0  0
  7 10  1  0     0  0
 37 38  1  0     0  0
M  CHG  2  34   1  36  -1
M  END