
  CDK    9/16/09,9:50

 35 38  0  0  0  0  0  0  0  0999 V2000
   -2.3473   -5.6583    0.0000 C   0  0  0  0  0  0  0  0  0  0  0  0
   -2.3484   -6.4857    0.0000 C   0  0  0  0  0  0  0  0  0  0  0  0
   -1.6336   -6.8985    0.0000 C   0  0  0  0  0  0  0  0  0  0  0  0
   -1.6354   -5.2455    0.0000 C   0  0  0  0  0  0  0  0  0  0  0  0
   -0.9200   -5.6547    0.0000 C   0  0  0  0  0  0  0  0  0  0  0  0
   -0.9198   -6.4857    0.0000 C   0  0  0  0  0  0  0  0  0  0  0  0
   -0.1293   -6.7423    0.0000 N   0  0  0  0  0  0  0  0  0  0  0  0
    0.3590   -6.0698    0.0000 C   0  0  0  0  0  0  0  0  0  0  0  0
   -0.1297   -5.3977    0.0000 N   0  0  0  0  0  0  0  0  0  0  0  0
    1.1840   -6.0695    0.0000 C   0  0  0  0  0  0  0  0  0  0  0  0
    1.5963   -5.3549    0.0000 C   0  0  0  0  0  0  0  0  0  0  0  0
    2.4213   -5.3546    0.0000 C   0  0  0  0  0  0  0  0  0  0  0  0
    2.8335   -4.6400    0.0000 C   0  0  0  0  0  0  0  0  0  0  0  0
    0.2750   -7.4542    0.0000 C   0  0  0  0  0  0  0  0  0  0  0  0
    1.1000   -7.4600    0.0000 C   0  0  0  0  0  0  0  0  0  0  0  0
    1.5047   -8.1782    0.0000 C   0  0  0  0  0  0  0  0  0  0  0  0
    2.3289   -8.1844    0.0000 C   0  0  0  0  0  0  0  0  0  0  0  0
    2.7473   -7.4723    0.0000 C   0  0  0  0  0  0  0  0  0  0  0  0
    2.3355   -6.7526    0.0000 C   0  0  0  0  0  0  0  0  0  0  0  0
    1.5126   -6.7499    0.0000 C   0  0  0  0  0  0  0  0  0  0  0  0
    3.5688   -7.4767    0.0000 C   0  0  0  0  0  0  0  0  0  0  0  0
    3.9765   -8.1951    0.0000 C   0  0  0  0  0  0  0  0  0  0  0  0
    4.8007   -8.2002    0.0000 C   0  0  0  0  0  0  0  0  0  0  0  0
    5.2182   -7.4876    0.0000 C   0  0  0  0  0  0  0  0  0  0  0  0
    4.8054   -6.7684    0.0000 C   0  0  0  0  0  0  0  0  0  0  0  0
    3.9825   -6.7668    0.0000 C   0  0  0  0  0  0  0  0  0  0  0  0
    3.5590   -8.9106    0.0000 C   0  0  0  0  0  0  0  0  0  0  0  0
    2.7340   -8.9051    0.0000 O   0  0  0  0  0  0  0  0  0  0  0  0
    3.9667   -9.6279    0.0000 O   0  0  0  0  0  0  0  0  0  0  0  0
   -3.0618   -5.2460    0.0000 N   0  0  0  0  0  0  0  0  0  0  0  0
   -3.7762   -5.6586    0.0000 C   0  0  0  0  0  0  0  0  0  0  0  0
   -4.4908   -5.2463    0.0000 C   0  0  0  0  0  0  0  0  0  0  0  0
   -3.7760   -6.4836    0.0000 O   0  0  0  0  0  0  0  0  0  0  0  0
   -4.4910   -4.4213    0.0000 C   0  0  0  0  0  0  0  0  0  0  0  0
   -5.2055   -4.0090    0.0000 C   0  0  0  0  0  0  0  0  0  0  0  0
 16 17  1  0  0  0  0 
  7  8  1  0  0  0  0 
 17 18  2  0  0  0  0 
  8  9  2  0  0  0  0 
 18 19  1  0  0  0  0 
  9  5  1  0  0  0  0 
 19 20  2  0  0  0  0 
 20 15  1  0  0  0  0 
  4  1  1  0  0  0  0 
  8 10  1  0  0  0  0 
 21 22  2  0  0  0  0 
  5  6  1  0  0  0  0 
 22 23  1  0  0  0  0 
 10 11  1  0  0  0  0 
 23 24  2  0  0  0  0 
 24 25  1  0  0  0  0 
 11 12  1  0  0  0  0 
 25 26  2  0  0  0  0 
 26 21  1  0  0  0  0 
 18 21  1  0  0  0  0 
  2  3  1  0  0  0  0 
 12 13  1  0  0  0  0 
  3  6  2  0  0  0  0 
 27 28  1  0  0  0  0 
 27 29  2  0  0  0  0 
 22 27  1  0  0  0  0 
  7 14  1  0  0  0  0 
  1 30  1  0  0  0  0 
  1  2  2  0  0  0  0 
 30 31  1  0  0  0  0 
 14 15  1  0  0  0  0 
 31 32  1  0  0  0  0 
  5  4  2  0  0  0  0 
 31 33  2  0  0  0  0 
 15 16  2  0  0  0  0 
 32 34  1  0  0  0  0 
  6  7  1  0  0  0  0 
 34 35  1  0  0  0  0 
M  END