
  CDK    9/16/09,10:0

 26 28  0  0  0  0  0  0  0  0999 V2000
   15.4540  -20.8452    0.0000 N   0  0  0  0  0  0  0  0  0  0  0  0
   15.0494  -20.1289    0.0000 C   0  0  0  0  0  0  0  0  0  0  0  0
   14.2281  -20.1235    0.0000 C   0  0  0  0  0  0  0  0  0  0  0  0
   13.8088  -20.8342    0.0000 C   0  0  0  0  0  0  0  0  0  0  0  0
   14.2170  -21.5523    0.0000 C   0  0  0  0  0  0  0  0  0  0  0  0
   15.0446  -21.5593    0.0000 C   0  0  0  0  0  0  0  0  0  0  0  0
   16.2789  -20.8479    0.0000 C   0  0  0  0  0  0  0  0  0  0  0  0
   16.6891  -21.5637    0.0000 C   0  0  0  0  0  0  0  0  0  0  0  0
   16.6937  -20.1349    0.0000 C   0  0  0  0  0  0  0  0  0  0  0  0
    7.5742  -21.2698    0.0000 C   0  0  0  0  0  0  0  0  0  0  0  0
    7.5729  -22.0973    0.0000 C   0  0  0  0  0  0  0  0  0  0  0  0
    8.2858  -22.5102    0.0000 C   0  0  0  0  0  0  0  0  0  0  0  0
    9.0051  -22.0968    0.0000 C   0  0  0  0  0  0  0  0  0  0  0  0
    9.0019  -21.2657    0.0000 C   0  0  0  0  0  0  0  0  0  0  0  0
    8.2839  -20.8570    0.0000 C   0  0  0  0  0  0  0  0  0  0  0  0
    9.7143  -20.8497    0.0000 C   0  0  0  0  0  0  0  0  0  0  0  0
   10.4308  -21.2587    0.0000 C   0  0  0  0  0  0  0  0  0  0  0  0
   10.5236  -22.0785    0.0000 C   0  0  0  0  0  0  0  0  0  0  0  0
   11.3314  -22.2460    0.0000 N   0  0  0  0  0  0  0  0  0  0  0  0
   11.7401  -21.5299    0.0000 C   0  0  0  0  0  0  0  0  0  0  0  0
   11.1854  -20.9194    0.0000 N   0  0  0  0  0  0  0  0  0  0  0  0
   11.3532  -20.1117    0.0000 C   0  0  0  0  0  0  0  0  0  0  0  0
   12.5649  -21.5374    0.0000 O   0  0  0  0  0  0  0  0  0  0  0  0
    9.7103  -20.0248    0.0000 O   0  0  0  0  0  0  0  0  0  0  0  0
   12.9839  -20.8268    0.0000 C   0  0  0  0  0  0  0  0  0  0  0  0
    6.8594  -20.8579    0.0000 Cl  0  0  0  0  0  0  0  0  0  0  0  0
  1  2  1  0  0  0  0 
 13 14  1  0  0  0  0 
  1  7  1  0  0  0  0 
 14 15  2  0  0  0  0 
 15 10  1  0  0  0  0 
 14 16  1  0  0  0  0 
  7  8  1  0  0  0  0 
 16 17  1  0  0  0  0 
 17 18  2  0  0  0  0 
  1  6  1  0  0  0  0 
  7  9  1  0  0  0  0 
  2  3  1  0  0  0  0 
  3  4  1  0  0  0  0 
 18 19  1  0  0  0  0 
 19 20  2  0  0  0  0 
 20 21  1  0  0  0  0 
 21 17  1  0  0  0  0 
 10 11  2  0  0  0  0 
 21 22  1  0  0  0  0 
  4  5  1  0  0  0  0 
 20 23  1  0  0  0  0 
 11 12  1  0  0  0  0 
 16 24  2  0  0  0  0 
  5  6  1  0  0  0  0 
 23 25  1  0  0  0  0 
 25  4  1  0  0  0  0 
 12 13  2  0  0  0  0 
 10 26  1  0  0  0  0 
M  END