
          03140815512D 1   1.00000     0.00000     0

 18 19  0     0  0            999 V2000
   -2.3167    1.7542    0.0000 C   0  0  0  0  0  0           0  0  0
   -2.3167    0.9292    0.0000 N   0  0  3  0  0  0           0  0  0
   -1.6046    0.5208    0.0000 C   0  0  0  0  0  0           0  0  0
   -0.8926    0.9292    0.0000 C   0  0  0  0  0  0           0  0  0
   -0.8926    1.7542    0.0000 O   0  0  0  0  0  0           0  0  0
   -1.6046    2.1708    0.0000 C   0  0  0  0  0  0           0  0  0
   -3.0305    0.5156    0.0000 C   0  0  0  0  0  0           0  0  0
   -3.7456    0.9271    0.0000 O   0  0  0  0  0  0           0  0  0
   -3.0293   -0.3094    0.0000 C   0  0  0  0  0  0           0  0  0
   -3.7432   -0.7229    0.0000 C   0  0  0  0  0  0           0  0  0
   -3.7420   -1.5479    0.0000 C   0  0  0  0  0  0           0  0  0
   -4.4562   -1.9588    0.0000 C   0  0  0  0  0  0           0  0  0
   -4.4554   -2.7831    0.0000 C   0  0  0  0  0  0           0  0  0
   -3.7398   -3.1954    0.0000 C   0  0  0  0  0  0           0  0  0
   -3.0236   -2.7774    0.0000 C   0  0  0  0  0  0           0  0  0
   -3.0279   -1.9545    0.0000 C   0  0  0  0  0  0           0  0  0
   -3.7375   -4.0204    0.0000 O   0  0  0  0  0  0           0  0  0
   -4.4508   -4.4348    0.0000 C   0  0  0  0  0  0           0  0  0
  7  9  1  0     0  0
  2  3  1  0     0  0
  9 10  1  0     0  0
  3  4  1  0     0  0
 10 11  1  0     0  0
  4  5  1  0     0  0
 11 12  2  0     0  0
  5  6  1  0     0  0
 12 13  1  0     0  0
 13 14  2  0     0  0
  2  7  1  0     0  0
 14 15  1  0     0  0
  1  2  1  0     0  0
 15 16  2  0     0  0
 16 11  1  0     0  0
  7  8  2  0     0  0
 14 17  1  0     0  0
  1  6  1  0     0  0
 17 18  1  0     0  0
M  END