
  SciTegic12171313032D

 24 26  0  0  0  0            999 V2000
   17.7457  -17.8915    0.0000 C   0  0
   17.7445  -18.7110    0.0000 C   0  0
   18.4526  -19.1200    0.0000 N   0  0
   19.1622  -18.7106    0.0000 C   0  0
   19.1594  -17.8879    0.0000 C   0  0
   18.4508  -17.4826    0.0000 N   0  0
   19.8706  -19.1180    0.0000 N   0  0
   19.8656  -17.4766    0.0000 N   0  0
   19.8625  -16.6595    0.0000 C   0  0
   20.5686  -16.2482    0.0000 C   0  0
   21.2732  -16.6577    0.0000 C   0  0
   21.9788  -16.2471    0.0000 C   0  0
   21.9762  -15.4290    0.0000 C   0  0
   21.2620  -15.0233    0.0000 C   0  0
   20.5592  -15.4362    0.0000 C   0  0
   17.0399  -17.4832    0.0000 C   0  0
   17.0411  -16.6649    0.0000 C   0  0
   16.3341  -16.2566    0.0000 C   0  0
   15.6255  -16.6654    0.0000 C   0  0
   15.6283  -17.4868    0.0000 C   0  0
   16.3359  -17.8915    0.0000 C   0  0
   14.9203  -17.8959    0.0000 C   0  0
   14.2110  -17.4900    0.0000 O   0  0
   14.9233  -18.7131    0.0000 O   0  0
  1  2  2  0
  2  3  1  0
  3  4  2  0
  4  5  1  0
  5  6  2  0
  6  1  1  0
  4  7  1  0
  5  8  1  0
  8  9  1  0
  9 10  1  0
 10 11  2  0
 11 12  1  0
 12 13  2  0
 13 14  1  0
 14 15  2  0
 15 10  1  0
 16 17  2  0
 17 18  1  0
 18 19  2  0
 19 20  1  0
 20 21  2  0
 21 16  1  0
  1 16  1  0
 22 23  1  0
 22 24  2  0
 20 22  1  0
M  END