
  SciTegic02131210002D

 29 31  0  0  0  0            999 V2000
   -1.5375  -13.4208    0.0000 O   0  0
   -1.1208  -12.7083    0.0000 S   0  0
   -1.9462  -12.7037    0.0000 O   0  0
   -3.9625   -9.4083    0.0000 C   0  0
   -3.9625  -10.2333    0.0000 C   0  0
   -3.2192  -10.6417    0.0000 N   0  0
   -2.5385  -10.2333    0.0000 C   0  0
   -2.5385   -9.4083    0.0000 N   0  0
   -3.2505   -8.9917    0.0000 C   0  0
   -1.8264  -10.6458    0.0000 C   0  0
   -1.8290  -11.4719    0.0000 C   0  0
   -1.1159  -11.8854    0.0000 C   0  0
   -0.3999  -11.4738    0.0000 C   0  0
   -0.4013  -10.6446    0.0000 C   0  0
   -1.1150  -10.2349    0.0000 C   0  0
   -0.4039  -13.1242    0.0000 N   0  0
   -0.4078  -13.9465    0.0000 C   0  0
    0.3018  -14.3602    0.0000 C   0  0
    1.0195  -13.9526    0.0000 N   0  0
    1.0231  -13.1267    0.0000 C   0  0
    0.3090  -12.7083    0.0000 C   0  0
   -3.2505   -8.1667    0.0000 O   0  0
   -4.6764  -10.6469    0.0000 C   0  0
   -4.6752  -11.4719    0.0000 C   0  0
   -1.1160   -9.4099    0.0000 O   0  0
   -0.4021   -8.9964    0.0000 C   0  0
    0.3129   -9.4080    0.0000 C   0  0
    1.0269   -8.9946    0.0000 C   0  0
    1.7316  -14.3692    0.0000 C   0  0
 15 10  1  0
  7 10  1  0
 12  2  1  0
  6  7  2  0
  2 16  1  0
 16 17  1  0
  7  8  1  0
  8  9  1  0
  3  2  2  0
  4  5  2  0
 10 11  2  0
 16 21  1  0
 17 18  1  0
 18 19  1  0
 19 20  1  0
 20 21  1  0
  9 22  2  0
 11 12  1  0
  5 23  1  0
  2  1  2  0
 23 24  1  0
 12 13  2  0
 15 25  1  0
  4  9  1  0
 25 26  1  0
 13 14  1  0
 26 27  1  0
  5  6  1  0
 27 28  1  0
 14 15  2  0
 19 29  1  0
M  END