
  CDK    9/16/09,10:2

 79 84  0  0  0  0  0  0  0  0999 V2000
    9.0065   -7.6160    0.0000 C   0  0  0  0  0  0  0  0  0  0  0  0
    9.7212   -8.8555    0.0000 O   0  0  0  0  0  0  0  0  0  0  0  0
    9.7217   -8.0310    0.0000 C   0  0  0  0  0  0  0  0  0  0  0  0
    9.0069   -6.7900    0.0000 C   0  0  0  0  0  0  0  0  0  0  0  0
    9.7234   -6.3753    0.0000 C   0  0  0  0  0  0  0  0  0  0  0  0
    9.7238   -5.5520    0.0000 C   0  0  0  0  0  0  0  0  0  0  0  0
   10.4362   -5.1396    0.0000 O   0  0  0  0  0  0  0  0  0  0  0  0
   11.1487   -8.0295    0.0000 C   0  0  0  0  0  0  0  0  0  0  0  0
   11.8575   -6.7958    0.0000 O   0  0  0  0  0  0  0  0  0  0  0  0
   11.8580   -7.6188    0.0000 C   0  0  0  0  0  0  0  0  0  0  0  0
   13.2888   -7.6168    0.0000 C   0  0  0  0  0  0  0  0  0  0  0  0
   14.0032   -8.8597    0.0000 O   0  0  0  0  0  0  0  0  0  0  0  0
   14.0076   -8.0310    0.0000 C   0  0  0  0  0  0  0  0  0  0  0  0
   13.2083   -6.7978    0.0000 C   0  0  0  0  0  0  0  0  0  0  0  0
   13.8844   -6.3140    0.0000 C   0  0  0  0  0  0  0  0  0  0  0  0
   13.8052   -5.4949    0.0000 C   0  0  0  0  0  0  0  0  0  0  0  0
   14.6329   -6.6620    0.0000 C   0  0  0  0  0  0  0  0  0  0  0  0
   15.4337   -8.0331    0.0000 C   0  0  0  0  0  0  0  0  0  0  0  0
   16.1330   -6.8009    0.0000 O   0  0  0  0  0  0  0  0  0  0  0  0
   16.1432   -7.6223    0.0000 C   0  0  0  0  0  0  0  0  0  0  0  0
   15.4366   -8.8577    0.0000 C   0  0  0  0  0  0  0  0  0  0  0  0
    6.8626   -8.0256    0.0000 C   0  0  0  0  0  0  0  0  0  0  0  0
    7.5766   -7.6122    0.0000 C   0  0  0  0  0  0  0  0  0  0  0  0
    7.5771   -6.7859    0.0000 O   0  0  0  0  0  0  0  0  0  0  0  0
    6.8621   -8.8532    0.0000 C   0  0  0  0  0  0  0  0  0  0  0  0
    7.5757   -9.2630    0.0000 C   0  0  0  0  0  0  0  0  0  0  0  0
    7.5677  -10.0910    0.0000 C   0  0  0  0  0  0  0  0  0  0  0  0
    8.2908  -10.5044    0.0000 C   0  0  0  0  0  0  0  0  0  0  0  0
    9.0047  -10.0906    0.0000 C   0  0  0  0  0  0  0  0  0  0  0  0
    9.0003   -9.2599    0.0000 C   0  0  0  0  0  0  0  0  0  0  0  0
    8.2839   -8.8512    0.0000 C   0  0  0  0  0  0  0  0  0  0  0  0
    9.7197  -10.5014    0.0000 O   0  0  0  0  0  0  0  0  0  0  0  0
    9.7193  -11.3281    0.0000 P   0  0  0  0  0  0  0  0  0  0  0  0
    8.8968  -11.3276    0.0000 O   0  0  0  0  0  0  0  0  0  0  0  0
    8.2904   -8.0269    0.0000 N   0  0  0  0  0  0  0  0  0  0  0  0
    9.0106   -5.1375    0.0000 N   0  0  0  0  0  0  0  0  0  0  0  0
   10.4347   -7.6148    0.0000 N   0  0  0  0  0  0  0  0  0  0  0  0
   12.5743   -8.0304    0.0000 N   0  0  0  0  0  0  0  0  0  0  0  0
   14.7222   -7.6172    0.0000 N   0  0  0  0  0  0  0  0  0  0  0  0
   16.1558   -9.2750    0.0000 O   0  0  0  0  0  0  0  0  0  0  0  0
   16.8652   -8.0356    0.0000 N   0  0  0  0  0  0  0  0  0  0  0  0
    6.1486   -7.6109    0.0000 N   0  0  0  0  0  0  0  0  0  0  0  0
    9.7192  -12.1526    0.0000 O   0  0  0  0  0  0  0  0  0  0  0  0
   10.5510  -11.3283    0.0000 O   0  0  0  0  0  0  0  0  0  0  0  0
    6.1472   -6.7877    0.0000 C   0  0  0  0  0  0  0  0  0  0  0  0
    6.8635   -6.3769    0.0000 O   0  0  0  0  0  0  0  0  0  0  0  0
    5.4338   -6.3722    0.0000 C   0  0  0  0  0  0  0  0  0  0  0  0
    3.7737   -2.4586    0.0000 C   0  0  0  0  0  0  0  0  0  0  0  0
    2.9991   -2.1767    0.0000 C   0  0  0  0  0  0  0  0  0  0  0  0
    2.3675   -2.7074    0.0000 C   0  0  0  0  0  0  0  0  0  0  0  0
    2.5038   -3.5194    0.0000 C   0  0  0  0  0  0  0  0  0  0  0  0
    1.8725   -4.0498    0.0000 C   0  0  0  0  0  0  0  0  0  0  0  0
    1.5902   -2.4105    0.0000 O   0  0  0  0  0  0  0  0  0  0  0  0
    0.9531   -2.9454    0.0000 C   0  0  0  0  0  0  0  0  0  0  0  0
    1.0924   -3.7578    0.0000 C   0  0  0  0  0  0  0  0  0  0  0  0
    0.4612   -4.2858    0.0000 C   0  0  0  0  0  0  0  0  0  0  0  0
   -0.3148   -3.9991    0.0000 C   0  0  0  0  0  0  0  0  0  0  0  0
   -0.4514   -3.1852    0.0000 C   0  0  0  0  0  0  0  0  0  0  0  0
    0.1849   -2.6602    0.0000 C   0  0  0  0  0  0  0  0  0  0  0  0
    4.4067   -1.9327    0.0000 O   0  0  0  0  0  0  0  0  0  0  0  0
    1.8687   -5.1251    0.0000 C   0  0  0  0  0  0  0  0  0  0  0  0
    2.5872   -5.5434    0.0000 C   0  0  0  0  0  0  0  0  0  0  0  0
    1.8600   -6.7732    0.0000 C   0  0  0  0  0  0  0  0  0  0  0  0
    1.1475   -6.3547    0.0000 C   0  0  0  0  0  0  0  0  0  0  0  0
    1.1509   -5.5313    0.0000 C   0  0  0  0  0  0  0  0  0  0  0  0
    1.8554   -7.5997    0.0000 N   0  0  0  0  0  0  0  0  0  0  0  0
    1.8544   -8.4242    0.0000 C   0  0  0  0  0  0  0  0  0  0  0  0
    1.8497   -9.2508    0.0000 S   0  0  0  0  0  0  0  0  0  0  0  0
    3.3054   -5.1326    0.0000 C   0  0  0  0  0  0  0  0  0  0  0  0
    3.2835   -3.8049    0.0000 C   0  0  0  0  0  0  0  0  0  0  0  0
    3.3064   -4.3063    0.0000 O   0  0  0  0  0  0  0  0  0  0  0  0
    3.9137   -3.2807    0.0000 C   0  0  0  0  0  0  0  0  0  0  0  0
    2.5804   -6.3611    0.0000 C   0  0  0  0  0  0  0  0  0  0  0  0
   -1.2271   -2.8950    0.0000 O   0  0  0  0  0  0  0  0  0  0  0  0
    4.0164   -5.5458    0.0000 N   0  0  0  0  0  0  0  0  0  0  0  0
    4.0110   -6.3646    0.0000 C   0  0  0  0  0  0  0  0  0  0  0  0
    4.7179   -6.7778    0.0000 C   0  0  0  0  0  0  0  0  0  0  0  0
    5.4382   -5.5489    0.0000 C   0  0  0  0  0  0  0  0  0  0  0  0
    4.7268   -5.1312    0.0000 C   0  0  0  0  0  0  0  0  0  0  0  0
 30 31  2  0  0  0  0 
 31 26  1  0  0  0  0 
 29 32  1  0  0  0  0 
 32 33  1  0  0  0  0 
 33 34  2  0  0  0  0 
  1  3  1  0  0  0  0 
  3  2  2  0  0  0  0 
  1  4  1  1  0  0  0 
  4  5  1  0  0  0  0 
  5  6  1  0  0  0  0 
 23 35  1  0  0  0  0 
 45 42  1  0  0  0  0 
 35  1  1  0  0  0  0 
 45 46  2  0  0  0  0 
 47 45  1  0  0  0  0 
 21 40  1  0  0  0  0 
 37  8  1  0  0  0  0 
  3 37  1  0  0  0  0 
 20 41  1  0  0  0  0 
 42 22  1  0  0  0  0 
 38 11  1  0  0  0  0 
 10 38  1  0  0  0  0 
 33 43  1  0  0  0  0 
  6 36  1  0  0  0  0 
 33 44  1  0  0  0  0 
 39 18  1  0  0  0  0 
 13 39  1  0  0  0  0 
  6  7  2  0  0  0  0 
  8 10  1  0  0  0  0 
 10  9  2  0  0  0  0 
 11 13  1  0  0  0  0 
 13 12  2  0  0  0  0 
 11 14  1  1  0  0  0 
 14 15  1  0  0  0  0 
 15 16  1  0  0  0  0 
 15 17  1  0  0  0  0 
 18 20  1  0  0  0  0 
 20 19  2  0  0  0  0 
 18 21  1  6  0  0  0 
 22 23  1  0  0  0  0 
 23 24  2  0  0  0  0 
 22 25  1  6  0  0  0 
 25 26  1  0  0  0  0 
 48 72  1  0  0  0  0 
 72 70  2  0  0  0  0 
 70 51  1  0  0  0  0 
 50 49  2  0  0  0  0 
 49 48  1  0  0  0  0 
 50 51  1  0  0  0  0 
 50 53  1  0  0  0  0 
 51 52  2  0  0  0  0 
 52 55  1  0  0  0  0 
 54 53  1  0  0  0  0 
 54 55  2  0  0  0  0 
 55 56  1  0  0  0  0 
 56 57  2  0  0  0  0 
 57 58  1  0  0  0  0 
 58 59  2  0  0  0  0 
 59 54  1  0  0  0  0 
 48 60  2  0  0  0  0 
 61 62  2  0  0  0  0 
 62 73  1  0  0  0  0 
 73 63  2  0  0  0  0 
 63 64  1  0  0  0  0 
 64 65  2  0  0  0  0 
 65 61  1  0  0  0  0 
 52 61  1  0  0  0  0 
 63 66  1  0  0  0  0 
 66 67  2  0  0  0  0 
 67 68  2  0  0  0  0 
 62 69  1  0  0  0  0 
 69 71  2  0  0  0  0 
 58 74  1  0  0  0  0 
 69 75  1  0  0  0  0 
 75 76  1  0  0  0  0 
 26 27  2  0  0  0  0 
 27 28  1  0  0  0  0 
 28 29  2  0  0  0  0 
 29 30  1  0  0  0  0 
 75 79  1  0  0  0  0 
 76 77  1  0  0  0  0 
 77 47  1  0  0  0  0 
 47 78  1  0  0  0  0 
 78 79  1  0  0  0  0 
M  END