
  SciTegic01161211252D

 56 56  0  0  0  0            999 V2000
    1.8013  -23.0180    0.0000 N   0  0
    2.5158  -22.6055    0.0000 C   0  0  1  0  0  0
    3.2302  -23.0180    0.0000 C   0  0
    2.5158  -21.7805    0.0000 C   0  0
    1.8013  -21.3680    0.0000 C   0  0
    1.8013  -20.5430    0.0000 C   0  0
    2.5158  -20.1304    0.0000 C   0  0
    2.5158  -19.3054    0.0000 N   0  0
    3.2302  -23.8430    0.0000 O   0  0
    3.9448  -22.6055    0.0000 N   0  0
    4.6593  -23.0180    0.0000 C   0  0
    5.3737  -22.6055    0.0000 C   0  0
    6.0882  -23.0180    0.0000 C   0  0
    6.8027  -22.6055    0.0000 C   0  0
    7.5172  -23.0180    0.0000 C   0  0
    8.2317  -22.6055    0.0000 C   0  0
    8.9462  -23.0180    0.0000 N   0  0
    8.2317  -21.7805    0.0000 O   0  0
    9.6606  -22.6055    0.0000 C   0  0  1  0  0  0
   10.3751  -23.0180    0.0000 C   0  0
    9.6606  -21.7805    0.0000 C   0  0
   10.3751  -21.3680    0.0000 C   0  0
   10.3751  -20.5430    0.0000 C   0  0
    9.6606  -20.1304    0.0000 N   0  0
    9.6606  -19.3054    0.0000 C   0  0
    8.9462  -18.8929    0.0000 N   0  0
   10.3751  -18.8929    0.0000 N   0  0
   10.3751  -23.8430    0.0000 O   0  0
   11.0896  -22.6055    0.0000 N   0  0
   11.8041  -23.0180    0.0000 C   0  0  1  0  0  0
   12.5186  -22.6055    0.0000 C   0  0
   11.8041  -23.8430    0.0000 C   0  0
   12.5186  -24.2555    0.0000 C   0  0
   12.5186  -25.0806    0.0000 C   0  0
   13.2331  -25.4931    0.0000 N   0  0
   13.2331  -26.3181    0.0000 C   0  0
   13.9475  -26.7306    0.0000 N   0  0
   12.5186  -26.7306    0.0000 N   0  0
   13.2331  -23.0180    0.0000 N   0  0
   12.5186  -21.7805    0.0000 O   0  0
    1.0868  -22.6055    0.0000 C   0  0
    0.3724  -23.0180    0.0000 C   0  0
    1.0868  -21.7805    0.0000 O   0  0
    0.3724  -23.8430    0.0000 C   0  0
    1.0868  -24.2555    0.0000 C   0  0
    1.0868  -25.0806    0.0000 C   0  0
    1.8013  -25.4931    0.0000 C   0  0
    1.8013  -26.3181    0.0000 N   0  0
    2.5158  -26.7306    0.0000 C   0  0
    2.5158  -27.5556    0.0000 O   0  0
    3.2302  -26.3181    0.0000 C   0  0
    3.9448  -26.7327    0.0000 C   0  0
    4.6588  -26.3208    0.0000 C   0  0
    4.6593  -25.4949    0.0000 C   0  0
    3.9397  -25.0826    0.0000 C   0  0
    3.2287  -25.4968    0.0000 C   0  0
  2  4  1  6
 20 29  1  0
 14 15  1  0
 29 30  1  0
  7  8  1  0
 30 31  1  0
 15 16  1  0
 30 32  1  1
 32 33  1  0
 16 17  1  0
 33 34  1  0
  3  9  2  0
 34 35  1  0
 16 18  2  0
 35 36  1  0
  4  5  1  0
 36 37  1  0
 17 19  1  0
 36 38  2  0
  3 10  1  0
 31 39  1  0
 19 20  1  0
 31 40  2  0
  2  3  1  0
  1 41  1  0
 19 21  1  6
 41 42  1  0
 10 11  1  0
 41 43  2  0
 21 22  1  0
 42 44  1  0
  5  6  1  0
 44 45  1  0
 22 23  1  0
 45 46  1  0
 11 12  1  0
 46 47  1  0
 23 24  1  0
 47 48  1  0
  1  2  1  0
 48 49  1  0
 24 25  1  0
 49 50  2  0
 12 13  1  0
 49 51  1  0
 25 26  2  0
 51 52  2  0
  6  7  1  0
 52 53  1  0
 25 27  1  0
 53 54  2  0
 13 14  1  0
 54 55  1  0
 20 28  2  0
 55 56  2  0
 56 51  1  0
M  END