
          11280715502D 1   1.00000     0.00000     0

 28 30  0     0  0            999 V2000
    1.7094    3.0867    0.0000 C   0  0  0  0  0  0           0  0  0
   -0.4340    1.8492    0.0000 C   0  0  3  0  0  0           0  0  0
    0.2819    1.4367    0.0000 C   0  0  0  0  0  0           0  0  0
    0.9936    1.8492    0.0000 C   0  0  0  0  0  0           0  0  0
    0.9936    2.6742    0.0000 N   0  0  3  0  0  0           0  0  0
    0.2819    3.0867    0.0000 C   0  0  0  0  0  0           0  0  0
   -0.4340    2.6742    0.0000 C   0  0  0  0  0  0           0  0  0
   -1.1499    1.4367    0.0000 C   0  0  0  0  0  0           0  0  0
   -1.8616    1.8492    0.0000 C   0  0  0  0  0  0           0  0  0
   -1.9506    2.6674    0.0000 C   0  0  0  0  0  0           0  0  0
   -2.7566    2.8398    0.0000 N   0  0  0  0  0  0           0  0  0
   -3.1691    2.1281    0.0000 C   0  0  0  0  0  0           0  0  0
   -2.6160    1.5117    0.0000 N   0  0  0  0  0  0           0  0  0
    2.4236    2.6736    0.0000 C   0  0  0  0  0  0           0  0  0
    3.1333    3.0917    0.0000 C   0  0  0  0  0  0           0  0  0
    3.8513    2.6854    0.0000 C   0  0  0  0  0  0           0  0  0
    3.8544    1.8614    0.0000 C   0  0  0  0  0  0           0  0  0
    4.5715    1.4552    0.0000 C   0  0  0  0  0  0           0  0  0
    5.2834    1.8739    0.0000 C   0  0  0  0  0  0           0  0  0
    5.2736    2.7031    0.0000 C   0  0  0  0  0  0           0  0  0
    4.5558    3.1056    0.0000 C   0  0  0  0  0  0           0  0  0
    6.0019    1.4686    0.0000 O   0  0  0  0  0  0           0  0  0
    6.0102    0.6436    0.0000 C   0  0  0  0  0  0           0  0  0
    6.7287    0.2383    0.0000 C   0  0  0  0  0  0           0  0  0
    6.7370   -0.5867    0.0000 C   0  0  0  0  0  0           0  0  0
    7.4555   -0.9920    0.0000 N   0  0  3  0  0  0           0  0  0
    7.4638   -1.8170    0.0000 C   0  0  0  0  0  0           0  0  0
    8.1659   -0.5724    0.0000 C   0  0  0  0  0  0           0  0  0
  1 14  1  0     0  0
  4  5  1  0     0  0
 14 15  1  0     0  0
  5  6  1  0     0  0
 15 16  1  0     0  0
  6  7  1  0     0  0
 16 17  2  0     0  0
  2  8  1  0     0  0
 17 18  1  0     0  0
  8  9  1  0     0  0
 18 19  2  0     0  0
  9 10  2  0     0  0
 19 20  1  0     0  0
  2  3  1  0     0  0
 20 21  2  0     0  0
 21 16  1  0     0  0
 10 11  1  0     0  0
 19 22  1  0     0  0
 11 12  1  0     0  0
 22 23  1  0     0  0
 12 13  2  0     0  0
 23 24  1  0     0  0
 13  9  1  0     0  0
 24 25  1  0     0  0
  5  1  1  0     0  0
 25 26  1  0     0  0
  2  7  1  0     0  0
 26 27  1  0     0  0
  3  4  1  0     0  0
 26 28  1  0     0  0
M  END