
          11280714522D 1   1.00000     0.00000     0

 23 25  0     1  0            999 V2000
    5.8042   -4.7167    0.0000 S   0  0  3  0  0  0           0  0  0
    4.7375   -2.0917    0.0000 C   0  0  2  0  0  0           0  0  0
    4.7292   -2.9167    0.0000 C   0  0  0  0  0  0           0  0  0
    5.4542   -1.6875    0.0000 N   0  0  3  0  0  0           0  0  0
    6.0250   -3.9250    0.0000 N   0  0  3  0  0  0           0  0  0
    5.4417   -3.3417    0.0000 C   0  0  2  0  0  0           0  0  0
    4.0167   -1.6875    0.0000 C   0  0  0  0  0  0           0  0  0
    5.0042   -4.5042    0.0000 O   0  0  0  0  0  0           0  0  0
    6.6042   -4.9292    0.0000 O   0  0  0  0  0  0           0  0  0
    6.1625   -2.9292    0.0000 C   0  0  0  0  0  0           0  0  0
    5.6042   -5.5167    0.0000 C   0  0  0  0  0  0           0  0  0
    6.1667   -2.1042    0.0000 C   0  0  0  0  0  0           0  0  0
    4.0167   -0.8542    0.0000 C   0  0  0  0  0  0           0  0  0
    5.4542   -0.8542    0.0000 C   0  0  0  0  0  0           0  0  0
    4.7375   -0.4292    0.0000 C   0  0  0  0  0  0           0  0  0
    4.8125   -5.7417    0.0000 Cl  0  0  0  0  0  0           0  0  0
    6.8167   -3.7042    0.0000 C   0  0  0  0  0  0           0  0  0
    3.3042   -2.0917    0.0000 C   0  0  0  0  0  0           0  0  0
    3.3042   -0.4417    0.0000 C   0  0  0  0  0  0           0  0  0
    2.5917   -1.6792    0.0000 C   0  0  0  0  0  0           0  0  0
    2.5917   -0.8542    0.0000 C   0  0  0  0  0  0           0  0  0
    4.7250   -3.7500    0.0000 H   0  0  0  0  0  0           0  0  0
    4.0167   -2.5042    0.0000 H   0  0  0  0  0  0           0  0  0
  2  3  1  0     0  0
  3  6  1  0     0  0
  4 12  1  0     0  0
  5  1  1  0     0  0
  6  5  1  0     0  0
  7  2  1  0     0  0
  8  1  2  0     0  0
  9  1  2  0     0  0
 10  6  1  0     0  0
 11  1  1  0     0  0
 12 10  1  0     0  0
 13  7  1  0     0  0
 14  4  1  0     0  0
 15 14  1  0     0  0
 16 11  1  0     0  0
 17  5  1  0     0  0
 18  7  2  0     0  0
 19 13  2  0     0  0
 20 18  1  0     0  0
 21 20  2  0     0  0
  6 22  1  6     0  0
  2 23  1  6     0  0
  2  4  1  0     0  0
 15 13  1  0     0  0
 21 19  1  0     0  0
M  END