
  SciTegic09291413392D

 28 30  0  0  0  0            999 V2000
   16.4291  -23.1744    0.0000 C   0  0
   16.4279  -23.9939    0.0000 C   0  0
   17.1360  -24.4029    0.0000 C   0  0
   17.1342  -22.7655    0.0000 C   0  0
   17.8428  -23.1708    0.0000 C   0  0
   17.8436  -23.9898    0.0000 C   0  0
   18.5521  -24.3968    0.0000 N   0  0
   19.2604  -23.9860    0.0000 C   0  0
   19.2556  -23.1639    0.0000 C   0  0
   18.5465  -22.7605    0.0000 C   0  0
   18.5416  -21.9484    0.0000 C   0  0
   19.2488  -21.5367    0.0000 C   0  0
   19.2448  -20.7202    0.0000 C   0  0
   18.5344  -20.3146    0.0000 C   0  0
   17.8266  -20.7313    0.0000 C   0  0
   17.8340  -21.5464    0.0000 C   0  0
   19.9608  -22.7510    0.0000 C   0  0  1  0  0  0
   20.6710  -23.1553    0.0000 C   0  0
   20.6772  -23.9731    0.0000 O   0  0
   21.3775  -22.7430    0.0000 O   0  0
   19.9697  -24.3919    0.0000 C   0  0
   18.5290  -19.4974    0.0000 Cl  0  0
   19.9559  -21.9338    0.0000 O   0  0
   20.6611  -21.5209    0.0000 C   0  0
   20.6561  -20.7037    0.0000 C   0  0
   21.3713  -21.9252    0.0000 C   0  0
   21.3667  -21.1066    0.0000 C   0  0
   15.7199  -24.4019    0.0000 Cl  0  0
  1  2  2  0
  2  3  1  0
  3  6  2  0
  5  4  2  0
  4  1  1  0
  5  6  1  0
  6  7  1  0
  7  8  2  0
  8  9  1  0
  9 10  2  0
 10  5  1  0
 11 12  2  0
 12 13  1  0
 13 14  2  0
 14 15  1  0
 15 16  2  0
 16 11  1  0
 10 11  1  0
  9 17  1  0
 17 18  1  0
 18 19  1  0
 18 20  2  0
  8 21  1  0
 14 22  1  0
 17 23  1  6
 23 24  1  0
 24 25  1  0
 24 26  1  0
 24 27  1  0
  2 28  1  0
M  END