
          11280715302D 1   1.00000     0.00000     0

 33 36  0     0  0            999 V2000
    3.0417   -0.5917    0.0000 C   0  0  0  0  0  0           0  0  0
    2.3792   -1.0792    0.0000 N   0  0  3  0  0  0           0  0  0
    1.7125   -0.6042    0.0000 N   0  0  0  0  0  0           0  0  0
    2.7875    0.1958    0.0000 C   0  0  0  0  0  0           0  0  0
    1.9625    0.1833    0.0000 C   0  0  0  0  0  0           0  0  0
    3.8292   -0.8417    0.0000 N   0  0  0  0  0  0           0  0  0
    4.4375   -0.2917    0.0000 C   0  0  0  0  0  0           0  0  0
    5.8375    0.0208    0.0000 C   0  0  0  0  0  0           0  0  0
    5.2250   -0.5417    0.0000 N   0  0  0  0  0  0           0  0  0
    6.6167   -0.2417    0.0000 C   0  0  0  0  0  0           0  0  0
    7.2375    0.3208    0.0000 C   0  0  0  0  0  0           0  0  0
    2.3792   -1.9042    0.0000 C   0  0  0  0  0  0           0  0  0
    1.4750    0.8583    0.0000 C   0  0  3  0  0  0           0  0  0
    7.0625    1.1208    0.0000 C   0  0  0  0  0  0           0  0  0
    4.2625    0.5208    0.0000 O   0  0  0  0  0  0           0  0  0
    5.6625    0.8083    0.0000 C   0  0  0  0  0  0           0  0  0
    6.2667    1.3708    0.0000 C   0  0  0  0  0  0           0  0  0
    1.6750   -2.3167    0.0000 C   0  0  0  0  0  0           0  0  0
    3.1000   -2.3042    0.0000 C   0  0  0  0  0  0           0  0  0
    1.6750   -3.1417    0.0000 C   0  0  0  0  0  0           0  0  0
    3.1042   -3.1292    0.0000 C   0  0  0  0  0  0           0  0  0
    2.3792   -3.5542    0.0000 C   0  0  0  0  0  0           0  0  0
    7.6667    1.6750    0.0000 O   0  0  0  0  0  0           0  0  0
    6.7917   -1.0417    0.0000 C   0  0  0  0  0  0           0  0  0
    8.0250    0.0708    0.0000 C   0  0  0  0  0  0           0  0  0
    0.6500    0.7625    0.0000 C   0  0  0  0  0  0           0  0  0
    0.8875    1.4458    0.0000 C   0  0  0  0  0  0           0  0  0
    1.8000    1.6083    0.0000 C   0  0  0  0  0  0           0  0  0
    8.4542    1.4250    0.0000 C   0  0  0  0  0  0           0  0  0
    2.4000   -4.3792    0.0000 C   0  0  0  0  0  0           0  0  0
    7.5792   -1.3042    0.0000 C   0  0  0  0  0  0           0  0  0
    8.2000   -0.7417    0.0000 C   0  0  0  0  0  0           0  0  0
    9.0667    1.9833    0.0000 C   0  0  0  0  0  0           0  0  0
  2  1  1  0     0  0
  3  2  1  0     0  0
  4  1  2  0     0  0
  5  4  1  0     0  0
  6  1  1  0     0  0
  7  6  1  0     0  0
  8  9  1  0     0  0
  9  7  1  0     0  0
 10  8  2  0     0  0
 11 10  1  0     0  0
 12  2  1  0     0  0
 13  5  1  0     0  0
 14 17  1  0     0  0
 15  7  2  0     0  0
 16  8  1  0     0  0
 17 16  2  0     0  0
 18 12  2  0     0  0
 19 12  1  0     0  0
 20 18  1  0     0  0
 21 19  2  0     0  0
 22 21  1  0     0  0
 23 14  1  0     0  0
 24 10  1  0     0  0
 25 11  1  0     0  0
 26 13  1  0     0  0
 27 13  1  0     0  0
 28 13  1  0     0  0
 29 23  1  0     0  0
 30 22  1  0     0  0
 31 24  2  0     0  0
 32 31  1  0     0  0
 33 29  1  0     0  0
  3  5  2  0     0  0
 22 20  2  0     0  0
 14 11  2  0     0  0
 25 32  2  0     0  0
M  END