
  SciTegic12231509382D

 14 15  0  0  0  0            999 V2000
   -1.1875   -9.6542    0.0000 C   0  0
   -1.1875   -8.9625    0.0000 C   0  0
   -1.8125  -10.0292    0.0000 N   0  0
   -2.4167   -8.9625    0.0000 N   0  0
   -2.4167   -9.6542    0.0000 C   0  0
   -1.8125   -8.6000    0.0000 C   0  0
   -0.5000   -9.8917    0.0000 N   0  0
   -0.5000   -8.7625    0.0000 N   0  0
   -0.1125   -9.3042    0.0000 C   0  0
   -3.0250  -10.0375    0.0000 O   0  0
   -1.8125   -7.8917    0.0000 O   0  0
   -1.8125  -10.7417    0.0000 C   0  0
   -3.0250   -8.6000    0.0000 C   0  0
   -0.2917   -8.0750    0.0000 C   0  0
  2  1  2  0
  3  1  1  0
  4  5  1  0
  5  3  1  0
  6  2  1  0
  7  1  1  0
  8  2  1  0
  9  7  2  0
 10  5  2  0
 11  6  2  0
 12  3  1  0
 13  4  1  0
 14  8  1  0
  9  8  1  0
  4  6  1  0
M  END