
  Mrv0541 04051115152D          

 28 31  0  0  0  0            999 V2000
   -1.8420   -4.0685    0.0000 F   0  0  0  0  0  0  0  0  0  0  0  0
   -1.8420   -3.2435    0.0000 C   0  0  0  0  0  0  0  0  0  0  0  0
   -2.5564   -2.8310    0.0000 C   0  0  0  0  0  0  0  0  0  0  0  0
   -2.5564   -2.0060    0.0000 C   0  0  0  0  0  0  0  0  0  0  0  0
   -1.8420   -1.5935    0.0000 C   0  0  0  0  0  0  0  0  0  0  0  0
   -1.8420   -0.7685    0.0000 S   0  0  0  0  0  0  0  0  0  0  0  0
   -1.1275   -0.3560    0.0000 C   0  0  0  0  0  0  0  0  0  0  0  0
   -1.1275    0.4690    0.0000 C   0  0  0  0  0  0  0  0  0  0  0  0
   -0.4130    0.8815    0.0000 C   0  0  0  0  0  0  0  0  0  0  0  0
    0.3014    0.4690    0.0000 C   0  0  0  0  0  0  0  0  0  0  0  0
    1.0159    0.8815    0.0000 C   0  0  0  0  0  0  0  0  0  0  0  0
    1.0159    1.7065    0.0000 C   0  0  0  0  0  0  0  0  0  0  0  0
    0.3014    2.1190    0.0000 C   0  0  0  0  0  0  0  0  0  0  0  0
   -0.4130    1.7065    0.0000 Cl  0  0  0  0  0  0  0  0  0  0  0  0
    0.3014    2.9440    0.0000 C   0  0  0  0  0  0  0  0  0  0  0  0
    1.0159    3.3565    0.0000 C   0  0  0  0  0  0  0  0  0  0  0  0
    1.7304    2.9440    0.0000 C   0  0  0  0  0  0  0  0  0  0  0  0
    1.7304    2.1190    0.0000 C   0  0  0  0  0  0  0  0  0  0  0  0
    2.4449    1.7065    0.0000 Cl  0  0  0  0  0  0  0  0  0  0  0  0
    1.7304    0.4690    0.0000 C   0  0  0  0  0  0  0  0  0  0  0  0
    2.4449    0.8815    0.0000 O   0  0  0  0  0  0  0  0  0  0  0  0
    1.7304   -0.3560    0.0000 N   0  0  0  0  0  0  0  0  0  0  0  0
    1.0159   -0.7685    0.0000 C   0  0  0  0  0  0  0  0  0  0  0  0
    0.3014   -0.3560    0.0000 N   0  0  0  0  0  0  0  0  0  0  0  0
   -0.4130   -0.7685    0.0000 N   0  0  0  0  0  0  0  0  0  0  0  0
   -1.1275   -2.0060    0.0000 C   0  0  0  0  0  0  0  0  0  0  0  0
   -0.4130   -1.5935    0.0000 F   0  0  0  0  0  0  0  0  0  0  0  0
   -1.1275   -2.8310    0.0000 C   0  0  0  0  0  0  0  0  0  0  0  0
  2  1  1  0  0  0  0
  2  3  1  0  0  0  0
  3  4  2  0  0  0  0
  4  5  1  0  0  0  0
  5  6  1  0  0  0  0
  7  6  1  0  0  0  0
  7 25  2  0  0  0  0
  7  8  1  0  0  0  0
  8  9  2  0  0  0  0
 10  9  1  0  0  0  0
 10 11  2  0  0  0  0
 10 24  1  0  0  0  0
 11 20  1  0  0  0  0
 11 12  1  0  0  0  0
 12 13  1  0  0  0  0
 13 14  1  0  0  0  0
 13 15  2  0  0  0  0
 15 16  1  0  0  0  0
 16 17  2  0  0  0  0
 17 18  1  0  0  0  0
 12 18  2  0  0  0  0
 18 19  1  0  0  0  0
 20 21  2  0  0  0  0
 20 22  1  0  0  0  0
 23 22  2  0  0  0  0
 23 24  1  0  0  0  0
 24 25  1  0  0  0  0
 26  5  2  0  0  0  0
 26 28  1  0  0  0  0
 26 27  1  0  0  0  0
  2 28  2  0  0  0  0
M  END