
  Mrv0541 04051115152D          

 14 14  0  0  0  0            999 V2000
    0.2146   -0.2760    0.0000 S   0  0  0  0  0  0  0  0  0  0  0  0
   -0.0403   -1.0606    0.0000 C   0  0  0  0  0  0  0  0  0  0  0  0
   -0.8653   -1.0606    0.0000 C   0  0  0  0  0  0  0  0  0  0  0  0
   -1.1202   -0.2760    0.0000 C   0  0  0  0  0  0  0  0  0  0  0  0
   -0.4528    0.2089    0.0000 C   0  0  1  0  0  0  0  0  0  0  0  0
   -0.0478    0.9277    0.0000 C   0  0  0  0  0  0  0  0  0  0  0  0
    0.7772    0.9363    0.0000 C   0  0  0  0  0  0  0  0  0  0  0  0
    1.1822    1.6551    0.0000 C   0  0  0  0  0  0  0  0  0  0  0  0
    2.0071    1.6637    0.0000 C   0  0  0  0  0  0  0  0  0  0  0  0
    0.4446   -1.7280    0.0000 O   0  0  0  0  0  0  0  0  0  0  0  0
   -1.3502   -1.7280    0.0000 C   0  0  0  0  0  0  0  0  0  0  0  0
   -1.9049   -0.0210    0.0000 O   0  0  0  0  0  0  0  0  0  0  0  0
   -0.8578    0.9277    0.0000 C   0  0  0  0  0  0  0  0  0  0  0  0
    1.1971    0.2262    0.0000 C   0  0  0  0  0  0  0  0  0  0  0  0
  2  1  1  0  0  0  0
  5  1  1  0  0  0  0
  2  3  1  0  0  0  0
  2 10  2  0  0  0  0
  3  4  2  0  0  0  0
  3 11  1  0  0  0  0
  4  5  1  0  0  0  0
  4 12  1  0  0  0  0
  5  6  1  1  0  0  0
  5 13  1  6  0  0  0
  6  7  2  0  0  0  0
  7  8  1  0  0  0  0
 14  7  1  0  0  0  0
  8  9  2  0  0  0  0
M  END