
  SciTegic02131210002D

 34 36  0  0  0  0            999 V2000
    3.1875  -20.4083    0.0000 O   0  0
    3.6042  -21.1250    0.0000 S   0  0
    4.0165  -20.4058    0.0000 O   0  0
    1.5187  -22.4414    0.0000 C   0  0
    1.5141  -21.6127    0.0000 N   0  0
    2.1801  -21.1258    0.0000 C   0  0
    1.9228  -20.3419    0.0000 C   0  0
    1.0977  -20.3444    0.0000 C   0  0
    0.8453  -21.1298    0.0000 N   0  0
    2.8917  -21.5375    0.0000 N   0  0
    4.3206  -21.5388    0.0000 C   0  0
    4.3173  -22.3636    0.0000 C   0  0
    5.0306  -22.7766    0.0000 C   0  0
    5.7464  -22.3647    0.0000 C   0  0
    5.7445  -21.5355    0.0000 C   0  0
    5.0306  -21.1261    0.0000 C   0  0
    2.4057  -19.6731    0.0000 C   0  0
    3.2292  -19.6708    0.0000 O   0  0
    2.0291  -18.9390    0.0000 N   0  0
    2.4764  -18.2459    0.0000 C   0  0  2  0  0  0
    3.3004  -18.2867    0.0000 C   0  0
    3.7478  -17.5935    0.0000 C   0  0
    2.0998  -17.5119    0.0000 C   0  0
    0.8034  -22.8541    0.0000 C   0  0
    0.8077  -23.6819    0.0000 C   0  0
    1.5282  -24.0930    0.0000 C   0  0
    2.2458  -23.6702    0.0000 C   0  0
    2.2380  -22.8438    0.0000 C   0  0
    0.6108  -19.6785    0.0000 C   0  0
    3.6771  -19.0207    0.0000 C   0  0
    4.1250  -18.2833    0.0000 C   0  0
    6.4595  -22.7736    0.0000 C   0  0
    7.1742  -23.1858    0.0000 N   0  0
    1.5339  -24.9180    0.0000 F   0  0
  9  5  1  0
  7 17  1  0
  4  5  1  0
 17 18  2  0
  3  2  2  0
 17 19  1  0
  6 10  1  0
 19 20  1  0
 10  2  1  0
 20 21  1  0
 21 22  1  0
  2 11  1  0
 20 23  1  1
  5  6  1  0
  4 24  2  0
 11 12  2  0
 24 25  1  0
  2  1  2  0
 25 26  2  0
 12 13  1  0
 26 27  1  0
  6  7  2  0
 27 28  2  0
 28  4  1  0
 13 14  2  0
  8 29  1  0
  7  8  1  0
 21 30  1  0
 14 15  1  0
 21 31  1  0
  8  9  2  0
 15 16  2  0
 32 33  3  0
 14 32  1  0
 16 11  1  0
 26 34  1  0
M  END