
  SciTegic04181615532D

 32 34  0  0  0  0            999 V2000
   -6.2466    5.3824    0.0000 O   0  0
   -5.2096    5.9863    0.0000 S   0  0
   -6.2512    6.5822    0.0000 O   0  0
    1.2990   -0.7500    0.0000 C   0  0
    1.2990    0.7500    0.0000 C   0  0
    0.0000    1.5000    0.0000 C   0  0
   -1.2990    0.7500    0.0000 C   0  0
   -1.2990   -0.7500    0.0000 C   0  0
    0.0000   -1.5000    0.0000 C   0  0
   -2.5972   -1.5031    0.0000 C   0  0
   -2.5951   -3.0039    0.0000 N   0  0
   -3.6375   -0.9049    0.0000 O   0  0
    2.5973   -1.5031    0.0000 O   0  0
    2.5951   -3.0039    0.0000 C   0  0  2  0  0  0
    3.8933   -3.7570    0.0000 C   0  0
    1.5548   -3.6021    0.0000 C   0  0
   -3.8933   -3.7570    0.0000 C   0  0
   -4.0312   -5.2379    0.0000 N   0  0
   -5.4984   -5.5497    0.0000 N   0  0
   -6.2484   -4.2507    0.0000 C   0  0
   -5.2447   -3.1360    0.0000 C   0  0
   -0.0031    3.0008    0.0000 O   0  0
   -1.3039    3.7494    0.0000 C   0  0
   -1.3092    5.2494    0.0000 C   0  0
   -2.6108    5.9949    0.0000 N   0  0
   -3.9073    5.2404    0.0000 C   0  0
   -3.9021    3.7404    0.0000 C   0  0
   -2.6005    2.9949    0.0000 C   0  0
   -5.2158    7.4871    0.0000 C   0  0
   -6.2571    8.0835    0.0000 C   0  0
   -5.9865   -6.6460    0.0000 C   0  0
    3.8916   -4.9570    0.0000 O   0  0
  2  1  2  0
  3  2  2  0
  4  5  2  0
  5  6  1  0
  6  7  2  0
  7  8  1  0
  8  9  2  0
  9  4  1  0
  8 10  1  0
 10 11  1  0
 10 12  2  0
  4 13  1  0
 13 14  1  0
 14 15  1  0
 14 16  1  6
 11 17  1  0
 17 18  2  0
 18 19  1  0
 19 20  1  0
 20 21  2  0
 21 17  1  0
  6 22  1  0
 22 23  1  0
 23 24  2  0
 24 25  1  0
 25 26  2  0
 26 27  1  0
 27 28  2  0
 28 23  1  0
 26  2  1  0
  2 29  1  0
 29 30  1  0
 19 31  1  0
 15 32  1  0
M  END