
          11280715132D 1   1.00000     0.00000     0

 27 29  0     0  0            999 V2000
    0.8542   -4.3042    0.0000 C   0  0  0  0  0  0           0  0  0
    0.1500   -4.7167    0.0000 N   0  0  3  0  0  0           0  0  0
    0.8542   -3.4792    0.0000 C   0  0  0  0  0  0           0  0  0
   -0.5583   -4.3042    0.0000 C   0  0  0  0  0  0           0  0  0
   -0.5583   -3.4792    0.0000 N   0  0  3  0  0  0           0  0  0
    1.6417   -4.5625    0.0000 N   0  0  0  0  0  0           0  0  0
    0.1500   -3.0667    0.0000 C   0  0  0  0  0  0           0  0  0
    1.6417   -3.2250    0.0000 N   0  0  0  0  0  0           0  0  0
    2.1250   -3.8917    0.0000 C   0  0  0  0  0  0           0  0  0
    0.1500   -5.5417    0.0000 C   0  0  0  0  0  0           0  0  0
   -1.2750   -4.7167    0.0000 O   0  0  0  0  0  0           0  0  0
    0.1292   -2.2417    0.0000 O   0  0  0  0  0  0           0  0  0
   -2.0083   -5.9417    0.0000 C   0  0  0  0  0  0           0  0  0
    2.9500   -3.8917    0.0000 C   0  0  3  0  0  0           0  0  0
   -1.2875   -5.5292    0.0000 O   0  0  0  0  0  0           0  0  0
   -2.0208   -6.7792    0.0000 O   0  0  0  0  0  0           0  0  0
   -1.2750   -3.0667    0.0000 C   0  0  0  0  0  0           0  0  0
   -0.5708   -5.9542    0.0000 C   0  0  3  0  0  0           0  0  0
   -2.7250   -4.6917    0.0000 Br  0  0  0  0  0  0           0  0  0
   -2.7333   -5.5250    0.0000 C   0  0  0  0  0  0           0  0  0
    3.4292   -4.5625    0.0000 C   0  0  0  0  0  0           0  0  0
    3.4292   -3.2250    0.0000 C   0  0  0  0  0  0           0  0  0
   -0.5708   -6.7792    0.0000 C   0  0  0  0  0  0           0  0  0
   -1.2750   -2.2417    0.0000 C   0  0  0  0  0  0           0  0  0
   -2.0000   -1.8292    0.0000 C   0  0  0  0  0  0           0  0  0
    4.2250   -3.4792    0.0000 C   0  0  0  0  0  0           0  0  0
    4.2250   -4.3042    0.0000 C   0  0  0  0  0  0           0  0  0
  2  1  1  0     0  0
  3  1  2  0     0  0
  4  2  1  0     0  0
  5  7  1  0     0  0
  6  1  1  0     0  0
  7  3  1  0     0  0
  8  3  1  0     0  0
  9  6  1  0     0  0
 10  2  1  0     0  0
 11  4  2  0     0  0
 12  7  2  0     0  0
 13 15  1  0     0  0
 14  9  1  0     0  0
 15 18  1  0     0  0
 16 13  2  0     0  0
 17  5  1  0     0  0
 18 10  1  0     0  0
 19 20  1  0     0  0
 20 13  1  0     0  0
 21 14  1  0     0  0
 22 14  1  0     0  0
 23 18  1  0     0  0
 24 17  1  0     0  0
 25 24  1  0     0  0
 26 22  1  0     0  0
 27 21  1  0     0  0
  8  9  2  0     0  0
  5  4  1  0     0  0
 26 27  1  0     0  0
M  END