
  CDK    9/16/09,9:54

 21 23  0  0  0  0  0  0  0  0999 V2000
    5.0880   -7.2692    0.0000 C   0  0  0  0  0  0  0  0  0  0  0  0
    5.9138   -7.2692    0.0000 C   0  0  0  0  0  0  0  0  0  0  0  0
    6.1708   -6.4844    0.0000 N   0  0  0  0  0  0  0  0  0  0  0  0
    5.5009   -5.9973    0.0000 C   0  0  0  0  0  0  0  0  0  0  0  0
    4.8353   -6.4844    0.0000 C   0  0  0  0  0  0  0  0  0  0  0  0
    5.4997   -5.1716    0.0000 C   0  0  0  0  0  0  0  0  0  0  0  0
    6.2159   -4.7582    0.0000 C   0  0  0  0  0  0  0  0  0  0  0  0
    6.2150   -3.9332    0.0000 C   0  0  0  0  0  0  0  0  0  0  0  0
    5.4986   -3.5207    0.0000 N   0  0  0  0  0  0  0  0  0  0  0  0
    4.7817   -3.9390    0.0000 C   0  0  0  0  0  0  0  0  0  0  0  0
    4.7861   -4.7626    0.0000 C   0  0  0  0  0  0  0  0  0  0  0  0
    6.3969   -7.9357    0.0000 C   0  0  0  0  0  0  0  0  0  0  0  0
    6.0585   -8.6901    0.0000 C   0  0  0  0  0  0  0  0  0  0  0  0
    6.5424   -9.3584    0.0000 C   0  0  0  0  0  0  0  0  0  0  0  0
    7.3646   -9.2734    0.0000 N   0  0  0  0  0  0  0  0  0  0  0  0
    7.7006   -8.5144    0.0000 C   0  0  0  0  0  0  0  0  0  0  0  0
    7.2148   -7.8494    0.0000 C   0  0  0  0  0  0  0  0  0  0  0  0
    4.0497   -6.2296    0.0000 C   0  0  0  0  0  0  0  0  0  0  0  0
    4.6018   -7.9366    0.0000 C   0  0  0  0  0  0  0  0  0  0  0  0
    3.7806   -7.8493    0.0000 O   0  0  0  0  0  0  0  0  0  0  0  0
    4.9367   -8.6915    0.0000 C   0  0  0  0  0  0  0  0  0  0  0  0
 10 11  2  0  0  0  0 
 11  6  1  0  0  0  0 
  4  6  1  0  0  0  0 
  1  2  2  0  0  0  0 
 12 13  2  0  0  0  0 
  6  7  2  0  0  0  0 
 13 14  1  0  0  0  0 
  2  3  1  0  0  0  0 
 14 15  2  0  0  0  0 
  7  8  1  0  0  0  0 
 15 16  1  0  0  0  0 
  3  4  1  0  0  0  0 
 16 17  2  0  0  0  0 
 17 12  1  0  0  0  0 
  2 12  1  0  0  0  0 
  8  9  2  0  0  0  0 
  5 18  1  0  0  0  0 
  4  5  2  0  0  0  0 
  1 19  1  0  0  0  0 
  9 10  1  0  0  0  0 
 19 20  2  0  0  0  0 
  5  1  1  0  0  0  0 
 19 21  1  0  0  0  0 
M  END