
  CDK    9/16/09,10:9

 37 38  0  0  0  0  0  0  0  0999 V2000
    0.0292  -22.4958    0.0000 C   0  0  0  0  0  0  0  0  0  0  0  0
    0.7412  -22.0792    0.0000 C   0  0  0  0  0  0  0  0  0  0  0  0
    1.4532  -22.4958    0.0000 N   0  0  0  0  0  0  0  0  0  0  0  0
    2.8788  -22.5019    0.0000 C   0  0  0  0  0  0  0  0  0  0  0  0
    2.1655  -22.0841    0.0000 C   0  0  0  0  0  0  0  0  0  0  0  0
    2.8638  -23.3273    0.0000 N   0  0  0  0  0  0  0  0  0  0  0  0
    3.5982  -22.0982    0.0000 O   0  0  0  0  0  0  0  0  0  0  0  0
    2.1678  -21.2591    0.0000 C   0  0  0  0  0  0  0  0  0  0  0  0
    2.8835  -20.8486    0.0000 C   0  0  0  0  0  0  0  0  0  0  0  0
    3.5938  -21.2648    0.0000 C   0  0  0  0  0  0  0  0  0  0  0  0
    4.3090  -20.8551    0.0000 C   0  0  0  0  0  0  0  0  0  0  0  0
    4.3118  -20.0292    0.0000 C   0  0  0  0  0  0  0  0  0  0  0  0
    3.5935  -19.6148    0.0000 C   0  0  0  0  0  0  0  0  0  0  0  0
    2.8812  -20.0270    0.0000 C   0  0  0  0  0  0  0  0  0  0  0  0
    5.0221  -21.2700    0.0000 C   0  0  0  0  0  0  0  0  0  0  0  0
    5.7333  -21.6792    0.0000 C   0  0  0  0  0  0  0  0  0  0  0  0
    4.6089  -21.9841    0.0000 C   0  0  0  0  0  0  0  0  0  0  0  0
    5.4390  -20.5581    0.0000 C   0  0  0  0  0  0  0  0  0  0  0  0
    5.0269  -19.6178    0.0000 O   0  0  0  0  0  0  0  0  0  0  0  0
    0.7412  -21.2542    0.0000 O   0  0  0  0  0  0  0  0  0  0  0  0
   -0.6865  -22.0854    0.0000 N   0  0  0  0  0  0  0  0  0  0  0  0
   -1.3998  -22.5000    0.0000 C   0  0  0  0  0  0  0  0  0  0  0  0
   -2.1154  -22.0896    0.0000 C   0  0  0  0  0  0  0  0  0  0  0  0
   -1.3974  -23.3250    0.0000 O   0  0  0  0  0  0  0  0  0  0  0  0
   -2.8287  -22.5042    0.0000 N   0  0  0  0  0  0  0  0  0  0  0  0
   -2.1179  -21.2646    0.0000 C   0  0  0  0  0  0  0  0  0  0  0  0
   -2.8335  -20.8542    0.0000 C   0  0  0  0  0  0  0  0  0  0  0  0
   -2.8334  -20.0282    0.0000 C   0  0  0  0  0  0  0  0  0  0  0  0
   -3.5482  -19.6179    0.0000 C   0  0  0  0  0  0  0  0  0  0  0  0
   -4.2625  -20.0325    0.0000 C   0  0  0  0  0  0  0  0  0  0  0  0
   -4.2574  -20.8618    0.0000 C   0  0  0  0  0  0  0  0  0  0  0  0
   -3.5420  -21.2684    0.0000 C   0  0  0  0  0  0  0  0  0  0  0  0
    0.0328  -23.3208    0.0000 C   0  0  0  0  0  0  0  0  0  0  0  0
   -0.6799  -23.7365    0.0000 C   0  0  0  0  0  0  0  0  0  0  0  0
    0.7491  -23.7302    0.0000 C   0  0  0  0  0  0  0  0  0  0  0  0
    1.4510  -23.3208    0.0000 C   0  0  0  0  0  0  0  0  0  0  0  0
   -0.6889  -21.2604    0.0000 C   0  0  0  0  0  0  0  0  0  0  0  0
  6  4  1  0  0  0  0 
 12 19  1  0  0  0  0 
  9 10  2  0  0  0  0 
  2 20  2  0  0  0  0 
  4  5  1  0  0  0  0 
  1 21  1  0  0  0  0 
 10 11  1  0  0  0  0 
 21 22  1  0  0  0  0 
 22 23  1  0  0  0  0 
 11 12  2  0  0  0  0 
 22 24  2  0  0  0  0 
  1  2  1  0  0  0  0 
 23 25  1  0  0  0  0 
 12 13  1  0  0  0  0 
 23 26  1  1  0  0  0 
  4  7  2  0  0  0  0 
 26 27  1  0  0  0  0 
 13 14  2  0  0  0  0 
 27 28  2  0  0  0  0 
 14  9  1  0  0  0  0 
 28 29  1  0  0  0  0 
  3  2  1  0  0  0  0 
 29 30  2  0  0  0  0 
 11 15  1  0  0  0  0 
 30 31  1  0  0  0  0 
  5  8  1  1  0  0  0 
 31 32  2  0  0  0  0 
 32 27  1  0  0  0  0 
 15 16  1  0  0  0  0 
  1 33  1  6  0  0  0 
  3  5  1  0  0  0  0 
 33 34  1  0  0  0  0 
 15 17  1  0  0  0  0 
 33 35  1  0  0  0  0 
  8  9  1  0  0  0  0 
  3 36  1  0  0  0  0 
 15 18  1  0  0  0  0 
 21 37  1  0  0  0  0 
M  END