
  SciTegic01161211232D

 63 64  0  0  0  0            999 V2000
    1.1459  -11.6786    0.0000 N   0  0
    1.8604  -11.2661    0.0000 C   0  0  1  0  0  0
    2.5748  -11.6786    0.0000 C   0  0
    1.8604  -10.4411    0.0000 C   0  0
    1.1459  -10.0286    0.0000 C   0  0
    1.1459   -9.2036    0.0000 C   0  0
    1.8604   -8.7911    0.0000 C   0  0
    1.8604   -7.9660    0.0000 N   0  0
    2.5748  -12.5036    0.0000 O   0  0
    3.2893  -11.2661    0.0000 N   0  0
    4.0038  -11.6786    0.0000 C   0  0
    4.7183  -11.2661    0.0000 C   0  0
    5.4328  -11.6786    0.0000 C   0  0
    6.1473  -11.2661    0.0000 C   0  0
    6.8617  -11.6786    0.0000 C   0  0
    7.5762  -11.2661    0.0000 C   0  0
    8.2908  -11.6786    0.0000 N   0  0
    7.5762  -10.4411    0.0000 O   0  0
    9.0052  -11.2661    0.0000 C   0  0  1  0  0  0
    9.7197  -11.6786    0.0000 C   0  0
    9.0052  -10.4411    0.0000 C   0  0
    9.7197  -10.0286    0.0000 C   0  0
    9.7197   -9.2036    0.0000 C   0  0
    9.0052   -8.7911    0.0000 N   0  0
    9.0052   -7.9660    0.0000 C   0  0
    8.2908   -7.5535    0.0000 N   0  0
    9.7197   -7.5535    0.0000 N   0  0
    9.7197  -12.5036    0.0000 O   0  0
   10.4342  -11.2661    0.0000 N   0  0
   11.1486  -11.6786    0.0000 C   0  0  1  0  0  0
   11.8632  -11.2661    0.0000 C   0  0
   11.1486  -12.5036    0.0000 C   0  0
   11.8632  -12.9162    0.0000 C   0  0
   11.8632  -13.7412    0.0000 C   0  0
   12.5777  -14.1537    0.0000 N   0  0
   12.5777  -14.9787    0.0000 C   0  0
   13.2921  -15.3912    0.0000 N   0  0
   11.8632  -15.3912    0.0000 N   0  0
   12.5777  -11.6786    0.0000 N   0  0
   11.8632  -10.4411    0.0000 O   0  0
    0.4313  -11.2661    0.0000 C   0  0
   -0.2831  -11.6786    0.0000 C   0  0
    0.4313  -10.4411    0.0000 O   0  0
   -0.2831  -12.5036    0.0000 C   0  0
    0.4313  -12.9162    0.0000 C   0  0
    0.4313  -13.7412    0.0000 C   0  0
    1.1459  -14.1537    0.0000 C   0  0
    1.1459  -14.9787    0.0000 N   0  0
    1.8604  -15.3912    0.0000 C   0  0
    1.8604  -16.2162    0.0000 O   0  0
    2.5748  -14.9787    0.0000 C   0  0
    3.2893  -15.3933    0.0000 C   0  0
    4.0033  -14.9814    0.0000 C   0  0
    4.0038  -14.1556    0.0000 C   0  0
    3.2842  -13.7433    0.0000 C   0  0
    2.5732  -14.1574    0.0000 C   0  0
    4.7150  -15.3914    0.0000 C   0  0
    4.7133  -16.2175    0.0000 C   0  0
    5.4267  -16.6303    0.0000 C   0  0
    6.1424  -16.2181    0.0000 N   0  0
    6.1401  -15.3888    0.0000 C   0  0
    5.4261  -14.9798    0.0000 N   0  0
    6.8534  -14.9742    0.0000 N   0  0
 30 32  1  1
 32 33  1  0
 16 17  1  0
 33 34  1  0
  3  9  2  0
 34 35  1  0
 16 18  2  0
 35 36  1  0
  4  5  1  0
 36 37  1  0
 17 19  1  0
 36 38  2  0
  3 10  1  0
 31 39  1  0
 19 20  1  0
 31 40  2  0
  2  3  1  0
  1 41  1  0
 19 21  1  6
 41 42  1  0
 10 11  1  0
 41 43  2  0
 21 22  1  0
 42 44  1  0
  5  6  1  0
 44 45  1  0
 22 23  1  0
 45 46  1  0
 11 12  1  0
 46 47  1  0
 23 24  1  0
 47 48  1  0
  1  2  1  0
 48 49  1  0
 24 25  1  0
 49 50  2  0
 12 13  1  0
 49 51  1  0
 25 26  2  0
 51 52  2  0
  6  7  1  0
 52 53  1  0
 25 27  1  0
 53 54  2  0
 13 14  1  0
 54 55  1  0
 20 28  2  0
 55 56  2  0
 56 51  1  0
  2  4  1  6
 20 29  1  0
 57 58  2  0
 14 15  1  0
 58 59  1  0
 29 30  1  0
 59 60  2  0
  7  8  1  0
 60 61  1  0
 30 31  1  0
 61 62  2  0
 62 57  1  0
 53 57  1  0
 15 16  1  0
 61 63  1  0
M  END