
          05080814042D 1   1.00000     0.00000     0

 34 38  0     1  0            999 V2000
    7.8268    2.7678    0.0000 C   0  0  0  0  0  0           0  0  0
    7.1160    2.3530    0.0000 C   0  0  0  0  0  0           0  0  0
    7.1230    1.5266    0.0000 C   0  0  0  0  0  0           0  0  0
    7.8369    1.1232    0.0000 C   0  0  0  0  0  0           0  0  0
    8.5401    2.3606    0.0000 C   0  0  0  0  0  0           0  0  0
    8.5461    1.5330    0.0000 C   0  0  0  0  0  0           0  0  0
    9.2620    1.1266    0.0000 C   0  0  0  0  0  0           0  0  0
    9.2499    2.7820    0.0000 C   0  0  0  0  0  0           0  0  0
    9.9703    2.3711    0.0000 C   0  0  2  0  0  0           0  0  0
    9.9749    1.5415    0.0000 C   0  0  2  0  0  0           0  0  0
   10.6916    1.1329    0.0000 N   0  0  3  0  0  0           0  0  0
   11.4085    1.5493    0.0000 C   0  0  0  0  0  0           0  0  0
   11.4039    2.3789    0.0000 C   0  0  1  0  0  0           0  0  0
   10.6825    2.7921    0.0000 C   0  0  0  0  0  0           0  0  0
    9.9625    3.2000    0.0000 H   0  0  0  0  0  0           0  0  0
    9.9667    0.7167    0.0000 H   0  0  0  0  0  0           0  0  0
   12.1165    2.7946    0.0000 C   0  0  0  0  0  0           0  0  0
   12.8328    2.3853    0.0000 N   0  0  3  0  0  0           0  0  0
   12.1128    3.6196    0.0000 O   0  0  0  0  0  0           0  0  0
   12.8305    1.5572    0.0000 C   0  0  0  0  0  0           0  0  0
   13.5427    1.1479    0.0000 C   0  0  0  0  0  0           0  0  0
   14.2578    1.5601    0.0000 N   0  0  3  0  0  0           0  0  0
   14.2561    2.3861    0.0000 C   0  0  0  0  0  0           0  0  0
   13.5393    2.7999    0.0000 C   0  0  0  0  0  0           0  0  0
    7.8228    3.5928    0.0000 O   0  0  0  0  0  0           0  0  0
    7.1064    4.0064    0.0000 C   0  0  0  0  0  0           0  0  0
   10.6950    0.3079    0.0000 C   0  0  0  0  0  0           0  0  0
   14.9725    1.1481    0.0000 C   0  0  0  0  0  0           0  0  0
   14.9686    0.3239    0.0000 C   0  0  0  0  0  0           0  0  0
   15.6825   -0.0880    0.0000 C   0  0  0  0  0  0           0  0  0
   16.3977    0.3250    0.0000 C   0  0  0  0  0  0           0  0  0
   16.3945    1.1543    0.0000 C   0  0  0  0  0  0           0  0  0
   15.6800    1.5625    0.0000 C   0  0  0  0  0  0           0  0  0
   17.1072    1.5698    0.0000 F   0  0  0  0  0  0           0  0  0
 10 16  1  1     0  0
  6  7  1  0     0  0
 13 17  1  1     0  0
  7 10  1  0     0  0
 17 18  1  0     0  0
  9  8  1  0     0  0
 17 19  2  0     0  0
 18 20  1  0     0  0
  9 10  1  0     0  0
  3  4  2  0     0  0
  4  6  1  0     0  0
  5  6  2  0     0  0
  1  2  2  0     0  0
 18 24  1  0     0  0
 20 21  1  0     0  0
 21 22  1  0     0  0
 22 23  1  0     0  0
 23 24  1  0     0  0
  5  1  1  0     0  0
  1 25  1  0     0  0
  2  3  1  0     0  0
 25 26  1  0     0  0
  9 14  1  0     0  0
 11 27  1  0     0  0
 10 11  1  0     0  0
 22 28  1  0     0  0
 11 12  1  0     0  0
 28 29  2  0     0  0
 12 13  1  0     0  0
 29 30  1  0     0  0
 13 14  1  0     0  0
 30 31  2  0     0  0
 31 32  1  0     0  0
  9 15  1  6     0  0
 32 33  2  0     0  0
 33 28  1  0     0  0
  5  8  1  0     0  0
 32 34  1  0     0  0
M  END