
  SciTegic01091216402D

 25 27  0  0  0  0            999 V2000
    8.9447  -11.9894    0.0000 N   0  0
    8.9632  -12.8156    0.0000 N   0  0
    9.7516  -13.0489    0.0000 C   0  0
   10.2214  -12.3694    0.0000 C   0  0
    9.7201  -11.7152    0.0000 C   0  0
    8.2654  -11.5194    0.0000 C   0  0
    7.5481  -11.9266    0.0000 N   0  0
    8.2728  -10.6968    0.0000 N   0  0
   11.0477  -12.3508    0.0000 C   0  0
   11.4751  -13.0535    0.0000 C   0  0
    8.9902  -10.2897    0.0000 C   0  0
    9.7002  -10.7049    0.0000 C   0  0
    6.8375  -11.5102    0.0000 S   0  0
    7.2533  -10.8013    0.0000 O   0  0
    6.1350  -11.9450    0.0000 C   0  0
    6.1611  -12.7695    0.0000 C   0  0
    5.4588  -13.2045    0.0000 C   0  0
    6.2493  -10.9196    0.0000 O   0  0
    5.4066  -11.5554    0.0000 C   0  0
    4.7335  -12.8185    0.0000 C   0  0
    4.7052  -11.9920    0.0000 C   0  0
    3.9766  -11.6050    0.0000 C   0  0
    3.2756  -12.0435    0.0000 C   0  0
    3.3080  -12.8729    0.0000 C   0  0
    4.0372  -13.2562    0.0000 C   0  0
  1  6  1  0
  9 10  1  0
  4  9  1  0
 11 12  1  0
  8 11  1  0
 13 14  2  0
 15 16  1  0
 16 17  2  0
 17 20  1  0
 15 19  2  0
 13 15  1  0
  7 13  1  0
 13 18  2  0
  1  2  1  0
 21 19  1  0
  2  3  2  0
  3  4  1  0
 20 21  1  0
  4  5  1  0
 21 22  2  0
  1  5  1  0
 22 23  1  0
  6  7  2  0
 23 24  2  0
  6  8  1  0
 24 25  1  0
 25 20  2  0
M  END