
  Mrv0541 04051115152D          

 23 24  0  0  0  0            999 V2000
    2.3845    1.7785    0.0000 N   0  0  0  0  0  0  0  0  0  0  0  0
    1.6701    2.1910    0.0000 C   0  0  0  0  0  0  0  0  0  0  0  0
    0.9556    1.7785    0.0000 N   0  0  0  0  0  0  0  0  0  0  0  0
    0.9556    0.9535    0.0000 C   0  0  0  0  0  0  0  0  0  0  0  0
    1.6701    0.5410    0.0000 C   0  0  0  0  0  0  0  0  0  0  0  0
    2.3845    0.9535    0.0000 C   0  0  0  0  0  0  0  0  0  0  0  0
    0.2411    0.5410    0.0000 N   0  0  0  0  0  0  0  0  0  0  0  0
   -0.4733   -0.6965    0.0000 C   0  0  0  0  0  0  0  0  0  0  0  0
   -0.4733   -1.5215    0.0000 C   0  0  0  0  0  0  0  0  0  0  0  0
   -1.1878   -1.9340    0.0000 C   0  0  0  0  0  0  0  0  0  0  0  0
   -1.9023   -1.5215    0.0000 C   0  0  0  0  0  0  0  0  0  0  0  0
   -1.9023   -0.6965    0.0000 C   0  0  0  0  0  0  0  0  0  0  0  0
   -1.1878   -0.2840    0.0000 C   0  0  0  0  0  0  0  0  0  0  0  0
   -2.6168   -1.9340    0.0000 S   0  0  0  0  0  0  0  0  0  0  0  0
   -3.3312   -2.3465    0.0000 O   0  0  0  0  0  0  0  0  0  0  0  0
   -2.2043   -2.6485    0.0000 O   0  0  0  0  0  0  0  0  0  0  0  0
   -3.0293   -1.2196    0.0000 N   0  0  0  0  0  0  0  0  0  0  0  0
    1.6701   -0.2840    0.0000 C   0  0  0  0  0  0  0  0  0  0  0  0
    2.3845   -0.6965    0.0000 O   0  0  0  0  0  0  0  0  0  0  0  0
    3.0990    0.5410    0.0000 Cl  0  0  0  0  0  0  0  0  0  0  0  0
    1.6701    3.0160    0.0000 S   0  0  0  0  0  0  0  0  0  0  0  0
    0.9556    3.4285    0.0000 C   0  0  0  0  0  0  0  0  0  0  0  0
    0.2411   -0.2840    0.0000 C   0  0  0  0  0  0  0  0  0  0  0  0
  2  1  2  0  0  0  0
  6  1  1  0  0  0  0
  2  3  1  0  0  0  0
  2 21  1  0  0  0  0
  4  3  2  0  0  0  0
  4  5  1  0  0  0  0
  4  7  1  0  0  0  0
  5  6  2  0  0  0  0
 18  5  1  0  0  0  0
  6 20  1  0  0  0  0
 23  7  1  0  0  0  0
  8  9  2  0  0  0  0
 13  8  1  0  0  0  0
 23  8  1  0  0  0  0
 10  9  1  0  0  0  0
 10 11  2  0  0  0  0
 11 12  1  0  0  0  0
 11 14  1  0  0  0  0
 12 13  2  0  0  0  0
 15 14  2  0  0  0  0
 16 14  2  0  0  0  0
 17 14  1  0  0  0  0
 18 19  2  0  0  0  0
 22 21  1  0  0  0  0
M  END