
  SciTegic12231509382D

 19 19  0  0  0  0            999 V2000
   -0.4064   -0.5449    0.0000 C   0  0
   -0.4064    0.2679    0.0000 C   0  0
    0.3101    1.5051    0.0000 N   0  0
    0.3011    0.6923    0.0000 C   0  0
    0.3101   -0.9693    0.0000 C   0  0
   -1.1168   -0.9693    0.0000 C   0  0
   -0.3853    1.9115    0.0000 C   0  0
    0.3101   -1.8002    0.0000 C   0  0
   -1.1168   -1.8002    0.0000 C   0  0
   -1.1168    0.6743    0.0000 O   0  0
   -0.4064   -2.2246    0.0000 C   0  0
    1.0295   -0.5449    0.0000 O   0  0
   -1.8333   -2.2156    0.0000 O   0  0
    1.0115    0.2950    0.0000 C   0  0
   -1.0716    2.3359    0.0000 C   0  0
   -0.8128    1.2161    0.0000 C   0  0
    0.0301    2.5978    0.0000 C   0  0
    1.7370   -0.9513    0.0000 C   0  0
   -2.5437   -1.8092    0.0000 C   0  0
  2  1  1  0
  4  3  1  0
  4  2  1  0
  5  1  1  0
  6  1  2  0
  7  3  1  0
  8  5  2  0
  9  6  1  0
  2 10  1  0
 11  9  2  0
 12  5  1  0
 13  9  1  0
 14  4  1  0
 15  7  1  0
 16  7  1  0
 17  7  1  0
 18 12  1  0
 19 13  1  0
  8 11  1  0
M  END