
  SciTegic01181116592D

 17 18  0  0  0  0            999 V2000
    3.0983  -19.5523    0.0000 C   0  0
    3.0971  -20.3796    0.0000 C   0  0
    3.8119  -20.7925    0.0000 C   0  0
    3.8101  -19.1396    0.0000 C   0  0
    4.5254  -19.5487    0.0000 C   0  0
    4.5262  -20.3754    0.0000 C   0  0
    5.2414  -20.7864    0.0000 N   0  0
    5.9564  -20.3716    0.0000 C   0  0
    5.9516  -19.5418    0.0000 C   0  0
    5.2357  -19.1345    0.0000 N   0  0
    6.6635  -19.1249    0.0000 C   0  0
    7.3803  -19.5331    0.0000 N   0  0
    6.6585  -18.3000    0.0000 O   0  0
    8.0923  -19.1163    0.0000 C   0  0
    8.8092  -19.5244    0.0000 C   0  0
    9.5210  -19.1076    0.0000 C   0  0
   10.2380  -19.5157    0.0000 C   0  0
  5  4  2  0
  8  9  1  0
  4  1  1  0
  9 10  2  0
 10  5  1  0
  9 11  1  0
  2  3  1  0
 11 12  1  0
  5  6  1  0
 11 13  2  0
  3  6  2  0
 12 14  1  0
  6  7  1  0
 14 15  1  0
  1  2  2  0
 15 16  1  0
  7  8  2  0
 16 17  1  0
M  END