
  Mrv0541 04051115152D          

 12 13  0  0  0  0            999 V2000
    0.5851   -0.4330    0.0000 C   0  0  0  0  0  0  0  0  0  0  0  0
    0.3302   -1.2177    0.0000 C   0  0  0  0  0  0  0  0  0  0  0  0
   -0.4948   -1.2177    0.0000 N   0  0  0  0  0  0  0  0  0  0  0  0
   -0.7498   -0.4330    0.0000 N   0  0  0  0  0  0  0  0  0  0  0  0
   -0.0823    0.0519    0.0000 C   0  0  0  0  0  0  0  0  0  0  0  0
   -0.0823    0.8769    0.0000 C   0  0  0  0  0  0  0  0  0  0  0  0
   -0.7498    1.3618    0.0000 S   0  0  0  0  0  0  0  0  0  0  0  0
   -0.4948    2.1464    0.0000 C   0  0  0  0  0  0  0  0  0  0  0  0
    0.3302    2.1464    0.0000 C   0  0  0  0  0  0  0  0  0  0  0  0
    0.5851    1.3618    0.0000 C   0  0  0  0  0  0  0  0  0  0  0  0
   -0.9797   -1.8851    0.0000 C   0  0  0  0  0  0  0  0  0  0  0  0
    0.8151   -1.8851    0.0000 N   0  0  0  0  0  0  0  0  0  0  0  0
  1  2  2  0  0  0  0
  1  5  1  0  0  0  0
  2  3  1  0  0  0  0
  2 12  1  0  0  0  0
  3  4  1  0  0  0  0
 11  3  1  0  0  0  0
  5  4  2  0  0  0  0
  5  6  1  0  0  0  0
  6  7  1  0  0  0  0
 10  6  2  0  0  0  0
  8  7  1  0  0  0  0
  8  9  2  0  0  0  0
 10  9  1  0  0  0  0
M  END