
          11280715122D 1   1.00000     0.00000     0

 31 33  0     0  0            999 V2000
    0.1292   -2.7042    0.0000 C   0  0  0  0  0  0           0  0  0
    5.6042   -3.8375    0.0000 C   0  0  0  0  0  0           0  0  0
    4.8917   -3.4292    0.0000 C   0  0  0  0  0  0           0  0  0
    0.8417   -2.2875    0.0000 C   0  0  3  0  0  0           0  0  0
    0.1292   -3.5292    0.0000 C   0  0  0  0  0  0           0  0  0
    0.8417   -3.9417    0.0000 N   0  0  3  0  0  0           0  0  0
    5.6042   -4.6667    0.0000 C   0  0  0  0  0  0           0  0  0
    2.2042   -4.8667    0.0000 N   0  0  3  0  0  0           0  0  0
    4.8917   -2.6042    0.0000 N   0  0  3  0  0  0           0  0  0
    6.3167   -5.0792    0.0000 N   0  0  0  0  0  0           0  0  0
    4.1750   -3.8417    0.0000 O   0  0  0  0  0  0           0  0  0
    0.7875   -4.7667    0.0000 C   0  0  0  0  0  0           0  0  0
    1.5875   -3.5792    0.0000 C   0  0  0  0  0  0           0  0  0
    1.5542   -2.6917    0.0000 F   0  0  0  0  0  0           0  0  0
    0.8375   -1.4625    0.0000 F   0  0  0  0  0  0           0  0  0
    1.5542   -1.8667    0.0000 F   0  0  0  0  0  0           0  0  0
    4.8917   -5.0792    0.0000 N   0  0  0  0  0  0           0  0  0
    2.2667   -4.0417    0.0000 C   0  0  0  0  0  0           0  0  0
    1.4667   -5.2250    0.0000 C   0  0  0  0  0  0           0  0  0
   -0.5875   -2.2917    0.0000 C   0  0  0  0  0  0           0  0  0
    6.3167   -3.4250    0.0000 C   0  0  0  0  0  0           0  0  0
    2.8875   -5.3292    0.0000 C   0  0  0  0  0  0           0  0  0
    3.6000   -4.9125    0.0000 C   0  0  0  0  0  0           0  0  0
   -0.5875   -3.9417    0.0000 C   0  0  0  0  0  0           0  0  0
    7.0292   -4.6667    0.0000 C   0  0  0  0  0  0           0  0  0
    4.1792   -5.4917    0.0000 C   0  0  0  0  0  0           0  0  0
    5.6042   -2.1875    0.0000 C   0  0  0  0  0  0           0  0  0
    4.1750   -2.1917    0.0000 C   0  0  0  0  0  0           0  0  0
    7.0292   -3.8375    0.0000 C   0  0  0  0  0  0           0  0  0
   -1.3000   -2.7042    0.0000 C   0  0  0  0  0  0           0  0  0
   -1.3000   -3.5292    0.0000 C   0  0  0  0  0  0           0  0  0
  2  7  2  0     0  0
  3  2  1  0     0  0
  4  1  1  0     0  0
  5  1  1  0     0  0
  6  5  1  0     0  0
  7 17  1  0     0  0
  8 18  1  0     0  0
  9  3  1  0     0  0
 10  7  1  0     0  0
 11  3  2  0     0  0
 12  6  1  0     0  0
 13  6  1  0     0  0
 14  4  1  0     0  0
 15  4  1  0     0  0
 16  4  1  0     0  0
 17 26  1  0     0  0
 18 13  1  0     0  0
 19 12  1  0     0  0
 20  1  2  0     0  0
 21  2  1  0     0  0
 22  8  1  0     0  0
 23 22  1  0     0  0
 24  5  2  0     0  0
 25 10  2  0     0  0
 26 23  1  0     0  0
 27  9  1  0     0  0
 28  9  1  0     0  0
 29 25  1  0     0  0
 30 20  1  0     0  0
 31 30  2  0     0  0
 24 31  1  0     0  0
  8 19  1  0     0  0
 29 21  2  0     0  0
M  END