
  SciTegic01161211232D

 26 27  0  0  0  0            999 V2000
   -3.8542   -5.5875    0.0000 C   0  0
   -3.8542   -6.4125    0.0000 C   0  0
   -3.1421   -6.8208    0.0000 N   0  0
   -2.4301   -6.4125    0.0000 C   0  0
   -2.4301   -5.5875    0.0000 C   0  0
   -3.1421   -5.1708    0.0000 C   0  0
   -3.1417   -4.3467    0.0000 C   0  0
   -2.4256   -3.9348    0.0000 C   0  0
   -2.4252   -3.1106    0.0000 C   0  0
   -3.1403   -2.6972    0.0000 C   0  0
   -3.8571   -3.1142    0.0000 C   0  0
   -3.8539   -3.9370    0.0000 C   0  0
   -4.5698   -5.1771    0.0000 C   0  0
   -4.5723   -4.3521    0.0000 O   0  0
   -5.2831   -5.5917    0.0000 O   0  0
   -4.5680   -6.8260    0.0000 C   0  0
   -1.7163   -6.8260    0.0000 C   0  0
   -1.7145   -5.1771    0.0000 C   0  0
   -1.0012   -5.5917    0.0000 O   0  0
   -1.7120   -4.3521    0.0000 O   0  0
   -0.2855   -5.1813    0.0000 C   0  0
   -1.7078   -2.6963    0.0000 N   0  3
   -1.7074   -1.8713    0.0000 O   0  0
   -0.9935   -3.1091    0.0000 O   0  5
    0.4277   -5.5959    0.0000 C   0  0
   -5.9988   -5.1813    0.0000 C   0  0
  5  6  1  0
  1 13  1  0
 13 14  2  0
  1  2  2  0
 13 15  1  0
  7  8  2  0
  2 16  1  0
  1  6  1  0
  4 17  1  0
  8  9  1  0
  5 18  1  0
  2  3  1  0
 18 19  1  0
  9 10  2  0
 18 20  2  0
  3  4  1  0
 19 21  1  0
 10 11  1  0
  4  5  2  0
 11 12  2  0
 22 23  2  0
 22 24  1  0
  9 22  1  0
 12  7  1  0
 21 25  1  0
  6  7  1  0
 15 26  1  0
M  CHG  2  22   1  24  -1
M  END