
          11280714552D 1   1.00000     0.00000     0

 18 20  0     1  0            999 V2000
    8.9542   -4.4917    0.0000 N   0  0  3  0  0  0           0  0  0
    9.4500   -3.8167    0.0000 C   0  0  1  0  0  0           0  0  0
    8.1625   -4.2292    0.0000 C   0  0  0  0  0  0           0  0  0
    8.9625   -3.1375    0.0000 C   0  0  2  0  0  0           0  0  0
    8.1667   -3.3917    0.0000 C   0  0  0  0  0  0           0  0  0
   10.2667   -3.8167    0.0000 C   0  0  0  0  0  0           0  0  0
   10.6917   -3.1042    0.0000 N   0  0  0  0  0  0           0  0  0
   10.8167   -4.4292    0.0000 N   0  0  0  0  0  0           0  0  0
    8.9500   -5.3167    0.0000 C   0  0  0  0  0  0           0  0  0
    8.3750   -2.5500    0.0000 C   0  0  0  0  0  0           0  0  0
    7.4417   -4.6417    0.0000 C   0  0  0  0  0  0           0  0  0
    7.4417   -2.9875    0.0000 C   0  0  0  0  0  0           0  0  0
   11.5000   -3.2875    0.0000 C   0  0  0  0  0  0           0  0  0
   11.5750   -4.1042    0.0000 C   0  0  0  0  0  0           0  0  0
    6.7292   -4.2292    0.0000 C   0  0  0  0  0  0           0  0  0
    6.7292   -3.4000    0.0000 C   0  0  0  0  0  0           0  0  0
    9.4417   -4.6417    0.0000 H   0  0  0  0  0  0           0  0  0
    9.3667   -2.4167    0.0000 H   0  0  0  0  0  0           0  0  0
  2  1  1  0     0  0
  3  1  1  0     0  0
  4  2  1  0     0  0
  5  3  1  0     0  0
  2  6  1  1     0  0
  7  6  2  0     0  0
  8  6  1  0     0  0
  9  1  1  0     0  0
  4 10  1  6     0  0
 11  3  2  0     0  0
 12  5  2  0     0  0
 13  7  1  0     0  0
 14  8  1  0     0  0
 15 11  1  0     0  0
 16 15  2  0     0  0
  2 17  1  6     0  0
  4 18  1  1     0  0
  4  5  1  0     0  0
 12 16  1  0     0  0
 14 13  1  0     0  0
M  END