
  SciTegic09291413392D

 29 28  0  0  0  0            999 V2000
   11.6014   -9.0899    0.0000 Br  0  5
   15.3371  -13.2185    0.0000 Br  0  5
    9.1837  -11.0952    0.0000 N   0  0
   11.2990   -9.8756    0.0000 C   0  0
   15.6376   -7.4365    0.0000 C   0  0
   14.9311  -11.0952    0.0000 C   0  0
   15.6376  -10.6873    0.0000 C   0  0
    8.4813  -10.6873    0.0000 C   0  0
   16.3400   -8.6559    0.0000 O   0  0
   10.5925  -11.0952    0.0000 C   0  0
   15.6376   -9.8756    0.0000 C   0  0
   11.2990  -10.6873    0.0000 N   0  3
    9.8902  -10.6873    0.0000 C   0  0
   10.5925   -9.4719    0.0000 C   0  0
    7.7705  -11.0952    0.0000 C   0  0
   14.9311   -9.4719    0.0000 C   0  0
   14.9311   -8.6559    0.0000 N   0  0
   13.4927  -11.1132    0.0000 C   0  0
   16.3400   -7.0284    0.0000 N   0  0
   14.2282  -10.6883    0.0000 N   0  3
    9.8902   -9.8756    0.0000 C   0  0
   12.0302  -11.1127    0.0000 C   0  0
   15.6376   -8.2480    0.0000 C   0  0
    7.0681  -10.6873    0.0000 N   0  0
    8.4813   -9.8756    0.0000 O   0  0
   14.2244   -9.8756    0.0000 C   0  0
   12.7616  -10.6878    0.0000 C   0  0
   17.0488   -7.4351    0.0000 O   0  0
    7.0702   -9.8701    0.0000 O   0  0
 23  9  2  0
 13  3  1  0
  6 20  1  0
 16 17  1  0
 13 21  2  0
 26 16  1  0
 27 18  1  0
  8 25  2  0
 10 13  1  0
 23  5  1  0
 18 20  1  0
 15 24  2  0
 16 11  2  0
 11  7  1  0
 14  4  2  0
 22 27  1  0
  5 19  2  0
  7  6  2  0
 23 17  1  0
 26 20  2  0
  8 15  1  0
 12 22  1  0
  8  3  1  0
  4 12  1  0
 21 14  1  0
 10 12  2  0
 19 28  1  0
 24 29  1  0
M  CHG  4   1  -1   2  -1  12   1  20   1
M  END