
          11280714522D 1   1.00000     0.00000     0

 55 60  0     1  0            999 V2000
    6.1542   -1.0250    0.0000 N   0  0  0  0  0  0           0  0  0
    6.5167   -0.2667    0.0000 C   0  0  2  0  0  0           0  0  0
    5.3417    0.6625    0.0000 N   0  0  3  0  0  0           0  0  0
    6.1542    0.4833    0.0000 C   0  0  0  0  0  0           0  0  0
    5.3417   -1.2125    0.0000 C   0  0  0  0  0  0           0  0  0
    4.6917   -0.6917    0.0000 C   0  0  0  0  0  0           0  0  0
    7.3417   -0.2667    0.0000 N   0  0  0  0  0  0           0  0  0
    4.6917    0.1375    0.0000 C   0  0  0  0  0  0           0  0  0
    7.7542   -0.9792    0.0000 C   0  0  0  0  0  0           0  0  0
    8.5792   -0.9792    0.0000 N   0  0  0  0  0  0           0  0  0
    1.8167  -11.5625    0.0000 N   0  0  3  0  0  0           0  0  0
    6.5667   -6.2292    0.0000 C   0  0  0  0  0  0           0  0  0
    7.7542   -3.8292    0.0000 C   0  0  0  0  0  0           0  0  0
    6.6667    1.1333    0.0000 O   0  0  0  0  0  0           0  0  0
    5.1625   -2.0167    0.0000 C   0  0  0  0  0  0           0  0  0
    7.3417   -1.6917    0.0000 O   0  0  0  0  0  0           0  0  0
    7.3500   -5.9750    0.0000 C   0  0  0  0  0  0           0  0  0
    8.9917   -1.6917    0.0000 C   0  0  0  0  0  0           0  0  0
    5.9542   -5.6792    0.0000 O   0  0  0  0  0  0           0  0  0
    7.3417   -3.1167    0.0000 O   0  0  0  0  0  0           0  0  0
    2.6042  -11.3000    0.0000 C   0  0  0  0  0  0           0  0  0
    2.7667  -10.4917    0.0000 C   0  0  0  0  0  0           0  0  0
    8.9917   -3.1167    0.0000 C   0  0  0  0  0  0           0  0  0
    7.3417   -4.5500    0.0000 N   0  0  0  0  0  0           0  0  0
    8.5792   -3.8292    0.0000 C   0  0  0  0  0  0           0  0  0
    6.4000   -7.0417    0.0000 N   0  0  0  0  0  0           0  0  0
    8.5792   -2.4042    0.0000 C   0  0  0  0  0  0           0  0  0
    5.1542    1.4708    0.0000 C   0  0  0  0  0  0           0  0  0
    3.5500  -10.2292    0.0000 C   0  0  0  0  0  0           0  0  0
    7.7625   -5.2625    0.0000 C   0  0  0  0  0  0           0  0  0
    3.9750   -1.1042    0.0000 C   0  0  0  0  0  0           0  0  0
    3.7125   -9.4292    0.0000 C   0  0  0  0  0  0           0  0  0
    3.9750    0.5500    0.0000 C   0  0  0  0  0  0           0  0  0
    5.4500   -8.1042    0.0000 C   0  0  0  0  0  0           0  0  0
    4.4917   -9.1667    0.0000 O   0  0  0  0  0  0           0  0  0
    1.2042  -11.0125    0.0000 C   0  0  0  0  0  0           0  0  0
    1.6542  -12.3667    0.0000 C   0  0  0  0  0  0           0  0  0
   10.2292   -2.3917    0.0000 C   0  0  0  0  0  0           0  0  0
    2.3167   -9.1292    0.0000 C   0  0  0  0  0  0           0  0  0
    5.6167   -7.2917    0.0000 C   0  0  0  0  0  0           0  0  0
    9.8167   -1.6875    0.0000 C   0  0  0  0  0  0           0  0  0
    9.8167   -3.1167    0.0000 C   0  0  0  0  0  0           0  0  0
    2.1500   -9.9417    0.0000 C   0  0  0  0  0  0           0  0  0
    4.3750   -2.2542    0.0000 C   0  0  0  0  0  0           0  0  0
    5.7667   -2.5667    0.0000 C   0  0  0  0  0  0           0  0  0
    4.6667   -8.3625    0.0000 C   0  0  0  0  0  0           0  0  0
    3.1000   -8.8750    0.0000 C   0  0  0  0  0  0           0  0  0
    3.2625   -0.6917    0.0000 C   0  0  0  0  0  0           0  0  0
    3.2625    0.1375    0.0000 C   0  0  0  0  0  0           0  0  0
    0.4250  -11.2667    0.0000 C   0  0  0  0  0  0           0  0  0
    0.8667  -12.6250    0.0000 C   0  0  0  0  0  0           0  0  0
    5.5875   -3.3667    0.0000 C   0  0  0  0  0  0           0  0  0
    4.1917   -3.0542    0.0000 C   0  0  0  0  0  0           0  0  0
    0.2542  -12.0750    0.0000 C   0  0  0  0  0  0           0  0  0
    4.7917   -3.6167    0.0000 C   0  0  0  0  0  0           0  0  0
  2  1  1  0     0  0
  3  4  1  0     0  0
  4  2  1  0     0  0
  5  1  2  0     0  0
  6  5  1  0     0  0
  2  7  1  6     0  0
  8  6  1  0     0  0
  9  7  1  0     0  0
 10  9  1  0     0  0
 11 21  1  0     0  0
 12 17  1  0     0  0
 13 25  1  0     0  0
 14  4  2  0     0  0
 15  5  1  0     0  0
 16  9  2  0     0  0
 17 30  1  0     0  0
 18 10  1  0     0  0
 19 12  2  0     0  0
 20 13  2  0     0  0
 21 22  1  0     0  0
 22 29  2  0     0  0
 23 27  1  0     0  0
 24 13  1  0     0  0
 25 23  1  0     0  0
 26 12  1  0     0  0
 27 18  2  0     0  0
 28  3  1  0     0  0
 29 32  1  0     0  0
 30 24  1  0     0  0
 31  6  2  0     0  0
 32 35  1  0     0  0
 33  8  2  0     0  0
 34 40  1  0     0  0
 35 46  1  0     0  0
 36 11  1  0     0  0
 37 11  1  0     0  0
 38 41  2  0     0  0
 39 47  1  0     0  0
 40 26  1  0     0  0
 41 18  1  0     0  0
 42 38  1  0     0  0
 43 39  2  0     0  0
 44 15  2  0     0  0
 45 15  1  0     0  0
 46 34  1  0     0  0
 47 32  2  0     0  0
 48 31  1  0     0  0
 49 48  2  0     0  0
 50 36  1  0     0  0
 51 37  1  0     0  0
 52 45  2  0     0  0
 53 44  1  0     0  0
 54 51  1  0     0  0
 55 52  1  0     0  0
  8  3  1  0     0  0
 53 55  2  0     0  0
 33 49  1  0     0  0
 23 42  2  0     0  0
 43 22  1  0     0  0
 50 54  1  0     0  0
M  END