
          03140815512D 1   1.00000     0.00000     0

 17 18  0     0  0            999 V2000
   14.5208  -26.5333    0.0000 N   0  0  3  0  0  0           0  0  0
   14.5208  -27.3583    0.0000 C   0  0  0  0  0  0           0  0  0
   15.2329  -27.7667    0.0000 C   0  0  0  0  0  0           0  0  0
   15.9449  -27.3583    0.0000 O   0  0  0  0  0  0           0  0  0
   15.9449  -26.5333    0.0000 C   0  0  0  0  0  0           0  0  0
   15.2329  -26.1167    0.0000 C   0  0  0  0  0  0           0  0  0
   13.8052  -26.1229    0.0000 C   0  0  0  0  0  0           0  0  0
   13.8027  -25.2979    0.0000 O   0  0  0  0  0  0           0  0  0
   13.0919  -26.5375    0.0000 C   0  0  0  0  0  0           0  0  0
   12.3762  -26.1271    0.0000 O   0  0  0  0  0  0           0  0  0
   11.6630  -26.5417    0.0000 C   0  0  0  0  0  0           0  0  0
   10.9480  -26.1280    0.0000 C   0  0  0  0  0  0           0  0  0
   10.2352  -26.5419    0.0000 C   0  0  0  0  0  0           0  0  0
   10.2372  -27.3678    0.0000 C   0  0  0  0  0  0           0  0  0
   10.9579  -27.7780    0.0000 C   0  0  0  0  0  0           0  0  0
   11.6677  -27.3617    0.0000 C   0  0  0  0  0  0           0  0  0
    9.5197  -26.1311    0.0000 Cl  0  0  0  0  0  0           0  0  0
  1  6  1  0     0  0
  7  9  1  0     0  0
  2  3  1  0     0  0
  9 10  1  0     0  0
  3  4  1  0     0  0
 10 11  1  0     0  0
  4  5  1  0     0  0
 11 12  2  0     0  0
  5  6  1  0     0  0
 12 13  1  0     0  0
 13 14  2  0     0  0
  1  7  1  0     0  0
 14 15  1  0     0  0
  1  2  1  0     0  0
 15 16  2  0     0  0
 16 11  1  0     0  0
  7  8  2  0     0  0
 13 17  1  0     0  0
M  END