
          11280715422D 1   1.00000     0.00000     0

 16 17  0     0  0            999 V2000
    2.3542    0.4625    0.0000 S   0  0  3  0  0  0           0  0  0
   -0.5583    0.5625    0.0000 O   0  0  0  0  0  0           0  0  0
   -1.2708    0.1333    0.0000 C   0  0  0  0  0  0           0  0  0
    1.5917    0.1250    0.0000 O   0  0  0  0  0  0           0  0  0
    2.0167    1.2125    0.0000 O   0  0  0  0  0  0           0  0  0
    2.6792   -0.3000    0.0000 O   0  0  0  0  0  0           0  0  0
    3.1042    0.7875    0.0000 N   0  0  0  0  0  0           0  0  0
   -1.2708   -0.7000    0.0000 C   0  0  0  0  0  0           0  0  0
    0.8792    0.5458    0.0000 C   0  0  0  0  0  0           0  0  0
    0.1667    0.1333    0.0000 C   0  0  3  0  0  0           0  0  0
   -0.5583   -1.1167    0.0000 C   0  0  0  0  0  0           0  0  0
    0.1667   -0.7000    0.0000 C   0  0  0  0  0  0           0  0  0
   -1.9833    0.5458    0.0000 C   0  0  0  0  0  0           0  0  0
   -1.9833   -1.1000    0.0000 C   0  0  0  0  0  0           0  0  0
   -2.6958    0.1333    0.0000 C   0  0  0  0  0  0           0  0  0
   -2.6958   -0.6917    0.0000 C   0  0  0  0  0  0           0  0  0
  2 10  1  0     0  0
  3  2  1  0     0  0
  4  1  1  0     0  0
  5  1  2  0     0  0
  6  1  2  0     0  0
  7  1  1  0     0  0
  8 11  1  0     0  0
  9  4  1  0     0  0
 10  9  1  0     0  0
 11 12  1  0     0  0
 12 10  1  0     0  0
 13  3  2  0     0  0
 14  8  2  0     0  0
 15 13  1  0     0  0
 16 14  1  0     0  0
  8  3  1  0     0  0
 16 15  2  0     0  0
M  END