
  SciTegic01091216402D

 11 10  0  0  0  0            999 V2000
    4.5875   -4.6729    0.0000 C   0  0
    5.4125   -4.6729    0.0000 C   0  0  2  0  0  0
    5.8250   -3.9612    0.0000 C   0  0
    6.6500   -3.9612    0.0000 C   0  0
    7.0625   -4.6729    0.0000 C   0  0
    7.8875   -4.6729    0.0000 C   0  0
    8.3000   -5.3888    0.0000 C   0  0
    4.1750   -3.9612    0.0000 O   0  0
    4.1750   -5.3888    0.0000 O   0  0
    9.1250   -5.3888    0.0000 O   0  0
    5.8250   -5.3888    0.0000 N   0  0
  1  2  1  0
  2  3  1  0
  3  4  1  0
  4  5  1  0
  5  6  1  0
  6  7  1  0
  1  8  2  0
  1  9  1  0
  7 10  2  0
  2 11  1  6
M  END