
          11290713132D 1   1.00000     0.00000     0

 49 52  0     1  0            999 V2000
    5.9622    0.4890    0.0000 N   0  0  0  0  0  0           0  0  0
    6.6787    0.9023    0.0000 C   0  0  0  0  0  0           0  0  0
    6.6758    1.7328    0.0000 C   0  0  0  0  0  0           0  0  0
    5.9604    2.1420    0.0000 C   0  0  0  0  0  0           0  0  0
    5.2474    0.9018    0.0000 C   0  0  0  0  0  0           0  0  0
    5.2497    1.7274    0.0000 C   0  0  0  0  0  0           0  0  0
    4.5370    2.1404    0.0000 C   0  0  0  0  0  0           0  0  0
    3.8216    1.7289    0.0000 C   0  0  0  0  0  0           0  0  0
    3.8233    0.9002    0.0000 C   0  0  0  0  0  0           0  0  0
    4.5365    0.4910    0.0000 C   0  0  0  0  0  0           0  0  0
    4.5378   -0.3340    0.0000 O   0  0  0  0  0  0           0  0  0
    3.8240   -0.7477    0.0000 C   0  0  0  0  0  0           0  0  0
    3.8253   -1.5727    0.0000 C   0  0  0  0  0  0           0  0  0
    3.1106   -1.9832    0.0000 C   0  0  0  0  0  0           0  0  0
    3.1116   -2.8075    0.0000 C   0  0  0  0  0  0           0  0  0
    3.8272   -3.2197    0.0000 C   0  0  0  0  0  0           0  0  0
    4.5434   -2.8016    0.0000 C   0  0  0  0  0  0           0  0  0
    4.5389   -1.9787    0.0000 C   0  0  0  0  0  0           0  0  0
    2.3964   -1.5704    0.0000 Cl  0  0  0  0  0  0           0  0  0
    5.2510   -1.5620    0.0000 Cl  0  0  0  0  0  0           0  0  0
    5.2600   -3.2104    0.0000 S   0  0  3  0  0  0           0  0  0
    5.6667   -2.4917    0.0000 O   0  0  0  0  0  0           0  0  0
    4.8417   -3.9208    0.0000 O   0  0  0  0  0  0           0  0  0
    5.9708   -3.6208    0.0000 N   0  0  0  0  0  0           0  0  0
    7.3938    0.4909    0.0000 C   0  0  0  0  0  0           0  0  0
    5.9569    2.9670    0.0000 C   0  0  0  0  0  0           0  0  0
    6.6853   -3.2083    0.0000 C   0  0  3  0  0  0           0  0  0
    6.4667   -2.4083    0.0000 C   0  0  0  0  0  0           0  0  0
    6.8958   -4.0042    0.0000 C   0  0  0  0  0  0           0  0  0
    7.3958   -2.7917    0.0000 C   0  0  0  0  0  0           0  0  0
    8.1131   -3.1993    0.0000 N   0  0  3  0  0  0           0  0  0
    7.3902   -1.9667    0.0000 O   0  0  0  0  0  0           0  0  0
    8.1161   -4.0215    0.0000 C   0  0  0  0  0  0           0  0  0
    8.8292   -4.4290    0.0000 C   0  0  0  0  0  0           0  0  0
    9.5433   -4.0152    0.0000 N   0  0  3  0  0  0           0  0  0
    9.5397   -3.1892    0.0000 C   0  0  0  0  0  0           0  0  0
    8.8219   -2.7771    0.0000 C   0  0  0  0  0  0           0  0  0
   10.2590   -4.4255    0.0000 C   0  0  0  0  0  0           0  0  0
   10.2615   -5.2505    0.0000 O   0  0  0  0  0  0           0  0  0
   10.9722   -4.0109    0.0000 C   0  0  2  0  0  0           0  0  0
   11.6879   -4.4212    0.0000 C   0  0  0  0  0  0           0  0  0
   12.4012   -4.0066    0.0000 C   0  0  0  0  0  0           0  0  0
   13.1169   -4.4169    0.0000 C   0  0  0  0  0  0           0  0  0
   10.9698   -3.1859    0.0000 N   0  0  0  0  0  0           0  0  0
   13.8301   -4.0023    0.0000 C   0  0  0  0  0  0           0  0  0
   14.5458   -4.4126    0.0000 N   0  0  0  0  0  0           0  0  0
   15.2590   -3.9980    0.0000 C   0  0  0  0  0  0           0  0  0
   15.9748   -4.4083    0.0000 N   0  0  0  0  0  0           0  0  0
   15.2566   -3.1730    0.0000 N   0  0  0  0  0  0           0  0  0
 10 11  1  0     0  0
 21 24  1  0     0  0
  5  1  1  0     0  0
  2 25  1  0     0  0
 11 12  1  0     0  0
  4 26  1  0     0  0
  5  6  1  0     0  0
 24 27  1  0     0  0
 12 13  1  0     0  0
 27 28  1  0     0  0
  2  3  1  0     0  0
 27 29  1  0     0  0
 13 14  2  0     0  0
 27 30  1  0     0  0
  6  7  2  0     0  0
 30 31  1  0     0  0
 14 15  1  0     0  0
 30 32  2  0     0  0
 31 33  1  0     0  0
 15 16  2  0     0  0
  7  8  1  0     0  0
 16 17  1  0     0  0
  3  4  2  0     0  0
 31 37  1  0     0  0
 33 34  1  0     0  0
 34 35  1  0     0  0
 35 36  1  0     0  0
 36 37  1  0     0  0
 17 18  2  0     0  0
 35 38  1  0     0  0
 18 13  1  0     0  0
 38 39  2  0     0  0
  8  9  2  0     0  0
 38 40  1  0     0  0
 14 19  1  0     0  0
 40 41  1  0     0  0
  4  6  1  0     0  0
 41 42  1  0     0  0
 18 20  1  0     0  0
 42 43  1  0     0  0
  9 10  1  0     0  0
 40 44  1  1     0  0
 17 21  1  0     0  0
 43 45  1  0     0  0
 10  5  2  0     0  0
 45 46  1  0     0  0
 21 22  2  0     0  0
 46 47  1  0     0  0
  1  2  2  0     0  0
 47 48  1  0     0  0
 21 23  2  0     0  0
 47 49  2  0     0  0
M  END