
  Mrv0541 04051115152D          

 17 18  0  0  0  0            999 V2000
    0.5690    0.4682    0.0000 N   0  0  0  0  0  0  0  0  0  0  0  0
   -0.0984    0.9531    0.0000 C   0  0  0  0  0  0  0  0  0  0  0  0
   -0.7659    0.4682    0.0000 C   0  0  0  0  0  0  0  0  0  0  0  0
   -1.5505    0.7231    0.0000 C   0  0  0  0  0  0  0  0  0  0  0  0
   -1.7220    1.5301    0.0000 O   0  0  0  0  0  0  0  0  0  0  0  0
   -2.1636    0.1711    0.0000 O   0  0  0  0  0  0  0  0  0  0  0  0
    0.7990   -0.9839    0.0000 C   0  0  0  0  0  0  0  0  0  0  0  0
    1.6195   -0.8976    0.0000 C   0  0  0  0  0  0  0  0  0  0  0  0
    2.1044   -1.5651    0.0000 C   0  0  0  0  0  0  0  0  0  0  0  0
    1.7688   -2.3187    0.0000 C   0  0  0  0  0  0  0  0  0  0  0  0
    0.9483   -2.4050    0.0000 C   0  0  0  0  0  0  0  0  0  0  0  0
    0.4634   -1.7375    0.0000 C   0  0  0  0  0  0  0  0  0  0  0  0
    0.3141   -0.3164    0.0000 C   0  0  0  0  0  0  0  0  0  0  0  0
   -0.8129    2.1906    0.0000 O   0  0  0  0  0  0  0  0  0  0  0  0
    0.6160    2.1906    0.0000 O   0  0  0  0  0  0  0  0  0  0  0  0
   -0.5109   -0.3164    0.0000 N   0  0  0  0  0  0  0  0  0  0  0  0
   -0.0984    1.7781    0.0000 C   0  0  0  0  0  0  0  0  0  0  0  0
  2  1  1  0  0  0  0
 13  1  2  0  0  0  0
  2  3  2  0  0  0  0
  2 17  1  0  0  0  0
  3  4  1  0  0  0  0
  3 16  1  0  0  0  0
  4  5  2  0  0  0  0
  4  6  1  0  0  0  0
  7  8  1  0  0  0  0
  7 12  2  0  0  0  0
  7 13  1  0  0  0  0
  8  9  2  0  0  0  0
  9 10  1  0  0  0  0
 10 11  2  0  0  0  0
 11 12  1  0  0  0  0
 13 16  1  0  0  0  0
 17 14  2  0  0  0  0
 17 15  1  0  0  0  0
M  END