
          11280715182D 1   1.00000     0.00000     0

 40 44  0     0  0            999 V2000
   -3.0708   -0.8167    0.0000 C   0  0  0  0  0  0           0  0  0
   -3.8250   -1.1542    0.0000 N   0  0  3  0  0  0           0  0  0
   -4.3833   -0.5417    0.0000 N   0  0  0  0  0  0           0  0  0
   -3.1625    0.0000    0.0000 C   0  0  0  0  0  0           0  0  0
   -3.9708    0.1708    0.0000 C   0  0  0  0  0  0           0  0  0
   -2.3583   -1.2292    0.0000 N   0  0  0  0  0  0           0  0  0
   -1.6458   -0.8167    0.0000 C   0  0  0  0  0  0           0  0  0
   -0.2125   -0.8125    0.0000 C   0  0  0  0  0  0           0  0  0
   -0.9333   -1.2250    0.0000 N   0  0  0  0  0  0           0  0  0
    0.5042   -1.2167    0.0000 C   0  0  0  0  0  0           0  0  0
   -4.3083    0.9250    0.0000 C   0  0  3  0  0  0           0  0  0
    1.2167   -0.8042    0.0000 C   0  0  0  0  0  0           0  0  0
   -3.9958   -1.9625    0.0000 C   0  0  0  0  0  0           0  0  0
    2.6417    2.4833    0.0000 N   0  0  3  0  0  0           0  0  0
    1.2125    0.0083    0.0000 C   0  0  0  0  0  0           0  0  0
   -1.6458    0.0083    0.0000 O   0  0  0  0  0  0           0  0  0
   -0.2125    0.0125    0.0000 C   0  0  0  0  0  0           0  0  0
    0.5000    0.4250    0.0000 C   0  0  0  0  0  0           0  0  0
    2.6417    4.1292    0.0000 O   0  0  0  0  0  0           0  0  0
   -3.3833   -2.5125    0.0000 C   0  0  0  0  0  0           0  0  0
   -4.7833   -2.2167    0.0000 C   0  0  0  0  0  0           0  0  0
    1.9292    0.4208    0.0000 O   0  0  0  0  0  0           0  0  0
   -4.9458   -3.0292    0.0000 C   0  0  0  0  0  0           0  0  0
   -3.5458   -3.3167    0.0000 C   0  0  0  0  0  0           0  0  0
   -4.3333   -3.5792    0.0000 C   0  0  0  0  0  0           0  0  0
   -4.7250    1.6458    0.0000 C   0  0  0  0  0  0           0  0  0
    2.6417    1.6583    0.0000 C   0  0  0  0  0  0           0  0  0
    1.9292    1.2458    0.0000 C   0  0  0  0  0  0           0  0  0
   -5.1333    1.0083    0.0000 C   0  0  0  0  0  0           0  0  0
   -3.8250    1.5875    0.0000 C   0  0  0  0  0  0           0  0  0
   -4.3208    2.3583    0.0000 O   0  0  0  0  0  0           0  0  0
    1.9292    2.8958    0.0000 C   0  0  0  0  0  0           0  0  0
    3.3542    2.8958    0.0000 C   0  0  0  0  0  0           0  0  0
    0.5042   -2.0375    0.0000 C   0  0  0  0  0  0           0  0  0
    1.9250   -1.2125    0.0000 C   0  0  0  0  0  0           0  0  0
    1.9292    3.7208    0.0000 C   0  0  0  0  0  0           0  0  0
    3.3542    3.7208    0.0000 C   0  0  0  0  0  0           0  0  0
   -4.5000   -4.3792    0.0000 C   0  0  0  0  0  0           0  0  0
    1.2167   -2.4417    0.0000 C   0  0  0  0  0  0           0  0  0
    1.9292   -2.0292    0.0000 C   0  0  0  0  0  0           0  0  0
  2  1  1  0     0  0
  3  2  1  0     0  0
  4  1  2  0     0  0
  5  4  1  0     0  0
  6  1  1  0     0  0
  7  6  1  0     0  0
  8  9  1  0     0  0
  9  7  1  0     0  0
 10  8  2  0     0  0
 11  5  1  0     0  0
 12 10  1  0     0  0
 13  2  1  0     0  0
 14 27  1  0     0  0
 15 18  1  0     0  0
 16  7  2  0     0  0
 17  8  1  0     0  0
 18 17  2  0     0  0
 19 37  1  0     0  0
 20 13  1  0     0  0
 21 13  2  0     0  0
 22 15  1  0     0  0
 23 21  1  0     0  0
 24 20  2  0     0  0
 25 23  2  0     0  0
 26 11  1  0     0  0
 27 28  1  0     0  0
 28 22  1  0     0  0
 29 11  1  0     0  0
 30 11  1  0     0  0
 31 26  1  0     0  0
 32 14  1  0     0  0
 33 14  1  0     0  0
 34 10  1  0     0  0
 35 12  1  0     0  0
 36 32  1  0     0  0
 37 33  1  0     0  0
 38 25  1  0     0  0
 39 34  2  0     0  0
 40 39  1  0     0  0
  3  5  2  0     0  0
 25 24  1  0     0  0
 15 12  2  0     0  0
 35 40  2  0     0  0
 19 36  1  0     0  0
M  END