
  SciTegic11201309402D

173178  0  0  0  0            999 V2000
   10.4800   -7.7448    0.0000 N   0  0
   10.6445   -6.9687    0.0000 C   0  0
   10.0541   -6.4352    0.0000 N   0  0
   11.4013   -6.7197    0.0000 N   0  0
    7.8846  -10.0297    0.0000 N   0  0
    8.6373   -9.7848    0.0000 C   0  0  2  0  0  0
    9.0673  -11.0903    0.0000 O   0  0
    9.2255  -10.3141    0.0000 C   0  0
    8.8059   -9.0086    0.0000 C   0  0
    9.5586   -8.7596    0.0000 C   0  0
    9.7272   -7.9876    0.0000 C   0  0
    9.9845  -10.0692    0.0000 N   0  0
   10.5728  -10.6027    0.0000 C   0  0  2  0  0  0
   11.4920   -9.5775    0.0000 O   0  0
   11.3296  -10.3558    0.0000 C   0  0
   10.4083  -11.3747    0.0000 C   0  0
   10.9965  -11.9081    0.0000 C   0  0
   10.8320  -12.6843    0.0000 C   0  0
   11.7534  -11.6654    0.0000 C   0  0
   11.9179  -10.8871    0.0000 N   0  0
   12.6706  -10.6444    0.0000 C   0  0  2  0  0  0
   13.0944  -11.9498    0.0000 O   0  0
   13.2588  -11.1737    0.0000 C   0  0
   12.8392   -9.8682    0.0000 C   0  0  1  0  0  0
   13.5919   -9.6233    0.0000 C   0  0
   12.2447   -9.3389    0.0000 C   0  0
   12.4133   -8.5627    0.0000 C   0  0
   14.0157  -10.9288    0.0000 N   0  0
   14.6039  -11.4622    0.0000 C   0  0  2  0  0  0
   15.5253  -10.4412    0.0000 O   0  0
   15.3608  -11.2132    0.0000 C   0  0
   14.4416  -12.2343    0.0000 C   0  0
   15.0298  -12.7677    0.0000 C   0  0
   14.8653  -13.5439    0.0000 C   0  0
   15.4536  -14.0773    0.0000 O   0  0
   14.1085  -13.7866    0.0000 O   0  0
   15.9449  -11.7466    0.0000 N   0  0
   16.7039  -11.5018    0.0000 C   0  0  2  0  0  0
   17.1277  -12.8072    0.0000 O   0  0
   17.2963  -12.0311    0.0000 C   0  0
   16.8662  -10.7256    0.0000 C   0  0
   17.6231  -10.4829    0.0000 C   0  0
   17.7876   -9.7046    0.0000 O   0  0
   18.2114  -11.0100    0.0000 O   0  0
   18.0490  -11.7883    0.0000 N   0  0
   18.6372  -12.3196    0.0000 C   0  0  2  0  0  0
   19.5586  -11.3007    0.0000 O   0  0
   19.3900  -12.0728    0.0000 C   0  0
   18.4727  -13.0979    0.0000 C   0  0  1  0  0  0
   19.0610  -13.6251    0.0000 C   0  0
   17.7159  -13.3407    0.0000 C   0  0
   17.5514  -14.1127    0.0000 C   0  0
   19.9823  -12.6062    0.0000 N   0  0
   20.7351  -12.3613    0.0000 C   0  0  2  0  0  0
   21.1609  -13.6668    0.0000 O   0  0
   21.3233  -12.8906    0.0000 C   0  0
   20.9037  -11.5851    0.0000 C   0  0
   22.0802  -12.6457    0.0000 N   0  0
   22.6705  -13.1792    0.0000 C   0  0  2  0  0  0
   24.0156  -13.4636    0.0000 O   0  0
   23.4274  -12.9364    0.0000 C   0  0
   22.5060  -13.9512    0.0000 C   0  0
   23.0943  -14.4846    0.0000 C   0  0
   22.9298  -15.2608    0.0000 C   0  0
   23.8470  -14.2419    0.0000 C   0  0
   23.5897  -12.1581    0.0000 N   0  0
   24.3138  -11.8347    0.0000 C   0  0  2  0  0  0
   25.0044  -13.0233    0.0000 O   0  0
   25.0044  -12.2309    0.0000 C   0  0
   24.2316  -11.0440    0.0000 C   0  0
   23.0624  -11.5662    0.0000 C   0  0
   23.4551  -10.8808    0.0000 C   0  0
   27.5148   -8.8966    0.0000 N   0  0
   28.2495   -8.6073    0.0000 C   0  0
   28.8706   -9.0970    0.0000 N   0  0
   28.3692   -7.8180    0.0000 N   0  0
   25.6846  -11.8347    0.0000 N   0  0
   25.8038  -11.0481    0.0000 C   0  0  2  0  0  0
   24.4450  -10.8459    0.0000 O   0  0
   25.1801  -10.5524    0.0000 C   0  0
   26.5385  -10.7588    0.0000 C   0  0
   26.6581   -9.9695    0.0000 C   0  0
   27.3929   -9.6801    0.0000 C   0  0
   25.2979   -9.7692    0.0000 N   0  0
   24.6787   -9.2774    0.0000 C   0  0  2  0  0  0
   25.3730   -8.0896    0.0000 O   0  0
   24.6810   -8.4834    0.0000 C   0  0
   23.9391   -9.5670    0.0000 C   0  0
   23.3486   -8.2829    0.0000 C   0  0
   23.3157   -9.0715    0.0000 C   0  0
   22.6075   -8.0063    0.0000 N   0  0
   22.5550   -9.2857    0.0000 C   0  0
   22.1147   -8.6264    0.0000 C   0  0
   21.3214   -8.6743    0.0000 C   0  0
   20.9618   -9.3821    0.0000 C   0  0
   21.4037  -10.0467    0.0000 C   0  0
   22.1976   -9.9963    0.0000 C   0  0
   23.9951   -8.0789    0.0000 N   0  0
   24.0004   -7.2903    0.0000 C   0  0
   22.6263   -7.2797    0.0000 O   0  0
   23.3186   -6.8857    0.0000 C   0  0
   23.3240   -6.0971    0.0000 N   0  0
   22.6381   -5.6926    0.0000 C   0  0  2  0  0  0
   23.3323   -4.5048    0.0000 O   0  0
   22.6403   -4.8986    0.0000 C   0  0
   21.9457   -6.0866    0.0000 C   0  0
   21.9575   -4.4994    0.0000 N   0  0
   21.9639   -3.7054    0.0000 C   0  0  2  0  0  0
   22.6581   -2.5213    0.0000 O   0  0
   22.6517   -3.3116    0.0000 C   0  0
   21.2780   -3.3050    0.0000 C   0  0
   20.5856   -3.6949    0.0000 C   0  0
   19.9031   -3.3001    0.0000 C   0  0
   20.5834   -4.4934    0.0000 C   0  0
   23.3373   -3.7160    0.0000 N   0  0
   24.0255   -3.3220    0.0000 C   0  0  2  0  0  0
   24.7057   -4.5149    0.0000 O   0  0
   24.7080   -3.7209    0.0000 C   0  0
   24.0319   -2.5275    0.0000 C   0  0
   25.4408   -2.4606    0.0000 C   0  0
   24.7197   -2.1379    0.0000 C   0  0
   25.9751   -1.8739    0.0000 N   0  0
   24.8082   -1.3530    0.0000 C   0  0
   25.5823   -1.1879    0.0000 C   0  0
   25.8348   -0.4371    0.0000 C   0  0
   25.3056    0.1603    0.0000 C   0  0
   24.5283   -0.0079    0.0000 C   0  0
   24.2775   -0.7551    0.0000 C   0  0
   25.4003   -3.3269    0.0000 N   0  0
   26.0859   -3.7312    0.0000 C   0  0  2  0  0  0
   26.7763   -2.5428    0.0000 O   0  0
   26.7741   -3.3372    0.0000 C   0  0
   26.0795   -4.5253    0.0000 C   0  0
   26.7623   -4.9244    0.0000 C   0  0
   26.7601   -5.7184    0.0000 C   0  0
   26.0681   -6.1122    0.0000 O   0  0
   27.4460   -6.1188    0.0000 O   0  0
   27.4597   -3.7416    0.0000 N   0  0
   28.1479   -3.3476    0.0000 C   0  0  2  0  0  0
   28.8281   -4.5405    0.0000 O   0  0
   28.8303   -3.7465    0.0000 C   0  0
   28.1542   -2.5532    0.0000 C   0  0
   28.8421   -2.1594    0.0000 C   0  0
   28.8458   -1.3712    0.0000 O   0  0
   29.5277   -2.5596    0.0000 O   0  0
   29.5227   -3.3525    0.0000 N   0  0
   30.2083   -3.7527    0.0000 C   0  0  2  0  0  0
   30.8987   -2.5684    0.0000 O   0  0
   30.8964   -3.3629    0.0000 C   0  0
   30.2019   -4.5509    0.0000 C   0  0
   30.8847   -4.9459    0.0000 C   0  0
   31.5770   -4.5560    0.0000 O   0  0
   30.8824   -5.7440    0.0000 O   0  0
   31.5820   -3.7631    0.0000 O   0  0
   20.3111  -11.0521    0.0000 S   0  0
   21.2610   -5.6840    0.0000 S   0  0
    7.2930   -9.5001    0.0000 C   0  0  2  0  0  0
    6.5413   -9.7447    0.0000 C   0  0
    5.9498   -9.2192    0.0000 N   0  0
    6.3770  -10.5229    0.0000 O   0  0
    7.4573   -8.7219    0.0000 C   0  0
    8.2091   -8.4773    0.0000 C   0  0
    8.3734   -7.7032    0.0000 C   0  0
    7.7818   -7.1695    0.0000 C   0  0
    7.9461   -6.3954    0.0000 N   0  0
    5.1939   -9.4638    0.0000 C   0  0
    4.6024   -8.9342    0.0000 C   0  0
    3.8506   -9.1828    0.0000 C   0  0
    3.2591   -8.6533    0.0000 C   0  0
    2.5032   -8.8978    0.0000 N   0  0
    1.9455   -8.3360    0.0000 N   0  3
    1.3837   -7.7741    0.0000 N   0  5
   25.1520  -11.2894    0.0000 H   0  0
  8 12  1  0
 15 20  1  0
 23 28  1  0
 31 37  1  0
 40 45  1  0
 48 53  1  0
 56 58  1  0
 61 66  1  0
 69 77  1  0
 80 84  1  0
 87 98  1  0
101102  1  0
105107  1  0
110115  1  0
118129  1  0
132138  1  0
141146  1  0
149154  1  0
  1  2  1  0
  2  3  1  0
  2  4  2  0
  6  5  1  1
  6  8  1  0
  8  7  2  0
  6  9  1  0
  9 10  1  0
 10 11  1  0
 11  1  1  0
 13 12  1  6
 13 15  1  0
 15 14  2  0
 13 16  1  0
 16 17  1  0
 17 18  1  0
 17 19  1  0
 21 20  1  1
 21 23  1  0
 23 22  2  0
 21 24  1  0
 24 25  1  6
 24 26  1  0
 26 27  1  0
 29 28  1  6
 29 31  1  0
 31 30  2  0
 29 32  1  0
 32 33  1  0
 33 34  1  0
 34 35  2  0
 34 36  1  0
 38 37  1  1
 38 40  1  0
 40 39  2  0
 38 41  1  0
 41 42  1  0
 42 43  2  0
 42 44  1  0
 46 45  1  6
 46 48  1  0
 48 47  2  0
 46 49  1  0
 49 50  1  1
 49 51  1  0
 51 52  1  0
 54 53  1  1
 54 56  1  0
 56 55  2  0
 54 57  1  0
 58 59  1  0
 59 61  1  0
 61 60  2  0
 59 62  1  6
 62 63  1  0
 63 64  1  0
 63 65  1  0
 66 67  1  0
 67 69  1  0
 69 68  2  0
 67 70  1  0
 71 72  1  0
 72 70  1  0
 71 66  1  0
 73 74  1  0
 74 75  1  0
 74 76  2  0
 77 78  1  0
 78 80  1  0
 80 79  2  0
 78 81  1  6
 81 82  1  0
 82 83  1  0
 83 73  1  0
 84 85  1  0
 85 87  1  0
 87 86  2  0
 85 88  1  1
 88 90  1  0
 89 90  2  0
 90 92  1  0
 91 89  1  0
 93 91  1  0
 92 93  2  0
 93 94  1  0
 94 95  2  0
 95 96  1  0
 96 97  2  0
 97 92  1  0
 98 99  1  0
 99101  1  0
101100  2  0
102103  1  0
103105  1  1
105104  2  0
103106  1  0
108107  1  1
108110  1  0
110109  2  0
108111  1  0
111112  1  0
112113  1  0
112114  1  0
116115  1  1
116118  1  0
118117  2  0
116119  1  0
119121  1  0
120121  2  0
121123  1  0
122120  1  0
124122  1  0
123124  2  0
124125  1  0
125126  2  0
126127  1  0
127128  2  0
128123  1  0
130129  1  6
130132  1  0
132131  2  0
130133  1  0
133134  1  0
134135  1  0
135136  2  0
135137  1  0
139138  1  1
139141  1  0
141140  2  0
139142  1  0
142143  1  0
143144  2  0
143145  1  0
147146  1  6
147149  1  0
149148  2  0
147150  1  0
150151  1  0
151152  2  0
151153  1  0
 57155  1  0
106156  1  0
156155  1  0
157  5  1  6
157158  1  0
158159  1  0
158160  2  0
157161  1  0
161162  1  0
162163  1  0
163164  1  0
164165  1  0
159166  1  0
166167  1  0
167168  1  0
168169  1  0
169170  1  0
170171  2  0
171172  2  0
 67173  1  6
M  CHG  2 171   1 172  -1
M  END