
          11280714572D 1   1.00000     0.00000     0

 13 14  0     0  0            999 V2000
    1.6917   -4.8250    0.0000 C   0  0  0  0  0  0           0  0  0
    2.2125   -5.1250    0.0000 N   0  0  3  0  0  0           0  0  0
    1.1667   -5.1250    0.0000 N   0  0  0  0  0  0           0  0  0
    1.6917   -4.2167    0.0000 C   0  0  0  0  0  0           0  0  0
    3.2500   -5.7250    0.0000 N   0  0  0  0  0  0           0  0  0
    2.2042   -3.9167    0.0000 I   0  0  0  0  0  0           0  0  0
    2.7292   -4.8167    0.0000 C   0  0  0  0  0  0           0  0  0
    2.2125   -5.7250    0.0000 C   0  0  0  0  0  0           0  0  0
    2.7292   -6.0167    0.0000 C   0  0  0  0  0  0           0  0  0
    3.2500   -5.1167    0.0000 C   0  0  0  0  0  0           0  0  0
    0.6542   -4.8250    0.0000 C   0  0  0  0  0  0           0  0  0
    1.1667   -3.9167    0.0000 C   0  0  0  0  0  0           0  0  0
    0.6542   -4.2250    0.0000 C   0  0  0  0  0  0           0  0  0
  2  1  1  0     0  0
  3  1  2  0     0  0
  4  1  1  0     0  0
  5  9  1  0     0  0
  6  4  1  0     0  0
  7  2  1  0     0  0
  8  2  1  0     0  0
  9  8  1  0     0  0
 10  7  1  0     0  0
 11  3  1  0     0  0
 12  4  2  0     0  0
 13 12  1  0     0  0
 11 13  2  0     0  0
  5 10  1  0     0  0
M  END