
  SciTegic12011114592D

 16 18  0  0  0  0            999 V2000
    1.3698   -1.3142    0.0000 N   0  0
    2.0832   -0.8998    0.0000 C   0  0
    2.0811   -0.0748    0.0000 C   0  0
    1.3655    0.3358    0.0000 C   0  0
    0.6521   -0.0786    0.0000 C   0  0
   -0.0634    0.3320    0.0000 C   0  0
   -0.7768   -0.0823    0.0000 C   0  0
   -0.7746   -0.9073    0.0000 C   0  0
   -0.0591   -1.3180    0.0000 C   0  0
    0.6543   -0.9036    0.0000 C   0  0
    2.7988   -1.3105    0.0000 N   0  0
   -2.2451   -0.0092    0.0000 C   0  0
   -1.4924    0.3283    0.0000 C   0  0
   -1.5807    1.1485    0.0000 C   0  0
   -2.7988    0.6024    0.0000 C   0  0
   -2.3882    1.3180    0.0000 S   0  0
  1  2  2  0
  2  3  1  0
  3  4  2  0
  4  5  1  0
  5  6  2  0
  6  7  1  0
  7  8  2  0
  8  9  1  0
  9 10  2  0
  1 10  1  0
  5 10  1  0
  2 11  1  0
 12 13  1  0
 13 14  2  0
 14 16  1  0
 16 15  1  0
 12 15  2  0
  7 13  1  0
M  END