
          02060813472D 1   1.00000     0.00000     0

 35 39  0     1  0            999 V2000
    8.5236    1.4459    0.0000 C   0  0  0  0  0  0           0  0  0
    8.5224    0.6185    0.0000 C   0  0  0  0  0  0           0  0  0
    9.2372    0.2056    0.0000 C   0  0  0  0  0  0           0  0  0
    9.2354    1.8586    0.0000 C   0  0  0  0  0  0           0  0  0
    9.9508    1.4495    0.0000 C   0  0  0  0  0  0           0  0  0
    9.9516    0.6227    0.0000 C   0  0  0  0  0  0           0  0  0
   10.6669    0.2117    0.0000 N   0  0  0  0  0  0           0  0  0
   11.3819    0.6265    0.0000 C   0  0  0  0  0  0           0  0  0
   11.3771    1.4564    0.0000 N   0  0  0  0  0  0           0  0  0
   10.6612    1.8637    0.0000 C   0  0  0  0  0  0           0  0  0
   12.0956    0.2167    0.0000 N   0  0  3  0  0  0           0  0  0
   13.5241   -0.6072    0.0000 N   0  0  3  0  0  0           0  0  0
   13.5229    0.2188    0.0000 C   0  0  0  0  0  0           0  0  0
   12.8064    0.6330    0.0000 C   0  0  0  0  0  0           0  0  0
   12.8088   -1.0189    0.0000 C   0  0  2  0  0  0           0  0  0
   12.0944   -0.6066    0.0000 C   0  0  1  0  0  0           0  0  0
   11.3840   -1.0168    0.0000 C   0  0  0  0  0  0           0  0  0
   11.3818   -1.8411    0.0000 C   0  0  0  0  0  0           0  0  0
   12.0963   -2.2535    0.0000 C   0  0  0  0  0  0           0  0  0
   12.8129   -1.8416    0.0000 C   0  0  0  0  0  0           0  0  0
   13.5208   -1.4292    0.0000 H   0  0  0  0  0  0           0  0  0
   11.3750   -0.1917    0.0000 H   0  0  0  0  0  0           0  0  0
   14.2386   -1.0196    0.0000 C   0  0  0  0  0  0           0  0  0
   14.2387   -1.8446    0.0000 O   0  0  0  0  0  0           0  0  0
   14.9534   -0.6066    0.0000 C   0  0  0  0  0  0           0  0  0
   15.7410   -0.8404    0.0000 C   0  0  0  0  0  0           0  0  0
   16.2075   -0.1600    0.0000 C   0  0  0  0  0  0           0  0  0
   15.7045    0.4940    0.0000 C   0  0  0  0  0  0           0  0  0
   14.9272    0.2176    0.0000 O   0  0  0  0  0  0           0  0  0
    7.8090    1.8582    0.0000 O   0  0  0  0  0  0           0  0  0
    7.8076    0.2066    0.0000 O   0  0  0  0  0  0           0  0  0
    7.8088    2.6832    0.0000 C   0  0  0  0  0  0           0  0  0
    7.8070   -0.6184    0.0000 C   0  0  0  0  0  0           0  0  0
   10.6569    2.6886    0.0000 N   0  0  0  0  0  0           0  0  0
   15.9378    1.2853    0.0000 Br  0  0  0  0  0  0           0  0  0
  7  8  2  0     0  0
  5  4  2  0     0  0
  8  9  1  0     0  0
  4  1  1  0     0  0
 15 20  1  0     0  0
 16 17  1  0     0  0
 17 18  1  0     0  0
 18 19  1  0     0  0
 19 20  1  0     0  0
  9 10  2  0     0  0
 15 21  1  6     0  0
 10  5  1  0     0  0
 16 22  1  6     0  0
 11 16  1  0     0  0
 12 23  1  0     0  0
 23 24  2  0     0  0
  2  3  1  0     0  0
 23 25  1  0     0  0
 25 26  2  0     0  0
  5  6  1  0     0  0
  3  6  2  0     0  0
 11 14  1  0     0  0
 15 12  1  0     0  0
 26 27  1  0     0  0
 27 28  2  0     0  0
 28 29  1  0     0  0
 29 25  1  0     0  0
 12 13  1  0     0  0
  1 30  1  0     0  0
 13 14  1  0     0  0
  2 31  1  0     0  0
  8 11  1  0     0  0
 30 32  1  0     0  0
 15 16  1  0     0  0
 31 33  1  0     0  0
  6  7  1  0     0  0
 10 34  1  0     0  0
  1  2  2  0     0  0
 28 35  1  0     0  0
M  END