
  SciTegic09081514192D

 57 62  0  0  0  0            999 V2000
   20.3772  -13.0240    0.0000 C   0  0
   -4.3426    1.7370    0.0000 C   0  0
    0.9230   -1.5323    0.0000 H   0  0
   18.4735  -11.2570    0.0000 C   0  0
    0.6236    2.0488    0.0000 C   0  0
   16.8811  -14.8936    0.0000 N   0  0
   13.4996  -12.7917    0.0000 C   0  0
    0.0891   -0.4677    0.0000 C   0  0
   19.9369  -11.5900    0.0000 C   0  0
    6.8220   -0.8775    0.0000 O   0  0
    7.9143   -3.5245    0.0000 C   0  0
   -0.3340    0.9353    0.0000 C   0  0
   12.4776  -13.8908    0.0000 C   0  0
   -3.7636   -0.8240    0.0000 C   0  0
    1.5812   -0.7794    0.0000 C   0  0  2  0  0  0
    9.8220   -5.2911    0.0000 C   0  0
   17.8986  -13.7903    0.0000 C   0  0
   13.0596  -11.3568    0.0000 C   0  0
   15.5450  -10.5907    0.0000 C   0  0
    3.5632   -2.4942    0.0000 C   0  0
    2.4942    0.2895    0.0000 N   0  0
   24.0304  -12.5301    0.0000 F   0  0
   22.4207  -10.8276    0.0000 C   0  0
   12.8293  -15.0381    0.0000 C   0  0
    4.5431   -1.4253    0.0000 C   0  0  1  0  0  0
   22.8609  -12.2615    0.0000 C   0  0
   -1.8484    0.9353    0.0000 C   0  0
   15.9893  -12.0242    0.0000 N   0  0
   14.0816  -10.2577    0.0000 C   0  0  1  0  0  0
   17.4527  -12.3572    0.0000 C   0  0  1  0  0  0
   16.3604   -9.7102    0.0000 O   0  0
   21.8391  -13.3597    0.0000 C   0  0
   11.7297   -7.0576    0.0000 C   0  0
    4.0754    0.0000    0.0000 C   0  0
   11.3586   -9.3716    0.0000 O   0  0
   10.2663   -6.7246    0.0000 C   0  0
   19.0692  -14.0541    0.0000 O   0  0
   20.9587  -10.4918    0.0000 C   0  0
    2.0934    1.7370    0.0000 C   0  0
   13.6374   -8.8241    0.0000 N   0  0
   -2.8728    2.0488    0.0000 C   0  0
    8.3586   -4.9581    0.0000 C   0  0
   -4.8103    0.2672    0.0000 C   0  0
   12.1739   -8.4912    0.0000 C   0  0
   -2.2938   -0.4677    0.0000 C   0  0
    2.0934   -2.2270    0.0000 C   0  0
    6.0066   -1.7580    0.0000 C   0  0
    6.4509   -3.1915    0.0000 N   0  0
   -1.0690   -1.3585    0.0000 N   0  0
   14.7773  -16.0616    0.0000 C   0  0  2  0  0  0
   15.8779  -17.0808    0.0000 C   0  0
   17.1873  -16.3490    0.0000 C   0  0  1  0  0  0
   18.5534  -16.9641    0.0000 C   0  0
   18.6734  -18.1581    0.0000 N   0  0
   19.5276  -16.2634    0.0000 O   0  0
   13.6002  -16.2947    0.0000 N   0  0
   15.4065  -14.6999    0.0000 C   0  0
 15 21  1  0
 49  8  1  0
 29 18  1  6
 15  3  1  1
 47 10  2  0
 27 41  1  0
 15  8  1  0
  7 13  1  0
 44 40  1  0
 39  5  1  0
  1 32  1  0
 42 16  1  0
 28 30  1  0
 33 44  1  0
 44 35  2  0
 25 34  1  0
 46 20  1  0
 23 38  2  0
 11 42  1  0
 18  7  1  0
 38  9  1  0
  2 43  1  0
 25 47  1  1
 26 23  1  0
 36 33  1  0
  9  1  2  0
  4  9  1  0
 45 27  2  0
 21 39  1  0
 30 17  1  0
 41  2  2  0
 26 22  1  0
 20 25  1  0
 17  6  1  0
 45 49  1  0
 13 24  1  0
  8 12  2  0
 12 27  1  0
 16 36  1  0
 14 45  1  0
 48 11  1  0
 15 46  1  0
 32 26  2  0
  5 12  1  0
 21 34  1  0
 47 48  1  0
 43 14  2  0
 30  4  1  1
 19 28  1  0
 17 37  2  0
 19 31  2  0
 40 29  1  0
 29 19  1  0
 50 51  1  0
 51 52  1  0
 52  6  1  0
 52 53  1  6
 53 54  1  0
 53 55  2  0
 50 56  1  6
  6 57  1  0
 50 57  1  0
M  END