
          11290713132D 1   1.00000     0.00000     0

 74 78  0     1  0            999 V2000
   -1.6570  -12.7492    0.0000 C   0  0  0  0  0  0           0  0  0
   -2.3743  -12.3145    0.0000 C   0  0  2  0  0  0           0  0  0
   -3.1261  -13.5503    0.0000 C   0  0  0  0  0  0           0  0  0
   -3.8672  -13.9501    0.0000 C   0  0  2  0  0  0           0  0  0
   -1.7947  -16.0547    0.0000 C   0  0  0  0  0  0           0  0  0
   -2.5173  -16.4550    0.0000 S   0  0  0  0  0  0           0  0  0
   -3.1996  -16.0529    0.0000 S   0  0  0  0  0  0           0  0  0
   -0.3451  -15.2494    0.0000 C   0  0  0  0  0  0           0  0  0
   -1.0853  -16.4830    0.0000 C   0  0  1  0  0  0           0  0  0
   -3.9196  -16.4509    0.0000 C   0  0  0  0  0  0           0  0  0
   -4.6310  -16.0228    0.0000 C   0  0  0  0  0  0           0  0  0
   -4.6173  -15.1747    0.0000 C   0  0  0  0  0  0           0  0  0
   -0.2879  -13.5982    0.0000 C   0  0  0  0  0  0           0  0  0
    0.3763  -14.8560    0.0000 C   0  0  2  0  0  0           0  0  0
   -0.2765  -12.7711    0.0000 C   0  0  2  0  0  0           0  0  0
   -1.1023  -17.3064    0.0000 C   0  0  0  0  0  0           0  0  0
   -1.0460  -14.8189    0.0000 O   0  0  0  0  0  0           0  0  0
   -1.0143  -13.9915    0.0000 O   0  0  0  0  0  0           0  0  0
   -1.6594  -13.5727    0.0000 O   0  0  0  0  0  0           0  0  0
   -2.4254  -13.9811    0.0000 O   0  0  0  0  0  0           0  0  0
   -5.3215  -14.7465    0.0000 O   0  0  0  0  0  0           0  0  0
   -1.8215  -17.7085    0.0000 O   0  0  0  0  0  0           0  0  0
   -0.3920  -17.7282    0.0000 N   0  0  3  0  0  0           0  0  0
   -4.5707  -13.5206    0.0000 C   0  0  0  0  0  0           0  0  0
   -4.5440  -12.6972    0.0000 C   0  0  0  0  0  0           0  0  0
   -3.8220  -12.3086    0.0000 C   0  0  0  0  0  0           0  0  0
   -3.7988  -11.4861    0.0000 C   0  0  0  0  0  0           0  0  0
   -4.4990  -11.0556    0.0000 C   0  0  0  0  0  0           0  0  0
   -5.2285  -11.4521    0.0000 C   0  0  0  0  0  0           0  0  0
   -5.2463  -12.2726    0.0000 C   0  0  0  0  0  0           0  0  0
   -2.3518  -11.4909    0.0000 C   0  0  0  0  0  0           0  0  0
   -1.6299  -11.0965    0.0000 C   0  0  0  0  0  0           0  0  0
   -0.9246  -11.5327    0.0000 C   0  0  0  0  0  0           0  0  0
   -0.2035  -11.1393    0.0000 C   0  0  0  0  0  0           0  0  0
   -0.1803  -10.3144    0.0000 C   0  0  0  0  0  0           0  0  0
   -0.8869   -9.8811    0.0000 C   0  0  0  0  0  0           0  0  0
   -1.6079  -10.2779    0.0000 C   0  0  0  0  0  0           0  0  0
    0.4464  -12.3710    0.0000 C   0  0  0  0  0  0           0  0  0
    1.0792  -15.2865    0.0000 C   0  0  0  0  0  0           0  0  0
    1.8058  -14.8934    0.0000 C   0  0  0  0  0  0           0  0  0
    2.5087  -15.3238    0.0000 O   0  0  0  0  0  0           0  0  0
   -0.3194  -18.5523    0.0000 C   0  0  1  0  0  0           0  0  0
    0.4871  -18.7335    0.0000 C   0  0  0  0  0  0           0  0  0
    0.9087  -18.0273    0.0000 C   0  0  0  0  0  0           0  0  0
    0.3673  -17.4048    0.0000 C   0  0  0  0  0  0           0  0  0
   -0.9375  -19.0943    0.0000 C   0  0  0  0  0  0           0  0  0
   -1.7191  -18.8247    0.0000 O   0  0  0  0  0  0           0  0  0
    0.0035  -20.1699    0.0000 C   0  0  2  0  0  0           0  0  0
    0.1628  -20.9812    0.0000 C   0  0  0  0  0  0           0  0  0
    0.6257  -19.6283    0.0000 C   0  0  0  0  0  0           0  0  0
   -0.4564  -21.5247    0.0000 N   0  0  0  0  0  0           0  0  0
    0.9477  -21.2485    0.0000 O   0  0  0  0  0  0           0  0  0
    1.4034  -19.8934    0.0000 C   0  0  0  0  0  0           0  0  0
    2.0256  -19.3517    0.0000 C   0  0  0  0  0  0           0  0  0
    2.8075  -19.6172    0.0000 C   0  0  0  0  0  0           0  0  0
    0.6565  -11.5687    0.0000 C   0  0  3  0  0  0           0  0  0
    1.4578  -11.3512    0.0000 C   0  0  0  0  0  0           0  0  0
    1.6690  -10.5529    0.0000 C   0  0  0  0  0  0           0  0  0
    1.0820   -9.9664    0.0000 C   0  0  0  0  0  0           0  0  0
    0.2806  -10.1839    0.0000 C   0  0  0  0  0  0           0  0  0
    0.0662  -10.9879    0.0000 C   0  0  0  0  0  0           0  0  0
    3.4273  -19.0738    0.0000 N   0  0  0  0  0  0           0  0  0
   -1.2370  -21.2601    0.0000 C   0  0  0  0  0  0           0  0  0
   -1.8565  -21.8038    0.0000 C   0  0  0  0  0  0           0  0  0
   -2.6396  -21.5405    0.0000 N   0  0  0  0  0  0           0  0  0
   -1.6979  -22.6134    0.0000 O   0  0  0  0  0  0           0  0  0
   -3.0892  -12.7262    0.0000 N   0  0  0  0  0  0           0  0  0
   -3.8958  -14.7746    0.0000 N   0  0  0  0  0  0           0  0  0
   -0.3687  -16.0741    0.0000 N   0  0  0  0  0  0           0  0  0
    0.4140  -14.0318    0.0000 N   0  0  0  0  0  0           0  0  0
   -0.9596  -12.3085    0.0000 N   0  0  0  0  0  0           0  0  0
   -4.4882  -10.2281    0.0000 O   0  0  0  0  0  0           0  0  0
    1.8299  -14.0720    0.0000 N   0  0  0  0  0  0           0  0  0
   -0.7774  -19.9036    0.0000 N   0  0  0  0  0  0           0  0  0
 13 15  1  0     0  0
  9 16  1  6     0  0
  8 17  2  0     0  0
 13 18  2  0     0  0
  1 19  2  0     0  0
  3 20  2  0     0  0
 12 21  2  0     0  0
 16 22  2  0     0  0
 16 23  1  0     0  0
  4 24  1  1     0  0
 24 25  1  0     0  0
 25 26  2  0     0  0
 26 27  1  0     0  0
 27 28  2  0     0  0
 28 29  1  0     0  0
 29 30  2  0     0  0
 30 25  1  0     0  0
  2 31  1  1     0  0
 31 32  1  0     0  0
 32 33  2  0     0  0
 33 34  1  0     0  0
 34 35  2  0     0  0
 35 36  1  0     0  0
 36 37  2  0     0  0
 37 32  1  0     0  0
 15 38  1  1     0  0
 14 39  1  1     0  0
 39 40  1  0     0  0
 40 41  2  0     0  0
 23 42  1  0     0  0
 42 43  1  0     0  0
 43 44  1  0     0  0
 44 45  1  0     0  0
 45 23  1  0     0  0
 42 46  1  1     0  0
 46 47  2  0     0  0
 48 49  1  0     0  0
 48 50  1  1     0  0
 49 51  1  0     0  0
 49 52  2  0     0  0
 50 53  1  0     0  0
 53 54  1  0     0  0
 54 55  1  0     0  0
 38 56  1  0     0  0
 56 57  1  0     0  0
  1  2  1  0     0  0
  4  3  1  0     0  0
 56 61  1  0     0  0
 57 58  1  0     0  0
 58 59  1  0     0  0
 59 60  1  0     0  0
 60 61  1  0     0  0
  5  6  1  0     0  0
 55 62  1  0     0  0
  6  7  1  0     0  0
 51 63  1  0     0  0
 63 64  1  0     0  0
  5  9  1  0     0  0
 64 65  1  0     0  0
 64 66  2  0     0  0
 10 11  1  0     0  0
  7 10  1  0     0  0
 12 11  1  0     0  0
  8 14  1  0     0  0
 13 70  1  0     0  0
 70 14  1  0     0  0
 68  4  1  0     0  0
 68 12  1  0     0  0
 71  1  1  0     0  0
 15 71  1  0     0  0
  2 67  1  0     0  0
 67  3  1  0     0  0
 28 72  1  0     0  0
  8 69  1  0     0  0
 69  9  1  0     0  0
 40 73  1  0     0  0
 46 74  1  0     0  0
 74 48  1  0     0  0
M  END