
  SciTegic12011114592D

 28 28  0  0  0  0            999 V2000
   22.2744   -7.2203    0.0000 C   0  0
   22.9884   -7.6336    0.0000 N   0  3
   23.6990   -7.2201    0.0000 C   0  0
   24.4126   -7.6327    0.0000 C   0  0
   24.4121   -8.4586    0.0000 C   0  0
   23.6922   -8.8701    0.0000 C   0  0
   22.9816   -8.4552    0.0000 C   0  0
   18.7111   -5.1625    0.0000 C   0  0
   18.7099   -5.9898    0.0000 C   0  0
   19.4247   -6.4027    0.0000 N   0  3
   20.1412   -5.9894    0.0000 C   0  0
   20.1383   -5.1588    0.0000 C   0  0
   19.4229   -4.7497    0.0000 C   0  0
   19.4245   -7.2277    0.0000 C   0  0
   20.1389   -7.6404    0.0000 C   0  0
   20.1345   -8.4636    0.0000 C   0  0
   20.8481   -8.8762    0.0000 C   0  0
   21.5636   -8.4638    0.0000 C   0  0
   21.5612   -7.6345    0.0000 C   0  0
   20.8470   -7.2257    0.0000 C   0  0
   19.4208   -3.9243    0.0000 C   0  0
   20.1342   -3.5099    0.0000 N   0  0
   20.1321   -2.6849    0.0000 O   0  0
   25.1256   -8.8728    0.0000 C   0  0
   25.1236   -9.6978    0.0000 O   0  0
   25.8410   -8.4620    0.0000 N   0  0
   18.5000   -6.8125    0.0000 Br  0  5
   22.9688   -6.8125    0.0000 Br  0  5
 13  8  1  0
  6  7  2  0
 10 14  1  0
  7  2  1  0
 14 15  1  0
  3  4  1  0
 15 16  2  0
 16 17  1  0
  8  9  2  0
 17 18  2  0
  4  5  2  0
 18 19  1  0
  9 10  1  0
 19 20  2  0
 20 15  1  0
  2  3  2  0
 13 21  1  0
 19  1  1  0
 10 11  2  0
 21 22  2  0
  5  6  1  0
 22 23  1  0
 11 12  1  0
  5 24  1  0
  1  2  1  0
 24 25  2  0
 12 13  2  0
 24 26  1  0
M  CHG  4   2   1  10   1  27  -1  28  -1
M  END