
  SciTegic02271514372D

 38 41  0  0  0  0            999 V2000
    9.7390  -18.4765    0.0000 C   0  0
   10.4611  -19.6986    0.0000 C   0  0
    9.6901  -15.9885    0.0000 C   0  0
    8.3220  -19.3111    0.0000 C   0  0
    9.0234  -18.0716    0.0000 C   0  0
    9.0392  -19.7133    0.0000 C   0  0
   10.3920  -15.5659    0.0000 C   0  0
    7.2065  -18.8046    0.0000 O   0  0
   11.1099  -15.9625    0.0000 C   0  0
    6.7797  -18.0984    0.0000 O   0  0
    7.5999  -18.0848    0.0000 S   0  0
   11.1270  -16.7803    0.0000 C   0  0
   10.4252  -17.2071    0.0000 C   0  0
    8.9668  -15.5934    0.0000 C   0  0
    8.2649  -16.0203    0.0000 C   0  0
    8.9999  -17.2347    0.0000 O   0  0
    7.5801  -17.2608    0.0000 N   0  0
    8.3170  -18.4910    0.0000 C   0  0
    8.2821  -16.8381    0.0000 C   0  0
    9.7497  -19.2980    0.0000 C   0  0
    9.7059  -16.8120    0.0000 C   0  0
    7.5484  -15.6272    0.0000 C   0  0
    7.5305  -14.8103    0.0000 O   0  0
    6.8140  -14.4172    0.0000 C   0  0  1  0  0  0
    6.0287  -12.3991    0.0000 O   0  0
    6.1432  -15.6784    0.0000 O   0  0
    6.0583  -13.2151    0.0000 C   0  0  2  0  0  0
    5.3871  -14.4747    0.0000 C   0  0  1  0  0  0
    7.4780  -13.1687    0.0000 O   0  0
    6.1136  -14.8584    0.0000 C   0  0  1  0  0  0
    6.7811  -13.6009    0.0000 C   0  0  2  0  0  0
    4.6939  -14.9089    0.0000 C   0  0
    5.3631  -13.6529    0.0000 O   0  0
    4.7214  -15.7285    0.0000 O   0  0
    5.3067  -12.0164    0.0000 C   0  0
    8.1982  -13.5547    0.0000 C   0  0
    8.8927  -13.1240    0.0000 O   0  0
    8.2240  -14.3715    0.0000 C   0  0
  5  1  2  0
 14  3  1  0
 15 14  2  0
 18  4  2  0
  1 20  1  0
  3  7  1  0
  6  4  1  0
 18  5  1  0
  3 21  2  0
 19 16  1  0
 11 10  2  0
 11 18  1  0
 19 15  1  0
 19 17  2  0
  9 12  1  0
 20  6  2  0
 17 11  1  0
 21 16  1  0
 13 21  1  0
 20  2  1  0
  7  9  2  0
 12 13  2  0
 11  8  2  0
 15 22  1  0
 22 23  1  0
 24 23  1  1
 27 31  1  0
 27 33  1  0
 28 32  1  1
 30 28  1  0
 30 26  1  1
 32 34  1  0
 28 33  1  0
 27 25  1  6
 24 30  1  0
 31 24  1  0
 31 29  1  6
 25 35  1  0
 29 36  1  0
 36 37  2  0
 36 38  1  0
M  END