
  SciTegic10191216002D

 30 33  0  0  0  0            999 V2000
   15.4212  -24.8368    0.0000 C   0  0
   15.4199  -25.6644    0.0000 C   0  0
   16.1329  -26.0774    0.0000 C   0  0
   16.1309  -24.4241    0.0000 C   0  0
   16.8491  -24.8328    0.0000 C   0  0
   16.8481  -25.6664    0.0000 C   0  0
   17.5656  -26.0818    0.0000 C   0  0
   18.2887  -25.6681    0.0000 N   0  0
   18.2895  -24.8344    0.0000 C   0  0
   17.5675  -24.4145    0.0000 C   0  0
   17.5673  -23.5895    0.0000 C   0  0
   18.2806  -23.1800    0.0000 C   0  0
   18.2807  -22.3558    0.0000 C   0  0
   17.5656  -21.9427    0.0000 C   0  0
   16.8489  -22.3598    0.0000 C   0  0
   16.8523  -23.1827    0.0000 C   0  0
   19.0021  -26.0823    0.0000 C   0  0
   14.7049  -26.0759    0.0000 O   0  0
   13.9910  -25.6623    0.0000 C   0  0
   13.9922  -24.8373    0.0000 C   0  0
   13.2783  -24.4239    0.0000 C   0  0
   13.2795  -23.5989    0.0000 N   0  0
   13.9977  -23.1899    0.0000 C   0  0
   14.0009  -22.3684    0.0000 C   0  0
   13.2889  -21.9511    0.0000 C   0  0
   12.5719  -22.3613    0.0000 C   0  0
   12.5671  -23.1889    0.0000 C   0  0
   13.2932  -21.1261    0.0000 F   0  0
   18.9945  -23.5935    0.0000 Cl  0  0
   16.1329  -21.9501    0.0000 Cl  0  0
  1  2  2  0
 14 15  1  0
  5  4  2  0
 15 16  2  0
 16 11  1  0
  4  1  1  0
  8 17  1  0
  5 10  1  0
  2 18  1  0
  6  7  1  0
 18 19  1  0
  7  8  1  0
 19 20  1  0
  8  9  1  0
 20 21  1  0
  9 10  1  0
 21 22  1  0
 22 23  1  0
  5  6  1  0
 10 11  1  0
 11 12  2  0
  2  3  1  0
 22 27  1  0
 23 24  1  0
 24 25  1  0
 25 26  1  0
 26 27  1  0
 12 13  1  0
 25 28  1  0
  3  6  2  0
 12 29  1  0
 13 14  2  0
 15 30  1  0
M  END