
  SciTegic06011109532D

156163  0  0  0  0            999 V2000
    3.4504  -12.0193    0.0000 O   0  0
    2.7360  -12.4318    0.0000 C   0  0
    2.0215  -12.0193    0.0000 C   0  0
    1.3070  -12.4318    0.0000 N   0  0
    2.0215  -11.1943    0.0000 O   0  0
    0.5925  -12.0193    0.0000 C   0  0
   -0.1204  -12.4363    0.0000 C   0  0
   -0.8344  -12.0244    0.0000 C   0  0
   -0.8349  -11.1986    0.0000 C   0  0
   -0.1154  -10.7862    0.0000 C   0  0
    0.5957  -11.2004    0.0000 C   0  0
   -1.5488  -10.7851    0.0000 C   0  0
   -2.2638  -11.1967    0.0000 C   0  0
   -2.9777  -10.7832    0.0000 C   0  0
   -3.6927  -11.1948    0.0000 N   0  0
   -2.9766   -9.9582    0.0000 O   0  0
   -3.9063  -11.9872    0.0000 C   0  0
   -4.7029  -11.7726    0.0000 C   0  0
   -4.4883  -10.9760    0.0000 C   0  0
   -3.4948  -12.7022    0.0000 O   0  0
    4.8755  -12.0344    0.0000 C   0  0
    4.8845  -11.2095    0.0000 O   0  0
    4.1566  -12.4391    0.0000 C   0  0
   12.6192  -15.8176    0.0000 C   0  0
   11.9250  -18.7125    0.0000 C   0  0  1  0  0  0
    4.8191  -21.1569    0.0000 C   0  0  2  0  0  0
    4.1076  -19.9190    0.0000 O   0  0
    4.1076  -20.7427    0.0000 C   0  0
    4.8191  -21.9763    0.0000 C   0  0
    4.1076  -22.3900    0.0000 C   0  0
    4.1076  -23.2137    0.0000 C   0  0
    2.6781  -20.7427    0.0000 C   0  0  1  0  0  0
    1.9667  -21.9763    0.0000 O   0  0
    1.9667  -21.1569    0.0000 C   0  0
    0.5372  -21.1569    0.0000 C   0  0  2  0  0  0
   -0.1783  -19.9190    0.0000 O   0  0
   -0.1783  -20.7427    0.0000 C   0  0
    0.5372  -21.9763    0.0000 C   0  0
   -0.1783  -22.3900    0.0000 C   0  0
    5.5338  -20.7467    0.0000 N   0  0
    1.2645  -17.3934    0.0000 C   0  0  2  0  0  0
    1.9859  -16.1602    0.0000 O   0  0
    1.9885  -16.9792    0.0000 C   0  0
    1.2750  -18.2119    0.0000 C   0  0
    3.4054  -16.9717    0.0000 C   0  0  2  0  0  0
    4.1207  -18.1992    0.0000 O   0  0
    4.1210  -17.3720    0.0000 C   0  0
    3.4067  -16.1533    0.0000 C   0  0
    4.1094  -15.7392    0.0000 C   0  0
    2.6877  -15.7400    0.0000 C   0  0
    6.9560  -19.9215    0.0000 C   0  0
    6.9560  -20.7428    0.0000 C   0  0  1  0  0  0
    6.2787  -16.9774    0.0000 C   0  0
    5.5490  -17.3863    0.0000 C   0  0  2  0  0  0
    5.5408  -18.2153    0.0000 C   0  0
    6.2593  -18.6445    0.0000 S   0  0
    6.2504  -19.4830    0.0000 S   0  0
    9.0894  -17.0301    0.0000 C   0  0
    7.6773  -16.1925    0.0000 C   0  0
    6.9598  -15.7706    0.0000 C   0  0  2  0  0  0
    6.2417  -21.1569    0.0000 C   0  0
    6.2413  -21.9758    0.0000 O   0  0
    6.9919  -17.3752    0.0000 O   0  0
    9.0982  -16.2121    0.0000 C   0  0  2  0  0  0
    6.9719  -14.9518    0.0000 C   0  0
    7.6717  -17.0144    0.0000 O   0  0
    9.8071  -15.8113    0.0000 C   0  0
    9.8154  -14.9884    0.0000 C   0  0
    8.3728  -17.4372    0.0000 O   0  0
    7.6623  -21.9825    0.0000 C   0  0
    6.9468  -22.3884    0.0000 O   0  0
    8.3703  -22.3908    0.0000 C   0  0  2  0  0  0
    8.3613  -23.2192    0.0000 C   0  0
    9.7883  -22.3994    0.0000 C   0  0
    9.7849  -23.2217    0.0000 O   0  0
    9.7925  -20.7709    0.0000 C   0  0
    9.7913  -19.9480    0.0000 C   0  0  1  0  0  0
    9.0863  -21.1785    0.0000 O   0  0
   10.4943  -18.7097    0.0000 C   0  0
    9.7834  -18.3070    0.0000 O   0  0
   11.2069  -18.2939    0.0000 C   0  0  1  0  0  0
   11.9141  -17.0642    0.0000 C   0  0
   11.9064  -16.2356    0.0000 C   0  0  1  0  0  0
   12.6292  -17.4671    0.0000 O   0  0
    0.5655  -16.9848    0.0000 N   0  0
    2.6918  -17.3825    0.0000 N   0  0
    7.6648  -21.1603    0.0000 N   0  0
    6.2476  -16.1855    0.0000 N   0  0
    8.3903  -15.7884    0.0000 N   0  0
    9.0818  -21.9890    0.0000 N   0  0
   10.5062  -19.5328    0.0000 N   0  0
   11.2179  -17.4658    0.0000 N   0  0
    9.7981  -17.4481    0.0000 N   0  0
    4.8400  -16.9751    0.0000 N   0  0
    3.3960  -21.1569    0.0000 N   0  0
    1.2551  -20.7427    0.0000 N   0  0
   -0.8899  -21.1569    0.0000 N   0  0
    0.5594  -18.6375    0.0000 C   0  0
    0.5700  -19.4700    0.0000 O   0  0
   -0.1670  -18.2304    0.0000 O   0  0
    0.5700  -16.1522    0.0000 C   0  0
   -0.1489  -15.7320    0.0000 C   0  0  2  0  0  0
    1.2932  -15.7397    0.0000 O   0  0
   -0.1445  -14.8994    0.0000 C   0  0
   -0.8723  -16.1445    0.0000 N   0  0
    0.5788  -14.4869    0.0000 C   0  0
    1.2968  -14.9106    0.0000 C   0  0
    2.0197  -14.4988    0.0000 C   0  0
    2.0245  -13.6653    0.0000 C   0  0
    1.3006  -13.2452    0.0000 C   0  0
    0.5808  -13.6594    0.0000 C   0  0
    2.6765  -19.9100    0.0000 C   0  0
    1.9547  -19.4951    0.0000 C   0  0
    3.3864  -23.6300    0.0000 C   0  0
    3.3864  -24.4627    0.0000 N   0  0
    3.3902  -19.4961    0.0000 C   0  0
   -1.5845  -15.7281    0.0000 C   0  0
   -2.3012  -16.1368    0.0000 C   0  0
   -1.5801  -14.9032    0.0000 O   0  0
    2.6720  -24.8752    0.0000 C   0  0
    2.6720  -25.7002    0.0000 O   0  0
    1.9575  -24.4627    0.0000 C   0  0
   -0.8930  -21.9779    0.0000 S   0  0
   -1.6072  -22.3909    0.0000 C   0  0
    7.6424  -23.6239    0.0000 C   0  0
    6.8918  -23.2836    0.0000 C   0  0
    6.3332  -23.8906    0.0000 N   0  0
    6.7379  -24.6096    0.0000 C   0  0
    7.5467  -24.4467    0.0000 N   0  0
   10.5149  -21.1683    0.0000 N   0  0
   10.5072  -21.9916    0.0000 C   0  0  1  0  0  0
   11.2879  -22.2533    0.0000 C   0  0
   11.7781  -21.5917    0.0000 C   0  0
   11.3003  -20.9212    0.0000 C   0  0
   10.5000  -22.8125    0.0000 H   0  0
    9.0760  -19.5369    0.0000 C   0  0
    8.3624  -19.9508    0.0000 C   0  0
    7.6471  -19.5398    0.0000 C   0  0
    8.3641  -20.7758    0.0000 C   0  0
   11.9215  -19.5375    0.0000 C   0  0
   12.6412  -18.3030    0.0000 O   0  0
   11.2000  -19.1167    0.0000 H   0  0
   12.6136  -14.9926    0.0000 C   0  0
   13.3364  -16.2252    0.0000 C   0  0
   10.4828  -14.5125    0.0000 C   0  0
   10.2364  -13.7273    0.0000 N   0  0
    9.1514  -14.4991    0.0000 C   0  0
    9.4168  -13.7202    0.0000 C   0  0
    8.8755  -13.1029    0.0000 C   0  0
    8.0686  -13.2634    0.0000 C   0  0
    7.8060  -14.0466    0.0000 C   0  0
    8.3491  -14.6605    0.0000 C   0  0
    6.2636  -14.5288    0.0000 C   0  0
    6.2758  -13.7038    0.0000 C   0  0
    5.5675  -13.2808    0.0000 C   0  0
    5.5797  -12.4559    0.0000 N   0  0
 95 32  1  0
 32 34  1  0
 34 33  2  0
 96 35  1  0
 35 37  1  0
 37 36  2  0
 61 40  1  0
 35 38  1  1
 38 39  1  0
 26 40  1  0
 28 95  1  0
 34 96  1  0
 37 97  1  0
 41 43  1  0
 43 42  2  0
 41 44  1  6
 45 47  1  0
 47 46  2  0
 45 48  1  0
 44 98  1  0
 48 49  1  0
 98 99  2  0
 48 50  1  0
 98100  1  0
 43 86  1  0
 85101  1  0
 45 86  1  1
101102  1  0
 85 41  1  0
101103  2  0
 51 52  1  0
102104  1  1
 52 87  1  0
102105  1  0
 53 54  1  0
104106  1  0
 54 55  1  0
106107  2  0
 55 56  1  0
107108  1  0
 57 56  1  0
108109  2  0
 58 93  1  0
109110  1  0
 89 59  1  0
110111  2  0
111106  1  0
 58 64  1  0
 60 88  1  0
 59 60  1  0
 88 53  1  0
 32112  1  6
 57 51  1  0
 52 61  1  6
112113  1  0
 61 62  2  0
 54 94  1  6
 94 47  1  0
 53 63  2  0
 89 64  1  0
 60 65  1  1
 59 66  2  0
 64 67  1  1
 67 68  1  0
 58 69  2  0
 87 70  1  0
 70 71  2  0
 70 72  1  0
 72 73  1  1
 72 90  1  0
 81 25  1  0
 90 74  1  0
131 74  1  0
 74 75  2  0
130 76  1  0
 31114  1  0
 76 77  1  0
114115  1  0
  9 10  1  0
112116  1  0
 17 20  2  0
105117  1  0
  2  3  1  0
117118  1  0
 10 11  2  0
117119  2  0
 21 22  2  0
115120  1  0
 11  6  1  0
120121  2  0
 21 23  1  0
120122  1  0
 23  1  1  0
 39123  1  0
  4  6  1  0
123124  1  0
  9 12  1  0
 73125  1  0
125126  2  0
  1  2  1  0
 12 13  1  0
  6  7  2  0
 13 14  1  0
126127  1  0
127128  2  0
128129  1  0
129125  1  0
130131  1  0
  3  4  1  0
 14 15  1  0
  7  8  1  0
 14 16  2  0
 15 17  1  0
131132  1  0
132133  1  0
133134  1  0
134130  1  0
131135  1  6
  8  9  2  0
 77136  1  6
  3  5  2  0
136137  1  0
 17 18  1  0
137138  1  0
 18 19  1  0
137139  1  0
 19 15  1  0
 25140  1  0
 76 78  2  0
 25141  1  6
 77 91  1  0
 81142  1  6
 91 79  1  0
 24143  1  0
 79 80  2  0
 24144  1  0
 68145  2  0
 79 81  1  0
 81 92  1  0
145146  1  0
146148  1  0
147 68  1  0
 92 82  1  0
 82 83  1  0
147148  2  0
 82 84  2  0
148149  1  0
 83 24  1  1
149150  2  0
 83 93  1  0
150151  1  0
 26 28  1  0
151152  2  0
152147  1  0
 28 27  2  0
 65153  1  0
 26 29  1  1
153154  1  0
 29 30  1  0
154155  1  0
 30 31  1  0
155156  1  0
156 21  1  0
M  END