
          11280715422D 1   1.00000     0.00000     0

 28 30  0     0  0            999 V2000
    6.5167   -2.2125    0.0000 N   0  0  3  0  0  0           0  0  0
    7.2417   -1.8042    0.0000 C   0  0  3  0  0  0           0  0  0
    5.9292   -1.6250    0.0000 N   0  0  0  0  0  0           0  0  0
    5.3167   -2.8167    0.0000 C   0  0  0  0  0  0           0  0  0
    5.1917   -2.0000    0.0000 N   0  0  0  0  0  0           0  0  0
    6.1417   -2.9500    0.0000 C   0  0  0  0  0  0           0  0  0
    7.9542   -1.3917    0.0000 C   0  0  3  0  0  0           0  0  0
    6.5292   -1.3917    0.0000 C   0  0  3  0  0  0           0  0  0
    8.6667   -1.8042    0.0000 C   0  0  3  0  0  0           0  0  0
    8.0542   -0.8417    0.0000 O   0  0  0  0  0  0           0  0  0
    7.3542   -1.3917    0.0000 C   0  0  3  0  0  0           0  0  0
    4.7292   -3.4000    0.0000 C   0  0  0  0  0  0           0  0  0
    1.9750   -4.1292    0.0000 N   0  0  3  0  0  0           0  0  0
    4.9417   -4.1917    0.0000 O   0  0  0  0  0  0           0  0  0
    9.2792   -2.3542    0.0000 S   0  0  0  0  0  0           0  0  0
    3.9375   -3.1875    0.0000 N   0  0  0  0  0  0           0  0  0
    7.9542   -2.2125    0.0000 O   0  0  0  0  0  0           0  0  0
    1.5417   -5.7250    0.0000 O   0  0  0  0  0  0           0  0  0
    6.1042   -0.6750    0.0000 O   0  0  0  0  0  0           0  0  0
    7.1292   -0.5917    0.0000 C   0  0  0  0  0  0           0  0  0
    3.3542   -3.7667    0.0000 C   0  0  0  0  0  0           0  0  0
    2.5542   -3.5542    0.0000 C   0  0  0  0  0  0           0  0  0
    7.7167   -0.0042    0.0000 O   0  0  0  0  0  0           0  0  0
    2.5542   -4.7125    0.0000 C   0  0  0  0  0  0           0  0  0
    1.1750   -4.3417    0.0000 C   0  0  0  0  0  0           0  0  0
    0.9542   -5.1375    0.0000 C   0  0  0  0  0  0           0  0  0
    2.3417   -5.5125    0.0000 C   0  0  0  0  0  0           0  0  0
    9.1167   -3.1625    0.0000 C   0  0  0  0  0  0           0  0  0
  2  1  1  0     0  0
  3  1  1  0     0  0
  4  6  2  0     0  0
  5  3  2  0     0  0
  6  1  1  0     0  0
  7  2  1  0     0  0
  8  2  1  0     0  0
  9  7  1  0     0  0
 10 11  1  0     0  0
 11  8  1  0     0  0
 12  4  1  0     0  0
 13 22  1  0     0  0
 14 12  2  0     0  0
 15  9  1  0     0  0
 16 12  1  0     0  0
 17  7  1  0     0  0
 18 26  1  0     0  0
 19  8  1  0     0  0
 20 11  1  0     0  0
 21 16  1  0     0  0
 22 21  1  0     0  0
 23 20  1  0     0  0
 24 13  1  0     0  0
 25 13  1  0     0  0
 26 25  1  0     0  0
 27 24  1  0     0  0
 28 15  1  0     0  0
  4  5  1  0     0  0
  9 10  1  0     0  0
 27 18  1  0     0  0
M  END