
          11280715042D 1   1.00000     0.00000     0

 28 29  0     0  0            999 V2000
   -0.9833    0.1125    0.0000 S   0  0  3  0  0  0           0  0  0
    1.4292    0.1333    0.0000 C   0  0  0  0  0  0           0  0  0
   -0.3833    0.1208    0.0000 C   0  0  0  0  0  0           0  0  0
    1.7292   -0.3875    0.0000 N   0  0  0  0  0  0           0  0  0
   -0.9875    0.7250    0.0000 O   0  0  0  0  0  0           0  0  0
   -0.9875   -0.4875    0.0000 O   0  0  0  0  0  0           0  0  0
    2.7792   -0.2500    0.0000 C   0  0  0  0  0  0           0  0  0
    2.9292   -1.4542    0.0000 C   0  0  0  0  0  0           0  0  0
    0.8250    0.1250    0.0000 C   0  0  0  0  0  0           0  0  0
   -1.5958    0.1250    0.0000 N   0  0  0  0  0  0           0  0  0
    3.3375   -0.4792    0.0000 N   0  0  0  0  0  0           0  0  0
    1.7292    0.6625    0.0000 O   0  0  0  0  0  0           0  0  0
    2.7000    0.3583    0.0000 O   0  0  0  0  0  0           0  0  0
    2.3667   -1.2250    0.0000 O   0  0  0  0  0  0           0  0  0
   -0.0708   -0.4000    0.0000 C   0  0  0  0  0  0           0  0  0
   -0.0875    0.6458    0.0000 C   0  0  0  0  0  0           0  0  0
    0.5125    0.6500    0.0000 C   0  0  0  0  0  0           0  0  0
    0.5292   -0.3917    0.0000 C   0  0  0  0  0  0           0  0  0
    3.0042   -2.0667    0.0000 O   0  0  0  0  0  0           0  0  0
    2.2917   -0.6167    0.0000 C   0  0  0  0  0  0           0  0  0
    3.4167   -1.0792    0.0000 C   0  0  0  0  0  0           0  0  0
    2.5292   -2.4292    0.0000 C   0  0  0  0  0  0           0  0  0
    2.6042   -3.0250    0.0000 C   0  0  0  0  0  0           0  0  0
    2.1250   -3.3792    0.0000 C   0  0  0  0  0  0           0  0  0
    3.1542   -3.2542    0.0000 C   0  0  0  0  0  0           0  0  0
    3.2292   -3.8500    0.0000 C   0  0  0  0  0  0           0  0  0
    2.1917   -3.9792    0.0000 C   0  0  0  0  0  0           0  0  0
    2.7500   -4.2125    0.0000 C   0  0  0  0  0  0           0  0  0
  2  9  1  0     0  0
  3  1  1  0     0  0
  4  2  1  0     0  0
  5  1  2  0     0  0
  6  1  2  0     0  0
  7 20  1  0     0  0
  8 21  1  0     0  0
  9 17  1  0     0  0
 10  1  1  0     0  0
 11  7  1  0     0  0
 12  2  2  0     0  0
 13  7  2  0     0  0
 14  8  2  0     0  0
 15  3  2  0     0  0
 16  3  1  0     0  0
 17 16  2  0     0  0
 18 15  1  0     0  0
 19  8  1  0     0  0
 20  4  1  0     0  0
 21 11  1  0     0  0
 22 19  1  0     0  0
 23 22  1  0     0  0
 24 23  2  0     0  0
 25 23  1  0     0  0
 26 25  2  0     0  0
 27 24  1  0     0  0
 28 26  1  0     0  0
 18  9  2  0     0  0
 27 28  2  0     0  0
M  END