
          11280714582D 1   1.00000     0.00000     0

 26 29  0     0  0            999 V2000
   -0.7333    1.5958    0.0000 C   0  0  0  0  0  0           0  0  0
    0.0542    1.8583    0.0000 N   0  0  0  0  0  0           0  0  0
   -0.7333    0.7708    0.0000 N   0  0  3  0  0  0           0  0  0
    0.5500    1.1833    0.0000 C   0  0  0  0  0  0           0  0  0
    0.0542    0.5083    0.0000 C   0  0  0  0  0  0           0  0  0
   -1.4458    2.0083    0.0000 C   0  0  0  0  0  0           0  0  0
   -1.4458    0.3583    0.0000 C   0  0  0  0  0  0           0  0  0
   -2.1583    1.5958    0.0000 C   0  0  0  0  0  0           0  0  0
   -2.1583    0.7708    0.0000 C   0  0  0  0  0  0           0  0  0
    1.3750    1.1833    0.0000 C   0  0  0  0  0  0           0  0  0
    6.3167    1.2083    0.0000 N   0  0  3  0  0  0           0  0  0
    1.7792    1.8958    0.0000 C   0  0  0  0  0  0           0  0  0
    1.7875    0.4708    0.0000 C   0  0  0  0  0  0           0  0  0
    3.0167    1.1875    0.0000 C   0  0  0  0  0  0           0  0  0
    2.6042    0.4750    0.0000 C   0  0  0  0  0  0           0  0  0
    2.6000    1.9083    0.0000 C   0  0  0  0  0  0           0  0  0
    5.4917    1.2083    0.0000 C   0  0  0  0  0  0           0  0  0
    5.0792    1.9125    0.0000 C   0  0  0  0  0  0           0  0  0
    3.8417    1.1958    0.0000 O   0  0  0  0  0  0           0  0  0
    6.7292    0.4958    0.0000 C   0  0  0  0  0  0           0  0  0
    6.7250    1.9208    0.0000 C   0  0  0  0  0  0           0  0  0
   -2.8708    2.0083    0.0000 C   0  0  0  0  0  0           0  0  0
    4.2542    1.9083    0.0000 C   0  0  0  0  0  0           0  0  0
    7.5542    0.4958    0.0000 C   0  0  0  0  0  0           0  0  0
    7.5542    1.9208    0.0000 C   0  0  0  0  0  0           0  0  0
    7.9667    1.2083    0.0000 C   0  0  0  0  0  0           0  0  0
  2  1  2  0     0  0
  3  1  1  0     0  0
  4  2  1  0     0  0
  5  3  1  0     0  0
  6  1  1  0     0  0
  7  3  1  0     0  0
  8  6  2  0     0  0
  9  8  1  0     0  0
 10  4  1  0     0  0
 11 17  1  0     0  0
 12 10  1  0     0  0
 13 10  2  0     0  0
 14 15  2  0     0  0
 15 13  1  0     0  0
 16 12  2  0     0  0
 17 18  1  0     0  0
 18 23  1  0     0  0
 19 14  1  0     0  0
 20 11  1  0     0  0
 21 11  1  0     0  0
 22  8  1  0     0  0
 23 19  1  0     0  0
 24 20  1  0     0  0
 25 21  1  0     0  0
 26 25  1  0     0  0
  5  4  2  0     0  0
  7  9  2  0     0  0
 14 16  1  0     0  0
 24 26  1  0     0  0
M  END