
          11280715082D 1   1.00000     0.00000     0

 35 38  0     1  0            999 V2000
    8.5042   -2.6625    0.0000 S   0  0  3  0  0  0           0  0  0
    5.0042   -1.6417    0.0000 C   0  0  0  0  0  0           0  0  0
    5.0042   -1.0417    0.0000 C   0  0  0  0  0  0           0  0  0
    5.5750   -1.8292    0.0000 S   0  0  0  0  0  0           0  0  0
    5.9292   -1.3500    0.0000 C   0  0  0  0  0  0           0  0  0
    4.4292   -1.8292    0.0000 S   0  0  0  0  0  0           0  0  0
    8.5125   -2.0625    0.0000 N   0  0  0  0  0  0           0  0  0
    5.5792   -0.8625    0.0000 C   0  0  0  0  0  0           0  0  0
    8.0917   -1.6417    0.0000 C   0  0  2  0  0  0           0  0  0
    8.5042   -3.2625    0.0000 C   0  0  0  0  0  0           0  0  0
    6.5292   -1.3500    0.0000 C   0  0  0  0  0  0           0  0  0
    4.4375   -0.8542    0.0000 C   0  0  0  0  0  0           0  0  0
    4.0792   -1.3417    0.0000 C   0  0  0  0  0  0           0  0  0
    8.6042   -1.3417    0.0000 C   0  0  0  0  0  0           0  0  0
    7.0500   -1.6417    0.0000 N   0  0  0  0  0  0           0  0  0
    9.1042   -2.6625    0.0000 O   0  0  0  0  0  0           0  0  0
    7.9042   -2.6625    0.0000 O   0  0  0  0  0  0           0  0  0
    7.5667   -1.3417    0.0000 C   0  0  0  0  0  0           0  0  0
    1.3750   -1.8375    0.0000 N   0  0  0  0  0  0           0  0  0
    6.6792   -0.7667    0.0000 O   0  0  0  0  0  0           0  0  0
    8.6042   -0.7417    0.0000 O   0  0  0  0  0  0           0  0  0
    7.9750   -4.1542    0.0000 N   0  0  0  0  0  0           0  0  0
    3.4792   -1.3417    0.0000 C   0  0  0  0  0  0           0  0  0
    9.1292   -1.6375    0.0000 O   0  0  0  0  0  0           0  0  0
    7.9792   -3.5542    0.0000 C   0  0  0  0  0  0           0  0  0
    3.1750   -1.8542    0.0000 C   0  0  0  0  0  0           0  0  0
    9.0167   -3.5625    0.0000 C   0  0  0  0  0  0           0  0  0
    2.5750   -1.8542    0.0000 C   0  0  3  0  0  0           0  0  0
    1.6792   -1.3250    0.0000 C   0  0  0  0  0  0           0  0  0
    1.6667   -2.3625    0.0000 C   0  0  0  0  0  0           0  0  0
    8.4917   -4.4542    0.0000 C   0  0  0  0  0  0           0  0  0
    2.2750   -2.3667    0.0000 C   0  0  0  0  0  0           0  0  0
    2.2792   -1.3292    0.0000 C   0  0  0  0  0  0           0  0  0
    9.0167   -4.1542    0.0000 C   0  0  0  0  0  0           0  0  0
    7.7875   -2.1542    0.0000 H   0  0  0  0  0  0           0  0  0
  2  4  1  0     0  0
  3  8  1  0     0  0
  4  5  1  0     0  0
  5 11  1  0     0  0
  6  2  1  0     0  0
  7  1  1  0     0  0
  8  5  2  0     0  0
  9  7  1  1     0  0
 10  1  1  0     0  0
 11 15  1  0     0  0
 12  3  1  0     0  0
 13 12  2  0     0  0
 14  9  1  0     0  0
 15 18  1  0     0  0
 16  1  2  0     0  0
 17  1  2  0     0  0
 18  9  1  0     0  0
 19 29  1  0     0  0
 20 11  2  0     0  0
 21 14  2  0     0  0
 22 25  1  0     0  0
 23 13  1  0     0  0
 24 14  1  0     0  0
 25 10  2  0     0  0
 26 23  1  0     0  0
 27 10  1  0     0  0
 28 26  1  0     0  0
 29 33  1  0     0  0
 30 32  1  0     0  0
 31 34  1  0     0  0
 32 28  1  0     0  0
 33 28  1  0     0  0
 34 27  2  0     0  0
  9 35  1  6     0  0
 22 31  2  0     0  0
  3  2  2  0     0  0
 13  6  1  0     0  0
 19 30  1  0     0  0
M  END