
          02060813482D 1   1.00000     0.00000     0

 54 58  0     1  0            999 V2000
   -2.5804   -0.1466    0.0000 N   0  0  0  0  0  0           0  0  0
   -1.8660    0.2659    0.0000 C   0  0  2  0  0  0           0  0  0
   -1.1515   -0.1466    0.0000 C   0  0  0  0  0  0           0  0  0
   -1.8660    1.0909    0.0000 C   0  0  0  0  0  0           0  0  0
   -2.5804    1.5034    0.0000 C   0  0  0  0  0  0           0  0  0
   -2.5777    2.3294    0.0000 C   0  0  0  0  0  0           0  0  0
   -3.2914    2.7419    0.0000 C   0  0  0  0  0  0           0  0  0
   -4.0068    2.3293    0.0000 C   0  0  0  0  0  0           0  0  0
   -4.0042    1.5000    0.0000 C   0  0  0  0  0  0           0  0  0
   -3.2900    1.0913    0.0000 C   0  0  0  0  0  0           0  0  0
   -3.2873    0.2663    0.0000 C   0  0  0  0  0  0           0  0  0
   -1.8625    2.7406    0.0000 C   0  0  0  0  0  0           0  0  0
   -4.7219    2.7409    0.0000 O   0  0  0  0  0  0           0  0  0
   -1.1515   -0.9717    0.0000 O   0  0  0  0  0  0           0  0  0
   -0.4370    0.2659    0.0000 N   0  0  3  0  0  0           0  0  0
    0.2718   -0.1492    0.0000 C   0  0  1  0  0  0           0  0  0
    0.9842    0.2598    0.0000 C   0  0  0  0  0  0           0  0  0
   -0.4444    1.0892    0.0000 C   0  0  0  0  0  0           0  0  0
    0.2741    1.4999    0.0000 C   0  0  0  0  0  0           0  0  0
    0.9855    1.0856    0.0000 C   0  0  0  0  0  0           0  0  0
    1.6978    1.4944    0.0000 C   0  0  0  0  0  0           0  0  0
    1.7001    2.3173    0.0000 C   0  0  0  0  0  0           0  0  0
    0.9841    2.7298    0.0000 C   0  0  0  0  0  0           0  0  0
    0.2746    2.3186    0.0000 C   0  0  0  0  0  0           0  0  0
    0.2684   -0.9742    0.0000 C   0  0  0  0  0  0           0  0  0
   -0.4478   -1.3836    0.0000 O   0  0  0  0  0  0           0  0  0
    0.9811   -1.3897    0.0000 N   0  0  0  0  0  0           0  0  0
    0.2659    0.6784    0.0000 H   0  0  0  0  0  0           0  0  0
    1.6973   -0.9802    0.0000 C   0  0  0  0  0  0           0  0  0
    2.4100   -1.3957    0.0000 C   0  0  0  0  0  0           0  0  0
    3.1263   -0.9862    0.0000 C   0  0  0  0  0  0           0  0  0
    3.8391   -1.4018    0.0000 C   0  0  0  0  0  0           0  0  0
    4.5553   -0.9922    0.0000 C   0  0  1  0  0  0           0  0  0
    5.2680   -1.4077    0.0000 C   0  0  0  0  0  0           0  0  0
    4.5587   -0.1672    0.0000 N   0  0  0  0  0  0           0  0  0
    5.2645   -2.2327    0.0000 O   0  0  0  0  0  0           0  0  0
    5.9842   -0.9983    0.0000 N   0  0  0  0  0  0           0  0  0
    5.2749    0.2422    0.0000 C   0  0  0  0  0  0           0  0  0
    6.6969   -1.4138    0.0000 C   0  0  0  0  0  0           0  0  0
    7.4132   -1.0043    0.0000 C   0  0  0  0  0  0           0  0  0
    8.1242   -1.4239    0.0000 C   0  0  0  0  0  0           0  0  0
    8.8400   -1.0151    0.0000 C   0  0  0  0  0  0           0  0  0
    8.8439   -0.1892    0.0000 C   0  0  0  0  0  0           0  0  0
    8.1261    0.2262    0.0000 C   0  0  0  0  0  0           0  0  0
    7.4134   -0.1850    0.0000 C   0  0  0  0  0  0           0  0  0
    5.9878   -0.1733    0.0000 O   0  0  0  0  0  0           0  0  0
    5.2785    1.0672    0.0000 O   0  0  0  0  0  0           0  0  0
    5.9947    1.4768    0.0000 C   0  0  0  0  0  0           0  0  0
    5.9981    2.3018    0.0000 C   0  0  0  0  0  0           0  0  0
    6.7131    2.7090    0.0000 C   0  0  0  0  0  0           0  0  0
    6.7169    3.5333    0.0000 C   0  0  0  0  0  0           0  0  0
    6.0036    3.9495    0.0000 C   0  0  0  0  0  0           0  0  0
    5.2850    3.5357    0.0000 C   0  0  0  0  0  0           0  0  0
    5.2847    2.7128    0.0000 C   0  0  0  0  0  0           0  0  0
 25 26  2  0     0  0
  8 13  1  0     0  0
 25 27  1  0     0  0
  6  7  1  0     0  0
 16 28  1  6     0  0
  3 14  2  0     0  0
 27 29  1  0     0  0
  2  4  1  1     0  0
 29 30  1  0     0  0
  3 15  1  0     0  0
 30 31  1  0     0  0
 15 16  1  0     0  0
 31 32  1  0     0  0
  7  8  2  0     0  0
 32 33  1  0     0  0
 33 34  1  0     0  0
  8  9  1  0     0  0
 33 35  1  6     0  0
 15 18  1  0     0  0
 34 36  2  0     0  0
 16 17  1  0     0  0
 34 37  1  0     0  0
 17 20  1  0     0  0
 35 38  1  0     0  0
 19 18  1  0     0  0
 37 39  1  0     0  0
  4  5  1  0     0  0
 39 40  1  0     0  0
  9 10  2  0     0  0
 40 41  2  0     0  0
 19 20  2  0     0  0
 41 42  1  0     0  0
 10  5  1  0     0  0
 42 43  2  0     0  0
 20 21  1  0     0  0
 43 44  1  0     0  0
  2  3  1  0     0  0
 44 45  2  0     0  0
 45 40  1  0     0  0
 21 22  2  0     0  0
 38 46  2  0     0  0
 10 11  1  0     0  0
 38 47  1  0     0  0
 22 23  1  0     0  0
 47 48  1  0     0  0
  5  6  2  0     0  0
 48 49  1  0     0  0
 23 24  2  0     0  0
 49 50  2  0     0  0
 24 19  1  0     0  0
 50 51  1  0     0  0
  6 12  1  0     0  0
 51 52  2  0     0  0
 16 25  1  0     0  0
 52 53  1  0     0  0
  1  2  1  0     0  0
 53 54  2  0     0  0
 54 49  1  0     0  0
M  END