
          11280715502D 1   1.00000     0.00000     0

 51 56  0     1  0            999 V2000
   15.2286  -12.1822    0.0000 N   0  0  3  0  0  0           0  0  0
   14.5123  -12.5862    0.0000 C   0  0  0  0  0  0           0  0  0
   14.5048  -13.4076    0.0000 C   0  0  0  0  0  0           0  0  0
   15.2146  -13.8288    0.0000 O   0  0  0  0  0  0           0  0  0
   15.9337  -13.4224    0.0000 C   0  0  0  0  0  0           0  0  0
   15.9429  -12.5948    0.0000 C   0  0  0  0  0  0           0  0  0
   14.5372   -8.4654    0.0000 C   0  0  0  0  0  0           0  0  0
   14.5423   -7.6404    0.0000 C   0  0  0  0  0  0           0  0  0
   15.2491   -8.8823    0.0000 N   0  0  0  0  0  0           0  0  0
   15.2440   -9.7073    0.0000 O   0  0  0  0  0  0           0  0  0
   15.9559  -10.1242    0.0000 C   0  0  0  0  0  0           0  0  0
   15.9508  -10.9492    0.0000 C   0  0  0  0  0  0           0  0  0
   15.2595   -7.2362    0.0000 C   0  0  0  0  0  0           0  0  0
   15.2649   -6.4120    0.0000 C   0  0  0  0  0  0           0  0  0
   14.5525   -5.9942    0.0000 C   0  0  0  0  0  0           0  0  0
   13.8331   -6.4067    0.0000 C   0  0  0  0  0  0           0  0  0
   13.8312   -7.2296    0.0000 C   0  0  0  0  0  0           0  0  0
    8.8236   -7.6541    0.0000 C   0  0  0  0  0  0           0  0  0
    8.8224   -8.4815    0.0000 C   0  0  0  0  0  0           0  0  0
    9.5372   -8.8944    0.0000 C   0  0  0  0  0  0           0  0  0
   10.2537   -8.4810    0.0000 C   0  0  0  0  0  0           0  0  0
   10.2508   -7.6505    0.0000 C   0  0  0  0  0  0           0  0  0
    9.5354   -7.2414    0.0000 C   0  0  0  0  0  0           0  0  0
   10.9637   -7.2353    0.0000 C   0  0  0  0  0  0           0  0  0
   11.6797   -7.6451    0.0000 N   0  0  3  0  0  0           0  0  0
   10.9606   -6.4103    0.0000 O   0  0  0  0  0  0           0  0  0
   11.6802   -8.4719    0.0000 C   0  0  1  0  0  0           0  0  0
   12.3922   -8.8816    0.0000 C   0  0  0  0  0  0           0  0  0
   13.1075   -8.4699    0.0000 N   0  0  3  0  0  0           0  0  0
   13.1064   -7.6439    0.0000 C   0  0  0  0  0  0           0  0  0
   12.3899   -7.2297    0.0000 C   0  0  0  0  0  0           0  0  0
   10.9662   -8.8851    0.0000 C   0  0  0  0  0  0           0  0  0
   10.9583   -9.7083    0.0000 C   0  0  0  0  0  0           0  0  0
   10.2904  -10.1896    0.0000 C   0  0  0  0  0  0           0  0  0
   10.5373  -10.9750    0.0000 N   0  0  0  0  0  0           0  0  0
   11.6224  -10.2023    0.0000 C   0  0  0  0  0  0           0  0  0
   11.3604  -10.9813    0.0000 C   0  0  0  0  0  0           0  0  0
   11.9036  -11.5957    0.0000 C   0  0  0  0  0  0           0  0  0
   12.7089  -11.4322    0.0000 C   0  0  0  0  0  0           0  0  0
   12.9681  -10.6489    0.0000 C   0  0  0  0  0  0           0  0  0
   12.4232  -10.0379    0.0000 C   0  0  0  0  0  0           0  0  0
    9.5292   -9.7167    0.0000 C   0  0  3  0  0  0           0  0  0
   10.3542   -9.7167    0.0000 F   0  0  0  0  0  0           0  0  0
    9.5250  -10.5417    0.0000 F   0  0  0  0  0  0           0  0  0
    8.7042   -9.7125    0.0000 F   0  0  0  0  0  0           0  0  0
    8.1090   -7.2418    0.0000 C   0  0  3  0  0  0           0  0  0
    7.6917   -7.9542    0.0000 F   0  0  0  0  0  0           0  0  0
    8.5167   -6.5250    0.0000 F   0  0  0  0  0  0           0  0  0
    7.3917   -6.8292    0.0000 F   0  0  0  0  0  0           0  0  0
   13.8220   -8.8824    0.0000 C   0  0  0  0  0  0           0  0  0
   15.2338  -11.3572    0.0000 C   0  0  0  0  0  0           0  0  0
  8 13  2  0     0  0
 24 26  2  0     0  0
 25 27  1  0     0  0
  1  2  1  0     0  0
 13 14  1  0     0  0
 14 15  2  0     0  0
  7  8  1  0     0  0
 25 31  1  0     0  0
 27 28  1  0     0  0
 28 29  1  0     0  0
 29 30  1  0     0  0
 30 31  1  0     0  0
 15 16  1  0     0  0
 27 32  1  1     0  0
  1  6  1  0     0  0
 32 33  1  0     0  0
 33 34  2  0     0  0
 16 17  2  0     0  0
 17  8  1  0     0  0
 34 35  1  0     0  0
 35 37  1  0     0  0
 36 33  1  0     0  0
  7  9  2  0     0  0
  2  3  1  0     0  0
 36 37  2  0     0  0
 18 19  2  0     0  0
 37 38  1  0     0  0
  9 10  1  0     0  0
 38 39  2  0     0  0
 19 20  1  0     0  0
 39 40  1  0     0  0
  3  4  1  0     0  0
 40 41  2  0     0  0
 41 36  1  0     0  0
 20 21  2  0     0  0
 20 42  1  0     0  0
 10 11  1  0     0  0
 42 43  1  0     0  0
 21 22  1  0     0  0
 42 44  1  0     0  0
  4  5  1  0     0  0
 42 45  1  0     0  0
 22 23  2  0     0  0
 18 46  1  0     0  0
 23 18  1  0     0  0
 46 47  1  0     0  0
 11 12  1  0     0  0
 46 48  1  0     0  0
 22 24  1  0     0  0
 46 49  1  0     0  0
  5  6  1  0     0  0
 29 50  1  0     0  0
 50  7  1  0     0  0
 24 25  1  0     0  0
 12 51  1  0     0  0
 51  1  1  0     0  0
M  END