
  SciTegic06011109532D

186194  0  0  0  0            999 V2000
   -2.3396  -12.5689    0.0000 C   0  0  1  0  0  0
   -1.6398  -13.8232    0.0000 O   0  0
   -2.3325  -11.7484    0.0000 C   0  0
   -1.6264  -12.9920    0.0000 C   0  0
   -0.9098  -12.5925    0.0000 N   0  0
   -0.1965  -13.0058    0.0000 C   0  0  2  0  0  0
    0.5236  -11.7639    0.0000 O   0  0
    0.5236  -12.5932    0.0000 C   0  0
   -0.1965  -13.8351    0.0000 C   0  0
    0.5236  -14.2476    0.0000 C   0  0
    0.5236  -15.0768    0.0000 O   0  0
    1.9526  -12.5942    0.0000 C   0  0  1  0  0  0
    2.6686  -13.8360    0.0000 O   0  0
    1.9526  -11.7649    0.0000 C   0  0
    2.6686  -13.0067    0.0000 C   0  0
    4.0993  -13.0050    0.0000 C   0  0  1  0  0  0
    4.8153  -11.7631    0.0000 O   0  0
    4.0993  -13.8343    0.0000 C   0  0
    4.8153  -12.5924    0.0000 C   0  0
    5.5297  -13.0053    0.0000 N   0  0
   11.2123  -18.0157    0.0000 C   0  0  1  0  0  0
   10.5026  -16.7759    0.0000 O   0  0
   10.5026  -17.5968    0.0000 C   0  0
   11.2123  -18.8367    0.0000 C   0  0  1  0  0  0
   10.5026  -19.2513    0.0000 C   0  0
    9.0685  -17.5968    0.0000 C   0  0  2  0  0  0
    8.3505  -18.0157    0.0000 C   0  0
    7.6501  -14.2463    0.0000 C   0  0  2  0  0  0
    8.3735  -13.0109    0.0000 O   0  0
    8.3762  -13.8314    0.0000 C   0  0
    7.6606  -15.0664    0.0000 C   0  0
    9.7979  -13.8239    0.0000 C   0  0  2  0  0  0
   10.5156  -15.0539    0.0000 O   0  0
   10.5160  -14.2293    0.0000 C   0  0
    9.7951  -13.0042    0.0000 C   0  0
    9.0780  -12.5901    0.0000 C   0  0
   13.3522  -16.7782    0.0000 C   0  0
   13.3522  -17.6010    0.0000 C   0  0  1  0  0  0
   12.6721  -13.8296    0.0000 C   0  0
   11.9403  -14.2392    0.0000 C   0  0  2  0  0  0
   11.9363  -15.0697    0.0000 C   0  0
   12.6529  -15.4996    0.0000 S   0  0
   12.6483  -16.3393    0.0000 S   0  0
   15.4885  -13.8820    0.0000 C   0  0
   14.0759  -13.0430    0.0000 C   0  0
   13.3561  -12.6205    0.0000 C   0  0  2  0  0  0
   12.6354  -18.0157    0.0000 C   0  0
   12.6350  -18.8320    0.0000 O   0  0
   13.3921  -14.2283    0.0000 O   0  0
   15.4971  -13.0626    0.0000 C   0  0  2  0  0  0
   13.3680  -11.8002    0.0000 C   0  0
   14.0661  -13.8665    0.0000 O   0  0
   16.2044  -12.6608    0.0000 C   0  0
   16.2214  -11.8364    0.0000 C   0  0
   14.7699  -14.2855    0.0000 O   0  0
   14.0569  -18.8429    0.0000 C   0  0
   13.3473  -19.2497    0.0000 O   0  0
   14.7673  -19.2520    0.0000 C   0  0  2  0  0  0
   14.7626  -20.0819    0.0000 C   0  0
   14.0429  -20.4916    0.0000 C   0  0
   16.1858  -19.2606    0.0000 C   0  0
   16.1825  -20.0843    0.0000 O   0  0
   16.1900  -17.6290    0.0000 C   0  0
   16.1886  -16.8046    0.0000 C   0  0  2  0  0  0
   15.4853  -18.0372    0.0000 O   0  0
   16.8983  -15.5643    0.0000 C   0  0
   16.1809  -15.1606    0.0000 O   0  0
   17.6092  -15.1476    0.0000 C   0  0  2  0  0  0
   18.3189  -13.9158    0.0000 C   0  0
   18.3112  -13.0859    0.0000 C   0  0  1  0  0  0
   19.0279  -14.3194    0.0000 O   0  0
   19.0243  -12.6692    0.0000 C   0  0  2  0  0  0
    9.7846  -18.0157    0.0000 N   0  0
   18.3223  -15.5610    0.0000 C   0  0
   13.2950  -20.1536    0.0000 C   0  0
   12.7415  -20.7643    0.0000 N   0  0
   13.1512  -21.4799    0.0000 C   0  0
   16.9098  -18.0314    0.0000 N   0  0
   16.9069  -18.8518    0.0000 C   0  0  1  0  0  0
   17.6863  -19.1061    0.0000 C   0  0
   18.1709  -18.4461    0.0000 C   0  0
   17.6910  -17.7786    0.0000 C   0  0
   16.8999  -19.6720    0.0000 H   0  0
   15.4778  -16.3976    0.0000 C   0  0
   14.7652  -16.8115    0.0000 C   0  0
   14.0502  -16.4045    0.0000 C   0  0
   14.7674  -17.6365    0.0000 C   0  0
   18.3165  -16.3861    0.0000 C   0  0
   19.7382  -13.0780    0.0000 C   0  0
   19.0200  -11.8482    0.0000 C   0  0
   12.6602  -11.3780    0.0000 C   0  0
    6.9520  -15.4875    0.0000 C   0  0
    6.9551  -13.0161    0.0000 C   0  0
    6.2424  -12.5978    0.0000 C   0  0  2  0  0  0
    7.6702  -12.6051    0.0000 O   0  0
    6.2490  -11.7769    0.0000 C   0  0
   10.5053  -12.5889    0.0000 C   0  0
    9.0670  -16.7759    0.0000 C   0  0
    8.3502  -16.3647    0.0000 C   0  0
    6.9641  -11.3701    0.0000 C   0  0
    7.6723  -11.7862    0.0000 C   0  0
    8.3866  -11.3762    0.0000 C   0  0
    8.3939  -10.5540    0.0000 C   0  0
    7.6778  -10.1401    0.0000 C   0  0
    6.9638  -10.5495    0.0000 C   0  0
    6.2330  -15.0835    0.0000 C   0  0
    6.2266  -14.2626    0.0000 O   0  0
   12.5858  -10.5633    0.0000 C   0  0
   11.7831  -10.3793    0.0000 N   0  0
   11.3608  -11.0871    0.0000 C   0  0
   16.9338  -11.4400    0.0000 C   0  0
   16.9430  -10.6168    0.0000 C   0  0
   16.2396  -10.1969    0.0000 C   0  0
   15.5204  -10.6010    0.0000 C   0  0
   15.5124  -11.4223    0.0000 C   0  0
   20.4520  -12.6658    0.0000 C   0  0
   17.8963  -12.3685    0.0000 H   0  0
   19.0254  -16.7995    0.0000 C   0  0
    7.6434  -16.7786    0.0000 C   0  0
    6.2156  -16.7813    0.0000 C   0  0
    7.6406  -17.6069    0.0000 O   0  0
    7.6494  -19.2488    0.0000 C   0  0  1  0  0  0
    6.9313  -18.8401    0.0000 C   0  0
    6.9310  -18.0192    0.0000 O   0  0
    7.6531  -20.0822    0.0000 C   0  0
    6.9320  -20.5022    0.0000 C   0  0
    6.2081  -20.0869    0.0000 C   0  0
    5.4918  -20.5061    0.0000 C   0  0
    5.4950  -21.3404    0.0000 C   0  0
    6.2205  -21.7537    0.0000 C   0  0
    6.9381  -21.3322    0.0000 C   0  0
    4.7745  -21.7612    0.0000 O   0  0
   11.9252  -17.6050    0.0000 N   0  0
    6.9527  -13.8370    0.0000 N   0  0
    9.0779  -14.2355    0.0000 N   0  0
   14.0594  -18.0192    0.0000 N   0  0
   12.6413  -13.0361    0.0000 N   0  0
   14.7872  -12.6380    0.0000 N   0  0
   15.4851  -18.8493    0.0000 N   0  0
   16.9059  -16.3846    0.0000 N   0  0
   17.6243  -14.3179    0.0000 N   0  0
   16.1996  -14.3006    0.0000 N   0  0
   11.2331  -13.8274    0.0000 N   0  0
   13.9598  -21.3113    0.0000 N   0  0
    5.5328  -15.5045    0.0000 O   0  0
   11.9020  -11.7059    0.0000 N   0  0
   16.2508   -9.3719    0.0000 O   0  0
   11.9252  -19.2473    0.0000 O   0  0
    6.9308  -16.3675    0.0000 N   0  0
    5.5073  -16.3702    0.0000 N   0  0
    6.2172  -17.6023    0.0000 N   0  0
    8.3548  -18.8366    0.0000 N   0  0
    6.2175  -19.2564    0.0000 N   0  0
   19.0234  -17.6329    0.0000 C   0  0
   19.7451  -18.0515    0.0000 N   0  0
   20.4691  -17.6365    0.0000 C   0  0
   21.1909  -18.0550    0.0000 C   0  0
   20.4711  -16.8030    0.0000 O   0  0
   21.9107  -17.6401    0.0000 O   0  0
   22.6326  -18.0586    0.0000 C   0  0
   23.3565  -17.6436    0.0000 C   0  0
   24.0783  -18.0622    0.0000 N   0  0
   23.3586  -16.8102    0.0000 O   0  0
   24.7980  -17.6472    0.0000 C   0  0
   25.5187  -18.0689    0.0000 C   0  0
   26.2422  -17.6546    0.0000 C   0  0
   26.2447  -16.8203    0.0000 C   0  0
   25.5178  -16.4020    0.0000 C   0  0
   24.7973  -16.8185    0.0000 C   0  0
   26.9681  -16.4044    0.0000 C   0  0
   27.6863  -16.8219    0.0000 C   0  0
   28.4097  -16.4061    0.0000 C   0  0
   29.1320  -16.8236    0.0000 N   0  0
   28.4107  -15.5727    0.0000 O   0  0
   29.3434  -17.6272    0.0000 C   0  0
   30.1490  -17.4104    0.0000 C   0  0
   29.9363  -16.6048    0.0000 C   0  0
   30.3529  -15.8860    0.0000 O   0  0
   -3.7685  -12.5562    0.0000 C   0  0
   -4.4861  -12.9634    0.0000 C   0  0
   -3.7623  -11.7311    0.0000 O   0  0
    6.1495  -13.6170    0.0000 C   0  0
   -3.0577  -12.9751    0.0000 N   0  0
    1.2427  -13.8320    0.0000 O   0  0
    1.2378  -13.0061    0.0000 N   0  0
    3.3835  -12.5949    0.0000 N   0  0
 50 53  1  1
 53 54  1  0
 44 55  2  0
136 56  1  0
 56 57  2  0
 56 58  1  0
 58 59  1  1
 58139  1  0
 59 60  1  0
139 61  1  0
 79 61  1  0
 61 62  2  0
 78 63  1  0
 63 64  1  0
 63 65  2  0
 64140  1  0
140 66  1  0
 66 67  2  0
 66 68  1  0
 68141  1  0
141 69  1  0
 69 70  1  0
 69 71  2  0
 70 72  1  0
 70142  1  0
 47133  1  0
 68 74  1  1
 60 75  2  0
 75 76  1  0
 76 77  2  0
 77144  1  0
144 60  1  0
 78 79  1  0
 79 80  1  0
 80 81  1  0
 81 82  1  0
 82 78  1  0
 79 83  1  6
 64 84  1  6
 84 85  1  0
 85 86  1  0
 85 87  1  0
 74 88  1  0
 72 89  1  0
 72 90  1  1
 51 91  1  0
 31 92  1  0
134 93  1  0
 93 94  1  0
 93 95  2  0
 94 96  1  1
 94 20  1  0
 35 97  1  0
 26 98  1  1
 98 99  1  0
 96100  1  0
100101  2  0
101102  1  0
102103  2  0
103104  1  0
104105  2  0
105100  1  0
 92106  1  0
106145  1  0
106107  2  0
 91108  2  0
108109  1  0
109110  2  0
110146  1  0
146 91  1  0
 54111  2  0
111112  1  0
112113  2  0
113114  1  0
114115  2  0
115 54  1  0
113147  1  0
 89116  1  0
 70117  1  6
 88118  1  0
 24148  1  6
 99119  1  0
119149  1  0
149120  1  0
120150  1  0
120151  2  0
 27121  2  0
 27152  1  0
152122  1  0
122123  1  0
123124  2  0
123153  1  0
122125  1  6
125126  1  0
 12 15  1  0
126127  2  0
 15 13  2  0
127128  1  0
 12 14  1  1
128129  2  0
129130  1  0
 16 19  1  0
130131  2  0
131126  1  0
 19 17  2  0
129132  1  0
 16 18  1  6
 19 20  1  0
  1  4  1  0
  4  2  2  0
  1  3  1  1
  4  5  1  0
  6  8  1  0
  8  7  2  0
  6  9  1  6
  9 10  1  0
 10 11  2  0
 23 73  1  0
 21 23  1  6
 23 22  2  0
 21 24  1  0
 24 25  1  0
 73 26  1  0
 26 27  1  0
118154  1  0
 21133  1  0
154155  1  0
 28 30  1  0
155156  1  0
 30 29  2  0
156157  1  0
 28 31  1  6
156158  2  0
 32 34  1  0
157159  1  0
 34 33  2  0
159160  1  0
 32 35  1  0
160161  1  0
 35 36  1  0
161162  1  0
 30135  1  0
161163  2  0
 32135  1  1
162164  1  0
134 28  1  0
164165  2  0
 37 38  1  0
165166  1  0
 38136  1  0
166167  2  0
 39 40  1  0
167168  1  0
 40 41  1  0
168169  2  0
169164  1  0
 41 42  1  0
167170  1  0
 43 42  1  0
170171  1  0
 44142  1  0
171172  1  0
138 45  1  0
172173  1  0
 44 50  1  0
172174  2  0
173175  1  0
 46137  1  0
 45 46  1  0
137 39  1  0
175176  1  0
176177  1  0
177173  1  0
 43 37  1  0
177178  2  0
  6  5  1  0
 38 47  1  6
 47 48  2  0
179180  1  0
 40143  1  6
179181  2  0
143 34  1  0
134182  1  0
 39 49  2  0
138 50  1  0
 46 51  1  1
 45 52  2  0
183  1  1  0
183179  1  0
 10184  1  0
185 12  1  0
  8185  1  0
186 16  1  0
 15186  1  0
M  END