
          08180812482D 1   1.00000     0.00000     0

 27 29  0     0  0            999 V2000
   -1.0963  -10.0884    0.0000 N   0  0  0  0  0  0           0  0  0
   -1.0927  -10.9170    0.0000 C   0  0  0  0  0  0           0  0  0
   -0.3803  -11.3257    0.0000 C   0  0  0  0  0  0           0  0  0
   -0.3888   -9.6715    0.0000 C   0  0  0  0  0  0           0  0  0
    0.3255  -10.0765    0.0000 C   0  0  0  0  0  0           0  0  0
    0.3323  -10.9122    0.0000 C   0  0  0  0  0  0           0  0  0
    1.0763   -9.7363    0.0000 C   0  0  0  0  0  0           0  0  0
    1.7471  -10.2132    0.0000 N   0  3  0  0  0  0           0  0  0
    1.7601  -11.0344    0.0000 C   0  0  0  0  0  0           0  0  0
    2.5490  -11.2740    0.0000 S   0  0  0  0  0  0           0  0  0
    3.0227  -10.6002    0.0000 C   0  0  0  0  0  0           0  0  0
    2.5275   -9.9431    0.0000 C   0  0  0  0  0  0           0  0  0
    2.7697   -9.1522    0.0000 C   0  0  0  0  0  0           0  0  0
    3.8483  -10.5845    0.0000 C   0  0  0  0  0  0           0  0  0
    4.2759  -11.2901    0.0000 C   0  0  0  0  0  0           0  0  0
    5.0994  -11.2699    0.0000 O   0  0  0  0  0  0           0  0  0
   -1.8080  -11.3267    0.0000 C   0  0  0  0  0  0           0  0  0
   -2.5222  -10.9144    0.0000 O   0  0  0  0  0  0           0  0  0
   -1.8123  -12.1517    0.0000 C   0  0  0  0  0  0           0  0  0
   -1.0922  -12.5644    0.0000 C   0  0  0  0  0  0           0  0  0
   -1.0898  -13.3873    0.0000 C   0  0  0  0  0  0           0  0  0
   -1.8033  -13.8030    0.0000 C   0  0  0  0  0  0           0  0  0
   -2.5192  -13.3904    0.0000 C   0  0  0  0  0  0           0  0  0
   -2.5235  -12.5708    0.0000 C   0  0  0  0  0  0           0  0  0
   -3.2367  -12.1549    0.0000 C   0  0  0  0  0  0           0  0  0
   -3.9509  -12.5640    0.0000 O   0  0  0  0  0  0           0  0  0
   -3.2310  -11.3301    0.0000 O   0  0  0  0  0  0           0  0  0
  1  2  2  0     0  0
  2  3  1  0     0  0
  3  6  2  0     0  0
  5  4  2  0     0  0
  4  1  1  0     0  0
  5  6  1  0     0  0
  5  7  1  0     0  0
  7  8  1  0     0  0
  8  9  2  0     0  0
  9 10  1  0     0  0
 10 11  1  0     0  0
 11 12  2  0     0  0
 12  8  1  0     0  0
 12 13  1  0     0  0
 11 14  1  0     0  0
 14 15  1  0     0  0
 15 16  1  0     0  0
  2 17  1  0     0  0
 17 18  2  0     0  0
 17 19  1  0     0  0
 19 20  2  0     0  0
 20 21  1  0     0  0
 21 22  2  0     0  0
 22 23  1  0     0  0
 23 24  2  0     0  0
 24 19  1  0     0  0
 24 25  1  0     0  0
 25 26  1  0     0  0
 25 27  2  0     0  0
M  CHG  1   8   1
M  END