
          11280715352D 1   1.00000     0.00000     0

 39 42  0     1  0            999 V2000
    3.6750   -5.7792    0.0000 N   0  0  3  0  0  0           0  0  0
    4.7000   -5.2042    0.0000 C   0  0  0  0  0  0           0  0  0
    4.1917   -4.9042    0.0000 C   0  0  0  0  0  0           0  0  0
    4.6917   -5.7917    0.0000 C   0  0  0  0  0  0           0  0  0
    3.6875   -5.1917    0.0000 C   0  0  0  0  0  0           0  0  0
    4.7000   -4.0292    0.0000 C   0  0  2  0  0  0           0  0  0
    4.1917   -4.3167    0.0000 C   0  0  0  0  0  0           0  0  0
    5.2042   -4.3292    0.0000 C   0  0  2  0  0  0           0  0  0
    5.7250   -4.0417    0.0000 N   0  0  3  0  0  0           0  0  0
    5.2042   -4.9042    0.0000 C   0  0  0  0  0  0           0  0  0
    6.2500   -2.5667    0.0000 C   0  0  0  0  0  0           0  0  0
    5.7292   -3.4542    0.0000 C   0  0  0  0  0  0           0  0  0
    4.7042   -3.4292    0.0000 C   0  0  0  0  0  0           0  0  0
    7.4375   -5.2917    0.0000 C   0  0  0  0  0  0           0  0  0
    8.6417   -5.3042    0.0000 C   0  0  0  0  0  0           0  0  0
    7.7375   -4.7792    0.0000 C   0  0  0  0  0  0           0  0  0
    8.3375   -4.7792    0.0000 C   0  0  0  0  0  0           0  0  0
    5.2167   -3.1417    0.0000 C   0  0  1  0  0  0           0  0  0
    5.7417   -2.2667    0.0000 O   0  0  0  0  0  0           0  0  0
    3.2500   -6.1917    0.0000 C   0  0  3  0  0  0           0  0  0
    6.2417   -3.1667    0.0000 O   0  0  0  0  0  0           0  0  0
    7.7375   -5.8167    0.0000 O   0  0  0  0  0  0           0  0  0
    9.2417   -5.3042    0.0000 O   0  0  0  0  0  0           0  0  0
    6.7625   -2.2792    0.0000 C   0  0  3  0  0  0           0  0  0
    5.2250   -2.5542    0.0000 C   0  0  0  0  0  0           0  0  0
    3.1792   -4.9042    0.0000 C   0  0  0  0  0  0           0  0  0
    3.6875   -4.0167    0.0000 C   0  0  0  0  0  0           0  0  0
    6.2292   -4.3417    0.0000 C   0  0  0  0  0  0           0  0  0
    8.3375   -5.8167    0.0000 O   0  0  0  0  0  0           0  0  0
    6.8375   -5.2917    0.0000 O   0  0  0  0  0  0           0  0  0
    3.1792   -4.3167    0.0000 C   0  0  0  0  0  0           0  0  0
    6.8375   -1.6917    0.0000 C   0  0  0  0  0  0           0  0  0
    7.3000   -2.5292    0.0000 C   0  0  0  0  0  0           0  0  0
    2.6750   -6.0292    0.0000 C   0  0  0  0  0  0           0  0  0
    3.4000   -6.7792    0.0000 C   0  0  0  0  0  0           0  0  0
    7.7000   -2.1042    0.0000 C   0  0  0  0  0  0           0  0  0
    7.4125   -1.5792    0.0000 C   0  0  0  0  0  0           0  0  0
    3.9125   -3.5667    0.0000 H   0  0  0  0  0  0           0  0  0
    5.7167   -4.6167    0.0000 H   0  0  0  0  0  0           0  0  0
  2  4  2  0     0  0
  3  5  1  0     0  0
  4  1  1  0     0  0
  5  1  1  0     0  0
  6  7  1  0     0  0
  7  3  2  0     0  0
  8 10  1  0     0  0
  9  8  1  0     0  0
 10  2  1  0     0  0
 11 19  1  0     0  0
 12  9  1  0     0  0
 13  6  1  0     0  0
 15 17  1  0     0  0
 16 14  1  0     0  0
 17 16  2  0     0  0
 18 13  1  0     0  0
 19 25  1  0     0  0
 20  1  1  0     0  0
 21 11  2  0     0  0
 22 14  2  0     0  0
 23 15  2  0     0  0
 24 11  1  0     0  0
 18 25  1  1     0  0
 26  5  2  0     0  0
 27  7  1  0     0  0
 28  9  1  0     0  0
 29 15  1  0     0  0
 30 14  1  0     0  0
 31 26  1  0     0  0
 32 24  1  0     0  0
 33 24  1  0     0  0
 34 20  1  0     0  0
 35 20  1  0     0  0
 36 33  1  0     0  0
 37 32  1  0     0  0
  6 38  1  6     0  0
  8 39  1  1     0  0
  3  2  1  0     0  0
 31 27  2  0     0  0
  8  6  1  0     0  0
 12 18  1  0     0  0
 37 36  1  0     0  0
M  END