
          11280715072D 1   1.00000     0.00000     0

 15 15  0     0  0            999 V2000
    4.2042   -6.8792    0.0000 C   0  0  0  0  0  0           0  0  0
    1.3417   -6.0542    0.0000 C   0  0  0  0  0  0           0  0  0
    2.0542   -6.4667    0.0000 N   0  0  3  0  0  0           0  0  0
    3.4875   -6.4667    0.0000 C   0  0  0  0  0  0           0  0  0
    5.6292   -6.8792    0.0000 N   0  0  3  0  0  0           0  0  0
    2.7750   -6.0542    0.0000 C   0  0  3  0  0  0           0  0  0
    1.3417   -5.2292    0.0000 O   0  0  0  0  0  0           0  0  0
    4.9167   -7.2917    0.0000 C   0  0  0  0  0  0           0  0  0
    2.0542   -7.2917    0.0000 C   0  0  0  0  0  0           0  0  0
    0.6292   -6.4667    0.0000 C   0  0  0  0  0  0           0  0  0
    6.3792   -7.2042    0.0000 C   0  0  0  0  0  0           0  0  0
    5.7125   -6.0542    0.0000 C   0  0  0  0  0  0           0  0  0
    2.7750   -5.2292    0.0000 C   0  0  0  0  0  0           0  0  0
    6.5167   -5.8792    0.0000 C   0  0  0  0  0  0           0  0  0
    6.9292   -6.5917    0.0000 C   0  0  0  0  0  0           0  0  0
  2  3  1  0     0  0
  3  6  1  0     0  0
  4  1  3  0     0  0
  5  8  1  0     0  0
  6  4  1  0     0  0
  7  2  2  0     0  0
  8  1  1  0     0  0
  9  3  1  0     0  0
 10  2  1  0     0  0
 11  5  1  0     0  0
 12  5  1  0     0  0
 13  6  1  0     0  0
 14 12  1  0     0  0
 15 11  1  0     0  0
 14 15  1  0     0  0
M  END