
  Mrv0541 04051115152D          

 21 23  0  0  0  0            999 V2000
    0.2019    1.1204    0.0000 N   0  0  0  0  0  0  0  0  0  0  0  0
    0.2019    0.2954    0.0000 C   0  0  0  0  0  0  0  0  0  0  0  0
    0.9164   -0.1171    0.0000 N   0  0  0  0  0  0  0  0  0  0  0  0
    1.6308    0.2954    0.0000 C   0  0  0  0  0  0  0  0  0  0  0  0
    1.6308    1.1204    0.0000 C   0  0  0  0  0  0  0  0  0  0  0  0
    0.9164    1.5329    0.0000 C   0  0  0  0  0  0  0  0  0  0  0  0
    0.9164    2.3579    0.0000 O   0  0  0  0  0  0  0  0  0  0  0  0
   -3.3705   -1.7671    0.0000 F   0  0  0  0  0  0  0  0  0  0  0  0
   -2.2435   -2.0691    0.0000 F   0  0  0  0  0  0  0  0  0  0  0  0
   -3.0685   -0.6401    0.0000 F   0  0  0  0  0  0  0  0  0  0  0  0
   -0.5126   -0.9421    0.0000 C   0  0  0  0  0  0  0  0  0  0  0  0
   -1.2270    0.2954    0.0000 C   0  0  0  0  0  0  0  0  0  0  0  0
   -1.2270   -1.3546    0.0000 C   0  0  0  0  0  0  0  0  0  0  0  0
   -1.9415   -0.1171    0.0000 C   0  0  0  0  0  0  0  0  0  0  0  0
    3.0598    0.2954    0.0000 C   0  0  0  0  0  0  0  0  0  0  0  0
    2.3453   -0.1171    0.0000 C   0  0  0  0  0  0  0  0  0  0  0  0
    2.3453    1.5329    0.0000 C   0  0  0  0  0  0  0  0  0  0  0  0
    3.0598    1.1204    0.0000 S   0  0  0  0  0  0  0  0  0  0  0  0
   -0.5126   -0.1171    0.0000 C   0  0  0  0  0  0  0  0  0  0  0  0
   -1.9415   -0.9421    0.0000 C   0  0  0  0  0  0  0  0  0  0  0  0
   -2.6560   -1.3546    0.0000 C   0  0  0  0  0  0  0  0  0  0  0  0
  2  1  1  0  0  0  0
  6  1  2  0  0  0  0
  2  3  2  0  0  0  0
  2 19  1  0  0  0  0
  4  3  1  0  0  0  0
  4  5  2  0  0  0  0
  4 16  1  0  0  0  0
  5  6  1  0  0  0  0
  5 17  1  0  0  0  0
  6  7  1  0  0  0  0
 21  8  1  0  0  0  0
 21  9  1  0  0  0  0
 21 10  1  0  0  0  0
 11 13  2  0  0  0  0
 11 19  1  0  0  0  0
 12 14  1  0  0  0  0
 12 19  2  0  0  0  0
 13 20  1  0  0  0  0
 14 20  2  0  0  0  0
 15 16  1  0  0  0  0
 15 18  1  0  0  0  0
 17 18  1  0  0  0  0
 20 21  1  0  0  0  0
M  END