
  SciTegic10301317112D

 71 75  0  0  1  0            999 V2000
   12.1917   -5.0589    0.0000 N   0  0
   11.4870   -4.6464    0.0000 C   0  0
    2.8933   -4.6980    0.0000 C   0  0
    5.0531   -5.0933    0.0000 C   0  0
    7.1901   -4.6636    0.0000 C   0  0
    9.3386   -5.0589    0.0000 C   0  0
   12.9651   -5.3511    0.0000 C   0  0  2  0  0  0
    2.1886   -5.1219    0.0000 C   0  0  1  0  0  0
    3.6151   -5.1047    0.0000 N   0  0
    7.9120   -5.0703    0.0000 N   0  0
    5.7636   -4.6750    0.0000 N   0  0
   10.0547   -4.6292    0.0000 N   0  0
    4.3198   -4.6808    0.0000 C   0  0  1  0  0  0
    6.4855   -5.0761    0.0000 C   0  0  2  0  0  0
    8.6281   -4.6464    0.0000 C   0  0  1  0  0  0
    1.4667   -4.7094    0.0000 N   0  0
    0.7448   -5.1276    0.0000 C   0  0
   13.1828   -6.1589    0.0000 C   0  0
   10.7766   -5.0589    0.0000 C   0  0  1  0  0  0
   12.1573   -8.3761    0.0000 C   0  0
   -0.6817   -5.1391    0.0000 C   0  0
    0.0344   -4.7151    0.0000 C   0  0
   -1.3922   -4.7266    0.0000 C   0  0
   11.4469   -8.7714    0.0000 N   0  0
   11.4984   -3.8214    0.0000 O   0  0
    2.8933   -3.8730    0.0000 O   0  0
    7.1901   -3.8386    0.0000 O   0  0
    9.3558   -5.8839    0.0000 O   0  0
    5.0589   -5.9183    0.0000 O   0  0
    4.3198   -3.8558    0.0000 C   0  0
    6.4855   -5.9011    0.0000 C   0  0
   12.5870   -6.7375    0.0000 O   0  0
    0.7620   -5.9526    0.0000 O   0  0
    8.6167   -3.8214    0.0000 C   0  0
   12.1745   -7.5511    0.0000 N   0  0
   13.9792   -6.3651    0.0000 N   0  0
   12.8734   -8.7886    0.0000 N   0  0
   12.2433   -4.2339    0.0000 C   0  0
   -2.1083   -5.1391    0.0000 C   0  0
    5.0359   -3.4375    0.0000 C   0  0
    6.4625   -2.6011    0.0000 C   0  0
    2.1886   -5.9355    0.0000 C   0  0
    5.0245   -2.6125    0.0000 C   0  0
    5.7578   -3.8386    0.0000 C   0  0
    5.7464   -2.1886    0.0000 C   0  0
    6.4683   -3.4261    0.0000 C   0  0
   13.4922   -4.7151    0.0000 C   0  0
    7.2073   -6.3136    0.0000 C   0  0
    7.1730   -2.1828    0.0000 O   0  0
   -0.6703   -5.9526    0.0000 C   0  0
    2.9105   -6.3480    0.0000 O   0  0
   13.0453   -4.0276    0.0000 C   0  0
   10.7651   -5.8839    0.0000 C   0  0
   -1.3864   -6.3651    0.0000 C   0  0
    9.3214   -3.4089    0.0000 C   0  0
   -1.4036   -3.9016    0.0000 C   0  0
   -2.1083   -5.9641    0.0000 C   0  0
   14.1855   -7.1730    0.0000 C   0  0
   11.4641   -7.1328    0.0000 C   0  0
   -2.8130   -4.7323    0.0000 C   0  0
    7.9062   -5.8953    0.0000 C   0  0
    7.2073   -7.1328    0.0000 C   0  0
   11.4698   -6.3078    0.0000 C   0  0
   10.0433   -3.8042    0.0000 C   0  0
    9.3214   -2.5839    0.0000 C   0  0
   14.9761   -7.3792    0.0000 C   0  0
   -2.1083   -3.4948    0.0000 C   0  0
   -2.8302   -3.9073    0.0000 C   0  0
    8.6167   -6.2964    0.0000 C   0  0
    7.9234   -7.5339    0.0000 C   0  0
    8.6339   -7.1214    0.0000 C   0  0
  2  1  1  0
  3  9  1  0
  4 11  1  0
  5 10  1  0
  6 12  1  0
  7  1  1  0
  8  3  1  0
  9 13  1  0
 10 15  1  0
 11 14  1  0
 12 19  1  0
 13  4  1  0
 14  5  1  0
 15  6  1  0
 16  8  1  0
 17 16  1  0
  7 18  1  1
 19  2  1  0
 20 35  2  0
 21 22  1  0
 22 17  1  0
 23 21  2  0
 24 20  1  0
 25  2  2  0
 26  3  2  0
 27  5  2  0
 28  6  2  0
 29  4  2  0
 13 30  1  1
 14 31  1  1
 32 18  2  0
 33 17  2  0
 15 34  1  1
 35 59  1  0
 36 18  1  0
 37 20  1  0
 38  1  1  0
 39 23  1  0
 40 30  1  0
 41 46  2  0
  8 42  1  6
 43 40  1  0
 44 40  2  0
 45 43  2  0
 46 44  1  0
 47  7  1  0
 48 31  1  0
 49 41  1  0
 50 21  1  0
 51 42  1  0
 52 38  1  0
 19 53  1  6
 54 50  2  0
 55 34  1  0
 56 23  1  0
 57 54  1  0
 58 36  1  0
 59 63  1  0
 60 39  1  0
 61 48  1  0
 62 48  1  0
 63 53  1  0
 64 55  1  0
 65 55  1  0
 66 58  1  0
 67 56  2  0
 68 67  1  0
 69 61  1  0
 70 62  1  0
 71 70  1  0
 52 47  1  0
 69 71  1  0
 45 41  1  0
 39 57  2  0
 68 60  2  0
M  END