
  SciTegic05171617272D

 31 35  0  0  0  0            999 V2000
   -7.2775    5.3768    0.0000 C   0  0
   -6.2413    5.9820    0.0000 C   0  0
   -4.9380    5.2378    0.0000 N   0  0
   -4.9300    3.7369    0.0000 C   0  0
   -5.9662    3.1317    0.0000 O   0  0
   -3.6267    2.9927    0.0000 C   0  0
   -3.6187    1.4919    0.0000 O   0  0
   -2.3155    0.7475    0.0000 C   0  0
   -2.3155   -0.7475    0.0000 C   0  0
   -1.0028   -1.5132    0.0000 C   0  0
   -0.9991   -2.7132    0.0000 C   0  0
    0.2917   -0.7475    0.0000 C   0  0
    1.7138   -1.2033    0.0000 C   0  0
    2.5889    0.0182    0.0000 N   0  0
    1.7138    1.2033    0.0000 N   0  0
    2.0825    2.3453    0.0000 C   0  0
    0.2917    0.7475    0.0000 C   0  0
   -1.0028    1.5132    0.0000 N   0  0
    2.1852   -2.6281    0.0000 C   0  0
    3.1871   -3.6309    0.0000 C   0  0
    1.7264   -3.9718    0.0000 C   0  0
   -6.2494    7.4828    0.0000 C   0  0
   -7.5519    8.2191    0.0000 C   0  0
   -7.5717    9.7387    0.0000 C   0  0
   -6.2677   10.4881    0.0000 C   0  0
   -5.9640   11.9502    0.0000 N   0  0
   -6.7698   12.8394    0.0000 C   0  0
   -4.4698   12.1102    0.0000 C   0  0
   -3.8695   10.7649    0.0000 C   0  0
   -4.9666    9.7518    0.0000 C   0  0
   -4.9378    8.2480    0.0000 C   0  0
  1  2  1  0
  2  3  1  0
  3  4  1  0
  4  5  2  0
  4  6  1  0
  6  7  1  0
  7  8  1  0
  8  9  2  0
  9 10  1  0
 10 11  1  0
 10 12  2  0
 12 13  1  0
 13 14  2  0
 14 15  1  0
 15 16  1  0
 15 17  1  0
 12 17  1  0
 17 18  2  0
  8 18  1  0
 13 19  1  0
 19 20  1  0
 20 21  1  0
 19 21  1  0
  2 22  1  0
 22 23  2  0
 23 24  1  0
 24 25  2  0
 25 26  1  0
 26 27  1  0
 26 28  1  0
 28 29  2  0
 29 30  1  0
 25 30  1  0
 30 31  2  0
 22 31  1  0
M  END