
          11280714502D 1   1.00000     0.00000     0

 28 32  0     1  0            999 V2000
    3.4667   -1.6917    0.0000 N   0  0  3  0  0  0           0  0  0
    2.9417   -1.9875    0.0000 C   0  0  2  0  0  0           0  0  0
    2.4292   -1.6917    0.0000 C   0  0  0  0  0  0           0  0  0
    3.4625   -2.8792    0.0000 C   0  0  2  0  0  0           0  0  0
    2.9417   -2.5792    0.0000 C   0  0  0  0  0  0           0  0  0
    3.4542   -3.4792    0.0000 C   0  0  2  0  0  0           0  0  0
    2.4292   -1.0917    0.0000 C   0  0  0  0  0  0           0  0  0
    1.9167   -1.9875    0.0000 C   0  0  0  0  0  0           0  0  0
    3.9792   -2.5917    0.0000 C   0  0  2  0  0  0           0  0  0
    3.9875   -1.9875    0.0000 C   0  0  0  0  0  0           0  0  0
    1.4000   -1.6917    0.0000 C   0  0  0  0  0  0           0  0  0
    1.3917   -1.0875    0.0000 C   0  0  0  0  0  0           0  0  0
    1.9167   -0.7917    0.0000 C   0  0  0  0  0  0           0  0  0
    0.8792   -1.9875    0.0000 O   0  0  0  0  0  0           0  0  0
    3.4667   -1.0917    0.0000 C   0  0  0  0  0  0           0  0  0
    0.8792   -0.7917    0.0000 O   0  0  0  0  0  0           0  0  0
    3.9667   -3.7792    0.0000 C   0  0  1  0  0  0           0  0  0
    0.1542   -1.4042    0.0000 C   0  0  0  0  0  0           0  0  0
    2.9417   -0.7917    0.0000 C   0  0  0  0  0  0           0  0  0
    4.4917   -2.8917    0.0000 C   0  0  0  0  0  0           0  0  0
    4.4875   -3.4917    0.0000 C   0  0  0  0  0  0           0  0  0
    2.9292   -3.7750    0.0000 C   0  0  0  0  0  0           0  0  0
    4.2625   -4.3000    0.0000 O   0  0  0  0  0  0           0  0  0
    2.4167   -3.4667    0.0000 O   0  0  0  0  0  0           0  0  0
    4.5000   -2.2875    0.0000 H   0  0  0  0  0  0           0  0  0
    2.9417   -3.1792    0.0000 H   0  0  0  0  0  0           0  0  0
    2.4250   -2.2792    0.0000 H   0  0  0  0  0  0           0  0  0
    3.6625   -4.3000    0.0000 H   0  0  0  0  0  0           0  0  0
  2  1  1  0     0  0
  3  2  1  0     0  0
  4  9  1  0     0  0
  5  2  1  0     0  0
  6  4  1  0     0  0
  7 19  1  0     0  0
  8  3  1  0     0  0
  9 10  1  0     0  0
 10  1  1  0     0  0
 11  8  2  0     0  0
 12 13  2  0     0  0
 13  7  1  0     0  0
 14 11  1  0     0  0
 15  1  1  0     0  0
 16 12  1  0     0  0
 17 21  1  0     0  0
 18 14  1  0     0  0
 19 15  1  0     0  0
 20  9  1  0     0  0
 21 20  1  0     0  0
  6 22  1  6     0  0
 17 23  1  1     0  0
 24 22  1  0     0  0
  9 25  1  1     0  0
  4 26  1  6     0  0
  2 27  1  6     0  0
 17 28  1  6     0  0
  4  5  1  0     0  0
  7  3  2  0     0  0
 11 12  1  0     0  0
 17  6  1  0     0  0
 16 18  1  0     0  0
M  END