
  SciTegic12231509382D

 21 22  0  0  0  0            999 V2000
   13.3625  -18.0125    0.0000 O   0  0
   14.0770  -17.6000    0.0000 C   0  0
   14.7914  -18.0125    0.0000 C   0  0  2  0  0  0
   15.5059  -17.6000    0.0000 C   0  0
   16.2204  -18.0125    0.0000 N   0  0
   16.9349  -17.6000    0.0000 C   0  0
   12.6480  -17.6000    0.0000 C   0  0
   12.5606  -16.7816    0.0000 C   0  0
   11.7536  -16.6101    0.0000 N   0  0
   11.3411  -17.3246    0.0000 S   0  0
   11.8931  -17.9377    0.0000 N   0  0
   14.7914  -18.8375    0.0000 O   0  0
   17.6493  -18.0125    0.0000 C   0  0
   16.9349  -16.7750    0.0000 C   0  0
   17.6458  -17.1792    0.0000 C   0  0
   13.1682  -16.2302    0.0000 N   0  0
   13.9534  -16.4866    0.0000 C   0  0
   14.5646  -15.9379    0.0000 C   0  0
   14.3965  -15.1299    0.0000 O   0  0
   13.6114  -14.8734    0.0000 C   0  0
   12.9943  -15.4250    0.0000 C   0  0
  6 14  1  0
  1  7  1  0
  6 15  1  0
 16 17  1  0
 10 11  1  0
  8  9  2  0
  3  4  1  0
  1  2  1  0
  4  5  1  0
 16 21  1  0
 17 18  1  0
 18 19  1  0
 19 20  1  0
 20 21  1  0
  8 16  1  0
  7  8  1  0
  9 10  1  0
 11  7  2  0
  3 12  1  6
  5  6  1  0
  6 13  1  0
  2  3  1  0
M  END