
          11280714572D 1   1.00000     0.00000     0

 32 35  0     0  0            999 V2000
   -0.6833   -1.8625    0.0000 C   0  0  0  0  0  0           0  0  0
   -0.0083   -2.3500    0.0000 C   0  0  0  0  0  0           0  0  0
   -0.4333   -1.0750    0.0000 N   0  0  0  0  0  0           0  0  0
    0.6542   -1.8542    0.0000 N   0  0  3  0  0  0           0  0  0
    3.9000   -5.1792    0.0000 C   0  0  0  0  0  0           0  0  0
    2.9125   -6.0792    0.0000 N   0  0  0  0  0  0           0  0  0
    3.0792   -5.2750    0.0000 N   0  0  0  0  0  0           0  0  0
    3.6292   -6.4917    0.0000 N   0  0  0  0  0  0           0  0  0
    0.0000   -3.1750    0.0000 N   0  0  3  0  0  0           0  0  0
    0.3917   -1.0667    0.0000 C   0  0  0  0  0  0           0  0  0
    4.2375   -5.9292    0.0000 N   0  0  0  0  0  0           0  0  0
   -1.4625   -2.1167    0.0000 C   0  0  0  0  0  0           0  0  0
    4.3042   -4.4667    0.0000 C   0  0  0  0  0  0           0  0  0
    3.8792   -3.7500    0.0000 C   0  0  0  0  0  0           0  0  0
    0.5875   -3.7625    0.0000 C   0  0  0  0  0  0           0  0  0
    3.0625   -3.7500    0.0000 C   0  0  0  0  0  0           0  0  0
   -1.6333   -2.9292    0.0000 O   0  0  0  0  0  0           0  0  0
    2.6500   -3.0375    0.0000 C   0  0  0  0  0  0           0  0  0
    2.6542   -4.4667    0.0000 C   0  0  0  0  0  0           0  0  0
    1.4125   -3.7542    0.0000 C   0  0  0  0  0  0           0  0  0
   -2.0833   -1.5667    0.0000 O   0  0  0  0  0  0           0  0  0
    1.4417   -2.1042    0.0000 C   0  0  0  0  0  0           0  0  0
    1.8292   -4.4750    0.0000 C   0  0  0  0  0  0           0  0  0
    1.8250   -3.0417    0.0000 C   0  0  0  0  0  0           0  0  0
   -0.7625   -3.4917    0.0000 C   0  0  0  0  0  0           0  0  0
    5.1292   -4.4542    0.0000 C   0  0  0  0  0  0           0  0  0
    4.2917   -3.0292    0.0000 C   0  0  0  0  0  0           0  0  0
   -0.8708   -4.3042    0.0000 C   0  0  0  0  0  0           0  0  0
   -1.6333   -4.6292    0.0000 C   0  0  0  0  0  0           0  0  0
    5.1167   -3.0292    0.0000 C   0  0  0  0  0  0           0  0  0
    5.5375   -3.7417    0.0000 C   0  0  0  0  0  0           0  0  0
   -1.7333   -5.4417    0.0000 C   0  0  0  0  0  0           0  0  0
  2  1  2  0     0  0
  3  1  1  0     0  0
  4  2  1  0     0  0
  5 13  1  0     0  0
  6  7  2  0     0  0
  7  5  1  0     0  0
  8 11  1  0     0  0
  9  2  1  0     0  0
 10  3  2  0     0  0
 11  5  2  0     0  0
 12  1  1  0     0  0
 13 14  2  0     0  0
 14 16  1  0     0  0
 15  9  1  0     0  0
 16 18  2  0     0  0
 17 12  2  0     0  0
 18 24  1  0     0  0
 19 23  2  0     0  0
 20 15  1  0     0  0
 21 12  1  0     0  0
 22  4  1  0     0  0
 23 20  1  0     0  0
 24 20  2  0     0  0
 25  9  1  0     0  0
 26 13  1  0     0  0
 27 14  1  0     0  0
 28 25  1  0     0  0
 29 28  1  0     0  0
 30 27  2  0     0  0
 31 30  1  0     0  0
 32 29  1  0     0  0
 10  4  1  0     0  0
 16 19  1  0     0  0
 31 26  2  0     0  0
  8  6  1  0     0  0
M  END