
  SciTegic09291413392D

 23 24  0  0  0  0            999 V2000
    3.3747   -5.8524    0.0000 C   0  0
    3.3735   -6.6719    0.0000 C   0  0
    4.0816   -7.0809    0.0000 C   0  0
    4.0798   -5.4435    0.0000 C   0  0
    4.0773   -4.6263    0.0000 Cl  0  0
    2.6655   -7.0799    0.0000 Cl  0  0
    4.7884   -5.8488    0.0000 C   0  0
    4.7932   -6.6719    0.0000 C   0  0
    5.5776   -6.9218    0.0000 N   0  0
    6.0576   -6.2529    0.0000 C   0  0
    5.5698   -5.5899    0.0000 C   0  0
    6.8748   -6.2481    0.0000 C   0  0
    7.2875   -6.9534    0.0000 O   0  0
    7.2792   -5.5380    0.0000 O   0  0
    5.8177   -4.8112    0.0000 C   0  0
    6.6160   -4.6366    0.0000 C   0  0
    6.8640   -3.8579    0.0000 C   0  0
    7.6623   -3.6833    0.0000 O   0  0
    6.3136   -3.2539    0.0000 O   0  0
    4.9927   -4.8112    0.0000 T   0  0
    5.6042   -4.0143    0.0000 T   0  0
    6.8296   -5.4335    0.0000 T   0  0
    7.4129   -4.8501    0.0000 T   0  0
  1  2  2  0
  2  3  1  0
  3  8  2  0
  7  4  2  0
  4  1  1  0
  4  5  1  0
  2  6  1  0
  7  8  1  0
  8  9  1  0
  9 10  1  0
 10 11  2  0
 11  7  1  0
 10 12  1  0
 12 13  1  0
 12 14  2  0
 11 15  1  0
 15 16  1  0
 16 17  1  0
 17 18  1  0
 17 19  2  0
 15 20  1  0
 15 21  1  0
 16 22  1  0
 16 23  1  0
M  END