
  SciTegic11201309402D

 22 24  0  0  1  0            999 V2000
   10.1250   -5.7917    0.0000 N   0  0
    8.7000   -5.7917    0.0000 C   0  0  1  0  0  0
    5.1292   -6.2125    0.0000 C   0  0
    9.4167   -6.2042    0.0000 C   0  0  1  0  0  0
    5.8417   -5.7917    0.0000 C   0  0
    7.9792   -6.2042    0.0000 C   0  0
    5.1292   -7.0375    0.0000 C   0  0
    7.2667   -5.7917    0.0000 O   0  0
    5.8500   -7.4417    0.0000 C   0  0
    6.5542   -6.2042    0.0000 C   0  0
    6.5542   -7.0292    0.0000 C   0  0
    8.6917   -4.9667    0.0000 O   0  0
   10.8292   -6.2042    0.0000 C   0  0
    4.4167   -5.8000    0.0000 C   0  0
    9.4167   -7.0292    0.0000 C   0  0
    4.4167   -7.4500    0.0000 C   0  0
   10.8292   -7.0292    0.0000 C   0  0
    3.7042   -6.2125    0.0000 C   0  0
   10.1250   -7.4417    0.0000 C   0  0
    3.7042   -7.0417    0.0000 C   0  0
    9.4125   -5.3792    0.0000 H   0  0
    7.9792   -5.3792    0.0000 H   0  0
  2  4  1  0
  3  5  1  0
  4  1  1  0
  5 10  2  0
  6  2  1  0
  7  9  1  0
  8  6  1  0
  9 11  2  0
 10  8  1  0
 11 10  1  0
  2 12  1  0
 13  1  1  0
 14  3  2  0
 15  4  1  0
 16  7  2  0
 17 13  1  0
 18 14  1  0
 19 17  1  0
 20 16  1  0
  4 21  1  1
  2 22  1  6
 19 15  1  0
  3  7  1  0
 20 18  2  0
M  END