
  SciTegic12211612392D

 27 27  0  0  0  0            999 V2000
    1.2990   -0.7500    0.0000 C   0  0
    1.2990    0.7500    0.0000 C   0  0
    0.0000    1.5000    0.0000 C   0  0
   -1.2990    0.7500    0.0000 C   0  0
   -1.2990   -0.7500    0.0000 C   0  0
    0.0000   -1.5000    0.0000 C   0  0
    0.0031   -3.0008    0.0000 O   0  0
    1.3039   -3.7494    0.0000 C   0  0
    1.3070   -5.2502    0.0000 C   0  0
    2.3471   -5.8487    0.0000 C   0  0
   -0.0031    3.0008    0.0000 C   0  0
   -1.3039    3.7494    0.0000 N   0  0
    1.2938    3.7562    0.0000 P   0  0
    2.3310    4.3596    0.0000 O   0  0
    1.2900    4.9562    0.0000 O   0  0
    2.3351    3.1598    0.0000 O   0  0
   -1.3070    5.2502    0.0000 C   0  0
   -2.6061    6.0003    0.0000 C   0  0
   -2.6061    7.5003    0.0000 C   0  0
   -1.3071    8.2503    0.0000 C   0  0
   -0.0080    7.5003    0.0000 C   0  0
   -0.0080    6.0003    0.0000 C   0  0
   -1.3071    9.4503    0.0000 F   0  0
    5.3684    0.9011    0.0000 C   0  0
    6.4078    1.5008    0.0000 C   0  0
    6.4078    2.7008    0.0000 C   0  0
    7.4472    0.9011    0.0000 O   0  0
  1  2  2  0
  2  3  1  0
  3  4  2  0
  4  5  1  0
  5  6  2  0
  6  1  1  0
  6  7  1  0
  7  8  1  0
  8  9  1  0
  9 10  1  0
  3 11  1  0
 11 12  1  0
 11 13  1  0
 13 14  1  0
 13 15  2  0
 13 16  1  0
 12 17  1  0
 17 18  2  0
 18 19  1  0
 19 20  2  0
 20 21  1  0
 21 22  2  0
 22 17  1  0
 20 23  1  0
 24 25  1  0
 25 26  1  0
 25 27  1  0
M  END