
  SciTegic12171313052D

 32 37  0  0  0  0            999 V2000
    4.9000   -9.7959    0.0000 C   0  0
    4.9000  -10.6229    0.0000 N   0  0
    5.6138  -11.0323    0.0000 C   0  0
    6.3277  -10.6229    0.0000 C   0  0
    6.3277   -9.7959    0.0000 C   0  0
    5.6138   -9.3781    0.0000 C   0  0
    6.3287   -8.9688    0.0000 C   0  0
    7.0425  -10.2052    0.0000 N   0  0
    7.7563   -9.7959    0.0000 C   0  0
    7.7563   -8.9688    0.0000 C   0  0
    7.0425   -8.5510    0.0000 C   0  0
    8.4720  -10.2105    0.0000 O   0  0
    4.1843  -11.0376    0.0000 C   0  0
    3.4681  -10.6238    0.0000 N   0  0
    3.4756  -12.2781    0.0000 N   0  0
    4.1878  -11.8618    0.0000 C   0  0
    2.7536  -11.8657    0.0000 C   0  0
    2.7513  -11.0407    0.0000 C   0  0
    2.0368  -10.6320    0.0000 C   0  0
    1.3242  -11.0472    0.0000 C   0  0
    1.3306  -11.8753    0.0000 C   0  0
    2.0455  -12.2802    0.0000 C   0  0
    7.0428  -11.0323    0.0000 C   0  0
    7.7592  -11.4457    0.0000 C   0  0
    9.0435  -11.8334    0.0000 N   0  0
    8.5448  -11.1735    0.0000 C   0  0
    8.5699  -12.5115    0.0000 C   0  0
    7.7830  -12.2689    0.0000 C   0  0
    7.1813  -12.8285    0.0000 C   0  0
    7.3656  -13.6309    0.0000 C   0  0
    8.1566  -13.8707    0.0000 C   0  0
    8.7548  -13.3094    0.0000 C   0  0
  1  2  1  0
  1  6  1  0
  2  3  1  0
  3  4  1  0
  4  5  1  0
  5  6  1  0
  7  5  1  0
  7 11  1  0
  5  8  1  0
  8  9  1  0
  9 10  1  0
 10 11  1  0
  9 12  2  0
  2 13  1  0
 13 14  2  0
 14 18  1  0
 17 15  1  0
 15 16  2  0
 16 13  1  0
 17 18  1  0
 18 19  2  0
 19 20  1  0
 20 21  2  0
 21 22  1  0
 22 17  2  0
  8 23  1  0
 23 24  1  0
 24 28  1  0
 27 25  1  0
 25 26  1  0
 26 24  2  0
 27 28  2  0
 28 29  1  0
 29 30  2  0
 30 31  1  0
 31 32  2  0
 32 27  1  0
M  END