
  SciTegic01311317052D

 30 32  0  0  1  0            999 V2000
   15.3395   -8.6798    0.0000 N   0  0
   14.6202   -9.0880    0.0000 C   0  0
   13.9084   -8.6665    0.0000 O   0  0
   14.6125   -9.9136    0.0000 C   0  0
   15.3260  -10.3251    0.0000 C   0  0
   13.8893  -11.1390    0.0000 C   0  0
   13.8934  -10.3107    0.0000 N   0  0
   14.6029  -11.5592    0.0000 C   0  0
   15.3177  -11.1445    0.0000 C   0  0
   16.0306  -11.5588    0.0000 C   0  0
   16.0299  -12.3834    0.0000 C   0  0
   15.3104  -12.7920    0.0000 C   0  0
   14.6004  -12.3795    0.0000 C   0  0
   13.1863   -9.8924    0.0000 C   0  0
   12.4665  -10.2955    0.0000 C   0  0  2  0  0  0
   13.1952   -9.0668    0.0000 O   0  0
   12.4577  -11.1211    0.0000 C   0  0
   11.7554   -9.8771    0.0000 N   0  0
   11.7378  -11.5283    0.0000 C   0  0
   11.7309  -12.3519    0.0000 C   0  0
   11.0118  -12.7550    0.0000 C   0  0
   10.2997  -12.3366    0.0000 C   0  0
   10.3112  -11.5068    0.0000 C   0  0
   11.0308  -11.1033    0.0000 C   0  0
   12.4426  -12.7693    0.0000 C   0  0
   11.0433  -10.2779    0.0000 C   0  0
    9.5793  -12.7387    0.0000 O   0  0
   16.0478   -9.0957    0.0000 C   0  0
   16.7622   -8.6902    0.0000 C   0  0
   17.4706   -9.1061    0.0000 N   0  0
  8  6  1  0
 14 15  1  0
  6  7  1  0
 14 16  2  0
  4  2  1  0
 15 17  1  6
  4  5  1  0
 15 18  1  0
  8  9  2  0
 17 19  1  0
 19 20  2  0
  9 10  1  0
 20 21  1  0
  2  3  2  0
 21 22  2  0
 10 11  2  0
 22 23  1  0
  1  2  1  0
 23 24  2  0
 24 19  1  0
 11 12  1  0
 20 25  1  0
  4  7  1  0
 24 26  1  0
 12 13  2  0
 22 27  1  0
 13  8  1  0
  1 28  1  0
  5  9  1  0
 28 29  1  0
  7 14  1  0
 29 30  1  0
M  END