
  SciTegic10041313242D

 26 29  0  0  0  0            999 V2000
   -5.7840  -21.8290    0.0000 C   0  0  1  0  0  0
   -5.7840  -21.0039    0.0000 C   0  0
   -5.0689  -20.5893    0.0000 C   0  0
   -5.0689  -22.2394    0.0000 C   0  0
   -4.3539  -21.8290    0.0000 C   0  0
   -3.6388  -22.2394    0.0000 C   0  0
   -2.9236  -21.8290    0.0000 C   0  0
   -2.9236  -21.0039    0.0000 C   0  0  1  0  0  0
   -2.2128  -20.5893    0.0000 C   0  0  2  0  0  0
   -1.4278  -20.8430    0.0000 C   0  0
   -0.9412  -20.1789    0.0000 C   0  0
   -1.4278  -19.5105    0.0000 C   0  0  2  0  0  0
   -2.2128  -19.7642    0.0000 C   0  0  2  0  0  0
   -2.2128  -18.9392    0.0000 C   0  0
   -2.9236  -19.3538    0.0000 C   0  0
   -3.6388  -19.7642    0.0000 C   0  0
   -3.6388  -20.5893    0.0000 C   0  0  2  0  0  0
   -4.3539  -21.0039    0.0000 C   0  0  1  0  0  0
   -4.3539  -20.1789    0.0000 C   0  0
   -3.6388  -21.4143    0.0000 H   0  0
   -2.9236  -20.1789    0.0000 H   0  0
   -2.2128  -21.4143    0.0000 H   0  0
   -6.5035  -22.2410    0.0000 O   0  0
   -1.1736  -18.7285    0.0000 C   0  0
   -0.9194  -17.9465    0.0000 C   0  0
   -0.6063  -19.5070    0.0000 O   0  0
  4  5  1  0
  5  6  2  0
  6  7  1  0
  7  8  1  0
  8  9  1  0
  9 10  1  0
 10 11  1  0
 11 12  1  0
 12 13  1  0
  9 13  1  0
 13 14  1  1
 13 15  1  0
 15 16  1  0
 16 17  1  0
  8 17  1  0
 17 18  1  0
  3 18  1  0
  5 18  1  0
 18 19  1  1
 17 20  1  6
  8 21  1  1
  9 22  1  6
  1 23  1  1
  1  2  1  0
 12 24  1  6
  2  3  1  0
 24 25  3  0
  1  4  1  0
 12 26  1  0
M  END