
          11280715212D 1   1.00000     0.00000     0

 30 32  0     0  0            999 V2000
    6.5542   -2.7375    0.0000 C   0  0  3  0  0  0           0  0  0
    6.5542   -1.9125    0.0000 N   0  0  3  0  0  0           0  0  0
    3.7000   -0.2625    0.0000 C   0  0  0  0  0  0           0  0  0
    7.2667   -3.1500    0.0000 C   0  0  3  0  0  0           0  0  0
    5.8417   -3.1500    0.0000 C   0  0  0  0  0  0           0  0  0
    6.5542   -4.3792    0.0000 N   0  0  3  0  0  0           0  0  0
    7.2667   -3.9750    0.0000 C   0  0  0  0  0  0           0  0  0
    4.4167   -0.6667    0.0000 C   0  0  0  0  0  0           0  0  0
    5.8417   -1.5000    0.0000 C   0  0  0  0  0  0           0  0  0
    2.9875   -0.6750    0.0000 N   0  0  3  0  0  0           0  0  0
    3.7000    0.5625    0.0000 O   0  0  0  0  0  0           0  0  0
    7.2667   -1.5000    0.0000 C   0  0  0  0  0  0           0  0  0
    5.8417   -3.9750    0.0000 C   0  0  0  0  0  0           0  0  0
    4.4167   -1.5000    0.0000 C   0  0  0  0  0  0           0  0  0
    5.1292   -0.2542    0.0000 C   0  0  0  0  0  0           0  0  0
    5.1292   -1.9042    0.0000 C   0  0  0  0  0  0           0  0  0
    5.8417   -0.6667    0.0000 C   0  0  0  0  0  0           0  0  0
    7.2667   -5.6250    0.0000 C   0  0  0  0  0  0           0  0  0
    7.2667   -6.4500    0.0000 C   0  0  0  0  0  0           0  0  0
    6.5542   -5.2125    0.0000 C   0  0  0  0  0  0           0  0  0
    7.9792   -2.7375    0.0000 C   0  0  0  0  0  0           0  0  0
    2.2667   -0.2625    0.0000 C   0  0  0  0  0  0           0  0  0
    2.9875   -1.5000    0.0000 C   0  0  0  0  0  0           0  0  0
    7.9792   -1.9125    0.0000 C   0  0  0  0  0  0           0  0  0
    7.2667   -0.6750    0.0000 C   0  0  0  0  0  0           0  0  0
    1.5542   -0.6750    0.0000 C   0  0  0  0  0  0           0  0  0
    2.2750   -1.9125    0.0000 C   0  0  0  0  0  0           0  0  0
    7.9792   -0.2625    0.0000 C   0  0  0  0  0  0           0  0  0
    8.6917   -1.5000    0.0000 C   0  0  0  0  0  0           0  0  0
    8.7000   -0.6750    0.0000 C   0  0  0  0  0  0           0  0  0
  2  1  1  0     0  0
  3  8  1  0     0  0
  4  1  1  0     0  0
  5  1  1  0     0  0
  6 13  1  0     0  0
  7  4  1  0     0  0
  8 15  2  0     0  0
  9  2  1  0     0  0
 10  3  1  0     0  0
 11  3  2  0     0  0
 12  2  1  0     0  0
 13  5  1  0     0  0
 14 16  2  0     0  0
 15 17  1  0     0  0
 16  9  1  0     0  0
 17  9  2  0     0  0
 18 20  1  0     0  0
 19 18  2  0     0  0
 20  6  1  0     0  0
 21  4  1  0     0  0
 22 10  1  0     0  0
 23 10  1  0     0  0
 24 12  2  0     0  0
 25 12  1  0     0  0
 26 22  1  0     0  0
 27 23  1  0     0  0
 28 25  2  0     0  0
 29 24  1  0     0  0
 30 28  1  0     0  0
  7  6  1  0     0  0
 14  8  1  0     0  0
 29 30  2  0     0  0
M  END