
  SciTegic11201309402D

 69 71  0  0  1  0            999 V2000
    1.5091   -6.4429    0.0000 C   0  0
    0.6880   -6.4350    0.0000 S   0  0
   -0.0374   -6.8404    0.0000 S   0  0
   -0.9078   -3.5065    0.0000 N   0  0
   -2.1342   -2.7919    0.0000 O   0  0
   -0.4757   -2.8249    0.0000 C   0  0  2  0  0  0
    0.3503   -2.8468    0.0000 C   0  0
   -0.8714   -2.0973    0.0000 C   0  0
   -0.4446   -1.3914    0.0000 C   0  0
   -0.8451   -0.6701    0.0000 C   0  0
   -0.4157    0.0317    0.0000 N   0  0
   -1.6719   -0.6555    0.0000 O   0  0
    0.7829   -2.1377    0.0000 O   0  0
    0.7464   -3.5678    0.0000 N   0  0
    1.5756   -3.5875    0.0000 C   0  0  2  0  0  0
    1.9713   -4.3115    0.0000 C   0  0
    1.9980   -2.8816    0.0000 C   0  0
    2.8336   -2.9048    0.0000 C   0  0
    3.2582   -2.1945    0.0000 N   0  0
    3.2268   -3.6273    0.0000 O   0  0
    1.5419   -5.0126    0.0000 N   0  0
    2.7908   -4.3316    0.0000 O   0  0
    1.9409   -5.7486    0.0000 C   0  0  2  0  0  0
    2.7634   -5.7554    0.0000 C   0  0
    3.1835   -5.0485    0.0000 O   0  0
    3.1668   -6.4763    0.0000 N   0  0
    3.9831   -7.3118    0.0000 C   0  0
    3.9890   -6.4880    0.0000 C   0  0
    4.8149   -6.4977    0.0000 C   0  0
    5.2170   -7.2163    0.0000 N   0  0
    5.2350   -5.7907    0.0000 O   0  0
    6.0426   -7.2340    0.0000 C   0  0  2  0  0  0
    6.4631   -6.5191    0.0000 C   0  0
    6.4447   -7.9527    0.0000 C   0  0
    6.0610   -5.8004    0.0000 O   0  0
    6.0246   -8.6595    0.0000 C   0  0
    6.4279   -9.3804    0.0000 C   0  0
    5.1987   -8.6499    0.0000 C   0  0
    7.2925   -6.5346    0.0000 N   0  0
    7.7092   -5.8218    0.0000 C   0  0
    8.5071   -5.8061    0.0000 C   0  0
    8.8780   -6.5561    0.0000 O   0  0
    8.9552   -5.1246    0.0000 N   0  0
   -1.4689   -6.8257    0.0000 C   0  0
   -2.1830   -6.4098    0.0000 C   0  0
   -0.7580   -6.4291    0.0000 C   0  0
   -2.8967   -6.8173    0.0000 N   0  0
   -2.1720   -5.5838    0.0000 O   0  0
   -3.6025   -6.3921    0.0000 C   0  0  2  0  0  0
   -4.3177   -6.7910    0.0000 C   0  0
   -2.8975   -7.6337    0.0000 C   0  0
   -3.5943   -5.5664    0.0000 C   0  0
   -2.8764   -5.1620    0.0000 N   0  0
   -4.3040   -5.1432    0.0000 O   0  0
   -3.6214   -8.0434    0.0000 C   0  0
   -4.3282   -7.6198    0.0000 C   0  0
   -5.0503   -8.0149    0.0000 C   0  0
   -5.0617   -8.8444    0.0000 C   0  0
   -4.3500   -9.2635    0.0000 C   0  0
   -3.6308   -8.8623    0.0000 C   0  0
   -2.2408   -4.2423    0.0000 C   0  0  2  0  0  0
   -1.7394   -3.5148    0.0000 C   0  0
   -3.0442   -3.7323    0.0000 C   0  0  2  0  0  0
   -3.0334   -2.7771    0.0000 C   0  0
   -3.6057   -4.4136    0.0000 C   0  0
   -3.8994   -2.2644    0.0000 C   0  0
    4.0007   -5.6658    0.0000 C   0  0
   -3.2208   -4.4412    0.0000 H   0  0
   -4.4623   -5.8814    0.0000 H   0  0
 23  1  1  0
  1  2  1  0
  2  3  1  0
  3 46  1  0
 62  4  1  0
 62  5  2  0
  4  6  1  0
  6  7  1  0
  6  8  1  1
  8  9  1  0
  9 10  1  0
 10 11  1  0
 10 12  2  0
  7 13  2  0
  7 14  1  0
 14 15  1  0
 15 16  1  0
 15 17  1  1
 17 18  1  0
 18 19  1  0
 18 20  2  0
 16 21  1  0
 16 22  2  0
 21 23  1  0
 23 24  1  6
 24 25  2  0
 24 26  1  0
 26 28  1  0
 27 28  1  0
 28 29  1  0
 29 30  1  0
 29 31  2  0
 32 30  1  6
 32 33  1  0
 32 34  1  0
 33 35  2  0
 34 36  1  0
 36 37  1  0
 36 38  1  0
 33 39  1  0
 39 40  1  0
 40 41  1  0
 41 42  2  0
 41 43  1  0
 46 44  1  0
 44 45  1  0
 45 47  1  0
 45 48  2  0
 47 49  1  0
 47 51  1  0
 49 50  1  0
 50 56  1  0
 55 51  1  0
 49 52  1  0
 52 53  1  0
 52 54  2  0
 55 56  2  0
 56 57  1  0
 57 58  2  0
 58 59  1  0
 59 60  2  0
 60 55  1  0
 61 53  1  0
 61 63  1  0
 63 64  1  0
 63 65  1  1
 64 66  1  0
 28 67  1  0
 61 68  1  6
 61 62  1  0
 49 69  1  1
M  END