
  SciTegic05171617292D

 41 44  0  0  0  0            999 V2000
    2.3383   -1.3500    0.0000 C   0  0
    1.2990   -0.7500    0.0000 N   0  0
    1.2990    0.7500    0.0000 C   0  0
    0.0000    1.5000    0.0000 C   0  0
   -1.2990    0.7500    0.0000 C   0  0
   -1.2990   -0.7500    0.0000 C   0  0
    0.0000   -1.5000    0.0000 C   0  0
   -2.5987    1.5004    0.0000 C   0  0
   -2.6012    3.0004    0.0000 C   0  0
   -3.9015    3.7484    0.0000 C   0  0
   -5.1993    2.9963    0.0000 C   0  0
   -6.4987    3.7473    0.0000 N   0  0
   -6.4990    5.2481    0.0000 C   0  0
   -7.7966    6.0007    0.0000 N   0  0
   -7.7938    7.5006    0.0000 C   0  0
   -6.4933    8.2482    0.0000 C   0  0
   -5.1957    7.4958    0.0000 C   0  0
   -3.8930    8.2411    0.0000 C   0  0
   -2.5957    7.4864    0.0000 C   0  0
   -1.2930    8.2317    0.0000 C   0  0
   -1.2901    9.7318    0.0000 C   0  0
    0.0103   10.4793    0.0000 C   0  0
    1.3079    9.7269    0.0000 C   0  0
    1.3051    8.2269    0.0000 C   0  0
    0.0046    7.4793    0.0000 C   0  0
    0.0049    5.9785    0.0000 C   0  0
    1.3044    5.2275    0.0000 C   0  0
    2.3437    5.8274    0.0000 N   0  0
    1.3046    4.0275    0.0000 O   0  0
   -5.1985    5.9958    0.0000 N   0  0
   -6.4905    9.7490    0.0000 C   0  0
   -7.5283   10.3516    0.0000 F   0  0
   -5.4500   10.3468    0.0000 F   0  0
   -6.4877   10.9490    0.0000 F   0  0
   -5.1969    1.4963    0.0000 C   0  0
   -6.4939    0.7411    0.0000 O   0  0
   -6.4894   -0.7597    0.0000 C   0  0
   -7.5264   -1.3635    0.0000 F   0  0
   -5.4482   -1.3562    0.0000 F   0  0
   -6.4852   -1.9597    0.0000 F   0  0
   -3.8967    0.7484    0.0000 C   0  0
  1  2  1  0
  2  3  1  0
  3  4  1  0
  4  5  1  0
  5  6  1  0
  6  7  1  0
  2  7  1  0
  5  8  1  0
  8  9  2  0
  9 10  1  0
 10 11  2  0
 11 12  1  0
 12 13  1  0
 13 14  2  0
 14 15  1  0
 15 16  2  0
 16 17  1  0
 17 18  1  0
 18 19  1  0
 19 20  1  0
 20 21  2  0
 21 22  1  0
 22 23  2  0
 23 24  1  0
 24 25  2  0
 20 25  1  0
 25 26  1  0
 26 27  1  0
 27 28  1  0
 27 29  2  0
 17 30  2  0
 13 30  1  0
 16 31  1  0
 31 32  1  0
 31 33  1  0
 31 34  1  0
 11 35  1  0
 35 36  1  0
 36 37  1  0
 37 38  1  0
 37 39  1  0
 37 40  1  0
 35 41  2  0
  8 41  1  0
M  END