
  SciTegic12011113542D

 15 14  0  0  0  0            999 V2000
   10.8161    1.4616    0.0000 C   0  0
   10.4053    0.7469    0.0000 N   0  3
   11.2295    0.7484    0.0000 C   0  0
   11.5285    1.8737    0.0000 C   0  0
   12.2449    1.4637    0.0000 C   0  0
   12.9572    1.8800    0.0000 C   0  0
   13.6736    1.4700    0.0000 C   0  0
   14.3860    1.8821    0.0000 B   0  0
   15.1060    1.4713    0.0000 O   0  0
   14.3845    2.7106    0.0000 O   0  0
   10.1002    1.8724    0.0000 C   0  0
   10.8192    0.0331    0.0000 O   0  5
   12.0544    0.7491    0.0000 O   0  0
   10.0980    2.6967    0.0000 F   0  0
    9.3874    1.4584    0.0000 F   0  0
  4  5  1  0
  5  6  1  0
  6  7  1  0
  7  8  1  0
  8  9  1  0
  8 10  1  0
  1 11  1  0
  1  3  1  0
  3 12  1  0
  3 13  2  0
  1  2  1  0
 11 14  1  0
  1  4  1  0
 11 15  1  0
M  CHG  2   2   1  12  -1
M  END