
          11280715362D 1   1.00000     0.00000     0

 32 34  0     0  0            999 V2000
    3.2542    1.5833    0.0000 S   0  0  3  0  0  0           0  0  0
   -0.3208   -0.5000    0.0000 C   0  0  0  0  0  0           0  0  0
   -0.3208    0.3250    0.0000 C   0  0  0  0  0  0           0  0  0
    4.0792    1.5833    0.0000 C   0  0  0  0  0  0           0  0  0
    3.2542    0.7583    0.0000 O   0  0  0  0  0  0           0  0  0
    3.2542    2.4083    0.0000 O   0  0  0  0  0  0           0  0  0
    2.5417   -0.5000    0.0000 C   0  0  0  0  0  0           0  0  0
    0.4000   -0.9125    0.0000 N   0  0  0  0  0  0           0  0  0
   -1.0333   -0.9125    0.0000 C   0  0  0  0  0  0           0  0  0
    2.5417    1.9875    0.0000 N   0  0  0  0  0  0           0  0  0
    1.8292   -0.9125    0.0000 C   0  0  0  0  0  0           0  0  0
    0.4000    0.7375    0.0000 C   0  0  0  0  0  0           0  0  0
   -1.7375   -2.1417    0.0000 N   0  0  0  0  0  0           0  0  0
    1.1125   -0.5000    0.0000 O   0  0  0  0  0  0           0  0  0
    2.5417    0.3250    0.0000 O   0  0  0  0  0  0           0  0  0
    4.4875    2.2958    0.0000 C   0  0  0  0  0  0           0  0  0
    4.4917    0.8708    0.0000 C   0  0  0  0  0  0           0  0  0
    5.7292    1.5833    0.0000 C   0  0  0  0  0  0           0  0  0
    3.2542   -0.9125    0.0000 O   0  0  0  0  0  0           0  0  0
    0.4000    1.5708    0.0000 C   0  0  0  0  0  0           0  0  0
    5.3042    2.3000    0.0000 C   0  0  0  0  0  0           0  0  0
    5.3167    0.8708    0.0000 C   0  0  0  0  0  0           0  0  0
   -1.0250   -1.7292    0.0000 C   0  0  0  0  0  0           0  0  0
    6.5542    1.5875    0.0000 I   0  0  0  0  0  0           0  0  0
    1.8292    1.5750    0.0000 C   0  0  0  0  0  0           0  0  0
   -1.0333    0.7375    0.0000 C   0  0  0  0  0  0           0  0  0
   -1.0333    1.5625    0.0000 C   0  0  0  0  0  0           0  0  0
   -1.7458   -0.4917    0.0000 C   0  0  0  0  0  0           0  0  0
   -2.4583   -1.7292    0.0000 C   0  0  0  0  0  0           0  0  0
    1.1125    1.9833    0.0000 C   0  0  0  0  0  0           0  0  0
   -0.3208    1.9833    0.0000 C   0  0  0  0  0  0           0  0  0
   -2.4583   -0.9042    0.0000 C   0  0  0  0  0  0           0  0  0
  2  3  1  0     0  0
  3 12  2  0     0  0
  4  1  1  0     0  0
  5  1  2  0     0  0
  6  1  2  0     0  0
  7 11  1  0     0  0
  8  2  2  0     0  0
  9  2  1  0     0  0
 10  1  1  0     0  0
 11 14  1  0     0  0
 12 20  1  0     0  0
 13 23  2  0     0  0
  8 14  1  0     0  0
 15  7  2  0     0  0
 16  4  1  0     0  0
 17  4  2  0     0  0
 18 22  2  0     0  0
 19  7  1  0     0  0
 20 30  1  0     0  0
 21 16  2  0     0  0
 22 17  1  0     0  0
 23  9  1  0     0  0
 24 18  1  0     0  0
 25 10  1  0     0  0
 26 27  2  0     0  0
 27 31  1  0     0  0
 28  9  2  0     0  0
 29 32  2  0     0  0
 30 25  1  0     0  0
 31 20  2  0     0  0
 32 28  1  0     0  0
 18 21  1  0     0  0
  3 26  1  0     0  0
 13 29  1  0     0  0
M  END