
  SciTegic06271217572D

 23 24  0  0  0  0            999 V2000
   13.4245   -6.5360    0.0000 S   0  0
   13.8368   -7.2506    0.0000 O   0  0
   14.2495   -6.5362    0.0000 O   0  0
   12.7111   -4.4708    0.0000 C   0  0
   12.7099   -5.2982    0.0000 C   0  0
   13.4247   -5.7110    0.0000 C   0  0
   14.1412   -5.2977    0.0000 C   0  0
   14.1383   -4.4672    0.0000 C   0  0
   13.4229   -4.0580    0.0000 C   0  0
   14.8512   -4.0520    0.0000 C   0  0
   15.5672   -4.4618    0.0000 C   0  0
   14.8481   -3.2270    0.0000 O   0  0
   16.2802   -4.0466    0.0000 S   0  0
   16.9962   -4.4564    0.0000 C   0  0
   16.9962   -5.2803    0.0000 N   0  0
   17.7113   -5.6900    0.0000 C   0  0
   18.4252   -5.2747    0.0000 C   0  0
   18.4195   -4.4455    0.0000 C   0  0
   17.7037   -4.0395    0.0000 N   0  0
   11.9951   -5.7101    0.0000 Cl  0  0
   12.7100   -6.9484    0.0000 N   0  0
   19.1418   -5.6836    0.0000 C   0  0
   19.1460   -6.5086    0.0000 C   0  0
 10 12  2  0
  6  7  2  0
 11 13  1  0
  2  1  2  0
 13 14  1  0
  7  8  1  0
 14 15  2  0
  4  5  2  0
 15 16  1  0
  8  9  2  0
 16 17  2  0
  9  4  1  0
 17 18  1  0
  1  3  2  0
 18 19  2  0
 19 14  1  0
  8 10  1  0
  5 20  1  0
  6  1  1  0
  5  6  1  0
  1 21  1  0
 10 11  1  0
 17 22  1  0
 22 23  1  0
M  END