
  CDK    9/16/09,9:58

 20 21  0  0  0  0  0  0  0  0999 V2000
   -2.5585   -0.8334    0.0000 C   0  0  0  0  0  0  0  0  0  0  0  0
   -1.8440   -0.4208    0.0000 C   0  0  0  0  0  0  0  0  0  0  0  0
   -3.2730   -0.4208    0.0000 N   0  0  0  0  0  0  0  0  0  0  0  0
   -2.5585   -1.6584    0.0000 C   0  0  0  0  0  0  0  0  0  0  0  0
   -1.1295   -0.8334    0.0000 N   0  0  0  0  0  0  0  0  0  0  0  0
   -1.8440    0.4042    0.0000 O   0  0  0  0  0  0  0  0  0  0  0  0
   -0.4149   -0.4208    0.0000 C   0  0  0  0  0  0  0  0  0  0  0  0
    0.2982   -0.8379    0.0000 C   0  0  0  0  0  0  0  0  0  0  0  0
    1.0123   -0.4260    0.0000 C   0  0  0  0  0  0  0  0  0  0  0  0
    1.0127    0.3999    0.0000 C   0  0  0  0  0  0  0  0  0  0  0  0
    0.2932    0.8123    0.0000 C   0  0  0  0  0  0  0  0  0  0  0  0
   -0.4179    0.3981    0.0000 C   0  0  0  0  0  0  0  0  0  0  0  0
    1.7267    0.8135    0.0000 O   0  0  0  0  0  0  0  0  0  0  0  0
    2.4418    0.4018    0.0000 C   0  0  0  0  0  0  0  0  0  0  0  0
    2.4402   -0.4219    0.0000 C   0  0  0  0  0  0  0  0  0  0  0  0
    3.1544   -0.8335    0.0000 C   0  0  0  0  0  0  0  0  0  0  0  0
    3.8694   -0.4199    0.0000 C   0  0  0  0  0  0  0  0  0  0  0  0
    3.8656    0.4094    0.0000 C   0  0  0  0  0  0  0  0  0  0  0  0
    3.1508    0.8172    0.0000 C   0  0  0  0  0  0  0  0  0  0  0  0
    3.1460    1.6422    0.0000 Cl  0  0  0  0  0  0  0  0  0  0  0  0
  1  3  1  0  0  0  0 
 10 11  1  0  0  0  0 
  2  6  2  0  0  0  0 
 11 12  2  0  0  0  0 
 12  7  1  0  0  0  0 
  1  2  1  0  0  0  0 
 10 13  1  0  0  0  0 
  5  7  1  0  0  0  0 
 13 14  1  0  0  0  0 
  1  4  1  6  0  0  0 
 14 15  2  0  0  0  0 
  7  8  2  0  0  0  0 
 15 16  1  0  0  0  0 
 16 17  2  0  0  0  0 
  8  9  1  0  0  0  0 
 17 18  1  0  0  0  0 
  2  5  1  0  0  0  0 
 18 19  2  0  0  0  0 
 19 14  1  0  0  0  0 
  9 10  2  0  0  0  0 
 19 20  1  0  0  0  0 
M  END