
  SciTegic12231509382D

 32 35  0  0  0  0            999 V2000
   11.6042   -2.1583    0.0000 N   0  0
   11.6042   -2.9833    0.0000 C   0  0
   12.3162   -3.3917    0.0000 C   0  0
   13.0282   -2.9833    0.0000 N   0  0
   13.0282   -2.1583    0.0000 C   0  0
   12.3162   -1.7417    0.0000 C   0  0
   13.7402   -3.3958    0.0000 C   0  0
   13.7377   -4.2219    0.0000 C   0  0
   14.4507   -4.6354    0.0000 C   0  0
   15.1668   -4.2238    0.0000 C   0  0
   15.1653   -3.3946    0.0000 C   0  0
   14.4517   -2.9849    0.0000 C   0  0
   15.8812   -4.6364    0.0000 O   0  0
   16.5957   -4.2240    0.0000 C   0  0
   17.3101   -4.6366    0.0000 C   0  0
   18.0247   -4.2242    0.0000 C   0  0
   18.7391   -4.6368    0.0000 N   0  0
   18.7353   -5.4590    0.0000 C   0  0
   19.4456   -5.8715    0.0000 C   0  0
   20.1625   -5.4626    0.0000 C   0  0
   20.1646   -4.6366    0.0000 C   0  0
   19.4498   -4.2195    0.0000 C   0  0
   13.7439   -1.7479    0.0000 O   0  0
   10.8885   -1.7479    0.0000 C   0  0
   10.8861   -0.9229    0.0000 O   0  0
   10.1752   -2.1625    0.0000 C   0  0
    9.4601   -1.7490    0.0000 C   0  0
    8.7474   -2.1629    0.0000 C   0  0
    8.7493   -2.9888    0.0000 C   0  0
    9.4700   -3.3990    0.0000 C   0  0
   10.1799   -2.9827    0.0000 C   0  0
    8.0366   -3.4043    0.0000 F   0  0
 16 17  1  0
 17 18  1  0
  1  2  1  0
  8  9  1  0
  1  6  1  0
  9 10  2  0
  2  3  1  0
 17 22  1  0
 18 19  1  0
 19 20  1  0
 20 21  1  0
 21 22  1  0
 10 11  1  0
  5 23  2  0
  3  4  1  0
  1 24  1  0
 11 12  2  0
 24 25  2  0
 12  7  1  0
 24 26  1  0
  4  7  1  0
 26 27  2  0
  4  5  1  0
 27 28  1  0
 10 13  1  0
 28 29  2  0
  5  6  1  0
 29 30  1  0
 13 14  1  0
 30 31  2  0
 31 26  1  0
 29 32  1  0
 14 15  1  0
 15 16  1  0
  7  8  2  0
M  END