
  SciTegic06051315212D

 28 31  0  0  0  0            999 V2000
   25.5915  -18.4652    0.0000 C   0  0
   25.5904  -19.2847    0.0000 C   0  0
   26.2984  -19.6937    0.0000 C   0  0
   27.0081  -19.2842    0.0000 C   0  0
   27.0053  -18.4616    0.0000 C   0  0
   26.2966  -18.0563    0.0000 C   0  0
   26.2949  -20.5082    0.0000 N   0  0
   25.5852  -20.9154    0.0000 C   0  0
   25.5831  -21.7290    0.0000 C   0  0
   26.2889  -22.1416    0.0000 N   0  0
   26.9985  -21.7344    0.0000 C   0  0
   27.0023  -20.9146    0.0000 C   0  0
   26.2856  -22.9588    0.0000 C   0  0
   27.7164  -19.6917    0.0000 N   0  0
   28.4235  -19.2820    0.0000 C   0  0
   29.1319  -19.6895    0.0000 C   0  0
   28.4222  -18.4648    0.0000 O   0  0
   29.1285  -20.5051    0.0000 C   0  0
   29.8360  -20.9126    0.0000 C   0  0
   30.5441  -20.5028    0.0000 C   0  0
   30.5402  -19.6814    0.0000 C   0  0
   29.8321  -19.2777    0.0000 C   0  0
   29.8266  -18.4605    0.0000 Cl  0  0
   26.2884  -17.2382    0.0000 C   0  0
   26.9480  -16.7559    0.0000 C   0  0
   26.6932  -15.9795    0.0000 C   0  0
   25.8759  -15.9819    0.0000 C   0  0
   25.6259  -16.7599    0.0000 O   0  0
  1  2  2  0
  2  3  1  0
  3  4  2  0
  4  5  1  0
  5  6  2  0
  6  1  1  0
  7  8  1  0
  7 12  1  0
  8  9  1  0
  9 10  1  0
 10 11  1  0
 11 12  1  0
  3  7  1  0
 10 13  1  0
  4 14  1  0
 14 15  1  0
 15 16  1  0
 15 17  2  0
 16 18  2  0
 18 19  1  0
 19 20  2  0
 20 21  1  0
 21 22  2  0
 22 16  1  0
 22 23  1  0
 24 25  2  0
 25 26  1  0
 26 27  2  0
 27 28  1  0
 28 24  1  0
  6 24  1  0
M  END