
          03140815512D 1   1.00000     0.00000     0

 24 25  0     0  0            999 V2000
    2.9917   -4.4667    0.0000 N   0  0  3  0  0  0           0  0  0
    2.9917   -5.2917    0.0000 C   0  0  0  0  0  0           0  0  0
    3.7037   -5.7000    0.0000 C   0  0  0  0  0  0           0  0  0
    4.4157   -5.2917    0.0000 O   0  0  0  0  0  0           0  0  0
    4.4157   -4.4667    0.0000 C   0  0  0  0  0  0           0  0  0
    3.7037   -4.0500    0.0000 C   0  0  0  0  0  0           0  0  0
    2.2760   -4.0563    0.0000 C   0  0  0  0  0  0           0  0  0
    2.2736   -3.2313    0.0000 O   0  0  0  0  0  0           0  0  0
    1.5627   -4.4709    0.0000 C   0  0  0  0  0  0           0  0  0
    0.8471   -4.0604    0.0000 O   0  0  0  0  0  0           0  0  0
    0.1338   -4.4750    0.0000 C   0  0  0  0  0  0           0  0  0
   -0.5812   -4.0613    0.0000 C   0  0  0  0  0  0           0  0  0
   -1.2939   -4.4752    0.0000 C   0  0  0  0  0  0           0  0  0
   -1.2920   -5.3011    0.0000 C   0  0  0  0  0  0           0  0  0
   -0.5713   -5.7113    0.0000 C   0  0  0  0  0  0           0  0  0
    0.1386   -5.2951    0.0000 C   0  0  0  0  0  0           0  0  0
   -2.0047   -5.7166    0.0000 S   0  0  3  0  0  0           0  0  0
   -2.7250   -6.1208    0.0000 N   0  0  0  0  0  0           0  0  0
   -1.6000   -6.4250    0.0000 O   0  0  0  0  0  0           0  0  0
   -2.4250   -4.9958    0.0000 O   0  0  0  0  0  0           0  0  0
   -3.4344   -5.6996    0.0000 C   0  0  0  0  0  0           0  0  0
   -4.1538   -6.1033    0.0000 C   0  0  0  0  0  0           0  0  0
   -4.8632   -5.6821    0.0000 C   0  0  0  0  0  0           0  0  0
   -5.5827   -6.0858    0.0000 C   0  0  0  0  0  0           0  0  0
 11 12  2  0     0  0
  5  6  1  0     0  0
 12 13  1  0     0  0
 13 14  2  0     0  0
  1  7  1  0     0  0
 14 15  1  0     0  0
  1  2  1  0     0  0
 15 16  2  0     0  0
 16 11  1  0     0  0
  7  8  2  0     0  0
 14 17  1  0     0  0
  1  6  1  0     0  0
 17 18  1  0     0  0
  7  9  1  0     0  0
 17 19  2  0     0  0
  2  3  1  0     0  0
 17 20  2  0     0  0
  9 10  1  0     0  0
 18 21  1  0     0  0
  3  4  1  0     0  0
 21 22  1  0     0  0
 10 11  1  0     0  0
 22 23  1  0     0  0
  4  5  1  0     0  0
 23 24  1  0     0  0
M  END