
  SciTegic06051313522D

 31 33  0  0  0  0            999 V2000
   18.6235   -7.9426    0.0000 C   0  0
   18.6223   -8.7699    0.0000 C   0  0
   19.3371   -9.1828    0.0000 C   0  0
   20.0536   -8.7695    0.0000 C   0  0
   20.0507   -7.9389    0.0000 C   0  0
   19.3353   -7.5298    0.0000 C   0  0
   20.7636   -7.5237    0.0000 C   0  0
   21.4797   -7.9335    0.0000 C   0  0
   21.4794   -8.7562    0.0000 C   0  0
   22.1946   -9.1659    0.0000 C   0  0
   22.9085   -8.7507    0.0000 C   0  0
   22.9027   -7.9214    0.0000 C   0  0
   22.1870   -7.5154    0.0000 N   0  0
   20.7687   -9.1808    0.0000 O   0  0
   20.7700  -10.0058    0.0000 C   0  0
   21.4851  -10.4172    0.0000 C   0  0
   21.4818  -11.2395    0.0000 C   0  0
   22.1960  -11.6508    0.0000 C   0  0
   22.9109  -11.2371    0.0000 C   0  0
   22.9069  -10.4079    0.0000 C   0  0
   22.1920  -10.0003    0.0000 C   0  0
   20.7667  -11.6510    0.0000 F   0  0
   23.6265  -11.6476    0.0000 Cl  0  0
   17.9089   -7.5302    0.0000 Cl  0  0
   23.6163   -7.5031    0.0000 C   0  0
   24.3338   -7.9103    0.0000 N   0  0
   23.6103   -6.6781    0.0000 O   0  0
   24.3398   -8.7353    0.0000 C   0  0
   25.0573   -9.1426    0.0000 C   0  0
   23.6284   -9.1530    0.0000 C   0  0
   25.0633   -9.9676    0.0000 C   0  0
  1  2  2  0
  2  3  1  0
  3  4  2  0
  4  5  1  0
  5  6  2  0
  6  1  1  0
  5  7  1  0
  7  8  1  0
  8  9  2  0
  9 10  1  0
 10 11  2  0
 11 12  1  0
 12 13  2  0
 13  8  1  0
  4 14  1  0
 14 15  1  0
 15 16  1  0
 16 17  2  0
 17 18  1  0
 18 19  2  0
 19 20  1  0
 20 21  2  0
 21 16  1  0
 17 22  1  0
 19 23  1  0
  1 24  1  0
 25 26  1  0
 25 27  2  0
 12 25  1  0
 26 28  1  0
 28 29  1  0
 28 30  1  0
 29 31  1  0
M  END