
  SciTegic10301317112D

 66 69  0  0  1  0            999 V2000
    2.7895   -6.9652    0.0000 C   0  0
   14.9499   -7.3089    0.0000 N   0  0
    3.5055   -7.3776    0.0000 C   0  0
   14.2453   -6.8965    0.0000 C   0  0
    2.0335   -7.3089    0.0000 C   0  0
    5.6535   -6.9480    0.0000 C   0  0
    7.8072   -7.3432    0.0000 C   0  0
    9.9494   -6.9136    0.0000 C   0  0
   12.0974   -7.3089    0.0000 C   0  0
    4.2272   -6.9594    0.0000 N   0  0
    2.6864   -6.1576    0.0000 C   0  0
    1.4836   -6.7074    0.0000 N   0  0
   15.7232   -7.6010    0.0000 C   0  0  2  0  0  0
    4.9375   -7.3718    0.0000 C   0  0  1  0  0  0
    6.3752   -7.3547    0.0000 N   0  0
   10.6711   -7.3203    0.0000 N   0  0
    8.5117   -6.9251    0.0000 N   0  0
   12.8077   -6.8793    0.0000 N   0  0
    7.0797   -6.9308    0.0000 C   0  0  1  0  0  0
   11.3814   -6.8965    0.0000 C   0  0  1  0  0  0
    9.2335   -7.3261    0.0000 C   0  0  2  0  0  0
   15.9351   -8.4086    0.0000 C   0  0
   13.5294   -7.3089    0.0000 C   0  0  1  0  0  0
   14.9155  -10.6253    0.0000 C   0  0
    1.8902   -5.9857    0.0000 C   0  0
   14.1996  -11.0206    0.0000 N   0  0
   14.2511   -6.0716    0.0000 O   0  0
    3.5113   -8.2024    0.0000 O   0  0
    5.6421   -6.1232    0.0000 O   0  0
    9.9380   -6.0888    0.0000 O   0  0
   12.1031   -8.1337    0.0000 O   0  0
    7.8072   -8.1681    0.0000 O   0  0
    7.0797   -6.1060    0.0000 C   0  0
   15.3451   -8.9871    0.0000 O   0  0
    9.2449   -8.1509    0.0000 C   0  0
   11.3642   -6.0716    0.0000 C   0  0
   14.9213   -9.8005    0.0000 N   0  0
   16.7256   -8.6148    0.0000 N   0  0
   15.6258  -11.0378    0.0000 N   0  0
   14.9900   -6.4841    0.0000 C   0  0
    7.7900   -5.6764    0.0000 C   0  0
    9.2163   -4.8516    0.0000 C   0  0
    4.9489   -8.1852    0.0000 C   0  0
    8.5117   -6.0888    0.0000 C   0  0
    7.7842   -4.8630    0.0000 C   0  0
    9.2277   -5.6764    0.0000 C   0  0
    8.4946   -4.4392    0.0000 C   0  0
   16.2444   -6.9652    0.0000 C   0  0
    9.9208   -4.4334    0.0000 O   0  0
    3.2363   -5.5504    0.0000 C   0  0
    5.6592   -8.5977    0.0000 O   0  0
   15.7977   -6.2779    0.0000 C   0  0
   13.5122   -8.1337    0.0000 C   0  0
   12.0802   -5.6592    0.0000 C   0  0
    9.9552   -8.5633    0.0000 C   0  0
    1.6325   -5.2125    0.0000 C   0  0
   16.9318   -9.4225    0.0000 C   0  0
   14.2168   -9.3823    0.0000 C   0  0
   14.2282   -8.5575    0.0000 C   0  0
   12.0688   -4.8344    0.0000 C   0  0
   12.8019   -6.0545    0.0000 C   0  0
   10.6425   -8.0993    0.0000 C   0  0
   10.0525   -9.3823    0.0000 C   0  0
    2.9786   -4.7657    0.0000 C   0  0
   17.7337   -9.6287    0.0000 C   0  0
    2.1709   -4.5938    0.0000 C   0  0
  2  4  1  0
  3  1  1  0
  4 23  1  0
  5  1  2  0
  6 14  1  0
  7 19  1  0
  8 21  1  0
  9 20  1  0
 10  3  1  0
 11  1  1  0
 12  5  1  0
 13  2  1  0
 14 10  1  0
 15  6  1  0
 16  8  1  0
 17  7  1  0
 18  9  1  0
 19 15  1  0
 20 16  1  0
 21 17  1  0
 13 22  1  1
 23 18  1  0
 24 37  2  0
 25 11  2  0
 26 24  1  0
 27  4  2  0
 28  3  2  0
 29  6  2  0
 30  8  2  0
 31  9  2  0
 32  7  2  0
 19 33  1  1
 34 22  2  0
 21 35  1  1
 20 36  1  1
 37 58  1  0
 38 22  1  0
 39 24  1  0
 40  2  1  0
 41 33  1  0
 42 47  1  0
 14 43  1  6
 44 41  2  0
 45 41  1  0
 46 44  1  0
 47 45  2  0
 48 13  1  0
 49 42  1  0
 50 11  1  0
 51 43  1  0
 52 40  1  0
 23 53  1  6
 54 36  1  0
 55 35  1  0
 56 25  1  0
 57 38  1  0
 58 59  1  0
 59 53  1  0
 60 54  1  0
 61 54  1  0
 62 55  1  0
 63 55  1  0
 64 50  2  0
 65 57  1  0
 66 64  1  0
 25 12  1  0
 66 56  2  0
 42 46  2  0
 52 48  1  0
M  END