
  SciTegic01061111512D

 54 59  0  0  0  0            999 V2000
   31.2096   -7.3094    0.0000 S   0  0
   30.4953   -8.5484    0.0000 C   0  0  2  0  0  0
   31.2096   -8.9600    0.0000 O   0  0
   29.7768   -8.9600    0.0000 C   0  0  2  0  0  0
   29.0625   -8.5484    0.0000 C   0  0  1  0  0  0
   28.3482   -8.9600    0.0000 O   0  0
   29.0625   -7.7210    0.0000 C   0  0  2  0  0  0
   29.7768   -7.3094    0.0000 O   0  0
   28.3482   -7.3094    0.0000 C   0  0
   28.3482   -6.4820    0.0000 O   0  0
   29.7768   -9.7873    0.0000 N   0  0
   30.4449  -10.2752    0.0000 N   0  0
   30.1926  -11.0582    0.0000 N   0  0
   29.3652  -11.0582    0.0000 C   0  0
   29.1086  -10.2752    0.0000 C   0  0
   28.8773  -11.7263    0.0000 C   0  0
   28.0568  -11.6417    0.0000 O   0  0
   29.2142  -12.4833    0.0000 N   0  0
   28.7305  -13.1514    0.0000 C   0  0
   29.0632  -13.9042    0.0000 C   0  0
   28.5796  -14.5724    0.0000 C   0  0
   28.9164  -15.3252    0.0000 C   0  0
   28.4327  -15.9975    0.0000 C   0  0
   27.6080  -15.9087    0.0000 C   0  0
   27.2712  -15.1559    0.0000 C   0  0
   27.7590  -14.4878    0.0000 C   0  0
   31.2096   -6.4820    0.0000 C   0  0  1  0  0  0
   30.4953   -6.0704    0.0000 C   0  0  2  0  0  0
   29.7768   -6.4820    0.0000 O   0  0
   30.4953   -5.2431    0.0000 C   0  0  2  0  0  0
   31.2096   -4.8314    0.0000 C   0  0  1  0  0  0
   31.2096   -4.0040    0.0000 O   0  0
   31.9239   -5.2431    0.0000 C   0  0  2  0  0  0
   31.9239   -6.0704    0.0000 O   0  0
   32.6383   -4.8314    0.0000 C   0  0
   32.6383   -4.0040    0.0000 O   0  0
   29.7768   -4.8314    0.0000 N   0  0
   29.0240   -5.1683    0.0000 N   0  0
   28.4679   -4.5531    0.0000 N   0  0
   28.8837   -3.8389    0.0000 C   0  0
   29.6922   -4.0109    0.0000 C   0  0
   28.5468   -3.0860    0.0000 C   0  0
   29.0347   -2.4179    0.0000 O   0  0
   27.7263   -2.9972    0.0000 N   0  0
   27.3894   -2.2444    0.0000 C   0  0
   26.5689   -2.1556    0.0000 C   0  0
   26.2320   -1.4078    0.0000 C   0  0
   25.4115   -1.3219    0.0000 C   0  0
   25.0747   -0.5613    0.0000 C   0  0
   25.5583    0.1010    0.0000 C   0  0
   26.3830    0.0194    0.0000 C   0  0
   26.7199   -0.7371    0.0000 C   0  0
   30.4953   -7.7210    0.0000 C   0  0  1  0  0  0
   31.2098   -8.1335    0.0000 H   0  0
 53  2  1  0
  2  3  1  6
  2  4  1  0
  4  5  1  0
  5  6  1  1
  5  7  1  0
  7  8  1  0
  7  9  1  1
  9 10  1  0
 53  8  1  0
 11 12  1  0
 12 13  2  0
 13 14  1  0
 14 15  2  0
 11 15  1  0
 16 17  2  0
 19 20  1  0
 21 22  1  0
 22 23  2  0
 23 24  1  0
 24 25  2  0
 25 26  1  0
 21 26  2  0
 20 21  1  0
 18 19  1  0
 16 18  1  0
 14 16  1  0
  4 11  1  1
 53  1  1  0
 27 28  1  0
 28 29  1  6
 28 30  1  0
 30 31  1  0
 31 32  1  1
 31 33  1  0
 33 34  1  0
 33 35  1  1
 35 36  1  0
 27 34  1  0
 37 38  1  0
 38 39  2  0
 39 40  1  0
 40 41  2  0
 37 41  1  0
 42 43  2  0
 45 46  1  0
 47 48  1  0
 48 49  2  0
 49 50  1  0
 50 51  2  0
 51 52  1  0
 47 52  2  0
 46 47  1  0
 44 45  1  0
 42 44  1  0
 40 42  1  0
 30 37  1  1
 27  1  1  1
 53 54  1  6
M  END