
  SciTegic03291108582D

 15 16  0  0  0  0            999 V2000
    0.1447    3.4173    0.0000 F   0  0
   -0.4172   -2.5734    0.0000 O   0  0
   -1.5732   -1.7335    0.0000 O   0  0
    0.8121   -0.3676    0.0000 N   0  0
    0.5572   -1.1523    0.0000 N   0  0
    0.1447    0.1173    0.0000 C   0  0
   -0.2678   -1.1523    0.0000 C   0  0
    0.1447    0.9423    0.0000 C   0  0
   -0.5228   -0.3676    0.0000 C   0  0
   -0.7527   -1.8197    0.0000 C   0  0
   -0.5698    1.3548    0.0000 C   0  0
    0.8592    1.3548    0.0000 C   0  0
    0.1447    2.5923    0.0000 C   0  0
   -0.5698    2.1798    0.0000 C   0  0
    0.8592    2.1798    0.0000 C   0  0
  1 13  1  0
  2 10  2  0
  3 10  1  0
  4  5  1  0
  4  6  2  0
  5  7  1  0
  6  8  1  0
  6  9  1  0
  7  9  2  0
  7 10  1  0
  8 11  2  0
  8 12  1  0
 11 14  1  0
 12 15  2  0
 13 14  2  0
 13 15  1  0
M  END