
          11280715042D 1   1.00000     0.00000     0

 50 54  0     1  0            999 V2000
   -2.6250    0.7708    0.0000 C   0  0  0  0  0  0           0  0  0
   -2.6250   -0.0542    0.0000 N   0  0  3  0  0  0           0  0  0
    4.5125   -1.7375    0.0000 C   0  0  0  0  0  0           0  0  0
    2.3667   -1.3167    0.0000 C   0  0  0  0  0  0           0  0  0
    5.2292   -1.3292    0.0000 C   0  0  0  0  0  0           0  0  0
   -2.6208    2.4250    0.0000 C   0  0  0  0  0  0           0  0  0
    3.8000   -1.3250    0.0000 N   0  0  3  0  0  0           0  0  0
   -1.7958    2.4250    0.0000 N   0  0  3  0  0  0           0  0  0
   -3.3375    1.1875    0.0000 C   0  0  3  0  0  0           0  0  0
    1.6500   -2.5500    0.0000 C   0  0  0  0  0  0           0  0  0
    3.0792   -1.7292    0.0000 C   0  0  0  0  0  0           0  0  0
    1.6542   -1.7250    0.0000 C   0  0  1  0  0  0           0  0  0
   -3.3375    2.0208    0.0000 C   0  0  0  0  0  0           0  0  0
   -1.9083   -0.4667    0.0000 C   0  0  3  0  0  0           0  0  0
   -0.4875   -1.3000    0.0000 N   0  0  3  0  0  0           0  0  0
    2.3542   -2.9542    0.0000 C   0  0  0  0  0  0           0  0  0
    2.3542   -3.7792    0.0000 C   0  0  0  0  0  0           0  0  0
    2.3750   -0.4917    0.0000 N   0  0  0  0  0  0           0  0  0
    0.9417   -1.3042    0.0000 C   0  0  0  0  0  0           0  0  0
    5.2292   -0.5042    0.0000 C   0  0  0  0  0  0           0  0  0
    5.9375   -1.7500    0.0000 C   0  0  0  0  0  0           0  0  0
   -1.9083    1.1833    0.0000 O   0  0  0  0  0  0           0  0  0
   -1.1958   -0.0542    0.0000 C   0  0  0  0  0  0           0  0  0
   -1.9125   -1.2917    0.0000 C   0  0  0  0  0  0           0  0  0
    1.6417   -4.1917    0.0000 C   0  0  0  0  0  0           0  0  0
    4.5042   -2.5625    0.0000 O   0  0  0  0  0  0           0  0  0
    5.9417   -0.0917    0.0000 C   0  0  0  0  0  0           0  0  0
    6.6542   -1.3417    0.0000 C   0  0  0  0  0  0           0  0  0
   -2.6208    3.2500    0.0000 O   0  0  0  0  0  0           0  0  0
    6.6542   -0.5167    0.0000 C   0  0  0  0  0  0           0  0  0
    0.9292   -2.9542    0.0000 C   0  0  0  0  0  0           0  0  0
    0.2250   -1.7167    0.0000 C   0  0  0  0  0  0           0  0  0
    0.9250   -3.7792    0.0000 C   0  0  0  0  0  0           0  0  0
   -0.4833   -0.4750    0.0000 C   0  0  0  0  0  0           0  0  0
   -1.2083   -1.7042    0.0000 C   0  0  0  0  0  0           0  0  0
   -0.1500    2.4208    0.0000 O   0  0  0  0  0  0           0  0  0
   -3.3375   -0.4625    0.0000 C   0  0  0  0  0  0           0  0  0
    3.0667   -4.1917    0.0000 Cl  0  0  0  0  0  0           0  0  0
    1.6375   -5.0167    0.0000 Cl  0  0  0  0  0  0           0  0  0
    7.3667   -1.7542    0.0000 Cl  0  0  0  0  0  0           0  0  0
    5.9417    0.7250    0.0000 Cl  0  0  0  0  0  0           0  0  0
    3.0917   -0.0792    0.0000 O   0  0  0  0  0  0           0  0  0
   -1.3875    1.7125    0.0000 C   0  0  0  0  0  0           0  0  0
   -1.3875    3.1458    0.0000 C   0  0  0  0  0  0           0  0  0
    3.8042   -0.5000    0.0000 C   0  0  0  0  0  0           0  0  0
   -4.0458    0.7708    0.0000 C   0  0  0  0  0  0           0  0  0
   -4.0458   -0.0542    0.0000 C   0  0  0  0  0  0           0  0  0
   -0.5625    3.1458    0.0000 C   0  0  0  0  0  0           0  0  0
   -0.5708    1.7083    0.0000 C   0  0  0  0  0  0           0  0  0
    3.8042    0.3208    0.0000 C   0  0  0  0  0  0           0  0  0
  2  1  1  0     0  0
  3  7  1  0     0  0
  4 12  1  0     0  0
  5  3  1  0     0  0
  6 13  1  0     0  0
  7 11  1  0     0  0
  8  6  1  0     0  0
  9  1  1  0     0  0
 12 10  1  1     0  0
 11  4  1  0     0  0
 12 19  1  0     0  0
  9 13  1  0     0  0
 14  2  1  0     0  0
 15 35  1  0     0  0
 16 10  1  0     0  0
 17 16  2  0     0  0
 18  4  2  0     0  0
 19 32  1  0     0  0
 20  5  1  0     0  0
 21  5  2  0     0  0
 22  1  2  0     0  0
 23 14  1  0     0  0
 24 14  1  0     0  0
 25 33  2  0     0  0
 26  3  2  0     0  0
 27 20  2  0     0  0
 28 21  1  0     0  0
 29  6  2  0     0  0
 30 28  2  0     0  0
 31 10  2  0     0  0
 32 15  1  0     0  0
 33 31  1  0     0  0
 34 23  1  0     0  0
 35 24  1  0     0  0
 36 48  1  0     0  0
 37  2  1  0     0  0
 38 17  1  0     0  0
 39 25  1  0     0  0
 40 28  1  0     0  0
 41 27  1  0     0  0
 42 18  1  0     0  0
 43  8  1  0     0  0
 44  8  1  0     0  0
 45  7  1  0     0  0
 46  9  1  0     0  0
 47 46  1  0     0  0
 48 44  1  0     0  0
 49 43  1  0     0  0
 50 42  1  0     0  0
 37 47  1  0     0  0
 34 15  1  0     0  0
 49 36  1  0     0  0
 17 25  1  0     0  0
 30 27  1  0     0  0
M  END