
  SciTegic01091216402D

 77 78  0  0  0  0            999 V2000
   -1.9621   -0.4978    0.0000 Na  0  3
    3.2539   -0.4045    0.0000 C   0  0  1  0  0  0
    2.5389   -0.8202    0.0000 C   0  0  1  0  0  0
    2.5422   -1.6414    0.0000 C   0  0  2  0  0  0
    3.2532   -2.0513    0.0000 C   0  0
    3.9683   -1.6398    0.0000 C   0  0  1  0  0  0
    3.9722   -0.8144    0.0000 O   0  0
    4.6796   -1.2179    0.0000 C   0  0
    3.9666   -2.4609    0.0000 O   0  0
    5.3991   -1.6256    0.0000 O   0  5
    4.6713   -0.3925    0.0000 O   0  0
    3.2507    0.4209    0.0000 C   0  0  1  0  0  0
    3.9645    0.8345    0.0000 C   0  0  2  0  0  0
    2.5335    0.8288    0.0000 O   0  0
    4.6816    0.4267    0.0000 O   0  0
    3.9612    1.6600    0.0000 C   0  0
    4.6749    2.0777    0.0000 O   0  0
    3.9669    0.0106    0.0000 H   0  0
    1.8224   -0.4071    0.0000 N   0  0
    1.1122   -0.8237    0.0000 C   0  0
    0.3956   -0.4107    0.0000 C   0  0
    1.1142   -1.6492    0.0000 O   0  0
    1.8272   -2.0529    0.0000 O   0  0
   -0.3436   -4.8798    0.0000 C   0  0  2  0  0  0
    0.3645   -5.2961    0.0000 C   0  0  2  0  0  0
    1.0770   -4.8968    0.0000 C   0  0  1  0  0  0
    1.0879   -4.0757    0.0000 O   0  0
    0.3799   -3.6554    0.0000 C   0  0  1  0  0  0
   -0.3389   -4.0603    0.0000 C   0  0  2  0  0  0
   -1.0506   -3.6389    0.0000 O   0  0
    0.3894   -2.8299    0.0000 C   0  0
   -0.3214   -2.4111    0.0000 O   0  0
    1.7835   -5.3160    0.0000 O   0  0
   -1.0623   -5.2847    0.0000 O   0  0
    0.3558   -6.1215    0.0000 O   0  0
   -3.1858   -4.8825    0.0000 C   0  0  1  0  0  0
   -3.1858   -5.7079    0.0000 C   0  0  1  0  0  0
   -2.4728   -6.1145    0.0000 C   0  0  2  0  0  0
   -1.7598   -5.7079    0.0000 C   0  0
   -1.7608   -4.8802    0.0000 C   0  0  2  0  0  0
   -2.4728   -4.4635    0.0000 O   0  0
   -1.7627   -4.0541    0.0000 C   0  0
   -2.4792   -3.6409    0.0000 O   0  0
   -2.4728   -6.9400    0.0000 O   0  0
   -3.8966   -6.1197    0.0000 N   0  0
   -3.8984   -4.4697    0.0000 C   0  0  1  0  0  0
   -3.9008   -3.6442    0.0000 C   0  0  1  0  0  0
   -3.8954   -6.9451    0.0000 C   0  0
   -4.6102   -7.3610    0.0000 C   0  0
   -3.1835   -7.3590    0.0000 O   0  0
   -4.6126   -4.8867    0.0000 O   0  0
   -3.1900   -4.0570    0.0000 H   0  0
   -4.6174   -3.2356    0.0000 C   0  0
   -3.1906   -3.2314    0.0000 O   0  0
   -4.6199   -2.4102    0.0000 O   0  0
   -1.7671   -3.2274    0.0000 O   0  5
    2.5037   -4.9138    0.0000 C   0  0  2  0  0  0
    3.2106   -5.3360    0.0000 C   0  0  2  0  0  0
    3.9287   -4.9372    0.0000 C   0  0  1  0  0  0
    3.9428   -4.1114    0.0000 O   0  0
    3.2324   -3.6860    0.0000 C   0  0  1  0  0  0
    2.5081   -4.0905    0.0000 C   0  0  2  0  0  0
    2.4972   -5.7370    0.0000 H   0  0
    1.7970   -3.6681    0.0000 O   0  0
    3.2450   -2.8607    0.0000 C   0  0
    4.6377   -5.3590    0.0000 O   0  0
    5.3595   -4.9595    0.0000 C   0  0
    6.0684   -5.3812    0.0000 C   0  0
    6.7902   -4.9818    0.0000 Si  0  0
    7.4950   -5.4035    0.0000 C   0  0
    6.8031   -4.1563    0.0000 C   0  0
    7.4959   -4.5589    0.0000 C   0  0
    3.1977   -6.1613    0.0000 N   0  0
    3.9065   -6.5873    0.0000 C   0  0
    3.8935   -7.4128    0.0000 C   0  0
    4.6284   -6.1838    0.0000 O   0  0
    7.2345   -1.5887    0.0000 Na  0  3
  3 19  1  1
  6  9  1  0
 36 41  1  0
 37 38  1  0
 38 39  1  0
 39 40  1  0
 40 41  1  0
 19 20  1  0
 40 42  1  1
 42 43  2  0
 20 21  1  0
 38 44  1  6
  8 10  1  0
 37 45  1  1
 20 22  2  0
 36 46  1  0
 46 47  1  0
  4 23  1  6
 45 48  1  0
  8 11  2  0
 48 49  1  0
 24 25  1  0
 48 50  2  0
  2  7  1  0
 46 51  1  6
  2 12  1  0
 36 52  1  1
  3  4  1  0
 47 53  1  0
 12 13  1  0
 47 54  1  1
  4  5  1  0
 53 55  1  0
 40 34  1  0
 24 29  1  0
 42 56  1  0
 25 26  1  0
 57 33  1  0
 57 58  1  0
 26 27  1  0
 27 28  1  0
 28 29  1  0
 12 14  1  6
 29 30  1  1
 57 62  1  0
 58 59  1  0
 59 60  1  0
 60 61  1  0
 61 62  1  0
  5  6  1  0
 57 63  1  6
 28 31  1  1
 62 64  1  1
 13 15  1  1
 61 65  1  1
 65  9  1  0
 31 32  1  0
 59 66  1  1
  6  7  1  0
 66 67  1  0
 26 33  1  1
 67 68  1  0
 13 16  1  0
 68 69  1  0
 24 34  1  1
 69 70  1  0
 69 71  1  0
 25 35  1  6
 69 72  1  0
 36 37  1  0
 58 73  1  6
 16 17  1  0
 73 74  1  0
  6  8  1  1
 74 75  1  0
  2 18  1  1
 74 76  2  0
  2  3  1  0
M  CHG  4   1   1  10  -1  56  -1  77   1
M  END