
          11280714572D 1   1.00000     0.00000     0

 28 28  0     1  0            999 V2000
   -0.6083   -5.3875    0.0000 C   0  0  1  0  0  0           0  0  0
   -1.3125   -4.9792    0.0000 C   0  0  1  0  0  0           0  0  0
    0.1042   -4.1542    0.0000 C   0  0  1  0  0  0           0  0  0
    0.1042   -4.9792    0.0000 C   0  0  2  0  0  0           0  0  0
   -1.3125   -4.1542    0.0000 C   0  0  2  0  0  0           0  0  0
   -0.6083   -3.7375    0.0000 C   0  0  1  0  0  0           0  0  0
   -0.0333   -6.5292    0.0000 P   0  0  3  0  0  0           0  0  0
   -2.4458   -6.1042    0.0000 P   0  0  3  0  0  0           0  0  0
    1.6500   -3.7417    0.0000 P   0  0  3  0  0  0           0  0  0
   -0.6083   -6.2125    0.0000 O   0  0  0  0  0  0           0  0  0
   -2.0333   -5.3917    0.0000 O   0  0  0  0  0  0           0  0  0
    0.8250   -3.7417    0.0000 O   0  0  0  0  0  0           0  0  0
    0.2417   -5.9042    0.0000 O   0  0  0  0  0  0           0  0  0
   -3.2708   -6.0917    0.0000 O   0  0  0  0  0  0           0  0  0
    1.6417   -2.9167    0.0000 O   0  0  0  0  0  0           0  0  0
   -2.9500   -6.7542    0.0000 O   0  0  0  0  0  0           0  0  0
    0.7167   -6.9625    0.0000 O   0  0  0  0  0  0           0  0  0
   -0.3458   -7.3375    0.0000 O   0  0  0  0  0  0           0  0  0
   -1.6500   -6.3167    0.0000 O   0  0  0  0  0  0           0  0  0
    1.6417   -4.5667    0.0000 O   0  0  0  0  0  0           0  0  0
    0.8250   -5.3917    0.0000 O   0  0  0  0  0  0           0  0  0
   -2.0333   -3.7417    0.0000 O   0  0  0  0  0  0           0  0  0
   -0.6083   -2.9125    0.0000 O   0  0  0  0  0  0           0  0  0
    2.4750   -3.7417    0.0000 O   0  0  0  0  0  0           0  0  0
    4.9500   -2.3125    0.0000 N   0  0  0  0  0  0           0  0  0
    3.7125   -3.0250    0.0000 C   0  0  0  0  0  0           0  0  0
    4.1250   -2.3125    0.0000 C   0  0  0  0  0  0           0  0  0
    2.8875   -3.0250    0.0000 C   0  0  0  0  0  0           0  0  0
  2  1  1  0     0  0
  3  4  1  0     0  0
  4  1  1  0     0  0
  5  2  1  0     0  0
  6  3  1  0     0  0
  7 10  1  0     0  0
  8 11  1  0     0  0
  9 12  1  0     0  0
  1 10  1  1     0  0
  2 11  1  6     0  0
  3 12  1  1     0  0
 13  7  2  0     0  0
 14  8  2  0     0  0
 15  9  2  0     0  0
 16  8  1  0     0  0
 17  7  1  0     0  0
 18  7  1  0     0  0
 19  8  1  0     0  0
 20  9  1  0     0  0
  4 21  1  6     0  0
  5 22  1  1     0  0
  6 23  1  1     0  0
 24  9  1  0     0  0
 25 27  1  0     0  0
 26 28  1  0     0  0
 27 26  1  0     0  0
 28 24  1  0     0  0
  6  5  1  0     0  0
M  END