
  SciTegic06051315212D

 30 31  0  0  0  0            999 V2000
   23.2775   -2.7875    0.0000 C   0  0
   23.2763   -3.6148    0.0000 C   0  0
   23.9911   -4.0277    0.0000 C   0  0
   24.7076   -3.6143    0.0000 C   0  0
   24.7046   -2.7838    0.0000 C   0  0
   23.9893   -2.3746    0.0000 C   0  0
   23.9864   -1.5459    0.0000 C   0  0
   24.6996   -1.1313    0.0000 O   0  0
   23.2707   -1.1355    0.0000 O   0  0
   25.4176   -2.3686    0.0000 O   0  0
   23.9909   -4.8527    0.0000 O   0  0
   23.2763   -5.2650    0.0000 C   0  0
   25.4226   -4.0257    0.0000 C   0  0
   26.1365   -3.6120    0.0000 C   0  0
   26.8515   -4.0234    0.0000 C   0  0
   27.5654   -3.6098    0.0000 C   0  0
   26.8529   -4.8484    0.0000 C   0  0
   22.5629   -2.3752    0.0000 C   0  0
   21.8485   -2.7878    0.0000 C   0  0
   21.1340   -2.3755    0.0000 C   0  0
   21.1374   -1.5499    0.0000 C   0  0
   20.4238   -1.1377    0.0000 C   0  0
   19.7084   -1.5504    0.0000 C   0  0
   19.7112   -2.3796    0.0000 C   0  0
   20.4255   -2.7881    0.0000 C   0  0
   28.2804   -4.0212    0.0000 C   0  0
   28.9943   -3.6076    0.0000 C   0  0
   29.7095   -4.0190    0.0000 C   0  0
   30.4232   -3.6054    0.0000 C   0  0
   29.7107   -4.8440    0.0000 C   0  0
  1  2  2  0
  2  3  1  0
  3  4  2  0
  4  5  1  0
  5  6  2  0
  6  1  1  0
  7  8  1  0
  7  9  2  0
  6  7  1  0
  5 10  1  0
  3 11  1  0
 11 12  1  0
  4 13  1  0
 13 14  1  0
 14 15  2  0
 15 16  1  0
 15 17  1  0
  1 18  1  0
 18 19  1  0
 19 20  1  0
 20 21  2  0
 21 22  1  0
 22 23  2  0
 23 24  1  0
 24 25  2  0
 25 20  1  0
 16 26  1  0
 26 27  1  0
 27 28  2  0
 28 29  1  0
 28 30  1  0
M  END