
  SciTegic06051315212D

 47 50  0  0  0  0            999 V2000
    4.6707   -5.7665    0.0000 C   0  0
    5.3851   -5.3541    0.0000 C   0  0
    4.6707   -6.5915    0.0000 C   0  0
    6.0996   -5.7665    0.0000 C   0  0
    5.3851   -4.5291    0.0000 C   0  0
    6.0996   -6.5915    0.0000 O   0  0
    6.8140   -5.3541    0.0000 O   0  0
    7.4588   -5.8681    0.0000 C   0  0  1  0  0  0
    7.4215   -6.6922    0.0000 C   0  0
    8.2510   -5.6470    0.0000 C   0  0  2  0  0  0
    6.7330   -7.1467    0.0000 C   0  0
    8.1995   -6.9839    0.0000 C   0  0
    8.7084   -6.3348    0.0000 C   0  0  1  0  0  0
    9.5390   -6.3250    0.0000 C   0  0  1  0  0  0
   10.0647   -6.9639    0.0000 C   0  0
    9.8874   -7.7716    0.0000 C   0  0  2  0  0  0
    8.3879   -7.7906    0.0000 C   0  0  2  0  0  0
    7.8197   -8.4030    0.0000 O   0  0
    8.2279   -9.1318    0.0000 C   0  0
    7.8818   -9.8807    0.0000 O   0  0
    9.0373   -9.7956    0.0000 C   0  0
    9.3206   -5.5249    0.0000 C   0  0
   10.2498   -5.9082    0.0000 O   0  0
   10.2441   -5.0832    0.0000 C   0  0
   10.9558   -4.6660    0.0000 O   0  0
    9.5270   -4.6755    0.0000 C   0  0
   10.7129   -7.7758    0.0000 O   0  0
   11.1291   -7.0636    0.0000 C   0  0
   11.9541   -7.0679    0.0000 C   0  0
   10.7205   -6.3469    0.0000 O   0  0
   12.3704   -6.3557    0.0000 C   0  0
   13.1954   -6.3602    0.0000 C   0  0
    8.5290   -4.8710    0.0000 O   0  0
    8.1130   -4.1586    0.0000 C   0  0
    8.5219   -3.4421    0.0000 O   0  0
    7.2880   -4.1627    0.0000 C   0  0
    8.9206   -7.1290    0.0000 H   0  0
    6.8720   -3.4504    0.0000 C   0  0
    6.0470   -3.4544    0.0000 C   0  0
    5.6309   -2.7421    0.0000 C   0  0
    4.8060   -2.7462    0.0000 C   0  0
    4.3898   -2.0338    0.0000 C   0  0
    3.5650   -2.0379    0.0000 C   0  0
    9.1451   -8.1428    0.0000 C   0  0  1  0  0  0
    9.0438   -8.9694    0.0000 C   0  0  2  0  0  0
    9.8102   -8.6438    0.0000 O   0  0
    7.5550   -7.7906    0.0000 H   0  0
  1  2  2  0
  1  3  1  0
  2  4  1  0
  2  5  1  0
  4  6  2  0
  4  7  1  0
  8  7  1  6
  9 12  2  0
  8  9  1  0
 13 10  1  0
 10  8  1  0
  9 11  1  0
 12 13  1  0
 13 14  1  0
 12 17  1  0
 14 15  1  0
 15 16  1  0
 44 16  1  0
 44 17  1  0
 17 18  1  0
 18 19  1  0
 19 45  1  0
 19 20  2  0
 45 21  1  1
 14 22  1  0
 14 23  1  1
 23 24  1  0
 24 25  2  0
 24 26  1  0
 16 27  1  6
 27 28  1  0
 28 29  1  0
 28 30  2  0
 29 31  1  0
 31 32  1  0
 10 33  1  1
 33 34  1  0
 34 35  2  0
 34 36  1  0
 13 37  1  1
 36 38  1  0
 38 39  1  0
 39 40  1  0
 40 41  1  0
 41 42  1  0
 42 43  1  0
 45 44  1  0
 46 45  1  0
 44 46  1  1
 17 47  1  6
M  END