
  SciTegic06051315212D

 30 33  0  0  0  0            999 V2000
   15.8922  -11.6022    0.0000 C   0  0
   15.8911  -12.4303    0.0000 C   0  0
   16.6066  -12.8436    0.0000 C   0  0
   17.3236  -12.4299    0.0000 C   0  0
   17.3208  -11.5985    0.0000 C   0  0
   16.6048  -11.1891    0.0000 C   0  0
   18.0343  -11.1830    0.0000 N   0  0
   18.7510  -11.5932    0.0000 C   0  0
   19.4646  -11.1776    0.0000 N   0  0
   18.7541  -12.4190    0.0000 O   0  0
   20.1812  -11.5877    0.0000 C   0  0
   20.1812  -12.4124    0.0000 C   0  0
   20.8971  -12.8225    0.0000 C   0  0
   21.6116  -12.4068    0.0000 C   0  0
   21.6058  -11.5768    0.0000 C   0  0
   20.8894  -11.1705    0.0000 C   0  0
   15.1756  -12.8426    0.0000 O   0  0
   15.1749  -13.6684    0.0000 C   0  0
   14.4594  -14.0792    0.0000 N   0  0
   14.4584  -14.9041    0.0000 C   0  0
   15.1737  -15.3184    0.0000 N   0  0
   16.6707  -13.8201    0.0000 C   0  0
   15.8890  -14.0781    0.0000 C   0  0
   15.8939  -14.9018    0.0000 C   0  0
   16.6794  -15.1504    0.0000 N   0  0
   17.1575  -14.4794    0.0000 N   0  0
   22.3288  -12.8161    0.0000 C   0  0
   22.3330  -13.6418    0.0000 F   0  0
   23.0418  -12.3996    0.0000 F   0  0
   23.0418  -13.2287    0.0000 F   0  0
  1  2  2  0
  2  3  1  0
  3  4  2  0
  4  5  1  0
  5  6  2  0
  6  1  1  0
  5  7  1  0
  7  8  1  0
  8  9  1  0
  8 10  2  0
  9 11  1  0
 11 12  2  0
 12 13  1  0
 13 14  2  0
 14 15  1  0
 15 16  2  0
 16 11  1  0
  2 17  1  0
 17 18  1  0
 18 19  2  0
 19 20  1  0
 20 21  2  0
 21 24  1  0
 23 18  1  0
 23 24  2  0
 22 23  1  0
 24 25  1  0
 25 26  1  0
 26 22  2  0
 14 27  1  0
 27 28  1  0
 27 29  1  0
 27 30  1  0
M  END