
          11280714522D 1   1.00000     0.00000     0

 24 26  0     1  0            999 V2000
    5.5125   -4.4042    0.0000 P   0  0  3  0  0  0           0  0  0
    4.4417   -1.7792    0.0000 C   0  0  2  0  0  0           0  0  0
    4.4292   -2.6042    0.0000 C   0  0  0  0  0  0           0  0  0
    5.1625   -1.3667    0.0000 N   0  0  3  0  0  0           0  0  0
    5.7292   -3.6042    0.0000 N   0  0  3  0  0  0           0  0  0
    5.1417   -3.0250    0.0000 C   0  0  2  0  0  0           0  0  0
    3.7167   -1.3667    0.0000 C   0  0  0  0  0  0           0  0  0
    5.8667   -2.6167    0.0000 C   0  0  0  0  0  0           0  0  0
    4.7917   -3.9917    0.0000 O   0  0  0  0  0  0           0  0  0
    5.8750   -1.7875    0.0000 C   0  0  0  0  0  0           0  0  0
    3.7250   -0.5375    0.0000 C   0  0  0  0  0  0           0  0  0
    5.1625   -0.5375    0.0000 C   0  0  0  0  0  0           0  0  0
    4.4417   -0.1167    0.0000 C   0  0  0  0  0  0           0  0  0
    6.3042   -4.6167    0.0000 O   0  0  0  0  0  0           0  0  0
    5.2917   -5.2000    0.0000 O   0  0  0  0  0  0           0  0  0
    6.5250   -3.3917    0.0000 C   0  0  0  0  0  0           0  0  0
    3.0042   -1.7792    0.0000 C   0  0  0  0  0  0           0  0  0
    3.0042   -0.1250    0.0000 C   0  0  0  0  0  0           0  0  0
    4.4917   -5.4042    0.0000 C   0  0  0  0  0  0           0  0  0
    6.8875   -4.0292    0.0000 C   0  0  0  0  0  0           0  0  0
    2.2917   -1.3667    0.0000 C   0  0  0  0  0  0           0  0  0
    2.2917   -0.5375    0.0000 C   0  0  0  0  0  0           0  0  0
    3.7250   -2.1875    0.0000 H   0  0  0  0  0  0           0  0  0
    4.4292   -3.4292    0.0000 H   0  0  0  0  0  0           0  0  0
  2  3  1  0     0  0
  3  6  1  0     0  0
  4 10  1  0     0  0
  5  1  1  0     0  0
  6  5  1  0     0  0
  7  2  1  0     0  0
  8  6  1  0     0  0
  9  1  2  0     0  0
 10  8  1  0     0  0
 11  7  1  0     0  0
 12  4  1  0     0  0
 13 12  1  0     0  0
 14  1  1  0     0  0
 15  1  1  0     0  0
 16  5  1  0     0  0
 17  7  2  0     0  0
 18 11  2  0     0  0
 19 15  1  0     0  0
 20 14  1  0     0  0
 21 17  1  0     0  0
 22 21  2  0     0  0
  2 23  1  6     0  0
  6 24  1  6     0  0
  2  4  1  0     0  0
 13 11  1  0     0  0
 22 18  1  0     0  0
M  END