
          11280715012D 1   1.00000     0.00000     0

 26 28  0     0  0            999 V2000
    3.5167   -2.1875    0.0000 C   0  0  0  0  0  0           0  0  0
    7.1917   -0.9417    0.0000 N   0  0  0  0  0  0           0  0  0
    1.3750   -1.7667    0.0000 C   0  0  3  0  0  0           0  0  0
    2.0917   -2.1792    0.0000 C   0  0  0  0  0  0           0  0  0
    8.4167   -1.4875    0.0000 N   0  0  0  0  0  0           0  0  0
    8.0042   -0.7667    0.0000 C   0  0  0  0  0  0           0  0  0
    7.1042   -1.7667    0.0000 C   0  0  0  0  0  0           0  0  0
    2.8000   -1.7667    0.0000 N   0  0  0  0  0  0           0  0  0
    3.5167   -3.0167    0.0000 N   0  0  0  0  0  0           0  0  0
    0.6542   -2.1875    0.0000 C   0  0  0  0  0  0           0  0  0
    0.6542   -3.0042    0.0000 N   0  0  0  0  0  0           0  0  0
    7.8667   -2.1042    0.0000 C   0  0  0  0  0  0           0  0  0
    1.3750   -0.9417    0.0000 C   0  0  0  0  0  0           0  0  0
    4.2375   -1.7667    0.0000 N   0  0  0  0  0  0           0  0  0
    6.3875   -2.1875    0.0000 C   0  0  0  0  0  0           0  0  0
   -0.0583   -3.4250    0.0000 C   0  0  0  0  0  0           0  0  0
   -0.0625   -1.7667    0.0000 C   0  0  0  0  0  0           0  0  0
    0.6542   -0.5250    0.0000 C   0  0  0  0  0  0           0  0  0
    2.0917   -0.5292    0.0000 C   0  0  0  0  0  0           0  0  0
    4.9542   -2.1875    0.0000 C   0  0  0  0  0  0           0  0  0
    5.6750   -1.7667    0.0000 C   0  0  0  0  0  0           0  0  0
   -0.7833   -3.0125    0.0000 C   0  0  0  0  0  0           0  0  0
    0.6542    0.3083    0.0000 C   0  0  0  0  0  0           0  0  0
   -0.7833   -2.1792    0.0000 C   0  0  0  0  0  0           0  0  0
    2.0917    0.3000    0.0000 C   0  0  0  0  0  0           0  0  0
    1.3792    0.7208    0.0000 C   0  0  0  0  0  0           0  0  0
  2  7  1  0     0  0
  3  4  1  0     0  0
  4  8  1  0     0  0
  5 12  1  0     0  0
  6  2  2  0     0  0
  7 15  1  0     0  0
  8  1  1  0     0  0
  9  1  2  0     0  0
 10  3  1  0     0  0
 11 10  1  0     0  0
 12  7  2  0     0  0
 13  3  1  0     0  0
 14  1  1  0     0  0
 15 21  1  0     0  0
 16 11  2  0     0  0
 17 10  2  0     0  0
 18 13  1  0     0  0
 19 13  2  0     0  0
 20 14  1  0     0  0
 21 20  1  0     0  0
 22 24  2  0     0  0
 23 18  2  0     0  0
 24 17  1  0     0  0
 25 19  1  0     0  0
 26 25  2  0     0  0
  6  5  1  0     0  0
 26 23  1  0     0  0
 22 16  1  0     0  0
M  END