
          11280714522D 1   1.00000     0.00000     0

 53 57  0     1  0            999 V2000
   -0.2208   -2.6250    0.0000 N   0  0  0  0  0  0           0  0  0
    0.1375   -1.8667    0.0000 C   0  0  2  0  0  0           0  0  0
   -1.0375   -0.9375    0.0000 N   0  0  3  0  0  0           0  0  0
   -1.0333   -2.8125    0.0000 C   0  0  0  0  0  0           0  0  0
   -0.2250   -1.1167    0.0000 C   0  0  0  0  0  0           0  0  0
   -1.6875   -2.2917    0.0000 C   0  0  0  0  0  0           0  0  0
    0.9625   -1.8667    0.0000 N   0  0  0  0  0  0           0  0  0
   -1.6875   -1.4625    0.0000 C   0  0  0  0  0  0           0  0  0
    6.1000   -9.9167    0.0000 C   0  0  0  0  0  0           0  0  0
    5.6667   -9.2125    0.0000 N   0  0  0  0  0  0           0  0  0
    1.3750   -2.5792    0.0000 C   0  0  0  0  0  0           0  0  0
    6.9167   -9.9875    0.0000 C   0  0  0  0  0  0           0  0  0
    5.5542  -10.5417    0.0000 S   0  0  0  0  0  0           0  0  0
    4.8625   -9.4000    0.0000 C   0  0  0  0  0  0           0  0  0
   -1.2208   -3.6167    0.0000 C   0  0  0  0  0  0           0  0  0
    7.2750  -10.7292    0.0000 C   0  0  0  0  0  0           0  0  0
   -0.3625   -6.3375    0.0000 C   0  0  0  0  0  0           0  0  0
    4.7917  -10.2292    0.0000 C   0  0  0  0  0  0           0  0  0
    2.1917   -2.5792    0.0000 N   0  0  0  0  0  0           0  0  0
    0.2875   -0.4667    0.0000 O   0  0  0  0  0  0           0  0  0
    1.1042   -9.6167    0.0000 C   0  0  0  0  0  0           0  0  0
   -0.1833   -5.5292    0.0000 O   0  0  0  0  0  0           0  0  0
   -0.6125   -4.1667    0.0000 C   0  0  0  0  0  0           0  0  0
    0.9667   -3.2917    0.0000 O   0  0  0  0  0  0           0  0  0
   -1.1500   -6.5792    0.0000 O   0  0  0  0  0  0           0  0  0
   -0.7958   -4.9667    0.0000 C   0  0  0  0  0  0           0  0  0
    2.6167   -3.2917    0.0000 C   0  0  0  0  0  0           0  0  0
    0.9250  -10.4250    0.0000 O   0  0  0  0  0  0           0  0  0
    0.2417   -6.8917    0.0000 N   0  0  0  0  0  0           0  0  0
    8.0917  -10.8042    0.0000 N   0  0  0  0  0  0           0  0  0
    6.8042  -11.4125    0.0000 N   0  0  0  0  0  0           0  0  0
    1.8875   -9.3750    0.0000 N   0  0  0  0  0  0           0  0  0
   -1.2250   -0.1292    0.0000 C   0  0  0  0  0  0           0  0  0
    2.2042   -4.0042    0.0000 C   0  0  0  0  0  0           0  0  0
   -2.4083   -2.7042    0.0000 C   0  0  0  0  0  0           0  0  0
    3.4917   -8.9917    0.0000 S   0  0  0  0  0  0           0  0  0
    4.2917   -8.8000    0.0000 C   0  0  0  0  0  0           0  0  0
   -2.4083   -1.0500    0.0000 C   0  0  0  0  0  0           0  0  0
    2.6167   -4.7167    0.0000 C   0  0  0  0  0  0           0  0  0
   -2.0083   -3.8542    0.0000 C   0  0  0  0  0  0           0  0  0
   -2.1875   -4.6542    0.0000 C   0  0  0  0  0  0           0  0  0
    3.8542   -3.9917    0.0000 C   0  0  0  0  0  0           0  0  0
    0.4917   -9.0625    0.0000 C   0  0  0  0  0  0           0  0  0
   -1.5833   -5.2167    0.0000 C   0  0  0  0  0  0           0  0  0
    3.4375   -3.2875    0.0000 C   0  0  0  0  0  0           0  0  0
    2.1250   -8.5792    0.0000 C   0  0  0  0  0  0           0  0  0
    0.0667   -7.7000    0.0000 C   0  0  0  0  0  0           0  0  0
    3.4417   -4.7167    0.0000 C   0  0  0  0  0  0           0  0  0
    2.9250   -8.3917    0.0000 C   0  0  0  0  0  0           0  0  0
    2.2042   -5.4292    0.0000 C   0  0  0  0  0  0           0  0  0
    0.6750   -8.2542    0.0000 C   0  0  0  0  0  0           0  0  0
   -3.1208   -2.2917    0.0000 C   0  0  0  0  0  0           0  0  0
   -3.1208   -1.4625    0.0000 C   0  0  0  0  0  0           0  0  0
  2  1  1  0     0  0
  3  5  1  0     0  0
  4  1  2  0     0  0
  5  2  1  0     0  0
  6  4  1  0     0  0
  2  7  1  6     0  0
  8  6  1  0     0  0
  9 10  2  0     0  0
 10 14  1  0     0  0
 11  7  1  0     0  0
 12  9  1  0     0  0
 13 18  1  0     0  0
 14 37  1  0     0  0
 15  4  1  0     0  0
 16 12  2  0     0  0
 17 22  1  0     0  0
 18 14  2  0     0  0
 19 11  1  0     0  0
 20  5  2  0     0  0
 21 43  1  0     0  0
 22 26  1  0     0  0
 23 15  1  0     0  0
 24 11  2  0     0  0
 25 17  2  0     0  0
 26 23  2  0     0  0
 27 19  1  0     0  0
 28 21  2  0     0  0
 29 17  1  0     0  0
 30 16  1  0     0  0
 31 16  1  0     0  0
 32 21  1  0     0  0
 33  3  1  0     0  0
 34 27  2  0     0  0
 35  6  2  0     0  0
 36 49  1  0     0  0
 37 36  1  0     0  0
 38  8  2  0     0  0
 39 34  1  0     0  0
 40 15  2  0     0  0
 41 40  1  0     0  0
 42 45  2  0     0  0
 43 51  1  0     0  0
 44 41  2  0     0  0
 45 27  1  0     0  0
 46 32  1  0     0  0
 47 29  1  0     0  0
 48 42  1  0     0  0
 49 46  1  0     0  0
 50 39  1  0     0  0
 51 47  1  0     0  0
 52 35  1  0     0  0
 53 52  2  0     0  0
  8  3  1  0     0  0
 26 44  1  0     0  0
 38 53  1  0     0  0
 39 48  2  0     0  0
 13  9  1  0     0  0
M  END