
  SciTegic01161211252D

 26 29  0  0  0  0            999 V2000
   -4.6202  -20.6123    0.0000 N   0  0
   -3.8192  -20.4333    0.0000 C   0  0
   -3.1733  -20.9496    0.0000 C   0  0
   -4.9810  -21.3566    0.0000 C   0  0
   -3.1716  -21.7732    0.0000 N   0  0
   -4.6232  -22.1015    0.0000 C   0  0
   -3.8176  -22.2840    0.0000 C   0  0
   -2.4577  -22.1866    0.0000 C   0  0
   -2.4597  -23.0116    0.0000 O   0  0
   -1.7424  -21.7765    0.0000 C   0  0  2  0  0  0
   -1.0720  -22.2516    0.0000 N   0  0
   -0.4117  -21.7569    0.0000 C   0  0
   -0.6782  -20.9761    0.0000 C   0  0  2  0  0  0
   -1.5031  -20.9883    0.0000 C   0  0
   -0.2030  -20.3015    0.0000 O   0  0
   -0.6084  -19.5829    0.0000 C   0  0
   -0.1871  -18.8757    0.0000 C   0  0
   -0.5917  -18.1576    0.0000 C   0  0
   -1.4175  -18.1489    0.0000 C   0  0
   -1.8371  -18.8642    0.0000 C   0  0
   -1.4300  -19.5794    0.0000 C   0  0
   -5.2010  -20.0264    0.0000 C   0  0
   -5.1968  -19.2003    0.0000 C   0  0
   -6.0282  -19.1967    0.0000 C   0  0
   -6.0329  -20.0217    0.0000 C   0  0
   -0.1717  -17.4475    0.0000 Cl  0  0
 11 12  1  0
 12 13  1  0
 13 14  1  0
 14 10  1  0
  6  7  1  0
 13 15  1  6
  1  4  1  0
 15 16  1  0
  5  8  1  0
 16 17  2  0
 17 18  1  0
  8  9  2  0
 18 19  2  0
  3  5  1  0
 19 20  1  0
 10  8  1  1
 20 21  2  0
 21 16  1  0
 10 11  1  0
  1 22  1  0
 22 23  1  0
  2  3  1  0
  4  6  1  0
  1  2  1  0
 23 24  1  0
 24 25  1  0
 25 22  1  0
  5  7  1  0
 18 26  1  0
M  END