
          11280714592D 1   1.00000     0.00000     0

 17 19  0     0  0            999 V2000
    1.8000   -4.8500    0.0000 N   0  0  0  0  0  0           0  0  0
    2.3167   -3.9292    0.0000 C   0  0  0  0  0  0           0  0  0
    2.3167   -4.5417    0.0000 C   0  0  0  0  0  0           0  0  0
    1.2750   -3.9417    0.0000 C   0  0  0  0  0  0           0  0  0
    1.2750   -4.5417    0.0000 C   0  0  0  0  0  0           0  0  0
    3.3750   -4.5292    0.0000 N   0  0  0  0  0  0           0  0  0
    3.3667   -3.9167    0.0000 C   0  0  0  0  0  0           0  0  0
    2.8375   -3.6250    0.0000 C   0  0  0  0  0  0           0  0  0
    2.8500   -4.8375    0.0000 C   0  0  0  0  0  0           0  0  0
    3.8792   -3.6167    0.0000 O   0  0  0  0  0  0           0  0  0
    0.7542   -3.6417    0.0000 C   0  0  0  0  0  0           0  0  0
    0.7542   -4.8417    0.0000 C   0  0  0  0  0  0           0  0  0
    3.8750   -3.0167    0.0000 C   0  0  0  0  0  0           0  0  0
    4.3875   -2.7042    0.0000 C   0  0  0  0  0  0           0  0  0
    0.2375   -3.9417    0.0000 C   0  0  0  0  0  0           0  0  0
    0.2375   -4.5417    0.0000 C   0  0  0  0  0  0           0  0  0
    4.3792   -2.1042    0.0000 C   0  0  0  0  0  0           0  0  0
  2  3  1  0     0  0
  3  1  1  0     0  0
  4  5  1  0     0  0
  5  1  2  0     0  0
  6  9  1  0     0  0
  7  6  1  0     0  0
  8  2  1  0     0  0
  9  3  2  0     0  0
 10  7  1  0     0  0
 11  4  1  0     0  0
 12  5  1  0     0  0
 13 10  1  0     0  0
 14 13  1  0     0  0
 15 16  1  0     0  0
 16 12  2  0     0  0
 17 14  1  0     0  0
  4  2  2  0     0  0
  7  8  2  0     0  0
 11 15  2  0     0  0
M  END