
          11280715522D 1   1.00000     0.00000     0

 28 29  0     0  0            999 V2000
    2.9116   -4.1760    0.0000 C   0  0  0  0  0  0           0  0  0
    3.3245   -4.8901    0.0000 C   0  0  0  0  0  0           0  0  0
    4.1291   -4.7191    0.0000 C   0  0  0  0  0  0           0  0  0
    4.2175   -3.8937    0.0000 O   0  0  0  0  0  0           0  0  0
    3.4631   -3.5602    0.0000 C   0  0  3  0  0  0           0  0  0
    4.7450   -5.2676    0.0000 O   0  0  0  0  0  0           0  0  0
    2.7941   -3.0805    0.0000 C   0  0  0  0  0  0           0  0  0
    3.8761   -2.8460    0.0000 C   0  0  0  0  0  0           0  0  0
    3.4631   -2.1319    0.0000 O   0  0  0  0  0  0           0  0  0
    3.8761   -1.4176    0.0000 C   0  0  0  0  0  0           0  0  0
    4.7017   -1.4176    0.0000 O   0  0  0  0  0  0           0  0  0
    2.9864   -5.6399    0.0000 C   0  0  0  0  0  0           0  0  0
    2.0367   -3.4140    0.0000 O   0  0  0  0  0  0           0  0  0
    3.4631   -0.7034    0.0000 C   0  0  0  0  0  0           0  0  0
    3.8761    0.0107    0.0000 C   0  0  3  0  0  0           0  0  0
    4.7017    0.0107    0.0000 C   0  0  3  0  0  0           0  0  0
    5.1147   -0.7034    0.0000 C   0  0  0  0  0  0           0  0  0
    5.1147    0.7325    0.0000 C   0  0  0  0  0  0           0  0  0
    3.4631    0.7325    0.0000 C   0  0  3  0  0  0           0  0  0
    2.6374    0.7325    0.0000 C   0  0  0  0  0  0           0  0  0
    3.8761    1.4467    0.0000 C   0  0  0  0  0  0           0  0  0
    2.1653   -5.7223    0.0000 C   0  0  0  0  0  0           0  0  0
    1.6863   -5.0497    0.0000 C   0  0  0  0  0  0           0  0  0
    0.8659   -5.1315    0.0000 C   0  0  0  0  0  0           0  0  0
    0.5259   -5.8845    0.0000 C   0  0  0  0  0  0           0  0  0
    1.0125   -6.5563    0.0000 C   0  0  0  0  0  0           0  0  0
    1.8311   -6.4710    0.0000 C   0  0  0  0  0  0           0  0  0
    2.3156   -7.1390    0.0000 O   0  0  0  0  0  0           0  0  0
  5  7  1  0     0  0
  5  8  1  0     0  0
  8  9  1  0     0  0
  9 10  1  0     0  0
 10 11  2  0     0  0
  2 12  2  0     0  0
  7 13  1  0     0  0
 14 15  1  0     0  0
 15 16  1  0     0  0
 16 17  1  0     0  0
 16 18  1  0     0  0
 15 19  1  0     0  0
 19 20  1  0     0  0
 19 21  1  0     0  0
 10 14  1  0     0  0
 12 22  1  0     0  0
  1  2  1  0     0  0
 22 23  2  0     0  0
  2  3  1  0     0  0
 23 24  1  0     0  0
  3  4  1  0     0  0
 24 25  2  0     0  0
  4  5  1  0     0  0
 25 26  1  0     0  0
  5  1  1  0     0  0
 26 27  2  0     0  0
 27 22  1  0     0  0
  3  6  2  0     0  0
 27 28  1  0     0  0
M  END