
  SciTegic11201309402D

 88 91  0  0  1  0            999 V2000
    9.5542   -7.3542    0.0000 N   0  0
    8.8167   -7.8042    0.0000 C   0  0
   11.0042   -6.3500    0.0000 C   0  0
    4.3167   -7.8292    0.0000 C   0  0
    2.8250   -7.8292    0.0000 N   0  0
    2.0667   -7.4042    0.0000 C   0  0
   10.2875   -6.9000    0.0000 C   0  0  1  0  0  0
    6.5667   -7.4042    0.0000 C   0  0
   -0.1750   -7.8292    0.0000 C   0  0
   11.6792   -4.1875    0.0000 C   0  0
    5.0667   -7.4042    0.0000 N   0  0
    0.5750   -7.4042    0.0000 N   0  0
    3.5750   -7.4042    0.0000 C   0  0  1  0  0  0
    7.3167   -7.8292    0.0000 N   0  0
   10.8292   -5.4167    0.0000 N   0  0
    5.8167   -7.8292    0.0000 C   0  0  1  0  0  0
   12.4667   -3.8167    0.0000 N   0  0
    5.8167   -8.7000    0.0000 C   0  0
    1.3250   -7.8292    0.0000 C   0  0  1  0  0  0
    8.0542   -7.3875    0.0000 C   0  0  1  0  0  0
   -0.9208   -7.4042    0.0000 C   0  0  2  0  0  0
   10.5417    0.2458    0.0000 C   0  0
   15.3042   -5.7917    0.0000 C   0  0
    6.5667   -4.1167    0.0000 C   0  0
   -1.6708   -8.7000    0.0000 C   0  0
   -1.6708   -7.8292    0.0000 N   0  0
   13.3167   -2.5875    0.0000 C   0  0
    5.6000   -9.4917    0.0000 C   0  0
   11.6042   -5.0417    0.0000 C   0  0  1  0  0  0
   12.5292   -2.9542    0.0000 C   0  0  2  0  0  0
   10.6167    1.1083    0.0000 N   0  0
   16.0917   -5.4167    0.0000 N   0  0
    5.8417   -3.7167    0.0000 N   0  0
    8.8292   -8.6667    0.0000 O   0  0
   11.8167   -6.6917    0.0000 O   0  0
    4.3167   -8.7000    0.0000 O   0  0
    2.0667   -6.5375    0.0000 O   0  0
    6.5667   -6.5375    0.0000 O   0  0
   -0.1750   -8.7000    0.0000 O   0  0
   10.9667   -3.6917    0.0000 O   0  0
   -0.9208   -6.5375    0.0000 C   0  0
    1.3250   -8.7000    0.0000 C   0  0
   14.0292   -3.0792    0.0000 O   0  0
   -0.9208   -9.1292    0.0000 O   0  0
    4.8042   -9.7000    0.0000 O   0  0
    6.5792   -4.9417    0.0000 N   0  0
   14.5917   -5.2917    0.0000 N   0  0
   11.2542   -0.2417    0.0000 N   0  0
   -2.3875   -9.1125    0.0000 C   0  0
    9.7667   -0.1167    0.0000 N   0  0
   15.2292   -6.6542    0.0000 N   0  0
    7.2667   -3.6917    0.0000 N   0  0
   13.3917   -1.7250    0.0000 N   0  0
    9.7667   -8.1917    0.0000 C   0  0
    3.5750   -6.5375    0.0000 C   0  0
    6.1792  -10.0792    0.0000 N   0  0
   -0.1750   -6.1042    0.0000 C   0  0
    1.3250   -5.2417    0.0000 C   0  0
    2.0667   -9.1292    0.0000 C   0  0
   -2.3875   -9.9375    0.0000 C   0  0
   -0.1750   -5.2417    0.0000 C   0  0
    0.5750   -6.5375    0.0000 C   0  0
    0.5750   -4.8042    0.0000 C   0  0
    1.3250   -6.1042    0.0000 C   0  0
   10.9542   -7.4542    0.0000 C   0  0
    2.0667   -4.8042    0.0000 O   0  0
   10.6292   -8.2542    0.0000 C   0  0
    8.0417   -6.5625    0.0000 C   0  0
   12.3167   -5.5417    0.0000 C   0  0
   11.8250   -2.4625    0.0000 C   0  0
   11.1875   -1.1042    0.0000 C   0  0
    7.3042   -5.3417    0.0000 C   0  0
   13.8125   -5.6667    0.0000 C   0  0
    2.8250   -6.1042    0.0000 C   0  0
    4.3167   -6.1042    0.0000 C   0  0
    2.0667   -9.9917    0.0000 C   0  0
    2.8250   -8.7000    0.0000 C   0  0
   -1.6750  -10.3417    0.0000 C   0  0
   -3.1083  -10.3417    0.0000 C   0  0
    7.3167   -6.1667    0.0000 C   0  0
   13.1000   -5.1750    0.0000 C   0  0
   11.8917   -1.6000    0.0000 C   0  0
   -1.6750  -11.1667    0.0000 C   0  0
    3.5750   -9.1292    0.0000 C   0  0
    2.8250  -10.4292    0.0000 C   0  0
   -3.1083  -11.1667    0.0000 C   0  0
   -2.3958  -11.5792    0.0000 C   0  0
    3.5750   -9.9917    0.0000 C   0  0
  2  1  1  0
  7  3  1  1
  4 11  1  0
 13  5  1  1
  6  5  1  0
  7  1  1  0
  8 14  1  0
  9 12  1  0
 10 29  1  0
 16 11  1  6
 19 12  1  6
 13  4  1  0
 20 14  1  1
 15  3  1  0
 16  8  1  0
 17 10  1  0
 16 18  1  0
 19  6  1  0
 20  2  1  0
 21  9  1  0
 22 48  2  0
 23 47  2  0
 24 46  2  0
 25 26  1  0
 21 26  1  6
 27 30  1  0
 28 18  1  0
 29 15  1  6
 30 17  1  1
 31 22  1  0
 32 23  1  0
 33 24  1  0
 34  2  2  0
 35  3  2  0
 36  4  2  0
 37  6  2  0
 38  8  2  0
 39  9  2  0
 40 10  2  0
 21 41  1  0
 19 42  1  0
 43 27  2  0
 44 25  2  0
 45 28  2  0
 46 72  1  0
 47 73  1  0
 48 71  1  0
 49 25  1  0
 50 22  1  0
 51 23  1  0
 52 24  1  0
 53 27  1  0
 54  1  1  0
 13 55  1  0
 56 28  1  0
 57 41  1  0
 58 64  2  0
 59 42  1  0
 60 49  1  0
 61 57  1  0
 62 57  2  0
 63 61  2  0
 64 62  1  0
  7 65  1  0
 66 58  1  0
 67 54  1  0
 20 68  1  0
 29 69  1  0
 30 70  1  0
 71 82  1  0
 72 80  1  0
 73 81  1  0
 74 55  1  0
 75 55  1  0
 76 59  2  0
 77 59  1  0
 78 60  1  0
 79 60  2  0
 80 68  1  0
 81 69  1  0
 82 70  1  0
 83 78  2  0
 84 77  2  0
 85 76  1  0
 86 79  1  0
 87 86  2  0
 88 84  1  0
 67 65  1  0
 88 85  2  0
 63 58  1  0
 87 83  1  0
M  END