
  Mrv0541 04051115152D          

 25 27  0  0  0  0            999 V2000
    1.1995    1.4746    0.0000 N   0  0  0  0  0  0  0  0  0  0  0  0
    0.4850    1.8871    0.0000 C   0  0  0  0  0  0  0  0  0  0  0  0
   -0.2294    1.4746    0.0000 O   0  0  0  0  0  0  0  0  0  0  0  0
    0.4850    2.7121    0.0000 N   0  0  0  0  0  0  0  0  0  0  0  0
    1.1995    3.1246    0.0000 C   0  0  0  0  0  0  0  0  0  0  0  0
    1.1995    3.9496    0.0000 N   0  0  0  0  0  0  0  0  0  0  0  0
    1.9140    2.7121    0.0000 C   0  0  0  0  0  0  0  0  0  0  0  0
    1.9140    1.8871    0.0000 C   0  0  0  0  0  0  0  0  0  0  0  0
   -1.0033   -1.8686    0.0000 C   0  0  0  0  0  0  0  0  0  0  0  0
   -2.3087   -2.4498    0.0000 C   0  0  0  0  0  0  0  0  0  0  0  0
   -3.1292   -2.3636    0.0000 C   0  0  0  0  0  0  0  0  0  0  0  0
    1.1995    0.6496    0.0000 C   0  0  1  0  0  0  0  0  0  0  0  0
   -3.4648   -1.6099    0.0000 N   0  0  0  0  0  0  0  0  0  0  0  0
   -2.9798   -0.9425    0.0000 C   0  0  0  0  0  0  0  0  0  0  0  0
   -2.1594   -1.0287    0.0000 C   0  0  0  0  0  0  0  0  0  0  0  0
   -1.8238   -1.7824    0.0000 C   0  0  0  0  0  0  0  0  0  0  0  0
   -0.6678   -2.6223    0.0000 O   0  0  0  0  0  0  0  0  0  0  0  0
    1.8669    0.1647    0.0000 C   0  0  2  0  0  0  0  0  0  0  0  0
    2.6516    0.4196    0.0000 O   0  0  0  0  0  0  0  0  0  0  0  0
    1.6120   -0.6200    0.0000 C   0  0  2  0  0  0  0  0  0  0  0  0
    2.0969   -1.2874    0.0000 O   0  0  0  0  0  0  0  0  0  0  0  0
    0.7870   -0.6200    0.0000 C   0  0  2  0  0  0  0  0  0  0  0  0
    0.5321    0.1647    0.0000 O   0  0  0  0  0  0  0  0  0  0  0  0
    0.3021   -1.2874    0.0000 C   0  0  0  0  0  0  0  0  0  0  0  0
   -0.5184   -1.2012    0.0000 N   0  0  0  0  0  0  0  0  0  0  0  0
  8  1  1  0  0  0  0
 12  1  1  1  0  0  0
  2  1  1  0  0  0  0
  2  4  1  0  0  0  0
  2  3  2  0  0  0  0
  5  4  2  0  0  0  0
  5  7  1  0  0  0  0
  5  6  1  0  0  0  0
  7  8  2  0  0  0  0
  9 17  2  0  0  0  0
  9 16  1  0  0  0  0
  9 25  1  0  0  0  0
 10 11  2  0  0  0  0
 10 16  1  0  0  0  0
 11 13  1  0  0  0  0
 12 18  1  0  0  0  0
 12 23  1  0  0  0  0
 14 13  2  0  0  0  0
 14 15  1  0  0  0  0
 15 16  2  0  0  0  0
 18 20  1  0  0  0  0
 18 19  1  6  0  0  0
 20 21  1  6  0  0  0
 20 22  1  0  0  0  0
 22 24  1  1  0  0  0
 22 23  1  0  0  0  0
 24 25  1  0  0  0  0
M  END