
  SciTegic03291108532D

 25 29  0  0  0  0            999 V2000
   -2.0088    1.4741    0.0000 S   0  0
   -0.2681   -0.6678    0.0000 S   0  0
    0.5706    0.3941    0.0000 O   0  0
   -2.6219    0.0971    0.0000 N   0  0
   -1.6658   -0.9649    0.0000 N   0  0
    0.6571   -1.8103    0.0000 N   0  0
   -0.6486   -2.0878    0.0000 N   0  0
    0.5709   -2.6308    0.0000 N   0  0
   -0.2361   -2.8023    0.0000 N   0  0
   -1.2242    0.3941    0.0000 C   0  0
   -0.7393    1.0616    0.0000 C   0  0
   -2.0088    0.6491    0.0000 C   0  0
   -1.0527   -0.4128    0.0000 C   0  0
    0.0857    1.0616    0.0000 C   0  0
   -1.2242    1.7290    0.0000 C   0  0
    1.3553    0.6491    0.0000 C   0  0
    1.3553    1.4741    0.0000 C   0  0
    0.5706    1.7290    0.0000 C   0  0
   -0.0965   -1.4747    0.0000 C   0  0
   -2.4504   -0.7099    0.0000 C   0  0
    2.0697    0.2366    0.0000 C   0  0
    2.0697    1.8866    0.0000 C   0  0
    2.7842    0.6491    0.0000 C   0  0
    2.7842    1.4741    0.0000 C   0  0
    1.3716   -1.3978    0.0000 C   0  0
  1 12  1  0
  1 15  1  0
  2 13  1  0
  2 19  1  0
  3 14  1  0
  3 16  1  0
  4 12  2  0
  4 20  1  0
  5 13  1  0
  5 20  2  0
  6  8  1  0
  6 19  1  0
  6 25  1  0
  7  9  1  0
  7 19  2  0
  8  9  2  0
 10 11  1  0
 10 12  1  0
 10 13  2  0
 11 14  1  0
 11 15  2  0
 14 18  2  0
 16 17  2  0
 16 21  1  0
 17 18  1  0
 17 22  1  0
 21 23  2  0
 22 24  2  0
 23 24  1  0
M  END