
  SciTegic09081514162D

 28 30  0  0  0  0            999 V2000
    1.2990   -0.7500    0.0000 C   0  0
    1.2990    0.7500    0.0000 C   0  0
    0.0000    1.5000    0.0000 C   0  0
   -1.2990    0.7500    0.0000 C   0  0
   -1.2990   -0.7500    0.0000 C   0  0
    0.0000   -1.5000    0.0000 C   0  0
   -2.5987   -1.5004    0.0000 C   0  0
   -3.8991   -0.7525    0.0000 C   0  0
   -5.1969   -1.5046    0.0000 C   0  0
   -5.1945   -3.0046    0.0000 C   0  0
   -3.8943   -3.7525    0.0000 C   0  0
   -2.5964   -3.0004    0.0000 N   0  0
   -6.4915   -3.7597    0.0000 C   0  0
   -6.4870   -5.2605    0.0000 N   0  0
   -7.5327   -3.1632    0.0000 O   0  0
   -7.7840   -6.0157    0.0000 C   0  0
   -7.7817   -7.5157    0.0000 C   0  0
   -9.0795   -8.2678    0.0000 C   0  0
  -10.3797   -7.5199    0.0000 N   0  0
  -10.3822   -6.0199    0.0000 C   0  0
   -9.0843   -5.2678    0.0000 C   0  0
  -11.6798   -8.2698    0.0000 C   0  0
  -12.9797   -7.5196    0.0000 C   0  0
  -14.0192   -8.1191    0.0000 F   0  0
  -12.9796   -6.3196    0.0000 F   0  0
  -14.0188   -6.9193    0.0000 F   0  0
    2.5973   -1.5031    0.0000 O   0  0
    2.5956   -2.7031    0.0000 C   0  0
  1  2  2  0
  2  3  1  0
  3  4  2  0
  4  5  1  0
  5  6  2  0
  6  1  1  0
  7  8  2  0
  8  9  1  0
  9 10  2  0
 10 11  1  0
 11 12  2  0
 12  7  1  0
  5  7  1  0
 10 13  1  0
 13 14  1  0
 13 15  2  0
 14 16  1  0
 16 17  1  0
 16 21  1  0
 17 18  1  0
 18 19  1  0
 19 20  1  0
 20 21  1  0
 19 22  1  0
 22 23  1  0
 23 24  1  0
 23 25  1  0
 23 26  1  0
  1 27  1  0
 27 28  1  0
M  END