
  SciTegic01161211242D

 20 22  0  0  0  0            999 V2000
    2.3970  -10.7596    0.0000 C   0  0
    2.3958  -11.5835    0.0000 C   0  0
    3.1077  -11.9947    0.0000 C   0  0
    3.1059  -10.3486    0.0000 C   0  0
    3.8183  -10.7560    0.0000 C   0  0
    3.8218  -11.5856    0.0000 C   0  0
    4.5379  -11.9952    0.0000 C   0  0
    5.2553  -11.5798    0.0000 C   0  0
    4.5311  -10.3359    0.0000 C   0  0  2  0  0  0
    5.2525  -10.7520    0.0000 C   0  0  1  0  0  0
    5.8711  -10.1946    0.0000 N   0  0
    5.5321   -9.4339    0.0000 C   0  0
    4.7040   -9.5214    0.0000 C   0  0
    3.1035   -9.5270    0.0000 O   0  0
    6.6934  -10.1881    0.0000 C   0  0
    7.0993   -9.4739    0.0000 C   0  0
    7.9209   -9.4683    0.0000 C   0  0
    3.8134   -9.9214    0.0000 H   0  0
    6.0417  -10.9629    0.0000 H   0  0
    2.3907   -9.1182    0.0000 C   0  0
  5  4  2  0
  4  1  1  0
  5  6  1  0
  2  3  1  0
 10 11  1  0
 11 12  1  0
 12 13  1  0
 13  9  1  0
  3  6  2  0
  4 14  1  0
  1  2  2  0
 11 15  1  0
  5  9  1  0
 15 16  1  0
  6  7  1  0
 16 17  1  0
  7  8  1  0
  9 18  1  6
  8 10  1  0
 10 19  1  6
  9 10  1  0
 14 20  1  0
M  END