
  SciTegic05071317032D

 33 31  0  0  0  0            999 V2000
   14.0485  -18.3416    0.0000 C   0  0
   14.0474  -19.1690    0.0000 C   0  0
   14.7622  -19.5818    0.0000 C   0  0
   15.4787  -19.1685    0.0000 C   0  0
   15.4758  -18.3379    0.0000 C   0  0
   14.7604  -17.9289    0.0000 C   0  0
   16.1887  -17.9228    0.0000 O   0  0
   16.9047  -18.3326    0.0000 C   0  0
   17.6176  -17.9174    0.0000 C   0  0
   18.3336  -18.3272    0.0000 C   0  0
   19.0465  -17.9120    0.0000 C   0  0
   19.7626  -18.3218    0.0000 C   0  0
   20.4755  -17.9067    0.0000 C   0  0
   21.1915  -18.3164    0.0000 C   0  0
   21.9044  -17.9012    0.0000 C   0  0
   22.6205  -18.3111    0.0000 C   0  0
   23.3333  -17.8959    0.0000 N   0  0
   24.0491  -18.3079    0.0000 C   0  0
   24.7599  -17.8962    0.0000 C   0  0
   24.7610  -17.0708    0.0000 N   0  0
   24.0453  -16.6588    0.0000 C   0  0
   23.3282  -17.0722    0.0000 C   0  0
   25.4756  -16.6583    0.0000 C   0  0
   26.1900  -17.0708    0.0000 C   0  0
   26.9045  -16.6583    0.0000 C   0  0
   27.6190  -17.0708    0.0000 C   0  0
   28.3334  -16.6583    0.0000 N   0  0
   29.0479  -17.0709    0.0000 C   0  0
   28.3334  -15.8334    0.0000 C   0  0
   29.0479  -15.4209    0.0000 C   0  0
   23.9078  -20.9685    0.0000 Cl  0  0
   24.9857  -20.0063    0.0000 Cl  0  0
   26.5473  -22.0393    0.0000 Cl  0  0
  1  2  2  0
  2  3  1  0
  3  4  2  0
  4  5  1  0
  5  6  2  0
  6  1  1  0
  5  7  1  0
  7  8  1  0
  8  9  1  0
  9 10  1  0
 10 11  1  0
 11 12  1  0
 12 13  1  0
 13 14  1  0
 14 15  1  0
 15 16  1  0
 16 17  1  0
 17 18  1  0
 17 22  1  0
 18 19  1  0
 19 20  1  0
 20 21  1  0
 21 22  1  0
 20 23  1  0
 23 24  1  0
 24 25  1  0
 25 26  1  0
 26 27  1  0
 27 28  1  0
 27 29  1  0
 29 30  1  0
M  END