
  SciTegic09261414462D

 27 29  0  0  0  0            999 V2000
   11.5851  -20.1656    0.0000 O   0  0
   11.7997  -20.9581    0.0000 S   0  0
   12.3787  -20.3760    0.0000 O   0  0
    8.9712  -20.1450    0.0000 C   0  0
    8.9700  -20.9645    0.0000 C   0  0
    9.6781  -21.3735    0.0000 C   0  0
   10.3877  -20.9640    0.0000 C   0  0
   10.3849  -20.1414    0.0000 C   0  0
    9.6763  -19.7361    0.0000 C   0  0
    8.2634  -19.7365    0.0000 O   0  0
    9.6738  -18.9189    0.0000 Cl  0  0
    8.2620  -21.3725    0.0000 S   0  0
    8.2614  -22.1897    0.0000 C   0  0
    7.6035  -22.6693    0.0000 N   0  0
    7.8554  -23.4467    0.0000 N   0  0
    8.6726  -23.4473    0.0000 C   0  0
    8.9257  -22.6703    0.0000 N   0  0
   11.0961  -21.3715    0.0000 N   0  0
   12.5115  -21.3693    0.0000 C   0  0
   12.5082  -22.1849    0.0000 C   0  0
   13.2157  -22.5923    0.0000 C   0  0
   13.9237  -22.1826    0.0000 C   0  0
   13.9198  -21.3612    0.0000 C   0  0
   13.2117  -20.9575    0.0000 C   0  0
   13.2062  -20.1403    0.0000 C   0  0
   14.6326  -22.5891    0.0000 C   0  0
   13.2166  -23.4095    0.0000 C   0  0
  2  1  2  0
  3  2  2  0
  4  5  2  0
  5  6  1  0
  6  7  2  0
  7  8  1  0
  8  9  2  0
  9  4  1  0
  4 10  1  0
  9 11  1  0
  5 12  1  0
 12 13  1  0
 13 14  2  0
 14 15  1  0
 15 16  1  0
 16 17  2  0
 17 13  1  0
  7 18  1  0
 18  2  1  0
  2 19  1  0
 19 20  2  0
 20 21  1  0
 21 22  2  0
 22 23  1  0
 23 24  2  0
 24 19  1  0
 24 25  1  0
 22 26  1  0
 21 27  1  0
M  END