
          11280715492D 1   1.00000     0.00000     0

 23 25  0     0  0            999 V2000
    1.0905    0.1896    0.0000 C   0  0  0  0  0  0           0  0  0
    1.0893   -0.6354    0.0000 O   0  0  0  0  0  0           0  0  0
    1.8055    0.6010    0.0000 N   0  0  0  0  0  0           0  0  0
    2.5194    0.1875    0.0000 C   0  0  3  0  0  0           0  0  0
   -1.7625    2.6625    0.0000 C   0  0  3  0  0  0           0  0  0
   -1.7625    1.8375    0.0000 C   0  0  0  0  0  0           0  0  0
   -1.0505    1.4292    0.0000 C   0  0  0  0  0  0           0  0  0
   -0.3385    1.8375    0.0000 N   0  0  3  0  0  0           0  0  0
   -0.3385    2.6625    0.0000 C   0  0  0  0  0  0           0  0  0
   -1.0505    3.0792    0.0000 C   0  0  0  0  0  0           0  0  0
   -2.4782    3.0729    0.0000 C   0  0  0  0  0  0           0  0  0
   -3.1914    2.6583    0.0000 C   0  0  0  0  0  0           0  0  0
   -3.9458    2.9915    0.0000 C   0  0  0  0  0  0           0  0  0
   -4.4961    2.3768    0.0000 N   0  0  0  0  0  0           0  0  0
   -4.0814    1.6635    0.0000 C   0  0  0  0  0  0           0  0  0
   -3.2750    1.8375    0.0000 N   0  0  0  0  0  0           0  0  0
    0.3754    1.4240    0.0000 C   0  0  0  0  0  0           0  0  0
    0.3742    0.5990    0.0000 C   0  0  0  0  0  0           0  0  0
    2.5132   -0.6384    0.0000 C   0  0  0  0  0  0           0  0  0
    3.2230   -1.0519    0.0000 C   0  0  0  0  0  0           0  0  0
    3.9405   -0.6439    0.0000 C   0  0  0  0  0  0           0  0  0
    3.9437    0.1820    0.0000 C   0  0  0  0  0  0           0  0  0
    3.2293    0.6000    0.0000 C   0  0  0  0  0  0           0  0  0
 11 12  1  0     0  0
 12 13  2  0     0  0
  3  4  1  0     0  0
  5  6  1  0     0  0
  5 10  1  0     0  0
 13 14  1  0     0  0
 14 15  1  0     0  0
 15 16  2  0     0  0
 16 12  1  0     0  0
  6  7  1  0     0  0
  8 17  1  0     0  0
  7  8  1  0     0  0
 17 18  1  0     0  0
 18  1  1  0     0  0
  4 19  1  0     0  0
  8  9  1  0     0  0
  9 10  1  0     0  0
  1  3  1  0     0  0
  5 11  1  0     0  0
  1  2  2  0     0  0
  4 23  1  0     0  0
 19 20  1  0     0  0
 20 21  1  0     0  0
 21 22  1  0     0  0
 22 23  1  0     0  0
M  END