
          11280715052D 1   1.00000     0.00000     0

 46 49  0     0  0            999 V2000
    3.9792   -1.0167    0.0000 S   0  0  3  0  0  0           0  0  0
    4.7000   -2.2500    0.0000 C   0  0  0  0  0  0           0  0  0
    4.7000   -1.4250    0.0000 N   0  0  0  0  0  0           0  0  0
    5.4167   -2.6542    0.0000 C   0  0  0  0  0  0           0  0  0
    3.9917   -2.6625    0.0000 N   0  0  0  0  0  0           0  0  0
    4.7042   -3.9000    0.0000 N   0  0  0  0  0  0           0  0  0
    3.9917   -3.4875    0.0000 C   0  0  0  0  0  0           0  0  0
    5.4250   -3.4792    0.0000 C   0  0  0  0  0  0           0  0  0
    6.1292   -2.2375    0.0000 O   0  0  0  0  0  0           0  0  0
    9.7125   -3.4417    0.0000 N   0  0  0  0  0  0           0  0  0
    9.0000   -3.8667    0.0000 C   0  0  0  0  0  0           0  0  0
    3.2667   -1.4292    0.0000 C   0  0  0  0  0  0           0  0  0
    6.1167   -1.4125    0.0000 C   0  0  0  0  0  0           0  0  0
    3.3917   -0.4292    0.0000 O   0  0  0  0  0  0           0  0  0
    4.5667   -0.4292    0.0000 O   0  0  0  0  0  0           0  0  0
    3.2792   -3.9042    0.0000 C   0  0  3  0  0  0           0  0  0
   10.4292   -3.8542    0.0000 C   0  0  0  0  0  0           0  0  0
   11.1292   -3.4292    0.0000 N   0  0  0  0  0  0           0  0  0
    1.1250   -2.6750    0.0000 C   0  0  3  0  0  0           0  0  0
    1.8417   -2.2625    0.0000 C   0  0  0  0  0  0           0  0  0
    9.0042   -4.6917    0.0000 O   0  0  0  0  0  0           0  0  0
    6.8292   -0.9917    0.0000 C   0  0  0  0  0  0           0  0  0
    3.2667   -2.2625    0.0000 C   0  0  0  0  0  0           0  0  0
    2.5542   -1.0167    0.0000 C   0  0  0  0  0  0           0  0  0
    2.5542   -2.6750    0.0000 C   0  0  0  0  0  0           0  0  0
    1.8417   -1.4375    0.0000 C   0  0  0  0  0  0           0  0  0
    6.1417   -3.8875    0.0000 O   0  0  0  0  0  0           0  0  0
    8.2792   -3.4542    0.0000 O   0  0  0  0  0  0           0  0  0
    7.5500   -1.4042    0.0000 O   0  0  0  0  0  0           0  0  0
    3.2792   -4.7292    0.0000 C   0  0  0  0  0  0           0  0  0
    2.5625   -3.4917    0.0000 C   0  0  0  0  0  0           0  0  0
    2.5625   -4.3125    0.0000 C   0  0  0  0  0  0           0  0  0
    5.4042   -1.0042    0.0000 C   0  0  0  0  0  0           0  0  0
   11.8500   -3.8375    0.0000 C   0  0  0  0  0  0           0  0  0
    1.1250   -3.5000    0.0000 C   0  0  0  0  0  0           0  0  0
    0.4042   -3.0792    0.0000 C   0  0  0  0  0  0           0  0  0
    0.4125   -2.2625    0.0000 C   0  0  0  0  0  0           0  0  0
   10.4292   -4.6792    0.0000 C   0  0  0  0  0  0           0  0  0
    6.8250   -0.1667    0.0000 C   0  0  0  0  0  0           0  0  0
    6.8542   -3.4667    0.0000 C   0  0  0  0  0  0           0  0  0
    7.5667   -3.8750    0.0000 C   0  0  0  0  0  0           0  0  0
    7.5542   -2.2292    0.0000 C   0  0  0  0  0  0           0  0  0
   11.8542   -4.6667    0.0000 C   0  0  0  0  0  0           0  0  0
    5.3917   -0.1875    0.0000 C   0  0  0  0  0  0           0  0  0
   11.1417   -5.0875    0.0000 C   0  0  0  0  0  0           0  0  0
    6.1042    0.2375    0.0000 C   0  0  0  0  0  0           0  0  0
  2  3  1  0     0  0
  3  1  1  0     0  0
  4  2  1  0     0  0
  5  2  2  0     0  0
  6  7  2  0     0  0
  7  5  1  0     0  0
  8  4  2  0     0  0
  9  4  1  0     0  0
 10 11  1  0     0  0
 11 28  1  0     0  0
 12  1  1  0     0  0
 13  9  1  0     0  0
 14  1  2  0     0  0
 15  1  2  0     0  0
 16  7  1  0     0  0
 17 10  1  0     0  0
 18 17  1  0     0  0
 19 20  1  0     0  0
 20 26  2  0     0  0
 21 11  2  0     0  0
 22 13  2  0     0  0
 23 12  1  0     0  0
 24 12  2  0     0  0
 25 23  2  0     0  0
 26 24  1  0     0  0
 27  8  1  0     0  0
 28 41  1  0     0  0
 29 22  1  0     0  0
 30 16  1  0     0  0
 31 16  1  0     0  0
 32 16  1  0     0  0
 33 13  1  0     0  0
 34 18  2  0     0  0
 35 19  1  0     0  0
 36 19  1  0     0  0
 37 19  1  0     0  0
 38 17  2  0     0  0
 39 22  1  0     0  0
 40 27  1  0     0  0
 41 40  1  0     0  0
 42 29  1  0     0  0
 43 45  2  0     0  0
 44 33  2  0     0  0
 45 38  1  0     0  0
 46 44  1  0     0  0
 20 25  1  0     0  0
  8  6  1  0     0  0
 46 39  2  0     0  0
 43 34  1  0     0  0
M  END