
  SciTegic09251318272D

 44 49  0  0  1  0            999 V2000
    8.5575   -3.6144    0.0000 N   0  0
    7.1370   -3.4883    0.0000 C   0  0
    5.8483   -3.0931    0.0000 N   0  3
    7.8072   -3.9580    0.0000 C   0  0
    6.3466   -3.7518    0.0000 C   0  0
    9.2678   -4.0096    0.0000 C   0  0  2  0  0  0
    9.3709   -4.8344    0.0000 C   0  0
    7.1199   -2.6635    0.0000 C   0  0
    6.3294   -2.4115    0.0000 C   0  0
    9.9380   -6.0373    0.0000 C   0  0
    9.1132   -6.0373    0.0000 C   0  0  1  0  0  0
    8.7122   -5.3327    0.0000 N   0  0
   10.6425   -5.6249    0.0000 N   0  0
    8.9070   -7.5494    0.0000 C   0  0
    8.7008   -6.7532    0.0000 C   0  0
    8.7122   -2.8067    0.0000 C   0  0
    9.8807   -3.4539    0.0000 C   0  0
    8.3227   -8.1279    0.0000 C   0  0
    7.7327   -4.7829    0.0000 O   0  0
   10.1270   -5.1609    0.0000 O   0  0
   11.3642   -6.0201    0.0000 C   0  0
   10.3504   -6.7590    0.0000 O   0  0
    9.5256   -2.7036    0.0000 C   0  0  1  0  0  0
    5.0234   -3.1103    0.0000 C   0  0
    8.5289   -8.9184    0.0000 C   0  0
   11.3814   -6.8449    0.0000 C   0  0
    7.7213   -2.0850    0.0000 C   0  0
    9.9322   -1.9819    0.0000 O   0  0
    6.1404   -1.6153    0.0000 C   0  0
   10.6253   -4.8000    0.0000 C   0  0
    9.6974   -7.7557    0.0000 C   0  0
    9.9150   -8.5461    0.0000 C   0  0
    7.5323   -7.9103    0.0000 C   0  0
    9.3308   -9.1304    0.0000 C   0  0
    7.9561   -9.4912    0.0000 C   0  0
   12.1031   -7.2401    0.0000 C   0  0
   10.6711   -7.2687    0.0000 C   0  0
    7.5323   -1.2888    0.0000 C   0  0
    6.7532   -1.0540    0.0000 C   0  0
    6.9480   -8.4888    0.0000 C   0  0
    7.1656   -9.2850    0.0000 C   0  0
   10.6769   -8.0821    0.0000 C   0  0
   12.1203   -8.0650    0.0000 C   0  0
   11.4100   -8.4888    0.0000 C   0  0
  2  4  1  0
  3  5  2  0
  4  1  1  0
  5  2  1  0
  6  1  1  0
  6  7  1  1
  8  2  1  0
  9  8  2  0
 10 11  1  0
 11 12  1  0
 12  7  1  0
 13 10  1  0
 14 15  1  0
 11 15  1  6
 16  1  1  0
 17  6  1  0
 18 14  2  0
 19  4  2  0
 20  7  2  0
 13 21  1  0
 22 10  2  0
 23 16  1  0
 24  3  1  0
 25 18  1  0
 26 21  1  0
 27  8  1  0
 23 28  1  6
 29  9  1  0
 13 30  1  0
 31 14  1  0
 32 31  2  0
 33 18  1  0
 34 32  1  0
 35 25  1  0
 36 26  1  0
 37 26  2  0
 38 27  2  0
 39 38  1  0
 40 33  2  0
 41 40  1  0
 42 37  1  0
 43 36  2  0
 44 42  2  0
 23 17  1  0
  3  9  1  0
 29 39  2  0
 34 25  2  0
 35 41  2  0
 44 43  1  0
M  CHG  1   3   1
M  END