
          11280715012D 1   1.00000     0.00000     0

 29 31  0     0  0            999 V2000
    3.2000   -3.5000    0.0000 C   0  0  0  0  0  0           0  0  0
    3.9125   -3.0792    0.0000 N   0  0  3  0  0  0           0  0  0
    3.9042   -2.2542    0.0000 C   0  0  3  0  0  0           0  0  0
    2.4792   -3.0917    0.0000 C   0  0  0  0  0  0           0  0  0
    5.3417   -3.0667    0.0000 C   0  0  0  0  0  0           0  0  0
    4.3042   -1.5417    0.0000 C   0  0  0  0  0  0           0  0  0
    3.4792   -1.5500    0.0000 C   0  0  0  0  0  0           0  0  0
    6.7542   -2.2292    0.0000 C   0  0  0  0  0  0           0  0  0
    4.6292   -3.4875    0.0000 C   0  0  0  0  0  0           0  0  0
    1.7750   -3.5125    0.0000 C   0  0  0  0  0  0           0  0  0
    7.4792   -3.4625    0.0000 C   0  0  0  0  0  0           0  0  0
    6.7542   -1.4042    0.0000 C   0  0  0  0  0  0           0  0  0
    8.1917   -3.0417    0.0000 C   0  0  0  0  0  0           0  0  0
    6.0542   -3.4750    0.0000 N   0  0  0  0  0  0           0  0  0
    1.0542   -3.1042    0.0000 C   0  0  0  0  0  0           0  0  0
    3.2042   -4.3167    0.0000 O   0  0  0  0  0  0           0  0  0
    6.7667   -3.0542    0.0000 C   0  0  3  0  0  0           0  0  0
   -1.0833   -4.3417    0.0000 N   0  0  0  0  0  0           0  0  0
    5.3292   -2.2417    0.0000 O   0  0  0  0  0  0           0  0  0
    8.1875   -2.2167    0.0000 O   0  0  0  0  0  0           0  0  0
    0.3417   -3.5167    0.0000 C   0  0  3  0  0  0           0  0  0
    8.9125   -3.4542    0.0000 O   0  0  0  0  0  0           0  0  0
    2.4792   -2.2667    0.0000 C   0  0  0  0  0  0           0  0  0
    1.0417   -2.2792    0.0000 C   0  0  0  0  0  0           0  0  0
    1.7542   -1.8625    0.0000 C   0  0  0  0  0  0           0  0  0
   -1.0833   -3.5167    0.0000 C   0  0  0  0  0  0           0  0  0
   -0.3708   -4.7542    0.0000 C   0  0  0  0  0  0           0  0  0
   -0.3708   -3.1042    0.0000 C   0  0  0  0  0  0           0  0  0
    0.3417   -4.3417    0.0000 C   0  0  0  0  0  0           0  0  0
  2  1  1  0     0  0
  3  2  1  0     0  0
  4  1  1  0     0  0
  5  9  1  0     0  0
  6  3  1  0     0  0
  7  3  1  0     0  0
  8 17  1  0     0  0
  9  2  1  0     0  0
 10  4  1  0     0  0
 11 17  1  0     0  0
 12  8  3  0     0  0
 13 11  1  0     0  0
 14  5  1  0     0  0
 15 10  2  0     0  0
 16  1  2  0     0  0
 17 14  1  0     0  0
 18 27  1  0     0  0
 19  5  2  0     0  0
 20 13  2  0     0  0
 21 15  1  0     0  0
 22 13  1  0     0  0
 23  4  2  0     0  0
 24 25  2  0     0  0
 25 23  1  0     0  0
 26 28  1  0     0  0
 27 29  1  0     0  0
 28 21  1  0     0  0
 29 21  1  0     0  0
  7  6  1  0     0  0
 24 15  1  0     0  0
 26 18  1  0     0  0
M  END