
  SciTegic01161211212D

 16 16  0  0  0  0            999 V2000
    6.5667   -7.5042    0.0000 N   0  0
    6.5750   -5.4167    0.0000 O   0  0
    5.9667   -5.4167    0.0000 C   0  0
    5.6667   -4.9000    0.0000 C   0  0
    6.8792   -6.9875    0.0000 C   0  0
    6.5750   -6.4625    0.0000 C   0  0
    6.8792   -5.9417    0.0000 C   0  0
    6.8750   -8.0292    0.0000 C   0  0
    5.9667   -6.4625    0.0000 O   0  0
    5.6667   -5.9417    0.0000 C   0  0
    5.9667   -4.3792    0.0000 C   0  0
    5.0667   -4.9000    0.0000 C   0  0
    7.4792   -8.0292    0.0000 C   0  0
    6.5667   -8.5542    0.0000 C   0  0
    5.0667   -5.9417    0.0000 C   0  0
    4.7667   -5.4167    0.0000 C   0  0
  2  7  1  0
  3  2  1  0
  4  3  2  0
  5  1  1  0
  6  5  1  0
  7  6  1  0
  8  1  1  0
  9  6  1  0
 10  3  1  0
 11  4  1  0
 12  4  1  0
 13  8  1  0
 14  8  1  0
 15 10  2  0
 16 15  1  0
 16 12  2  0
M  END