
  SciTegic01161211232D

 35 38  0  0  0  0            999 V2000
    6.1664   -5.0819    0.0000 N   0  0
    6.8828   -4.6685    0.0000 C   0  0
    6.8800   -3.8380    0.0000 N   0  0
    6.1646   -3.4289    0.0000 C   0  0
    5.4516   -4.6690    0.0000 C   0  0
    5.4539   -3.8434    0.0000 C   0  0
    4.7412   -3.4305    0.0000 C   0  0
    4.0257   -3.8419    0.0000 C   0  0
    4.0274   -4.6706    0.0000 C   0  0
    4.7407   -5.0799    0.0000 C   0  0
    6.1611   -2.6039    0.0000 N   0  0
    6.8738   -2.1883    0.0000 C   0  0
    7.5895   -2.5992    0.0000 C   0  0
    8.3017   -2.1844    0.0000 C   0  0
    8.2986   -1.3585    0.0000 C   0  0
    7.5773   -0.9492    0.0000 C   0  0
    6.8681   -1.3664    0.0000 C   0  0
    9.0042   -0.9417    0.0000 O   0  0
    9.7208   -1.3458    0.0000 C   0  0
    9.7264   -2.1697    0.0000 C   0  0
   10.4422   -2.5738    0.0000 C   0  0
   11.1516   -2.1551    0.0000 C   0  0
   11.1405   -1.3282    0.0000 N   0  0
   10.4242   -0.9278    0.0000 C   0  0
    7.5709   -0.1242    0.0000 C   0  0
   11.8707   -2.5594    0.0000 C   0  0
    3.3125   -3.4333    0.0000 C   0  0
    2.6000   -3.8458    0.0000 C   0  0
    1.8875   -3.4375    0.0000 C   0  0
    1.1750   -3.8500    0.0000 N   0  0
    0.4625   -3.4417    0.0000 C   0  0
   -0.2500   -3.8542    0.0000 C   0  0
   -0.9625   -3.4458    0.0000 O   0  0
   -1.6750   -3.8583    0.0000 C   0  0
    0.4607   -2.6167    0.0000 O   0  0
 16 17  2  0
 17 12  1  0
  3  4  2  0
 15 18  1  0
  8  9  2  0
 18 19  1  0
  4  6  1  0
 19 20  2  0
  9 10  1  0
 20 21  1  0
 10  5  2  0
 21 22  2  0
  1  2  2  0
 22 23  1  0
  4 11  1  0
 23 24  2  0
 24 19  1  0
  5  1  1  0
 16 25  1  0
 11 12  1  0
 22 26  1  0
  5  6  1  0
  8 27  1  0
 12 13  2  0
 27 28  2  0
  2  3  1  0
 28 29  1  0
 13 14  1  0
 29 30  1  0
  6  7  2  0
 30 31  1  0
 14 15  2  0
 31 32  1  0
 32 33  1  0
 15 16  1  0
 33 34  1  0
  7  8  1  0
 31 35  2  0
M  END