
  Mrv0541 04051115152D          

 22 24  0  0  0  0            999 V2000
   -1.6225   -1.4805    0.0000 C   0  0  0  0  0  0  0  0  0  0  0  0
   -2.3762   -1.1449    0.0000 O   0  0  0  0  0  0  0  0  0  0  0  0
   -1.5363   -2.3010    0.0000 N   0  0  0  0  0  0  0  0  0  0  0  0
   -2.2037   -2.7859    0.0000 C   0  0  0  0  0  0  0  0  0  0  0  0
   -2.1175   -3.6064    0.0000 C   0  0  0  0  0  0  0  0  0  0  0  0
   -0.9551   -0.9956    0.0000 C   0  0  1  0  0  0  0  0  0  0  0  0
   -0.9551   -0.1706    0.0000 O   0  0  0  0  0  0  0  0  0  0  0  0
   -0.1705   -1.2505    0.0000 C   0  0  1  0  0  0  0  0  0  0  0  0
    0.0845   -2.0351    0.0000 O   0  0  0  0  0  0  0  0  0  0  0  0
    0.3145   -0.5831    0.0000 C   0  0  1  0  0  0  0  0  0  0  0  0
    1.1395   -0.5831    0.0000 O   0  0  0  0  0  0  0  0  0  0  0  0
   -0.1705    0.0844    0.0000 C   0  0  2  0  0  0  0  0  0  0  0  0
    0.0845    0.8690    0.0000 N   0  0  0  0  0  0  0  0  0  0  0  0
   -0.4005    1.5364    0.0000 C   0  0  0  0  0  0  0  0  0  0  0  0
    0.0845    2.2039    0.0000 N   0  0  0  0  0  0  0  0  0  0  0  0
    0.8691    1.9489    0.0000 C   0  0  0  0  0  0  0  0  0  0  0  0
    1.5836    2.3614    0.0000 C   0  0  0  0  0  0  0  0  0  0  0  0
    1.5836    3.1864    0.0000 N   0  0  0  0  0  0  0  0  0  0  0  0
    2.2980    1.9489    0.0000 N   0  0  0  0  0  0  0  0  0  0  0  0
    2.2980    1.1239    0.0000 C   0  0  0  0  0  0  0  0  0  0  0  0
    1.5836    0.7114    0.0000 N   0  0  0  0  0  0  0  0  0  0  0  0
    0.8691    1.1239    0.0000 C   0  0  0  0  0  0  0  0  0  0  0  0
  1  2  2  0  0  0  0
  1  3  1  0  0  0  0
  6  1  1  1  0  0  0
  4  3  1  0  0  0  0
  4  5  1  0  0  0  0
  6  7  1  0  0  0  0
  8  6  1  0  0  0  0
 12  7  1  0  0  0  0
  8  9  1  6  0  0  0
 10  8  1  0  0  0  0
 10 11  1  6  0  0  0
 12 10  1  0  0  0  0
 12 13  1  1  0  0  0
 14 13  1  0  0  0  0
 22 13  1  0  0  0  0
 14 15  2  0  0  0  0
 16 15  1  0  0  0  0
 16 17  1  0  0  0  0
 22 16  2  0  0  0  0
 17 18  1  0  0  0  0
 17 19  2  0  0  0  0
 20 19  1  0  0  0  0
 20 21  2  0  0  0  0
 22 21  1  0  0  0  0
M  END