
  SciTegic12231509382D

 30 33  0  0  0  0            999 V2000
   -2.9778   -2.3972    0.0000 C   0  0
   -1.4581   -2.3983    0.0000 N   0  0
   -1.4772    0.2067    0.0000 C   0  0
   -0.7249   -1.0852    0.0000 C   0  0
    0.7334   -0.7634    0.0000 N   0  0
    0.8743    0.6922    0.0000 C   0  0
   -0.4777    1.3163    0.0000 N   0  0
   -3.7302   -1.1053    0.0000 N   0  0
   -2.9812    0.2170    0.0000 C   0  0
   -0.6981   -3.6921    0.0000 C   0  0
   -1.4379   -4.9980    0.0000 C   0  0
   -0.8300   -6.0327    0.0000 C   0  0
    2.1858    1.4390    0.0000 C   0  0
    3.4791    0.6922    0.0000 C   0  0
    4.7723    1.4390    0.0000 C   0  0
    4.7723    2.9508    0.0000 C   0  0
    3.4791    3.6977    0.0000 C   0  0
    2.1858    2.9508    0.0000 C   0  0
    2.9326    2.7505    0.0000 C   0  0
    3.9891    1.6940    0.0000 C   0  0
   -3.5763   -3.4373    0.0000 O   0  0
   -3.5819    1.2558    0.0000 O   0  0
   -5.2310   -1.1179    0.0000 C   0  0
   -5.9932    0.1750    0.0000 C   0  0
   -7.1931    0.1648    0.0000 C   0  0
    6.0716    3.6530    0.0000 C   0  0
    7.3526    2.8709    0.0000 C   0  0
    8.6708    3.5884    0.0000 C   0  0
    8.7006    4.7880    0.0000 O   0  0
    9.6950    2.9631    0.0000 O   0  0
  1  2  1  0
  2  4  1  0
  3  4  2  0
  4  5  1  0
  5  6  1  0
  3  7  1  0
  6  7  2  0
  1  8  1  0
  3  9  1  0
  8  9  1  0
  2 10  1  0
 10 11  1  0
 11 12  1  0
  6 13  1  0
 13 14  1  0
 14 15  1  0
 15 16  1  0
 16 17  1  0
 13 18  1  0
 17 18  1  0
 13 19  1  0
 16 20  1  0
 19 20  1  0
  1 21  2  0
  9 22  2  0
  8 23  1  0
 23 24  1  0
 24 25  1  0
 16 26  1  0
 26 27  1  0
 27 28  1  0
 28 29  1  0
 28 30  2  0
M  END