
  SciTegic04071410272D

 31 33  0  0  0  0            999 V2000
   -3.4985   -5.6963    0.0000 C   0  0  1  0  0  0
   -2.4130   -6.5068    0.0000 C   0  0  2  0  0  0
   -2.9379   -6.0741    0.0000 C   0  0
   -3.9241   -6.0741    0.0000 C   0  0  1  0  0  0
   -4.0640   -5.2492    0.0000 N   0  3
   -2.5557   -5.6780    0.0000 C   0  0
   -4.4525   -6.7946    0.0000 C   0  0
   -3.8201   -6.4134    0.0000 C   0  0
   -1.9986   -7.2207    0.0000 C   0  0
   -1.1731   -7.2188    0.0000 C   0  0
   -0.7588   -7.9327    0.0000 C   0  0
   -0.9630   -6.4160    0.0000 C   0  0
   -0.7529   -5.6131    0.0000 N   0  0
   -0.3794   -6.9996    0.0000 C   0  0
   -1.1710   -8.6452    0.0000 C   0  0
   -0.7574   -9.3585    0.0000 C   0  0
    0.0689   -9.3570    0.0000 C   0  0
    0.4799   -8.6362    0.0000 C   0  0
    0.0637   -7.9258    0.0000 C   0  0
    0.2061   -7.5802    0.0000 C   0  0
    0.9993   -7.3616    0.0000 C   0  0
    1.2071   -6.5638    0.0000 C   0  0
    0.6155   -5.9848    0.0000 C   0  0
   -0.1754   -6.2064    0.0000 C   0  0
   -4.8651   -5.0319    0.0000 C   0  0
   -3.6562   -4.5316    0.0000 C   0  0
   -4.0737   -3.8196    0.0000 C   0  0
   -3.6658   -3.1020    0.0000 O   0  0
   -2.5972   -4.4357    0.0000 Br  0  5
   -4.7269   -5.8841    0.0000 H   0  0
   -3.2352   -4.9144    0.0000 H   0  0
  5  1  1  0
 10 14  1  0
  1  6  1  0
 11 15  2  0
  6  2  1  0
 15 16  1  0
  4  7  1  0
 16 17  2  0
  1  8  1  0
 17 18  1  0
  7  8  1  0
 18 19  2  0
 19 11  1  0
 14 20  2  0
  2  9  1  6
 20 21  1  0
 21 22  2  0
  9 10  1  0
 22 23  1  0
  2  3  1  0
 23 24  2  0
 24 14  1  0
 10 11  1  0
  5 25  1  0
  3  4  1  0
  5 26  1  0
 10 12  1  0
 26 27  1  0
  4  5  1  0
 27 28  1  0
 12 13  3  0
  4 30  1  1
  1 31  1  6
M  CHG  2   5   1  29  -1
M  END