
  SciTegic10311316302D

 30 34  0  0  0  0            999 V2000
    7.9229   -1.1969    0.0000 C   0  0
    7.9217   -2.0164    0.0000 C   0  0
    8.6298   -2.4254    0.0000 C   0  0
    8.6280   -0.7880    0.0000 C   0  0
    9.3366   -1.1933    0.0000 C   0  0
    9.3368   -2.0164    0.0000 C   0  0
   10.1198   -2.2706    0.0000 S   0  0
   10.6035   -1.6045    0.0000 C   0  0
   10.1194   -0.9387    0.0000 N   0  0
   11.4207   -1.6042    0.0000 N   0  0
   11.8291   -0.8963    0.0000 N   0  0
   12.6463   -0.8960    0.0000 C   0  0
   14.2813   -0.9048    0.0000 C   0  0
   13.8737   -0.1954    0.0000 C   0  0
   13.0539   -0.1921    0.0000 C   0  0
   13.8691   -1.6108    0.0000 C   0  0
   13.0568   -1.6056    0.0000 C   0  0
   12.6480   -2.3053    0.0000 C   0  0
   13.0502   -3.0107    0.0000 C   0  0
   13.8656   -3.0120    0.0000 C   0  0
   14.2708   -2.3117    0.0000 C   0  0
   12.6416   -3.7140    0.0000 C   0  0
   11.8234   -3.7098    0.0000 N   0  0
   11.4124   -4.4153    0.0000 C   0  0
   11.8185   -5.1254    0.0000 C   0  0
   12.6399   -5.1256    0.0000 C   0  0
   13.0472   -4.4196    0.0000 C   0  0
   10.5909   -4.4130    0.0000 C   0  0
   10.1851   -3.7036    0.0000 O   0  0
   10.1795   -5.1190    0.0000 O   0  0
  1  2  2  0
  2  3  1  0
  3  6  2  0
  5  4  2  0
  4  1  1  0
  5  6  1  0
  6  7  1  0
  7  8  1  0
  8  9  2  0
  9  5  1  0
  8 10  1  0
 10 11  1  0
 11 12  2  0
 12 17  1  0
 12 15  1  0
 16 13  1  0
 13 14  1  0
 14 15  1  0
 16 17  2  0
 17 18  1  0
 18 19  2  0
 19 20  1  0
 20 21  2  0
 21 16  1  0
 22 23  2  0
 23 24  1  0
 24 25  2  0
 25 26  1  0
 26 27  2  0
 27 22  1  0
 19 22  1  0
 28 29  1  0
 28 30  2  0
 24 28  1  0
M  END