
          11280714512D 1   1.00000     0.00000     0

 36 41  0     0  0            999 V2000
    3.0417   -3.2500    0.0000 C   0  0  0  0  0  0           0  0  0
    2.5500   -2.5792    0.0000 N   0  0  3  0  0  0           0  0  0
    2.5500   -3.9250    0.0000 C   0  0  0  0  0  0           0  0  0
    1.7625   -3.6667    0.0000 C   0  0  0  0  0  0           0  0  0
    1.7625   -2.8375    0.0000 C   0  0  0  0  0  0           0  0  0
    1.0417   -2.4250    0.0000 C   0  0  0  0  0  0           0  0  0
    1.0417   -4.0792    0.0000 C   0  0  0  0  0  0           0  0  0
    3.8667   -3.2500    0.0000 C   0  0  0  0  0  0           0  0  0
    2.8042   -4.7042    0.0000 S   0  0  0  0  0  0           0  0  0
    0.3292   -2.8375    0.0000 C   0  0  0  0  0  0           0  0  0
    0.3292   -3.6667    0.0000 C   0  0  0  0  0  0           0  0  0
    2.8042   -1.7917    0.0000 C   0  0  0  0  0  0           0  0  0
    4.6625   -0.6667    0.0000 C   0  0  0  0  0  0           0  0  0
    3.8667   -5.6625    0.0000 C   0  0  0  0  0  0           0  0  0
    4.6750   -5.8292    0.0000 C   0  0  0  0  0  0           0  0  0
    5.2167   -1.2792    0.0000 C   0  0  0  0  0  0           0  0  0
   -0.4583   -2.5792    0.0000 O   0  0  0  0  0  0           0  0  0
   -0.4583   -3.9250    0.0000 O   0  0  0  0  0  0           0  0  0
    3.6125   -4.8792    0.0000 C   0  0  0  0  0  0           0  0  0
    5.0750    0.0500    0.0000 O   0  0  0  0  0  0           0  0  0
    5.9750   -0.9417    0.0000 O   0  0  0  0  0  0           0  0  0
   -1.0458   -3.1667    0.0000 C   0  0  0  0  0  0           0  0  0
    5.8792   -0.1167    0.0000 C   0  0  0  0  0  0           0  0  0
    3.8542   -0.8417    0.0000 C   0  0  0  0  0  0           0  0  0
    5.2250   -5.2167    0.0000 C   0  0  0  0  0  0           0  0  0
    3.6125   -1.6167    0.0000 C   0  0  0  0  0  0           0  0  0
    4.1417   -2.7750    0.0000 O   0  0  0  0  0  0           0  0  0
    4.9667   -2.0667    0.0000 C   0  0  0  0  0  0           0  0  0
    4.9667   -4.4292    0.0000 C   0  0  0  0  0  0           0  0  0
    4.1750   -3.7417    0.0000 O   0  0  0  0  0  0           0  0  0
    4.1625   -4.2667    0.0000 C   0  0  0  0  0  0           0  0  0
    4.1542   -2.2375    0.0000 C   0  0  0  0  0  0           0  0  0
    4.9292   -6.6167    0.0000 O   0  0  0  0  0  0           0  0  0
    6.0292   -5.3917    0.0000 O   0  0  0  0  0  0           0  0  0
    4.3750   -7.2292    0.0000 C   0  0  0  0  0  0           0  0  0
    6.2875   -6.1750    0.0000 C   0  0  0  0  0  0           0  0  0
  2  1  1  0     0  0
  3  1  2  0     0  0
  4  3  1  0     0  0
  5  2  1  0     0  0
  6  5  2  0     0  0
  7  4  2  0     0  0
  8  1  1  0     0  0
  9  3  1  0     0  0
 10  6  1  0     0  0
 11  7  1  0     0  0
 12  2  1  0     0  0
 13 24  2  0     0  0
 14 19  2  0     0  0
 15 14  1  0     0  0
 16 28  2  0     0  0
 17 10  1  0     0  0
 18 11  1  0     0  0
 19  9  1  0     0  0
 20 13  1  0     0  0
 21 16  1  0     0  0
 22 18  1  0     0  0
 23 20  1  0     0  0
 24 26  1  0     0  0
 25 29  1  0     0  0
 26 12  1  0     0  0
 27  8  2  0     0  0
 28 32  1  0     0  0
 29 31  2  0     0  0
 30  8  1  0     0  0
 31 19  1  0     0  0
 32 26  2  0     0  0
 33 15  1  0     0  0
 34 25  1  0     0  0
 35 33  1  0     0  0
 36 34  1  0     0  0
  5  4  1  0     0  0
 11 10  2  0     0  0
 15 25  2  0     0  0
 17 22  1  0     0  0
 13 16  1  0     0  0
 21 23  1  0     0  0
M  END