
          11280714512D 1   1.00000     0.00000     0

 23 23  0     0  0            999 V2000
    0.2167  -11.0500    0.0000 C   0  0  0  0  0  0           0  0  0
    0.8167  -11.0500    0.0000 C   0  0  0  0  0  0           0  0  0
    2.8250   -8.9375    0.0000 C   0  0  0  0  0  0           0  0  0
   -0.3000  -10.7500    0.0000 C   0  0  0  0  0  0           0  0  0
   -0.3000  -10.1375    0.0000 O   0  0  0  0  0  0           0  0  0
    1.1167  -10.5292    0.0000 O   0  0  0  0  0  0           0  0  0
    2.3042   -9.2417    0.0000 C   0  0  0  0  0  0           0  0  0
    2.8167   -8.3375    0.0000 O   0  0  0  0  0  0           0  0  0
    0.2167   -9.8375    0.0000 C   0  0  0  0  0  0           0  0  0
    1.1167  -11.5625    0.0000 O   0  0  0  0  0  0           0  0  0
    0.2167   -9.2292    0.0000 C   0  0  3  0  0  0           0  0  0
    1.2667   -9.2417    0.0000 N   0  0  0  0  0  0           0  0  0
    3.3417   -9.2292    0.0000 O   0  0  0  0  0  0           0  0  0
    0.2167  -11.6375    0.0000 C   0  0  0  0  0  0           0  0  0
   -0.3000   -8.9375    0.0000 O   0  0  0  0  0  0           0  0  0
    1.7875   -8.9417    0.0000 C   0  0  0  0  0  0           0  0  0
    0.7417   -8.9417    0.0000 C   0  0  0  0  0  0           0  0  0
   -0.8333  -11.0417    0.0000 C   0  0  0  0  0  0           0  0  0
    3.8625   -8.9292    0.0000 C   0  0  0  0  0  0           0  0  0
    1.7167  -11.5625    0.0000 C   0  0  0  0  0  0           0  0  0
   -0.3000  -11.9417    0.0000 C   0  0  0  0  0  0           0  0  0
    4.3875   -9.2250    0.0000 C   0  0  0  0  0  0           0  0  0
   -0.8333  -11.6500    0.0000 C   0  0  0  0  0  0           0  0  0
  2  1  1  0     0  0
  3  7  1  0     0  0
  4  1  1  0     0  0
  5  4  1  0     0  0
  6  2  2  0     0  0
  7 16  1  0     0  0
  8  3  2  0     0  0
  9  5  1  0     0  0
 10  2  1  0     0  0
 11  9  1  0     0  0
 12 17  1  0     0  0
 13  3  1  0     0  0
 14  1  2  0     0  0
 15 11  1  0     0  0
 16 12  1  0     0  0
 17 11  1  0     0  0
 18  4  2  0     0  0
 19 13  1  0     0  0
 20 10  1  0     0  0
 21 14  1  0     0  0
 22 19  1  0     0  0
 23 21  2  0     0  0
 18 23  1  0     0  0
M  END