
  SciTegic11111309142D

 50 54  0  0  1  0            999 V2000
   -0.6012  -15.6348    0.0000 C   0  0
    0.3076  -22.6459    0.0000 C   0  0
    1.0940  -22.8971    0.0000 C   0  0
    1.5756  -22.2289    0.0000 C   0  0
    1.0903  -21.5671    0.0000 C   0  0
    0.3076  -21.8214    0.0000 C   0  0
   -1.7231  -18.3884    0.0000 O   0  0
   -2.2080  -19.0558    0.0000 C   0  0
   -1.9053  -19.8234    0.0000 C   0  0
   -2.4069  -20.4351    0.0000 C   0  0
   -2.1263  -21.1689    0.0000 C   0  0
   -1.3497  -21.2727    0.0000 C   0  0
   -0.8881  -20.6386    0.0000 C   0  0
   -1.2105  -19.9164    0.0000 C   0  0
   -3.2213  -20.3031    0.0000 Cl  0  0
   -0.7165  -19.2557    0.0000 Cl  0  0
   -0.0676  -20.7248    0.0000 S   0  0
    0.0187  -19.9044    0.0000 O   0  0
   -0.1538  -21.5453    0.0000 O   0  0
    1.8048  -21.1546    0.0000 C   0  0
    2.5186  -21.5667    0.0000 N   0  0
    1.8048  -20.3287    0.0000 O   0  0
    2.5186  -22.3934    0.0000 C   0  0
    3.2284  -22.8031    0.0000 C   0  0
    3.9388  -22.3931    0.0000 N   0  0
    3.9388  -21.5712    0.0000 C   0  0
    3.2286  -21.1568    0.0000 C   0  0
    4.6498  -22.8035    0.0000 C   0  0
    4.6498  -23.6241    0.0000 O   0  0
    5.3681  -22.3888    0.0000 C   0  0  2  0  0  0
   -2.0596  -17.6324    0.0000 C   0  0
   -2.7307  -16.1249    0.0000 C   0  0
   -3.2175  -16.7994    0.0000 C   0  0
   -2.8788  -17.5522    0.0000 C   0  0
   -1.9069  -16.2119    0.0000 C   0  0
   -1.5748  -16.9685    0.0000 C   0  0
   -0.7554  -17.0581    0.0000 N   0  0
   -0.2670  -16.3920    0.0000 C   0  0
   -1.4225  -15.5482    0.0000 C   0  0
    0.5558  -16.4804    0.0000 C   0  0
   -1.7583  -14.7918    0.0000 C   0  0
    6.0848  -22.8026    0.0000 C   0  0
    6.8014  -22.3888    0.0000 C   0  0
    7.5181  -22.8026    0.0000 C   0  0
    8.2348  -22.3888    0.0000 N   0  0
    5.3637  -21.5610    0.0000 N   0  3
    6.0781  -21.1434    0.0000 C   0  0
    4.6448  -21.1509    0.0000 C   0  0
    5.3595  -20.7335    0.0000 C   0  0
    0.7525  -20.8144    0.0000 N   0  0
  5 20  1  0
 20 21  1  0
 20 22  2  0
 21 23  1  0
 21 27  1  0
 23 24  1  0
 24 25  1  0
 25 26  1  0
 26 27  1  0
 25 28  1  0
 28 29  2  0
 28 30  1  0
  7 31  1  0
 31 36  2  0
  2  3  1  0
 35 32  2  0
  3  4  1  0
 32 33  1  0
  4  5  1  0
 33 34  2  0
 34 31  1  0
  5  6  1  0
  6  2  1  0
 35 36  1  0
  7  8  1  0
 36 37  1  0
  8  9  1  0
 37 38  2  0
 38  1  1  0
  9 10  2  0
  1 39  2  0
 39 35  1  0
 10 11  1  0
 38 40  1  0
 11 12  2  0
 39 41  1  0
 12 13  1  0
 30 42  1  0
 13 14  2  0
 42 43  1  0
 14  9  1  0
 43 44  1  0
 10 15  1  0
 44 45  1  0
 14 16  1  0
 30 46  1  1
 13 17  1  0
 46 47  1  0
 17 18  2  0
 46 48  1  0
 17 19  2  0
 46 49  1  0
 50  5  1  0
 17 50  1  0
M  CHG  1  46   1
M  END