
  SciTegic09261410572D

 99 94  0  0  0  0            999 V2000
   -4.5314    4.6139    0.0000 C   0  0  2  0  0  0
    3.2999   -4.8966    0.0000 C   0  0  2  0  0  0
    3.0298   -4.1171    0.0000 C   0  0  2  0  0  0
   -4.2614    3.8344    0.0000 C   0  0  2  0  0  0
   -3.9913    5.2376    0.0000 C   0  0  1  0  0  0
    4.1100   -5.0525    0.0000 C   0  0  1  0  0  0
   -5.8816    4.1462    0.0000 S   0  0
    3.0298   -6.2998    0.0000 S   0  0
   -4.5314    2.4312    0.0000 S   0  0
   -5.0715    6.1730    0.0000 S   0  0
    1.6796   -4.5848    0.0000 S   0  0
    5.1902   -5.9880    0.0000 S   0  0
   -1.2909    6.1730    0.0000 S   0  0
    5.7303   -3.1816    0.0000 S   0  0
   -3.1812    5.0816    0.0000 C   0  0  1  0  0  0
    4.6501   -4.4289    0.0000 C   0  0  1  0  0  0
   -3.4512    3.6785    0.0000 C   0  0  2  0  0  0
    3.5699   -3.4934    0.0000 C   0  0  2  0  0  0
   -2.9111    4.3021    0.0000 O   0  0
    4.3801   -3.6493    0.0000 O   0  0
   -5.3415    4.7698    0.0000 O   0  0
    2.7598   -5.5203    0.0000 O   0  0
    2.2197   -3.9612    0.0000 O   0  0
   -4.8015    3.2107    0.0000 O   0  0
   -4.2614    6.0171    0.0000 O   0  0
    4.3801   -5.8321    0.0000 O   0  0
    1.1395   -0.8429    0.0000 C   0  0
   -1.0208    1.0280    0.0000 C   0  0
    0.0594   -2.0902    0.0000 C   0  0
    0.0594    2.2753    0.0000 C   0  0
   -1.2909    1.8075    0.0000 N   0  0
    1.4096   -1.6225    0.0000 N   0  0
    5.4602   -4.5848    0.0000 C   0  0
   -2.6411    5.7053    0.0000 C   0  0
   -1.8310    5.5494    0.0000 O   0  0
    6.0003   -3.9612    0.0000 O   0  0
   -6.4217    3.5225    0.0000 O   0  5
    3.2999   -7.0794    0.0000 O   0  5
    6.0003   -6.1439    0.0000 O   0  5
   -5.8816    6.3289    0.0000 O   0  5
   -4.2614    1.6516    0.0000 O   0  5
    1.1395   -5.2084    0.0000 O   0  5
   -0.7508    6.7967    0.0000 O   0  5
    5.4602   -2.4020    0.0000 O   0  5
    0.0594    0.0925    0.0000 C   0  0
    5.3461   -5.1779    0.0000 O   0  0
   -5.3110    2.1611    0.0000 O   0  0
   -6.5053    4.6863    0.0000 O   0  0
    2.2503   -6.5699    0.0000 O   0  0
    1.0560   -4.0447    0.0000 O   0  0
   -3.7519    2.7012    0.0000 O   0  0
   -4.9156    6.9832    0.0000 O   0  0
    3.8094   -6.0298    0.0000 O   0  0
   -5.2580    3.6061    0.0000 O   0  0
    2.3033   -5.1249    0.0000 O   0  0
    5.0343   -6.7981    0.0000 O   0  0
   -5.2274    5.3629    0.0000 O   0  0
   -0.6672    5.6329    0.0000 O   0  0
    6.5098   -2.9116    0.0000 O   0  0
   -1.9145    6.7131    0.0000 O   0  0
    4.9507   -3.4516    0.0000 O   0  0
    0.3294   -0.6870    0.0000 C   0  0
   -0.2107    0.8721    0.0000 C   0  0
   -0.7508    2.4312    0.0000 C   0  0
    0.8695   -2.2461    0.0000 C   0  0
   -0.4807   -2.7139    0.0000 N   0  0
    0.5994    2.8989    0.0000 N   0  0
   -1.5609    0.4043    0.0000 O   0  0
    1.6796   -0.2193    0.0000 O   0  0
   -0.2107   -1.3107    0.0000 O   0  0
    0.3294    1.4957    0.0000 O   0  0
    3.2999   -2.7139    0.0000 O   0  0
   -3.1812    2.8989    0.0000 O   0  0
   -1.2909   -2.5580    0.0000 C   0  0
    1.4096    2.7430    0.0000 C   0  0
    8.7491    0.0000    0.0000 Na  0  3
    9.7509    0.0000    0.0000 Na  0  3
    0.0000   -8.7294    0.0000 Na  0  3
    1.0018   -8.7294    0.0000 Na  0  3
    2.0036   -8.7294    0.0000 Na  0  3
    0.0000  -10.3794    0.0000 Na  0  3
    1.0018  -10.3794    0.0000 Na  0  3
    2.0036  -10.3794    0.0000 Na  0  3
    2.2197   -1.7784    0.0000 C   0  0
   -2.1010    1.9634    0.0000 C   0  0
    2.4898   -2.5580    0.0000 C   0  0
   -2.3711    2.7430    0.0000 C   0  0
    0.8389    0.3626    0.0000 C   0  0
   -0.7202   -0.1775    0.0000 C   0  0
   -1.5609   -1.7784    0.0000 C   0  0
    1.6796    1.9634    0.0000 C   0  0
    1.9497    3.3666    0.0000 C   0  0
   -1.8310   -3.1816    0.0000 C   0  0
   -2.6411   -3.0257    0.0000 C   0  0
   -2.3711   -1.6225    0.0000 C   0  0
    2.7598    3.2107    0.0000 C   0  0
    2.4898    1.8075    0.0000 C   0  0
    3.0298    2.4312    0.0000 C   0  0
   -2.9111   -2.2461    0.0000 C   0  0
  2  3  1  0
  3 18  1  0
  4  1  1  0
  5  1  1  0
  6 16  1  0
  7 21  1  0
  8 22  1  0
  9 24  1  0
 10 25  1  0
 11 23  1  0
 12 26  1  0
 13 35  1  0
 14 36  1  0
 15  5  1  0
 16 20  1  0
 17  4  1  0
 18 72  1  1
 19 15  1  0
 20 18  1  0
  1 21  1  1
  2 22  1  6
  3 23  1  1
  4 24  1  6
  5 25  1  6
  6 26  1  1
 27 62  1  0
 28 31  1  0
 29 65  1  0
 30 64  1  0
 31 85  1  0
 32 27  1  0
 16 33  1  1
 15 34  1  6
 35 34  1  0
 36 33  1  0
 37  7  1  0
 38  8  1  0
 39 12  1  0
 40 10  1  0
 41  9  1  0
 42 11  1  0
 43 13  1  0
 44 14  1  0
 45 63  1  0
 46 12  2  0
 47  9  2  0
 48  7  2  0
 49  8  2  0
 50 11  2  0
 51  9  2  0
 52 10  2  0
 53  8  2  0
 54  7  2  0
 55 11  2  0
 56 12  2  0
 57 10  2  0
 58 13  2  0
 59 14  2  0
 60 13  2  0
 61 14  2  0
 62 45  1  0
 63 28  1  0
 64 31  1  0
 65 32  1  0
 66 29  1  0
 67 30  1  0
 68 28  2  0
 69 27  2  0
 70 29  2  0
 71 30  2  0
 72 86  1  0
 17 73  1  6
 74 66  1  0
 75 67  1  0
 84 32  1  0
 85 87  1  0
 86 84  1  0
 87 73  1  0
 88 45  1  0
 89 45  1  0
 90 74  1  0
 91 75  1  0
 92 75  1  0
 93 74  1  0
 94 93  1  0
 95 90  1  0
 96 92  1  0
 97 91  1  0
 98 96  1  0
 99 94  1  0
 19 17  1  0
 98 97  1  0
  2  6  1  0
 99 95  1  0
M  CHG  8  37  -1  38  -1  39  -1  40  -1  41  -1  42  -1  43  -1  44  -1
M  CHG  8  76   1  77   1  78   1  79   1  80   1  81   1  82   1  83   1
M  END