
  CDK    9/16/09,10:6

 45 47  0  0  0  0  0  0  0  0999 V2000
   16.6560  -15.2831    0.0000 C   0  0  0  0  0  0  0  0  0  0  0  0
   16.6560  -16.1115    0.0000 C   0  0  0  0  0  0  0  0  0  0  0  0
   17.3722  -16.5257    0.0000 C   0  0  0  0  0  0  0  0  0  0  0  0
   18.0883  -16.1115    0.0000 C   0  0  0  0  0  0  0  0  0  0  0  0
   18.0883  -15.2831    0.0000 C   0  0  0  0  0  0  0  0  0  0  0  0
   17.3722  -14.8689    0.0000 C   0  0  0  0  0  0  0  0  0  0  0  0
   17.3710  -14.0452    0.0000 O   0  0  0  0  0  0  0  0  0  0  0  0
   17.3710  -17.3494    0.0000 O   0  0  0  0  0  0  0  0  0  0  0  0
   15.9435  -14.8753    0.0000 C   0  0  0  0  0  0  0  0  0  0  0  0
   15.9415  -14.0516    0.0000 C   0  0  0  0  0  0  0  0  0  0  0  0
   15.2243  -13.6392    0.0000 C   0  0  0  0  0  0  0  0  0  0  0  0
   16.6520  -13.6356    0.0000 C   0  0  0  0  0  0  0  0  0  0  0  0
   16.6500  -12.8119    0.0000 C   0  0  0  0  0  0  0  0  0  0  0  0
   17.3651  -12.4007    0.0000 C   0  0  0  0  0  0  0  0  0  0  0  0
   15.9375  -12.4041    0.0000 O   0  0  0  0  0  0  0  0  0  0  0  0
   15.9355  -11.5804    0.0000 C   0  0  0  0  0  0  0  0  0  0  0  0
   17.3631  -11.5769    0.0000 C   0  0  0  0  0  0  0  0  0  0  0  0
   18.0776  -12.8085    0.0000 O   0  0  0  0  0  0  0  0  0  0  0  0
   18.0736  -11.1610    0.0000 C   0  0  0  0  0  0  0  0  0  0  0  0
   16.6460  -11.1645    0.0000 C   0  0  0  0  0  0  0  0  0  0  0  0
   18.7908  -11.5735    0.0000 C   0  0  0  0  0  0  0  0  0  0  0  0
   19.5008  -11.1578    0.0000 C   0  0  0  0  0  0  0  0  0  0  0  0
   18.7928  -12.3972    0.0000 C   0  0  0  0  0  0  0  0  0  0  0  0
   20.3232  -11.1552    0.0000 C   0  0  0  0  0  0  0  0  0  0  0  0
   21.0352  -11.5694    0.0000 C   0  0  0  0  0  0  0  0  0  0  0  0
   20.5353  -10.3600    0.0000 O   0  0  0  0  0  0  0  0  0  0  0  0
   19.4204  -10.3387    0.0000 O   0  0  0  0  0  0  0  0  0  0  0  0
   18.6701  -10.0005    0.0000 C   0  0  0  0  0  0  0  0  0  0  0  0
   18.5858   -9.1761    0.0000 O   0  0  0  0  0  0  0  0  0  0  0  0
   18.0003  -10.4814    0.0000 N   0  0  0  0  0  0  0  0  0  0  0  0
   21.3350  -10.1476    0.0000 C   0  0  0  0  0  0  0  0  0  0  0  0
   21.0332  -12.3931    0.0000 C   0  0  0  0  0  0  0  0  0  0  0  0
   20.3160  -12.8009    0.0000 C   0  0  0  0  0  0  0  0  0  0  0  0
   20.3139  -13.6246    0.0000 C   0  0  0  0  0  0  0  0  0  0  0  0
   21.0291  -14.0405    0.0000 C   0  0  0  0  0  0  0  0  0  0  0  0
   18.8048  -14.8743    0.0000 N   0  0  0  0  0  0  0  0  0  0  0  0
   18.8057  -14.0506    0.0000 C   0  0  0  0  0  0  0  0  0  0  0  0
   18.0900  -13.6356    0.0000 O   0  0  0  0  0  0  0  0  0  0  0  0
   15.9445  -16.5257    0.0000 N   0  0  0  0  0  0  0  0  0  0  0  0
   15.2175  -16.1095    0.0000 C   0  0  0  0  0  0  0  0  0  0  0  0
   14.4937  -16.5309    0.0000 C   0  0  0  0  0  0  0  0  0  0  0  0
   13.7667  -16.1146    0.0000 N   0  0  0  0  0  0  0  0  0  0  0  0
   13.5484  -15.3092    0.0000 C   0  0  0  0  0  0  0  0  0  0  0  0
   12.7401  -15.5289    0.0000 C   0  0  0  0  0  0  0  0  0  0  0  0
   12.9598  -16.3372    0.0000 C   0  0  0  0  0  0  0  0  0  0  0  0
 10 11  1  1  0  0  0 
 21 23  1  0  0  0  0 
  4  5  2  0  0  0  0 
 22 24  1  0  0  0  0 
 10 12  1  0  0  0  0 
 24 25  1  0  0  0  0 
  5  6  1  0  0  0  0 
 24 26  1  1  0  0  0 
 12 13  1  0  0  0  0 
 22 27  1  6  0  0  0 
 27 28  1  0  0  0  0 
 13 14  1  0  0  0  0 
 28 29  2  0  0  0  0 
  6  7  2  0  0  0  0 
 28 30  1  0  0  0  0 
 13 15  1  6  0  0  0 
 26 31  1  0  0  0  0 
  1  2  2  0  0  0  0 
 25 32  2  0  0  0  0 
 15 16  1  0  0  0  0 
 32 33  1  0  0  0  0 
  3  8  2  0  0  0  0 
 33 34  2  0  0  0  0 
 14 17  1  0  0  0  0 
 34 35  1  0  0  0  0 
  1  6  1  0  0  0  0 
  5 36  1  0  0  0  0 
 14 18  1  1  0  0  0 
 36 37  1  0  0  0  0 
  1  9  1  0  0  0  0 
 37 38  2  0  0  0  0 
 37 34  1  0  0  0  0 
 17 19  1  0  0  0  0 
  2 39  1  0  0  0  0 
  2  3  1  0  0  0  0 
 39 40  1  0  0  0  0 
 17 20  1  1  0  0  0 
 40 41  1  0  0  0  0 
  9 10  1  0  0  0  0 
 41 42  1  0  0  0  0 
 42 43  1  0  0  0  0 
 19 21  2  0  0  0  0 
  3  4  1  0  0  0  0 
 21 22  1  0  0  0  0 
 43 44  1  0  0  0  0 
 44 45  1  0  0  0  0 
 45 42  1  0  0  0  0 
M  END