
  SciTegic01161211252D

 21 19  0  0  0  0            999 V2000
    5.1667   -5.9167    0.0000 C   0  0
    5.1542   -7.5667    0.0000 C   0  0
    4.4500   -7.1542    0.0000 C   0  0
    4.4542   -6.3292    0.0000 C   0  0
    5.8792   -6.3292    0.0000 O   0  0
    5.8750   -7.1625    0.0000 O   0  0
    6.0000   -3.9917    0.0000 N   0  0
    5.1542   -8.3917    0.0000 O   0  0
    5.1667   -5.0917    0.0000 O   0  0
    6.7167   -3.5792    0.0000 C   0  0
    4.5750   -3.9875    0.0000 C   0  0
    3.1500   -3.9875    0.0000 O   0  0
    5.2875   -3.5750    0.0000 C   0  0
    3.8625   -3.5750    0.0000 C   0  0
    4.5750   -4.8125    0.0000 O   0  0
    2.4292   -3.5750    0.0000 C   0  0
    6.7167   -2.7542    0.0000 C   0  0
    7.4292   -3.9917    0.0000 C   0  0
    7.3000   -3.0000    0.0000 C   0  0
    1.7167   -3.9875    0.0000 C   0  0
    2.4375   -2.7500    0.0000 C   0  0
  2  3  1  0
  3  4  2  0
  4  1  1  0
  5  1  1  0
  6  2  1  0
  8  2  2  0
  9  1  2  0
 10  7  1  0
 11 13  1  0
 12 14  1  0
 13  7  1  0
 14 11  1  0
 15 11  1  0
 16 12  1  0
 17 10  1  0
 18 10  1  0
 19 10  1  0
 20 16  1  0
 21 16  1  0
M  END