
  SciTegic01161211242D

 18 17  0  0  0  0            999 V2000
    2.5973   -1.5031    0.0000 C   0  0  1  0  0  0
    2.5951   -3.0039    0.0000 C   0  0  2  0  0  0
    3.8933   -3.7570    0.0000 C   0  0
    3.8999   -0.7576    0.0000 C   0  0
    1.2990   -0.7500    0.0000 C   0  0
    5.1972   -1.5121    0.0000 N   0  0
    1.5548   -3.6021    0.0000 O   0  0
    8.9998   -1.8789    0.0000 Cl  0  0
    3.8916   -4.9570    0.0000 C   0  0
    4.9336   -3.1588    0.0000 C   0  0
    4.9316   -4.3586    0.0000 C   0  0
    1.2990    0.7500    0.0000 C   0  0
    0.0000   -1.5000    0.0000 C   0  0
    6.2387   -0.9161    0.0000 C   0  0
    5.1931   -2.7121    0.0000 C   0  0
   -1.2990   -0.7500    0.0000 C   0  0
    0.0000    1.5000    0.0000 C   0  0
   -1.2990    0.7500    0.0000 C   0  0
  1  2  1  0
  2  3  1  0
  1  4  1  0
  1  5  1  6
  4  6  1  0
  2  7  1  6
  3  9  1  0
  3 10  1  0
  3 11  1  0
  5 12  2  0
  5 13  1  0
  6 14  1  0
  6 15  1  0
 13 16  2  0
 12 17  1  0
 16 18  1  0
 17 18  2  0
M  END