
          11280715272D 1   1.00000     0.00000     0

 48 50  0     0  0            999 V2000
   -0.0500   -5.1000    0.0000 N   0  0  3  0  0  0           0  0  0
   -0.1958   -5.9125    0.0000 C   0  0  0  0  0  0           0  0  0
    1.1625   -6.4917    0.0000 C   0  0  0  0  0  0           0  0  0
    0.3375   -6.5292    0.0000 C   0  0  0  0  0  0           0  0  0
    0.6667   -4.7125    0.0000 C   0  0  0  0  0  0           0  0  0
    1.6500   -5.8292    0.0000 N   0  0  0  0  0  0           0  0  0
    1.4292   -5.0292    0.0000 C   0  0  0  0  0  0           0  0  0
   -0.7708   -4.6917    0.0000 C   0  0  0  0  0  0           0  0  0
    0.5750   -3.8917    0.0000 N   0  0  0  0  0  0           0  0  0
    1.5542   -7.2250    0.0000 O   0  0  0  0  0  0           0  0  0
   -1.4833   -5.1042    0.0000 O   0  0  0  0  0  0           0  0  0
    8.5042   -0.1292    0.0000 N   0  0  3  0  0  0           0  0  0
    2.0875    0.2625    0.0000 N   0  0  3  0  0  0           0  0  0
    0.0667   -7.3042    0.0000 C   0  0  0  0  0  0           0  0  0
   -1.0000   -6.0625    0.0000 C   0  0  0  0  0  0           0  0  0
   -0.7708   -1.3917    0.0000 N   0  0  0  0  0  0           0  0  0
   10.6542   -2.1917    0.0000 N   0  0  0  0  0  0           0  0  0
   -0.7708   -3.8667    0.0000 C   0  0  0  0  0  0           0  0  0
    2.0917   -4.5417    0.0000 C   0  0  0  0  0  0           0  0  0
    1.2292   -3.4000    0.0000 C   0  0  0  0  0  0           0  0  0
    7.7917    0.2750    0.0000 C   0  0  0  0  0  0           0  0  0
    9.2167    0.2833    0.0000 C   0  0  0  0  0  0           0  0  0
    1.3750   -0.1500    0.0000 C   0  0  0  0  0  0           0  0  0
    2.8042   -0.1500    0.0000 C   0  0  0  0  0  0           0  0  0
   -0.7708   -2.2167    0.0000 C   0  0  0  0  0  0           0  0  0
   -1.4833   -0.9792    0.0000 C   0  0  0  0  0  0           0  0  0
    8.5042   -0.9542    0.0000 C   0  0  0  0  0  0           0  0  0
    2.0875    1.0875    0.0000 C   0  0  0  0  0  0           0  0  0
   10.6417   -1.3667    0.0000 C   0  0  0  0  0  0           0  0  0
   -1.4833   -3.4542    0.0000 C   0  0  0  0  0  0           0  0  0
    3.5167    0.2625    0.0000 C   0  0  0  0  0  0           0  0  0
    9.9292   -0.1292    0.0000 C   0  0  0  0  0  0           0  0  0
    0.6542    0.2625    0.0000 C   0  0  0  0  0  0           0  0  0
    7.0792   -0.1375    0.0000 C   0  0  0  0  0  0           0  0  0
   -1.4833   -0.1542    0.0000 C   0  0  0  0  0  0           0  0  0
   -1.4833   -2.6292    0.0000 C   0  0  0  0  0  0           0  0  0
   11.3625   -0.9542    0.0000 C   0  0  0  0  0  0           0  0  0
    1.9917   -3.7292    0.0000 C   0  0  0  0  0  0           0  0  0
   -0.7375   -7.4542    0.0000 C   0  0  0  0  0  0           0  0  0
   -1.2750   -6.8292    0.0000 C   0  0  0  0  0  0           0  0  0
   10.6417    0.2833    0.0000 C   0  0  0  0  0  0           0  0  0
   -0.0583   -0.1500    0.0000 C   0  0  0  0  0  0           0  0  0
   -0.7708    0.2583    0.0000 C   0  0  0  0  0  0           0  0  0
   11.3542   -0.1292    0.0000 C   0  0  0  0  0  0           0  0  0
    5.6542   -0.1417    0.0000 C   0  0  0  0  0  0           0  0  0
    6.3667    0.2708    0.0000 C   0  0  0  0  0  0           0  0  0
    4.2292   -0.1417    0.0000 C   0  0  0  0  0  0           0  0  0
    4.9417    0.2708    0.0000 C   0  0  0  0  0  0           0  0  0
  2  1  1  0     0  0
  3  4  1  0     0  0
  4  2  2  0     0  0
  5  1  1  0     0  0
  6  7  1  0     0  0
  7  5  2  0     0  0
  8  1  1  0     0  0
  9  5  1  0     0  0
 10  3  2  0     0  0
 11  8  2  0     0  0
 12 21  1  0     0  0
 13 23  1  0     0  0
 14  4  1  0     0  0
 15  2  1  0     0  0
 16 25  1  0     0  0
 17 29  1  0     0  0
 18  8  1  0     0  0
 19  7  1  0     0  0
 20  9  2  0     0  0
 21 34  1  0     0  0
 22 12  1  0     0  0
 23 33  1  0     0  0
 24 13  1  0     0  0
 25 36  1  0     0  0
 26 16  1  0     0  0
 27 12  1  0     0  0
 28 13  1  0     0  0
 29 37  1  0     0  0
 30 18  1  0     0  0
 31 24  1  0     0  0
 32 22  1  0     0  0
 33 42  1  0     0  0
 34 46  1  0     0  0
 35 26  1  0     0  0
 36 30  1  0     0  0
 37 44  1  0     0  0
 38 20  1  0     0  0
 39 40  1  0     0  0
 40 15  2  0     0  0
 41 32  1  0     0  0
 42 43  1  0     0  0
 43 35  1  0     0  0
 44 41  1  0     0  0
 45 48  1  0     0  0
 46 45  1  0     0  0
 47 31  1  0     0  0
 48 47  1  0     0  0
  3  6  1  0     0  0
 19 38  2  0     0  0
 14 39  2  0     0  0
M  END