
          11280715332D 1   1.00000     0.00000     0

 54 57  0     1  0            999 V2000
    3.7625   -3.3292    0.0000 C   0  0  1  0  0  0           0  0  0
    5.9042   -2.9167    0.0000 C   0  0  1  0  0  0           0  0  0
    3.0500   -2.9167    0.0000 C   0  0  0  0  0  0           0  0  0
    6.6167   -3.3292    0.0000 C   0  0  0  0  0  0           0  0  0
    4.4792   -2.9167    0.0000 C   0  0  1  0  0  0           0  0  0
    5.1917   -3.3292    0.0000 C   0  0  1  0  0  0           0  0  0
    2.3375   -3.3292    0.0000 N   0  0  3  0  0  0           0  0  0
    7.3375   -2.9167    0.0000 N   0  0  3  0  0  0           0  0  0
    1.6167   -2.9167    0.0000 C   0  0  3  0  0  0           0  0  0
    8.0500   -3.3292    0.0000 C   0  0  3  0  0  0           0  0  0
    5.9042   -2.0917    0.0000 O   0  0  0  0  0  0           0  0  0
    3.7625   -4.1542    0.0000 O   0  0  0  0  0  0           0  0  0
    1.6167   -2.0917    0.0000 C   0  0  0  0  0  0           0  0  0
    8.0500   -4.1542    0.0000 C   0  0  0  0  0  0           0  0  0
    3.0500   -2.0917    0.0000 O   0  0  0  0  0  0           0  0  0
    6.6167   -4.1542    0.0000 O   0  0  0  0  0  0           0  0  0
    8.7667   -2.9167    0.0000 C   0  0  0  0  0  0           0  0  0
    0.9042   -3.3292    0.0000 C   0  0  0  0  0  0           0  0  0
    2.3375   -1.6792    0.0000 O   0  0  0  0  0  0           0  0  0
    7.3375   -4.5667    0.0000 O   0  0  0  0  0  0           0  0  0
    5.1917   -4.1542    0.0000 O   0  0  0  0  0  0           0  0  0
    4.4792   -2.0917    0.0000 O   0  0  0  0  0  0           0  0  0
    6.6917   -1.6542    0.0000 C   0  0  0  0  0  0           0  0  0
    3.0500   -4.5667    0.0000 C   0  0  0  0  0  0           0  0  0
    0.1917   -2.9167    0.0000 C   0  0  0  0  0  0           0  0  0
    9.4792   -3.3292    0.0000 C   0  0  0  0  0  0           0  0  0
    0.9042   -1.6792    0.0000 O   0  0  0  0  0  0           0  0  0
    8.7667   -4.5667    0.0000 O   0  0  0  0  0  0           0  0  0
   -1.2333   -2.0875    0.0000 C   0  0  0  0  0  0           0  0  0
   10.9042   -4.1542    0.0000 C   0  0  0  0  0  0           0  0  0
    2.3375   -4.1542    0.0000 C   0  0  0  0  0  0           0  0  0
    7.3375   -2.0917    0.0000 C   0  0  0  0  0  0           0  0  0
   -0.5208   -3.3250    0.0000 C   0  0  0  0  0  0           0  0  0
    9.4792   -4.1542    0.0000 C   0  0  0  0  0  0           0  0  0
    0.1917   -2.0875    0.0000 C   0  0  0  0  0  0           0  0  0
   10.1917   -2.9167    0.0000 C   0  0  0  0  0  0           0  0  0
   10.1917   -4.5667    0.0000 C   0  0  0  0  0  0           0  0  0
   -0.5208   -1.6750    0.0000 C   0  0  0  0  0  0           0  0  0
   10.9042   -3.3250    0.0000 C   0  0  0  0  0  0           0  0  0
   -1.2333   -2.9167    0.0000 C   0  0  0  0  0  0           0  0  0
    3.0500   -5.3917    0.0000 C   0  0  0  0  0  0           0  0  0
    6.6625   -0.8292    0.0000 C   0  0  0  0  0  0           0  0  0
   -1.9458   -1.6792    0.0000 O   0  0  0  0  0  0           0  0  0
   11.6167   -4.5667    0.0000 O   0  0  0  0  0  0           0  0  0
    3.7625   -5.8042    0.0000 C   0  0  0  0  0  0           0  0  0
    5.9292   -0.4417    0.0000 C   0  0  0  0  0  0           0  0  0
    7.3625   -0.3917    0.0000 C   0  0  0  0  0  0           0  0  0
    2.3292   -5.8042    0.0000 C   0  0  0  0  0  0           0  0  0
    7.3292    0.4333    0.0000 C   0  0  0  0  0  0           0  0  0
    5.9042    0.3833    0.0000 C   0  0  0  0  0  0           0  0  0
    2.3292   -6.6292    0.0000 C   0  0  0  0  0  0           0  0  0
    3.7667   -6.6292    0.0000 C   0  0  0  0  0  0           0  0  0
    3.0500   -7.0417    0.0000 C   0  0  0  0  0  0           0  0  0
    6.6042    0.8208    0.0000 C   0  0  0  0  0  0           0  0  0
  2  6  1  0     0  0
  3  1  1  0     0  0
  4  2  1  0     0  0
  5  1  1  0     0  0
  6  5  1  0     0  0
  7  3  1  0     0  0
  8  4  1  0     0  0
  9  7  1  0     0  0
 10  8  1  0     0  0
  2 11  1  1     0  0
  1 12  1  1     0  0
 13  9  1  0     0  0
 14 10  1  0     0  0
 15  3  2  0     0  0
 16  4  2  0     0  0
 17 10  1  0     0  0
 18  9  1  0     0  0
 19 13  2  0     0  0
 20 14  2  0     0  0
  6 21  1  6     0  0
  5 22  1  6     0  0
 23 11  1  0     0  0
 24 12  1  0     0  0
 25 18  1  0     0  0
 26 17  1  0     0  0
 27 13  1  0     0  0
 28 14  1  0     0  0
 29 38  2  0     0  0
 30 39  1  0     0  0
 31  7  1  0     0  0
 32  8  1  0     0  0
 33 25  1  0     0  0
 34 26  2  0     0  0
 35 25  2  0     0  0
 36 26  1  0     0  0
 37 34  1  0     0  0
 38 35  1  0     0  0
 39 36  2  0     0  0
 40 33  2  0     0  0
 41 24  1  0     0  0
 42 23  1  0     0  0
 43 29  1  0     0  0
 44 30  1  0     0  0
 45 41  1  0     0  0
 46 42  1  0     0  0
 47 42  2  0     0  0
 48 41  2  0     0  0
 49 47  1  0     0  0
 50 46  2  0     0  0
 51 48  1  0     0  0
 52 45  2  0     0  0
 53 51  2  0     0  0
 54 49  2  0     0  0
 53 52  1  0     0  0
 29 40  1  0     0  0
 54 50  1  0     0  0
 30 37  2  0     0  0
M  END