
  SciTegic01161211252D

 31 34  0  0  0  0            999 V2000
    8.1375   -4.3708    0.0000 O   0  0
    7.4250   -4.7875    0.0000 S   0  0
    8.1421   -5.1962    0.0000 O   0  0
    8.1095   -2.7166    0.0000 C   0  0
    8.7687   -2.2206    0.0000 C   0  0
    8.5025   -1.4397    0.0000 C   0  0
    7.6750   -1.4531    0.0000 N   0  0
    7.4362   -2.2419    0.0000 N   0  0
    7.1788   -0.7936    0.0000 C   0  0
    7.5023   -0.0335    0.0000 C   0  0
    7.0060    0.6246    0.0000 C   0  0
    6.1863    0.5238    0.0000 C   0  0
    5.8653   -0.2408    0.0000 C   0  0
    6.3635   -0.8957    0.0000 C   0  0
    8.9786   -0.7686    0.0000 C   0  0
    9.8013   -0.8437    0.0000 C   0  0
   10.2758   -0.1698    0.0000 C   0  0
    9.9288    0.5797    0.0000 C   0  0
    9.1026    0.6511    0.0000 C   0  0
    8.6317   -0.0238    0.0000 C   0  0
    8.1222   -3.5415    0.0000 C   0  0
    7.4141   -3.9650    0.0000 N   0  0
    8.8429   -3.9430    0.0000 N   0  0
    5.6884    1.1817    0.0000 Cl  0  0
    9.5509   -3.5196    0.0000 C   0  0
    6.7188   -5.2133    0.0000 N   0  0
    6.0002   -4.8075    0.0000 C   0  0
    5.2926   -5.2302    0.0000 C   0  0
    5.3049   -6.0560    0.0000 C   0  0
    6.0306   -6.4572    0.0000 C   0  0
    6.7352   -6.0322    0.0000 C   0  0
 15 16  2  0
  2  1  2  0
 16 17  1  0
  3  2  2  0
 17 18  2  0
  9 10  2  0
 18 19  1  0
  4  5  1  0
 19 20  2  0
 20 15  1  0
  6 15  1  0
 10 11  1  0
  4 21  1  0
 21 22  2  0
 11 12  2  0
 21 23  1  0
  5  6  1  0
 12 24  1  0
 12 13  1  0
 23 25  1  0
 22  2  1  0
  6  7  1  0
  2 26  1  0
 13 14  2  0
 26 27  1  0
 14  9  1  0
 27 28  1  0
  7  9  1  0
 28 29  1  0
  7  8  1  0
 29 30  1  0
  8  4  2  0
 30 31  1  0
 31 26  1  0
M  END