
  Mrv0541 05211314572D          

 18 20  0  0  0  0            999 V2000
    1.8880    1.4098    0.0000 C   0  0  0  0  0  0  0  0  0  0  0  0
    1.8880    0.5848    0.0000 C   0  0  0  0  0  0  0  0  0  0  0  0
    1.1736    0.1723    0.0000 C   0  0  0  0  0  0  0  0  0  0  0  0
    1.1736    1.8223    0.0000 C   0  0  0  0  0  0  0  0  0  0  0  0
    0.4591    1.4098    0.0000 C   0  0  0  0  0  0  0  0  0  0  0  0
    0.4591    0.5848    0.0000 C   0  0  0  0  0  0  0  0  0  0  0  0
   -0.3255    0.3299    0.0000 S   0  0  0  0  0  0  0  0  0  0  0  0
   -0.8104    0.9973    0.0000 C   0  0  0  0  0  0  0  0  0  0  0  0
   -0.3255    1.6647    0.0000 N   0  0  0  0  0  0  0  0  0  0  0  0
   -1.6354    0.9973    0.0000 N   0  0  0  0  0  0  0  0  0  0  0  0
   -2.0479    0.2828    0.0000 C   0  0  0  0  0  0  0  0  0  0  0  0
   -2.8729    0.2828    0.0000 C   0  0  0  0  0  0  0  0  0  0  0  0
   -3.2854    0.9973    0.0000 N   0  0  0  0  0  0  0  0  0  0  0  0
   -2.8729    1.7118    0.0000 C   0  0  0  0  0  0  0  0  0  0  0  0
   -2.0479    1.7118    0.0000 C   0  0  0  0  0  0  0  0  0  0  0  0
   -4.1104    0.9973    0.0000 C   0  0  0  0  0  0  0  0  0  0  0  0
   -4.5229    1.7118    0.0000 C   0  0  0  0  0  0  0  0  0  0  0  0
   -5.3479    1.7118    0.0000 C   0  0  0  0  0  0  0  0  0  0  0  0
  8  9  2  0  0  0  0
  9  5  1  0  0  0  0
  4  1  1  0  0  0  0
  8 10  1  0  0  0  0
 10 11  1  0  0  0  0
  5  6  1  0  0  0  0
  2  3  1  0  0  0  0
  3  6  2  0  0  0  0
  1  2  2  0  0  0  0
 10 15  1  0  0  0  0
 11 12  1  0  0  0  0
 12 13  1  0  0  0  0
 13 14  1  0  0  0  0
 14 15  1  0  0  0  0
  5  4  2  0  0  0  0
 13 16  1  0  0  0  0
  6  7  1  0  0  0  0
 16 17  1  0  0  0  0
  7  8  1  0  0  0  0
 17 18  1  0  0  0  0
M  END