
  SciTegic04091415032D

 23 24  0  0  0  0            999 V2000
    4.9897  -11.9894    0.0000 C   0  0
    5.7029  -12.4041    0.0000 C   0  0
    6.4186  -11.9937    0.0000 C   0  0
    7.1318  -12.4082    0.0000 C   0  0
    6.4210  -11.1687    0.0000 C   0  0
    7.1294  -13.2332    0.0000 C   0  0
    7.8426  -13.6478    0.0000 C   0  0
    7.8402  -14.4728    0.0000 C   0  0
    8.5535  -14.8873    0.0000 C   0  0
    7.1246  -14.8832    0.0000 C   0  0
    8.5510  -15.7123    0.0000 C   0  0
    7.8354  -16.1227    0.0000 O   0  0
    9.2643  -16.1270    0.0000 O   0  0
    4.9965  -11.1612    0.0000 C   0  0
    4.2873  -10.7468    0.0000 C   0  0
    3.5692  -11.1536    0.0000 C   0  0  1  0  0  0
    4.2785  -12.3986    0.0000 C   0  0
    3.5638  -11.9780    0.0000 C   0  0
    2.8442  -12.3866    0.0000 C   0  0
    2.8381  -13.2157    0.0000 C   0  0
    3.5577  -13.6346    0.0000 C   0  0
    4.2744  -13.2235    0.0000 C   0  0
    2.8579  -10.7359    0.0000 C   0  0
  1  2  2  0
  2  3  1  0
  3  4  2  0
  3  5  1  0
  4  6  1  0
  6  7  2  0
  7  8  1  0
  8  9  2  0
  8 10  1  0
  9 11  1  0
 11 12  1  0
 11 13  2  0
  1 14  1  0
  1 17  1  0
 14 15  1  0
 15 16  1  0
 16 18  1  0
 17 18  2  0
 18 19  1  0
 19 20  2  0
 20 21  1  0
 21 22  2  0
 22 17  1  0
 16 23  1  1
M  END