
  SciTegic01091216402D

 22 23  0  0  0  0            999 V2000
    4.5100   -2.7942    0.0000 N   0  0
    4.6124   -3.6114    0.0000 N   0  0
    5.4187   -3.7666    0.0000 C   0  0
    5.8159   -3.0477    0.0000 C   0  0
    5.2576   -2.4441    0.0000 C   0  0
    3.7888   -2.3934    0.0000 C   0  0
    3.0825   -2.8175    0.0000 N   0  0
    3.7741   -1.5685    0.0000 N   0  0
    6.6354   -2.9489    0.0000 C   0  0
    7.1342   -3.6072    0.0000 C   0  0
    4.4803   -1.1444    0.0000 C   0  0
    5.2014   -1.5452    0.0000 C   0  0
    2.3615   -2.4167    0.0000 S   0  0
    1.6383   -2.8030    0.0000 C   0  0
    1.6116   -3.6264    0.0000 C   0  0
    0.8837   -4.0149    0.0000 C   0  0
    0.1826   -3.5800    0.0000 C   0  0
    0.2094   -2.7566    0.0000 C   0  0
    0.9372   -2.3681    0.0000 C   0  0
    0.8570   -4.8383    0.0000 Cl  0  0
    1.7730   -1.8284    0.0000 O   0  0
    2.7674   -1.6994    0.0000 O   0  0
  2  3  2  0
  3  4  1  0
  4  5  1  0
  1  5  1  0
  6  7  2  0
  6  8  1  0
  1  6  1  0
  9 10  1  0
  4  9  1  0
 11 12  1  0
  8 11  1  0
 14 15  1  0
 15 16  2  0
 16 17  1  0
 17 18  2  0
 18 19  1  0
 14 19  2  0
 13 14  1  0
 16 20  1  0
  7 13  1  0
 13 21  2  0
  1  2  1  0
 13 22  2  0
M  END