
  CDK    9/16/09,10:0

 27 29  0  0  0  0  0  0  0  0999 V2000
    3.2491  -16.6926    0.0000 N   0  0  0  0  0  0  0  0  0  0  0  0
    3.6652  -15.9828    0.0000 C   0  0  0  0  0  0  0  0  0  0  0  0
    3.2572  -15.2701    0.0000 C   0  0  0  0  0  0  0  0  0  0  0  0
    2.4319  -15.2648    0.0000 C   0  0  0  0  0  0  0  0  0  0  0  0
    2.0163  -15.9786    0.0000 C   0  0  0  0  0  0  0  0  0  0  0  0
    2.4260  -16.6976    0.0000 C   0  0  0  0  0  0  0  0  0  0  0  0
    3.6614  -17.4072    0.0000 C   0  0  0  0  0  0  0  0  0  0  0  0
    3.2487  -18.1215    0.0000 C   0  0  0  0  0  0  0  0  0  0  0  0
    4.4863  -17.4075    0.0000 C   0  0  0  0  0  0  0  0  0  0  0  0
   -4.2088  -14.9821    0.0000 C   0  0  0  0  0  0  0  0  0  0  0  0
   -4.2101  -15.8097    0.0000 C   0  0  0  0  0  0  0  0  0  0  0  0
   -3.4972  -16.2225    0.0000 C   0  0  0  0  0  0  0  0  0  0  0  0
   -2.7779  -15.8092    0.0000 C   0  0  0  0  0  0  0  0  0  0  0  0
   -2.7811  -14.9782    0.0000 C   0  0  0  0  0  0  0  0  0  0  0  0
   -3.4991  -14.5693    0.0000 C   0  0  0  0  0  0  0  0  0  0  0  0
   -2.0687  -14.5620    0.0000 C   0  0  0  0  0  0  0  0  0  0  0  0
   -1.3522  -14.9710    0.0000 C   0  0  0  0  0  0  0  0  0  0  0  0
   -1.2593  -15.7909    0.0000 C   0  0  0  0  0  0  0  0  0  0  0  0
   -0.4515  -15.9584    0.0000 N   0  0  0  0  0  0  0  0  0  0  0  0
   -0.0429  -15.2423    0.0000 C   0  0  0  0  0  0  0  0  0  0  0  0
   -0.5976  -14.6317    0.0000 N   0  0  0  0  0  0  0  0  0  0  0  0
   -4.9251  -16.2211    0.0000 Cl  0  0  0  0  0  0  0  0  0  0  0  0
   -0.4297  -13.8240    0.0000 C   0  0  0  0  0  0  0  0  0  0  0  0
    0.7820  -15.2497    0.0000 O   0  0  0  0  0  0  0  0  0  0  0  0
   -2.0727  -13.7372    0.0000 O   0  0  0  0  0  0  0  0  0  0  0  0
    1.2009  -14.5391    0.0000 C   0  0  0  0  0  0  0  0  0  0  0  0
    2.0259  -14.5467    0.0000 C   0  0  0  0  0  0  0  0  0  0  0  0
 13 14  1  0  0  0  0 
  1  7  1  0  0  0  0 
 14 15  2  0  0  0  0 
 15 10  1  0  0  0  0 
 14 16  1  0  0  0  0 
  7  8  1  0  0  0  0 
 16 17  1  0  0  0  0 
 17 18  2  0  0  0  0 
  1  6  1  0  0  0  0 
  7  9  1  0  0  0  0 
  2  3  1  0  0  0  0 
  3  4  1  0  0  0  0 
 18 19  1  0  0  0  0 
 19 20  2  0  0  0  0 
 20 21  1  0  0  0  0 
 21 17  1  0  0  0  0 
 10 11  2  0  0  0  0 
 11 22  1  0  0  0  0 
  4  5  1  0  0  0  0 
 21 23  1  0  0  0  0 
 11 12  1  0  0  0  0 
 20 24  1  0  0  0  0 
  5  6  1  0  0  0  0 
 16 25  2  0  0  0  0 
 12 13  2  0  0  0  0 
 24 26  1  0  0  0  0 
  1  2  1  0  0  0  0 
 26 27  1  0  0  0  0 
 27  4  1  0  0  0  0 
M  END