
  SciTegic01161211252D

 42 44  0  0  0  0            999 V2000
    5.0292   -0.5167    0.0000 C   0  0
    5.0250    0.3083    0.0000 C   0  0
    4.3167   -0.9375    0.0000 C   0  0
    3.6000   -0.5250    0.0000 C   0  0
    6.4542   -0.5167    0.0000 S   0  0
    3.6000   -2.1792    0.0000 S   0  0
    4.3042    1.5333    0.0000 S   0  0
    4.3042    0.7208    0.0000 O   0  0
    0.7417    0.3000    0.0000 S   0  0
    7.8667    2.7958    0.0000 S   0  0
    3.6000    0.3000    0.0000 C   0  0
    5.7375    0.7208    0.0000 C   0  0
    2.8792   -0.9417    0.0000 C   0  0
    5.7292    1.5458    0.0000 C   0  0
    5.7417   -0.9292    0.0000 O   0  0
    2.8792   -1.7667    0.0000 O   0  0
    5.0125    1.9583    0.0000 O   0  0
    2.8792    0.7125    0.0000 C   0  0
    2.1667    0.3000    0.0000 C   0  0
    2.1667   -0.5292    0.0000 C   0  0
    6.4417    1.9625    0.0000 C   0  0
    1.4542    0.7125    0.0000 O   0  0
    6.4542    0.3125    0.0000 C   0  0
    7.8750    1.9708    0.0000 O   0  0
    6.8750   -1.2292    0.0000 O   0  0
    3.8792    2.2458    0.0000 O   0  0
    3.1917   -2.8917    0.0000 O   0  0
    0.3292    1.0125    0.0000 O   0  0
    8.6917    2.8083    0.0000 O   0  0
    6.0417    0.1958    0.0000 O   0  0
    3.7625   -1.4042    0.0000 O   0  0
    4.3167   -2.5792    0.0000 O   0  0
    3.5917    1.1083    0.0000 O   0  0
    4.7250    0.8208    0.0000 O   0  0
    7.1667   -0.0917    0.0000 O   0  0
    7.8542    3.6208    0.0000 O   0  0
    7.0375    2.7875    0.0000 O   0  0
    1.1542   -0.4125    0.0000 O   0  0
    0.0292   -0.1167    0.0000 O   0  0
    4.3167   -1.7625    0.0000 O   0  0
    7.1625    1.5583    0.0000 C   0  0
    7.1667    0.7333    0.0000 C   0  0
  2  1  2  0
  3  1  1  0
  4  3  1  0
  5 15  1  0
  6 16  1  0
  7 17  1  0
  8  2  1  0
  9 22  1  0
 10 24  1  0
 11  4  1  0
 12  2  1  0
 13  4  2  0
 14 12  1  0
 15  1  1  0
 16 13  1  0
 17 14  1  0
 18 11  2  0
 19 20  2  0
 20 13  1  0
 21 14  2  0
 22 19  1  0
 23 12  2  0
 24 41  1  0
 25  5  1  0
 26  7  1  0
 27  6  1  0
 28  9  1  0
 29 10  1  0
 30  5  2  0
 31  6  2  0
 32  6  2  0
 33  7  2  0
 34  7  2  0
 35  5  2  0
 36 10  2  0
 37 10  2  0
 38  9  2  0
 39  9  2  0
 40  3  2  0
 41 42  2  0
 42 23  1  0
  8 11  1  0
 19 18  1  0
 21 41  1  0
M  END