
  SciTegic10191216002D

 28 32  0  0  0  0            999 V2000
   -4.2323  -18.6041    0.0000 C   0  0
   -3.5910  -17.9205    0.0000 C   0  0
   -3.4278  -18.3791    0.0000 C   0  0
   -2.8797  -18.1831    0.0000 C   0  0
   -2.6751  -18.6818    0.0000 C   0  0
   -2.1318  -17.9976    0.0000 C   0  0
   -3.4347  -17.5307    0.0000 C   0  0
   -2.8739  -16.8687    0.0000 C   0  0
   -3.5955  -17.1250    0.0000 C   0  0
   -2.1260  -17.1787    0.0000 C   0  0
   -2.8792  -16.0417    0.0000 C   0  0
   -2.1673  -15.6247    0.0000 N   0  0
   -1.4503  -16.0326    0.0000 C   0  0
   -1.4450  -16.8576    0.0000 O   0  0
   -0.7384  -15.6156    0.0000 C   0  0
   -0.0240  -16.0242    0.0000 C   0  0
    0.6873  -15.6079    0.0000 C   0  0
    0.6826  -14.7820    0.0000 N   0  0
   -0.0395  -14.3742    0.0000 C   0  0
   -0.7479  -14.7929    0.0000 N   0  0
   -0.0477  -13.5493    0.0000 O   0  0
    0.6627  -13.1298    0.0000 C   0  0
    1.3804  -13.5373    0.0000 C   0  0
    2.0887  -13.1213    0.0000 N   0  0
    2.0848  -12.2959    0.0000 C   0  0
    1.3664  -11.8883    0.0000 C   0  0
    0.6519  -12.3060    0.0000 C   0  0
   -0.0199  -16.8492    0.0000 Cl  0  0
 12 13  1  0
  2  4  1  0
 13 14  2  0
  3  5  1  0
 13 15  1  0
  4  6  1  0
 15 16  2  0
  5  6  1  0
 16 17  1  0
  7  8  1  0
 17 18  2  0
  3  7  1  0
 18 19  1  0
  2  9  1  0
 19 20  2  0
 20 15  1  0
  6 10  1  0
 19 21  1  0
 10  8  1  0
 22 21  1  0
 22 23  1  0
  8  9  1  0
  8 11  1  0
  1  2  1  0
 11 12  1  0
 22 27  1  0
 23 24  1  0
 24 25  1  0
 25 26  1  0
 26 27  1  0
  1  3  1  0
 16 28  1  0
M  END