
  SciTegic04091415032D

 36 39  0  0  0  0            999 V2000
   13.0035   -9.8558    0.0000 C   0  0
   13.0023  -10.6753    0.0000 C   0  0
   13.7104  -11.0843    0.0000 C   0  0
   13.7086   -9.4469    0.0000 C   0  0
   14.4172   -9.8522    0.0000 C   0  0
   14.4180  -10.6712    0.0000 C   0  0
   15.1265  -11.0783    0.0000 N   0  0
   15.8348  -10.6674    0.0000 C   0  0
   15.8300   -9.8453    0.0000 C   0  0
   15.1209   -9.4420    0.0000 C   0  0
   12.2997   -9.4431    0.0000 C   0  0
   15.1166   -8.6248    0.0000 C   0  0
   15.8221   -8.2124    0.0000 O   0  0
   14.4067   -8.2199    0.0000 O   0  0
   16.5441  -11.0733    0.0000 C   0  0
   16.5472  -11.8905    0.0000 N   0  0
   17.2502  -10.6619    0.0000 O   0  0
   17.2565  -12.2963    0.0000 C   0  0  2  0  0  0
   17.2597  -13.1135    0.0000 C   0  0
   17.9626  -11.8850    0.0000 C   0  0
   18.6719  -12.2908    0.0000 C   0  0
   18.6720  -13.1050    0.0000 C   0  0
   19.3805  -13.5108    0.0000 C   0  0
   20.0875  -13.0994    0.0000 C   0  0
   20.0817  -12.2780    0.0000 C   0  0
   19.3727  -11.8759    0.0000 C   0  0
   12.3084   -8.6263    0.0000 C   0  0
   11.6055   -8.2137    0.0000 C   0  0
   10.8952   -8.6170    0.0000 C   0  0
   10.8924   -9.4370    0.0000 C   0  0
   11.5959   -9.8459    0.0000 C   0  0
   10.1834   -9.8434    0.0000 C   0  0
    9.4770   -9.4325    0.0000 F   0  0
   10.1808  -10.6606    0.0000 F   0  0
    9.4720  -10.2438    0.0000 F   0  0
   20.7974  -13.5043    0.0000 O   0  0
  1  2  2  0
  2  3  1  0
  3  6  2  0
  5  4  2  0
  4  1  1  0
  5  6  1  0
  6  7  1  0
  7  8  2  0
  8  9  1  0
  9 10  2  0
 10  5  1  0
  1 11  1  0
 10 12  1  0
 12 13  2  0
 12 14  1  0
  8 15  1  0
 15 16  1  0
 15 17  2  0
 16 18  1  0
 18 19  1  1
 18 20  1  0
 20 21  1  0
 21 22  2  0
 22 23  1  0
 23 24  2  0
 24 25  1  0
 25 26  2  0
 26 21  1  0
 11 27  2  0
 27 28  1  0
 28 29  2  0
 29 30  1  0
 30 31  2  0
 31 11  1  0
 30 32  1  0
 32 33  1  0
 32 34  1  0
 32 35  1  0
 24 36  1  0
M  END