
          11280715132D 1   1.00000     0.00000     0

 31 34  0     0  0            999 V2000
    4.3792   -0.3167    0.0000 N   0  3  0  0  0  0           0  0  0
    3.6542   -0.7375    0.0000 C   0  0  0  0  0  0           0  0  0
    6.6667   -5.9000    0.0000 C   0  0  0  0  0  0           0  0  0
    3.6542   -1.5667    0.0000 C   0  0  0  0  0  0           0  0  0
    6.1375   -7.1292    0.0000 N   0  0  0  0  0  0           0  0  0
    6.8417   -6.7042    0.0000 N   0  0  0  0  0  0           0  0  0
    5.5167   -6.5917    0.0000 N   0  0  0  0  0  0           0  0  0
    5.8500   -5.8250    0.0000 N   0  0  0  0  0  0           0  0  0
    7.2167   -5.2792    0.0000 C   0  0  0  0  0  0           0  0  0
    4.3667   -1.9792    0.0000 N   0  0  3  0  0  0           0  0  0
    7.2167   -4.4542    0.0000 C   0  0  0  0  0  0           0  0  0
    2.9417   -1.9792    0.0000 N   0  0  0  0  0  0           0  0  0
    5.1000   -0.7292    0.0000 O   0  5  0  0  0  0           0  0  0
    4.3750    0.5125    0.0000 O   0  0  0  0  0  0           0  0  0
    6.5042   -4.0417    0.0000 C   0  0  0  0  0  0           0  0  0
    4.3667   -2.8042    0.0000 C   0  0  0  0  0  0           0  0  0
    5.7917   -4.4542    0.0000 C   0  0  0  0  0  0           0  0  0
    6.5042   -3.2125    0.0000 C   0  0  0  0  0  0           0  0  0
    5.0792   -3.2167    0.0000 C   0  0  0  0  0  0           0  0  0
    2.9417   -0.3250    0.0000 C   0  0  0  0  0  0           0  0  0
    5.7875   -2.8000    0.0000 C   0  0  0  0  0  0           0  0  0
    5.0792   -4.0417    0.0000 C   0  0  0  0  0  0           0  0  0
    5.0792   -1.5667    0.0000 C   0  0  0  0  0  0           0  0  0
    7.9292   -5.6917    0.0000 C   0  0  0  0  0  0           0  0  0
    7.9292   -4.0417    0.0000 C   0  0  0  0  0  0           0  0  0
    2.2292   -1.5667    0.0000 C   0  0  0  0  0  0           0  0  0
    5.7875   -1.9792    0.0000 C   0  0  0  0  0  0           0  0  0
    2.2292   -0.7417    0.0000 C   0  0  0  0  0  0           0  0  0
    8.6417   -4.4417    0.0000 C   0  0  0  0  0  0           0  0  0
    8.6417   -5.2792    0.0000 C   0  0  0  0  0  0           0  0  0
    6.4917   -1.5667    0.0000 C   0  0  0  0  0  0           0  0  0
  2  1  1  0     0  0
  3  9  1  0     0  0
  4  2  1  0     0  0
  5  6  2  0     0  0
  6  3  1  0     0  0
  7  8  1  0     0  0
  8  3  2  0     0  0
  9 11  2  0     0  0
 10  4  1  0     0  0
 11 15  1  0     0  0
 12  4  2  0     0  0
 13  1  1  0     0  0
 14  1  2  0     0  0
 15 17  2  0     0  0
 16 10  1  0     0  0
 17 22  1  0     0  0
 18 21  2  0     0  0
 19 16  1  0     0  0
 20  2  2  0     0  0
 21 19  1  0     0  0
 22 19  2  0     0  0
 23 10  1  0     0  0
 24  9  1  0     0  0
 25 11  1  0     0  0
 26 28  2  0     0  0
 27 23  1  0     0  0
 28 20  1  0     0  0
 29 25  2  0     0  0
 30 29  1  0     0  0
 31 27  1  0     0  0
 12 26  1  0     0  0
 18 15  1  0     0  0
 30 24  2  0     0  0
  5  7  1  0     0  0
M  CHG  2   1   1  13  -1
M  END