
          11280715252D 1   1.00000     0.00000     0

 42 44  0     1  0            999 V2000
    9.0000   -2.6792    0.0000 N   0  0  3  0  0  0           0  0  0
    8.3917   -2.9917    0.0000 C   0  0  0  0  0  0           0  0  0
   14.7250   -5.6792    0.0000 N   0  3  0  0  0  0           0  0  0
    9.6000   -4.0042    0.0000 C   0  0  0  0  0  0           0  0  0
    7.8167   -2.6250    0.0000 C   0  0  0  0  0  0           0  0  0
    9.6417   -3.1875    0.0000 C   0  0  3  0  0  0           0  0  0
   11.5042   -4.4417    0.0000 C   0  0  0  0  0  0           0  0  0
   10.2917   -4.4542    0.0000 N   0  0  0  0  0  0           0  0  0
   10.8875   -4.0167    0.0000 C   0  0  1  0  0  0           0  0  0
    5.9667   -2.8250    0.0000 C   0  0  0  0  0  0           0  0  0
   12.1667   -4.0875    0.0000 N   0  0  0  0  0  0           0  0  0
    4.7542   -2.8292    0.0000 N   0  0  0  0  0  0           0  0  0
    6.6292   -2.4750    0.0000 N   0  0  0  0  0  0           0  0  0
   14.0792   -5.2792    0.0000 C   0  0  0  0  0  0           0  0  0
    4.3417   -3.5542    0.0000 C   0  0  0  0  0  0           0  0  0
   14.7000   -6.4292    0.0000 O   0  5  0  0  0  0           0  0  0
    5.3417   -2.4042    0.0000 C   0  0  1  0  0  0           0  0  0
   15.3875   -5.3250    0.0000 O   0  0  0  0  0  0           0  0  0
    7.2042   -2.9250    0.0000 C   0  0  0  0  0  0           0  0  0
    8.3542   -3.6792    0.0000 O   0  0  0  0  0  0           0  0  0
    8.8667   -4.3792    0.0000 O   0  0  0  0  0  0           0  0  0
    7.8292   -1.9625    0.0000 O   0  0  0  0  0  0           0  0  0
   11.5125   -5.1917    0.0000 O   0  0  0  0  0  0           0  0  0
   10.8875   -3.2667    0.0000 C   0  0  0  0  0  0           0  0  0
    5.9667   -3.5750    0.0000 O   0  0  0  0  0  0           0  0  0
    4.9500   -4.1250    0.0000 O   0  0  0  0  0  0           0  0  0
   14.1042   -4.5250    0.0000 C   0  0  0  0  0  0           0  0  0
   13.4167   -5.6375    0.0000 C   0  0  0  0  0  0           0  0  0
   12.8125   -4.4875    0.0000 C   0  0  0  0  0  0           0  0  0
    9.2917   -1.9125    0.0000 C   0  0  0  0  0  0           0  0  0
   13.4667   -4.1292    0.0000 C   0  0  0  0  0  0           0  0  0
   12.7792   -5.2375    0.0000 C   0  0  0  0  0  0           0  0  0
   11.5375   -2.8917    0.0000 C   0  0  0  0  0  0           0  0  0
   10.3292   -2.7417    0.0000 C   0  0  0  0  0  0           0  0  0
   10.1250   -1.9667    0.0000 C   0  0  0  0  0  0           0  0  0
    3.5542   -3.7792    0.0000 C   0  0  0  0  0  0           0  0  0
    5.3417   -1.6417    0.0000 C   0  0  0  0  0  0           0  0  0
   12.1792   -3.2667    0.0000 C   0  0  0  0  0  0           0  0  0
   11.5375   -2.1417    0.0000 C   0  0  0  0  0  0           0  0  0
   12.1792   -1.7667    0.0000 C   0  0  0  0  0  0           0  0  0
   12.8292   -2.8917    0.0000 C   0  0  0  0  0  0           0  0  0
   12.8292   -2.1417    0.0000 C   0  0  0  0  0  0           0  0  0
  2  1  1  0     0  0
  3 14  1  0     0  0
  4  6  1  0     0  0
  5  2  1  0     0  0
  6  1  1  0     0  0
  7  9  1  0     0  0
  8  4  1  0     0  0
  9  8  1  0     0  0
 10 13  1  0     0  0
 11  7  1  0     0  0
 12 17  1  0     0  0
 13 19  1  0     0  0
 14 28  2  0     0  0
 15 12  1  0     0  0
 16  3  1  0     0  0
 17 10  1  0     0  0
 18  3  2  0     0  0
 19  5  1  0     0  0
 20  2  2  0     0  0
 21  4  2  0     0  0
 22  5  2  0     0  0
 23  7  2  0     0  0
  9 24  1  1     0  0
 25 10  2  0     0  0
 26 15  2  0     0  0
 27 31  2  0     0  0
 28 32  1  0     0  0
 29 11  1  0     0  0
 30  1  1  0     0  0
 31 29  1  0     0  0
 32 29  2  0     0  0
 33 24  1  0     0  0
 34  6  1  0     0  0
 35 30  1  0     0  0
 36 15  1  0     0  0
 17 37  1  1     0  0
 38 33  1  0     0  0
 39 33  2  0     0  0
 40 39  1  0     0  0
 41 38  2  0     0  0
 42 40  2  0     0  0
 35 34  1  0     0  0
 42 41  1  0     0  0
 14 27  1  0     0  0
M  CHG  2   3   1  16  -1
M  END