
          02060813472D 1   1.00000     0.00000     0

 38 39  0     1  0            999 V2000
   19.3369   -9.7152    0.0000 C   0  0  2  0  0  0           0  0  0
   18.6222  -10.9550    0.0000 O   0  0  0  0  0  0           0  0  0
   18.6222  -10.1271    0.0000 C   0  0  0  0  0  0           0  0  0
   19.3369   -8.8873    0.0000 C   0  0  0  0  0  0           0  0  0
   20.0560   -7.6474    0.0000 C   0  0  0  0  0  0           0  0  0
   20.0560   -8.4754    0.0000 C   0  0  0  0  0  0           0  0  0
   20.7707   -8.8873    0.0000 C   0  0  0  0  0  0           0  0  0
   21.4855   -8.4754    0.0000 C   0  0  0  0  0  0           0  0  0
   21.4855   -7.6474    0.0000 C   0  0  0  0  0  0           0  0  0
   20.7707   -7.2356    0.0000 C   0  0  0  0  0  0           0  0  0
   17.1926  -10.1271    0.0000 C   0  0  0  0  0  0           0  0  0
   16.4778   -9.7152    0.0000 C   0  0  0  0  0  0           0  0  0
   15.7588  -10.1271    0.0000 C   0  0  0  0  0  0           0  0  0
   15.0441   -9.7152    0.0000 C   0  0  0  0  0  0           0  0  0
   14.3293  -10.1271    0.0000 C   0  0  0  0  0  0           0  0  0
   13.6145   -9.7152    0.0000 C   0  0  0  0  0  0           0  0  0
   20.0528  -10.9503    0.0000 C   0  0  0  0  0  0           0  0  0
   19.3338  -11.3622    0.0000 C   0  0  0  0  0  0           0  0  0
   19.3338  -12.1901    0.0000 C   0  0  0  0  0  0           0  0  0
   11.4660  -10.1271    0.0000 C   0  0  2  0  0  0           0  0  0
   12.1808   -8.8873    0.0000 O   0  0  0  0  0  0           0  0  0
   12.1808   -9.7152    0.0000 C   0  0  0  0  0  0           0  0  0
   11.4660  -10.9550    0.0000 C   0  0  0  0  0  0           0  0  0
   10.7511  -12.1948    0.0000 C   0  0  0  0  0  0           0  0  0
   10.7511  -11.3669    0.0000 C   0  0  0  0  0  0           0  0  0
   10.0322  -10.9550    0.0000 C   0  0  0  0  0  0           0  0  0
    9.3174  -11.3669    0.0000 C   0  0  0  0  0  0           0  0  0
    9.3174  -12.1948    0.0000 C   0  0  0  0  0  0           0  0  0
   10.0322  -12.6067    0.0000 C   0  0  0  0  0  0           0  0  0
   12.8955  -10.1271    0.0000 N   0  0  0  0  0  0           0  0  0
   10.0353  -10.1254    0.0000 C   0  0  0  0  0  0           0  0  0
    9.3205   -9.7135    0.0000 C   0  0  0  0  0  0           0  0  0
    8.6057  -10.1254    0.0000 C   0  0  0  0  0  0           0  0  0
   22.1972   -7.2337    0.0000 O   0  0  0  0  0  0           0  0  0
   17.9074   -9.7152    0.0000 N   0  0  0  0  0  0           0  0  0
   20.0528  -10.1253    0.0000 N   0  0  0  0  0  0           0  0  0
    8.6027  -12.6067    0.0000 O   0  0  0  0  0  0           0  0  0
   10.7511   -9.7152    0.0000 N   0  0  0  0  0  0           0  0  0
  4  6  1  0     0  0
  5  6  2  0     0  0
  6  7  1  0     0  0
  7  8  2  0     0  0
  8  9  1  0     0  0
  9 10  2  0     0  0
 10  5  1  0     0  0
 11 12  1  0     0  0
 12 13  1  0     0  0
 13 14  1  0     0  0
 14 15  1  0     0  0
 15 16  1  0     0  0
 17 18  1  0     0  0
 18 19  2  0     0  0
 22 30  1  0     0  0
 20 22  1  0     0  0
 22 21  2  0     0  0
 20 23  1  6     0  0
 23 25  1  0     0  0
 24 25  2  0     0  0
 25 26  1  0     0  0
 26 27  2  0     0  0
 27 28  1  0     0  0
 28 29  2  0     0  0
 29 24  1  0     0  0
 31 32  1  0     0  0
 32 33  2  0     0  0
 30 16  1  0     0  0
  1  3  1  0     0  0
  3  2  2  0     0  0
  1  4  1  6     0  0
  9 34  1  0     0  0
  1 36  1  0     0  0
 36 17  1  0     0  0
 28 37  1  0     0  0
 35 11  1  0     0  0
  3 35  1  0     0  0
 20 38  1  0     0  0
 38 31  1  0     0  0
M  END