
          05080814042D 1   1.00000     0.00000     0

 37 41  0     1  0            999 V2000
    6.0096    2.5126    0.0000 C   0  0  0  0  0  0           0  0  0
    6.0084    1.6866    0.0000 C   0  0  0  0  0  0           0  0  0
    6.7221    1.2744    0.0000 C   0  0  0  0  0  0           0  0  0
    6.7203    2.9247    0.0000 C   0  0  0  0  0  0           0  0  0
    7.4345    2.5162    0.0000 C   0  0  0  0  0  0           0  0  0
    7.4380    1.6846    0.0000 C   0  0  0  0  0  0           0  0  0
    8.1559    1.2739    0.0000 C   0  0  0  0  0  0           0  0  0
    8.1491    2.9373    0.0000 C   0  0  0  0  0  0           0  0  0
    8.8717    2.5221    0.0000 C   0  0  2  0  0  0           0  0  0
    8.8728    1.6887    0.0000 C   0  0  2  0  0  0           0  0  0
    9.5911    1.2753    0.0000 N   0  0  3  0  0  0           0  0  0
   10.3129    1.6905    0.0000 C   0  0  0  0  0  0           0  0  0
   10.3118    2.5240    0.0000 C   0  0  1  0  0  0           0  0  0
    9.5890    2.9420    0.0000 C   0  0  0  0  0  0           0  0  0
    9.5910    0.4517    0.0000 C   0  0  0  0  0  0           0  0  0
   11.0250    2.9360    0.0000 C   0  0  0  0  0  0           0  0  0
   11.7385    2.5244    0.0000 N   0  0  3  0  0  0           0  0  0
   11.0248    3.7597    0.0000 O   0  0  0  0  0  0           0  0  0
   11.7330    1.6959    0.0000 C   0  0  0  0  0  0           0  0  0
   12.4422    1.2844    0.0000 C   0  0  0  0  0  0           0  0  0
   13.1579    1.6929    0.0000 N   0  0  3  0  0  0           0  0  0
   13.1596    2.5175    0.0000 C   0  0  0  0  0  0           0  0  0
   12.4458    2.9336    0.0000 C   0  0  0  0  0  0           0  0  0
    8.8648    0.8653    0.0000 H   0  0  0  0  0  0           0  0  0
    8.8648    3.3487    0.0000 H   0  0  0  0  0  0           0  0  0
   13.8698    1.2786    0.0000 C   0  0  0  0  0  0           0  0  0
    6.7177    3.7489    0.0000 O   0  0  0  0  0  0           0  0  0
    6.0031    4.1612    0.0000 C   0  0  0  0  0  0           0  0  0
   13.8634    0.4566    0.0000 C   0  0  0  0  0  0           0  0  0
   14.5744    0.0422    0.0000 C   0  0  0  0  0  0           0  0  0
   15.2902    0.4517    0.0000 C   0  0  0  0  0  0           0  0  0
   15.2904    1.2796    0.0000 C   0  0  0  0  0  0           0  0  0
   14.5788    1.6900    0.0000 C   0  0  0  0  0  0           0  0  0
   16.0079    0.0371    0.0000 N   0  3  0  0  0  0           0  0  0
   16.7220    0.4474    0.0000 O   0  0  0  0  0  0           0  0  0
   16.0061   -0.7865    0.0000 O   0  5  0  0  0  0           0  0  0
    6.7206    0.4508    0.0000 Br  0  0  0  0  0  0           0  0  0
  7 10  1  0     0  0
 16 18  2  0     0  0
 17 19  1  0     0  0
  9  8  1  0     0  0
  9 10  1  0     0  0
  5  4  2  0     0  0
  4  1  1  0     0  0
  5  6  1  0     0  0
 17 23  1  0     0  0
 19 20  1  0     0  0
 20 21  1  0     0  0
 21 22  1  0     0  0
 22 23  1  0     0  0
 10 24  1  1     0  0
  2  3  1  0     0  0
  9 25  1  6     0  0
  3  6  2  0     0  0
 21 26  1  0     0  0
  9 14  1  0     0  0
 10 11  1  0     0  0
 27 28  1  0     0  0
  4 27  1  0     0  0
 11 12  1  0     0  0
 26 29  2  0     0  0
 12 13  1  0     0  0
 29 30  1  0     0  0
 13 14  1  0     0  0
 30 31  2  0     0  0
  1  2  2  0     0  0
 31 32  1  0     0  0
 11 15  1  0     0  0
 32 33  2  0     0  0
 33 26  1  0     0  0
  5  8  1  0     0  0
 13 16  1  1     0  0
  6  7  1  0     0  0
 34 35  2  0     0  0
 34 36  1  0     0  0
 31 34  1  0     0  0
 16 17  1  0     0  0
  3 37  1  0     0  0
M  CHG  2  34   1  36  -1
M  END