
  CDK    5/12/10,14:52

 23 25  0  0  0  0  0  0  0  0999 V2000
    5.9265   -2.4070    0.0000 N   0  0  0  0  0  0  0  0  0  0  0  0
    5.2210   -1.9839    0.0000 C   0  0  0  0  0  0  0  0  0  0  0  0
    4.5024   -2.3810    0.0000 C   0  0  0  0  0  0  0  0  0  0  0  0
    4.4847   -3.2058    0.0000 C   0  0  0  0  0  0  0  0  0  0  0  0
    5.1919   -3.6320    0.0000 C   0  0  0  0  0  0  0  0  0  0  0  0
    5.9167   -3.2332    0.0000 C   0  0  0  0  0  0  0  0  0  0  0  0
    5.9313    0.0687    0.0000 C   0  0  0  0  0  0  0  0  0  0  0  0
    5.9300   -0.7585    0.0000 C   0  0  0  0  0  0  0  0  0  0  0  0
    6.6427   -1.1712    0.0000 C   0  0  0  0  0  0  0  0  0  0  0  0
    7.3617   -0.7580    0.0000 C   0  0  0  0  0  0  0  0  0  0  0  0
    7.3586    0.0728    0.0000 C   0  0  0  0  0  0  0  0  0  0  0  0
    6.6407    0.4814    0.0000 C   0  0  0  0  0  0  0  0  0  0  0  0
    6.6369    1.3060    0.0000 C   0  0  0  0  0  0  0  0  0  0  0  0
    6.6293    2.1350    0.0000 C   0  0  0  0  0  0  0  0  0  0  0  0
    6.6247    2.9596    0.0000 C   0  0  0  0  0  0  0  0  0  0  0  0
    7.3365    3.3759    0.0000 C   0  0  0  0  0  0  0  0  0  0  0  0
    8.0530    2.9675    0.0000 N   0  0  0  0  0  0  0  0  0  0  0  0
    8.0521    2.1386    0.0000 C   0  0  0  0  0  0  0  0  0  0  0  0
    8.7645    1.7302    0.0000 C   0  0  0  0  0  0  0  0  0  0  0  0
    9.4787    2.1431    0.0000 C   0  0  0  0  0  0  0  0  0  0  0  0
    9.4762    2.9686    0.0000 C   0  0  0  0  0  0  0  0  0  0  0  0
    8.7592    3.3815    0.0000 C   0  0  0  0  0  0  0  0  0  0  0  0
    6.6413   -1.9959    0.0000 C   0  0  0  0  0  0  0  0  0  0  0  0
 11 12  2  0  0  0  0 
 12  7  1  0  0  0  0 
  5  6  1  0  0  0  0 
 12 13  1  0  0  0  0 
  1  2  1  0  0  0  0 
 13 14  3  0  0  0  0 
 14 15  1  0  0  0  0 
  7  8  2  0  0  0  0 
 15 16  1  0  0  0  0 
  1  6  1  0  0  0  0 
 16 17  1  0  0  0  0 
 17 18  1  0  0  0  0 
  8  9  1  0  0  0  0 
  2  3  1  0  0  0  0 
  9 10  2  0  0  0  0 
  3  4  1  0  0  0  0 
 10 11  1  0  0  0  0 
 17 22  1  0  0  0  0 
 18 19  1  0  0  0  0 
 19 20  1  0  0  0  0 
 20 21  1  0  0  0  0 
 21 22  1  0  0  0  0 
  4  5  1  0  0  0  0 
  9 23  1  0  0  0  0 
 23  1  1  0  0  0  0 
M  END