
          11280715152D 1   1.00000     0.00000     0

 28 30  0     0  0            999 V2000
    1.0917   -4.4917    0.0000 O   0  0  0  0  0  0           0  0  0
    2.0042   -3.6625    0.0000 C   0  0  3  0  0  0           0  0  0
    0.6417   -3.7042    0.0000 C   0  0  3  0  0  0           0  0  0
    1.4500   -3.2417    0.0000 C   0  0  3  0  0  0           0  0  0
    2.2417   -2.7792    0.0000 C   0  0  3  0  0  0           0  0  0
    3.8417   -4.2667    0.0000 C   0  0  0  0  0  0           0  0  0
    2.8000   -4.2667    0.0000 N   0  0  0  0  0  0           0  0  0
    4.3542   -4.5667    0.0000 N   0  0  0  0  0  0           0  0  0
    5.8542   -2.8792    0.0000 C   0  0  0  0  0  0           0  0  0
    3.3167   -4.5667    0.0000 N   0  0  0  0  0  0           0  0  0
    2.2792   -4.5667    0.0000 C   0  0  0  0  0  0           0  0  0
    3.8417   -3.6667    0.0000 O   0  0  0  0  0  0           0  0  0
    0.3375   -3.1792    0.0000 C   0  0  0  0  0  0           0  0  0
    1.0167   -2.8167    0.0000 C   0  0  0  0  0  0           0  0  0
    5.8542   -2.2792    0.0000 O   0  0  0  0  0  0           0  0  0
    3.2792   -2.7750    0.0000 C   0  0  0  0  0  0           0  0  0
    3.8792   -2.7750    0.0000 C   0  0  0  0  0  0           0  0  0
    4.8792   -4.2667    0.0000 C   0  0  0  0  0  0           0  0  0
    6.3792   -3.1750    0.0000 O   0  0  0  0  0  0           0  0  0
    2.7625   -3.0792    0.0000 C   0  0  0  0  0  0           0  0  0
    5.3417   -3.1792    0.0000 C   0  0  0  0  0  0           0  0  0
    4.3000   -3.1917    0.0000 C   0  0  0  0  0  0           0  0  0
    5.3917   -4.5667    0.0000 C   0  0  0  0  0  0           0  0  0
    4.8750   -3.6750    0.0000 C   0  0  0  0  0  0           0  0  0
    4.8167   -2.8917    0.0000 C   0  0  0  0  0  0           0  0  0
    5.3917   -3.3667    0.0000 C   0  0  0  0  0  0           0  0  0
    5.9167   -4.2667    0.0000 C   0  0  0  0  0  0           0  0  0
    5.9167   -3.6667    0.0000 C   0  0  0  0  0  0           0  0  0
  2  3  1  0     0  0
  3  1  1  0     0  0
  4  1  1  0     0  0
  5  4  1  0     0  0
  6 10  1  0     0  0
  7 11  2  0     0  0
  8  6  1  0     0  0
  9 21  1  0     0  0
 10  7  1  0     0  0
 11  2  1  0     0  0
 12  6  2  0     0  0
 13  3  1  0     0  0
 14  4  1  0     0  0
 15  9  2  0     0  0
 16 20  1  0     0  0
 17 16  2  0     0  0
 18  8  1  0     0  0
 19  9  1  0     0  0
 20  5  1  0     0  0
 21 25  1  0     0  0
 22 17  1  0     0  0
 23 18  2  0     0  0
 24 18  1  0     0  0
 25 22  1  0     0  0
 26 24  2  0     0  0
 27 23  1  0     0  0
 28 26  1  0     0  0
 13 14  1  0     0  0
  5  2  1  0     0  0
 27 28  2  0     0  0
M  END