
  SciTegic09261415472D

 40 42  0  0  0  0            999 V2000
   23.8451   -2.9008    0.0000 P   0  0
   24.2398   -2.1762    0.0000 O   0  0
   23.4149   -2.1967    0.0000 O   0  0
   25.2755   -2.8672    0.0000 P   0  0
   25.6702   -2.1427    0.0000 O   0  0
   24.8454   -2.1632    0.0000 O   0  0
   28.8695   -4.0982    0.0000 N   0  0
   28.1090   -4.3445    0.0000 C   0  0  1  0  0  0
   27.8529   -5.0831    0.0000 C   0  0  1  0  0  0
   27.4382   -3.8431    0.0000 O   0  0
   27.0376   -5.0831    0.0000 C   0  0  1  0  0  0
   28.1018   -5.8639    0.0000 O   0  0
   26.7872   -4.3098    0.0000 C   0  0  1  0  0  0
   26.7775   -5.8597    0.0000 O   0  0
   26.0200   -4.0688    0.0000 C   0  0
   26.0000   -3.2620    0.0000 O   0  0
   29.6193   -4.3608    0.0000 C   0  0
   30.1058   -3.7277    0.0000 N   0  0
   28.8884   -3.2956    0.0000 C   0  0
   29.6535   -3.0710    0.0000 C   0  0
   29.8403   -2.2977    0.0000 C   0  0
   29.2628   -1.7481    0.0000 N   0  0
   28.4959   -1.9773    0.0000 C   0  0
   28.3127   -2.7501    0.0000 N   0  0
   30.6320   -2.0637    0.0000 N   0  0
   31.2301   -2.6319    0.0000 C   0  0
   32.0213   -2.3981    0.0000 C   0  0
   24.5714   -3.2973    0.0000 O   0  0
   23.1427   -3.3327    0.0000 O   0  0
   32.6194   -2.9664    0.0000 C   0  0
   33.4107   -2.7325    0.0000 C   0  0
   34.0089   -3.3008    0.0000 C   0  0
   34.8001   -3.0669    0.0000 C   0  0
   35.3983   -3.6352    0.0000 C   0  0
   36.1896   -3.4014    0.0000 C   0  0
   36.7877   -3.9696    0.0000 N   0  0
   37.5789   -3.7358    0.0000 C   0  0
   38.1770   -4.3040    0.0000 C   0  0
   37.7720   -2.9336    0.0000 O   0  0
   38.9683   -4.0702    0.0000 I   0  0
  2  1  2  0
  1  3  1  0
  5  4  1  0
  4  6  2  0
  8  7  1  1
  9  8  1  0
  8 10  1  0
  9 11  1  0
  9 12  1  6
 10 13  1  0
 11 14  1  6
 13 15  1  1
 15 16  1  0
 11 13  1  0
  7 17  1  0
 17 18  2  0
 18 20  1  0
 19  7  1  0
 19 20  2  0
 20 21  1  0
 21 22  2  0
 22 23  1  0
 23 24  2  0
 24 19  1  0
 21 25  1  0
 25 26  1  0
 26 27  1  0
 16  4  1  0
  4 28  1  0
 28  1  1  0
  1 29  1  0
 27 30  1  0
 30 31  1  0
 31 32  1  0
 32 33  1  0
 33 34  1  0
 34 35  1  0
 35 36  1  0
 36 37  1  0
 37 38  1  0
 37 39  2  0
 38 40  1  0
M  END