
          11280715262D 1   1.00000     0.00000     0

 21 24  0     0  0            999 V2000
    2.8292   -0.9667    0.0000 C   0  0  3  0  0  0           0  0  0
    4.1417   -0.4042    0.0000 C   0  0  0  0  0  0           0  0  0
    4.8542    0.0083    0.0000 N   0  0  0  0  0  0           0  0  0
    5.5750   -0.4000    0.0000 C   0  0  0  0  0  0           0  0  0
    2.6417   -2.3792    0.0000 C   0  0  3  0  0  0           0  0  0
    1.4417   -2.0042    0.0000 C   0  0  3  0  0  0           0  0  0
    1.4417   -1.5375    0.0000 C   0  0  3  0  0  0           0  0  0
    3.3292   -0.3042    0.0000 C   0  0  0  0  0  0           0  0  0
    1.9875   -0.8167    0.0000 C   0  0  0  0  0  0           0  0  0
    3.1417   -1.7292    0.0000 C   0  0  0  0  0  0           0  0  0
    2.0792   -1.1792    0.0000 C   0  0  0  0  0  0           0  0  0
    4.1542   -1.2292    0.0000 O   0  0  0  0  0  0           0  0  0
    6.2917    0.0000    0.0000 C   0  0  0  0  0  0           0  0  0
    1.8792   -2.2417    0.0000 C   0  0  0  0  0  0           0  0  0
    1.9292   -2.7292    0.0000 C   0  0  0  0  0  0           0  0  0
    0.7667   -1.8417    0.0000 C   0  0  0  0  0  0           0  0  0
    5.5625   -1.2250    0.0000 C   0  0  0  0  0  0           0  0  0
    6.3042    0.8250    0.0000 C   0  0  0  0  0  0           0  0  0
    7.0042   -0.4167    0.0000 C   0  0  0  0  0  0           0  0  0
    6.2667   -1.6417    0.0000 C   0  0  0  0  0  0           0  0  0
    6.9917   -1.2417    0.0000 C   0  0  0  0  0  0           0  0  0
  2  8  1  0     0  0
  3  2  1  0     0  0
  4  3  1  0     0  0
  5 10  1  0     0  0
  6 11  1  0     0  0
  7  9  1  0     0  0
  8  1  1  0     0  0
  9  1  1  0     0  0
 10  1  1  0     0  0
 11  1  1  0     0  0
 12  2  2  0     0  0
 13  4  2  0     0  0
 14  5  1  0     0  0
 15  6  1  0     0  0
 16  6  1  0     0  0
 17  4  1  0     0  0
 18 13  1  0     0  0
 19 13  1  0     0  0
 20 17  2  0     0  0
 21 20  1  0     0  0
  7 16  1  0     0  0
  5 15  1  0     0  0
  7 14  1  0     0  0
 19 21  2  0     0  0
M  END