
          11280715362D 1   1.00000     0.00000     0

 29 33  0     0  0            999 V2000
    5.3500   -5.6250    0.0000 C   0  0  0  0  0  0           0  0  0
    5.3500   -6.2292    0.0000 C   0  0  0  0  0  0           0  0  0
    4.8250   -6.5375    0.0000 N   0  0  3  0  0  0           0  0  0
    4.3000   -5.6250    0.0000 C   0  0  0  0  0  0           0  0  0
    5.8750   -5.3250    0.0000 C   0  0  0  0  0  0           0  0  0
    4.3000   -6.2292    0.0000 C   0  0  0  0  0  0           0  0  0
    6.4000   -5.6292    0.0000 C   0  0  3  0  0  0           0  0  0
    8.8750   -5.1875    0.0000 N   0  0  3  0  0  0           0  0  0
    5.8750   -6.5375    0.0000 C   0  0  0  0  0  0           0  0  0
    7.4417   -5.6375    0.0000 N   0  0  3  0  0  0           0  0  0
    6.9250   -5.3292    0.0000 C   0  0  0  0  0  0           0  0  0
    9.2917   -5.6125    0.0000 C   0  0  0  0  0  0           0  0  0
    6.4000   -6.2375    0.0000 C   0  0  0  0  0  0           0  0  0
    5.8750   -4.7250    0.0000 O   0  0  0  0  0  0           0  0  0
    8.5750   -5.7125    0.0000 C   0  0  0  0  0  0           0  0  0
    8.3750   -5.3500    0.0000 C   0  0  0  0  0  0           0  0  0
    9.1375   -6.1792    0.0000 C   0  0  0  0  0  0           0  0  0
    9.8625   -5.4500    0.0000 C   0  0  0  0  0  0           0  0  0
    7.9042   -5.4750    0.0000 C   0  0  0  0  0  0           0  0  0
    7.7417   -5.1125    0.0000 C   0  0  0  0  0  0           0  0  0
    4.8250   -7.1375    0.0000 C   0  0  0  0  0  0           0  0  0
   10.1292   -6.4500    0.0000 C   0  0  0  0  0  0           0  0  0
    3.7792   -5.3250    0.0000 C   0  0  0  0  0  0           0  0  0
   10.2792   -5.8667    0.0000 C   0  0  0  0  0  0           0  0  0
    9.5542   -6.6000    0.0000 C   0  0  0  0  0  0           0  0  0
   10.5542   -6.8667    0.0000 F   0  0  0  0  0  0           0  0  0
    3.7792   -6.5292    0.0000 C   0  0  0  0  0  0           0  0  0
    3.2625   -5.6292    0.0000 C   0  0  0  0  0  0           0  0  0
    3.2625   -6.2292    0.0000 C   0  0  0  0  0  0           0  0  0
  2  1  2  0     0  0
  3  2  1  0     0  0
  4  1  1  0     0  0
  5  1  1  0     0  0
  6  4  2  0     0  0
  7  5  1  0     0  0
  8 16  1  0     0  0
  9  2  1  0     0  0
 10 11  1  0     0  0
  7 11  1  0     0  0
 12  8  1  0     0  0
 13  7  1  0     0  0
 14  5  2  0     0  0
 15 19  1  0     0  0
 16 20  1  0     0  0
 17 12  2  0     0  0
 18 12  1  0     0  0
 19 10  1  0     0  0
 20 10  1  0     0  0
 21  3  1  0     0  0
 22 24  1  0     0  0
 23  4  1  0     0  0
 24 18  2  0     0  0
 25 17  1  0     0  0
 26 22  1  0     0  0
 27  6  1  0     0  0
 28 23  2  0     0  0
 29 28  1  0     0  0
  6  3  1  0     0  0
  9 13  1  0     0  0
 27 29  2  0     0  0
  8 15  1  0     0  0
 25 22  2  0     0  0
M  END