
          11280715352D 1   1.00000     0.00000     0

 21 19  0     0  0            999 V2000
   -0.4750   -3.1875    0.0000 C   0  0  0  0  0  0           0  0  0
   -2.6208   -2.7750    0.0000 C   0  0  0  0  0  0           0  0  0
   -1.9083   -3.1875    0.0000 C   0  0  0  0  0  0           0  0  0
   -1.1958   -2.7750    0.0000 C   0  0  0  0  0  0           0  0  0
    2.1250    0.6708    0.0000 N   0  0  0  0  0  0           0  0  0
   -2.6208   -1.9500    0.0000 O   0  0  0  0  0  0           0  0  0
   -0.4750   -4.0042    0.0000 O   0  0  0  0  0  0           0  0  0
    2.1042   -3.0125    0.0000 N   0  0  0  0  0  0           0  0  0
    2.1250   -0.1542    0.0000 O   0  0  0  0  0  0           0  0  0
    1.4125    1.0750    0.0000 C   0  0  0  0  0  0           0  0  0
    2.1167   -1.5875    0.0000 C   0  0  3  0  0  0           0  0  0
    2.5375   -0.8750    0.0000 C   0  0  0  0  0  0           0  0  0
    2.5250   -2.3000    0.0000 C   0  0  0  0  0  0           0  0  0
   -3.3333   -3.1875    0.0000 O   0  0  0  0  0  0           0  0  0
    0.2375   -2.7750    0.0000 O   0  0  0  0  0  0           0  0  0
    1.2917   -1.5750    0.0000 O   0  0  0  0  0  0           0  0  0
    2.5042   -3.7292    0.0000 C   0  0  3  0  0  0           0  0  0
    0.7000    0.6625    0.0000 C   0  0  0  0  0  0           0  0  0
    1.4042    1.9000    0.0000 C   0  0  0  0  0  0           0  0  0
    3.3375   -3.7375    0.0000 C   0  0  0  0  0  0           0  0  0
    2.0917   -4.4417    0.0000 C   0  0  0  0  0  0           0  0  0
  2  3  1  0     0  0
  3  4  2  0     0  0
  4  1  1  0     0  0
  6  2  2  0     0  0
  7  1  2  0     0  0
  8 13  1  0     0  0
  9  5  1  0     0  0
 10  5  2  0     0  0
 11 12  1  0     0  0
 12  9  1  0     0  0
 13 11  1  0     0  0
 14  2  1  0     0  0
 15  1  1  0     0  0
 16 11  1  0     0  0
 17  8  1  0     0  0
 18 10  1  0     0  0
 19 10  1  0     0  0
 20 17  1  0     0  0
 21 17  1  0     0  0
M  END