
          11280715512D 1   1.00000     0.00000     0

 37 40  0     1  0            999 V2000
    3.7025  -21.5027    0.0000 C   0  0  0  0  0  0           0  0  0
    3.7014  -22.3300    0.0000 C   0  0  0  0  0  0           0  0  0
    4.4161  -22.7429    0.0000 C   0  0  0  0  0  0           0  0  0
    4.4143  -21.0900    0.0000 C   0  0  0  0  0  0           0  0  0
    5.1345  -22.3271    0.0000 C   0  0  0  0  0  0           0  0  0
    5.1297  -21.4991    0.0000 C   0  0  0  0  0  0           0  0  0
    5.7767  -20.9732    0.0000 N   0  0  3  0  0  0           0  0  0
    5.7906  -22.8416    0.0000 C   0  0  0  0  0  0           0  0  0
    6.5888  -21.1475    0.0000 C   0  0  0  0  0  0           0  0  0
    6.6013  -22.6485    0.0000 N   0  0  0  0  0  0           0  0  0
    6.9535  -21.8939    0.0000 C   0  0  1  0  0  0           0  0  0
    7.0970  -20.4977    0.0000 O   0  0  0  0  0  0           0  0  0
    5.6142  -23.6475    0.0000 C   0  0  3  0  0  0           0  0  0
    7.7785  -21.8865    0.0000 C   0  0  0  0  0  0           0  0  0
    8.1974  -22.5972    0.0000 C   0  0  0  0  0  0           0  0  0
    9.0222  -22.5898    0.0000 N   0  0  0  0  0  0           0  0  0
    7.7912  -23.3153    0.0000 O   0  0  0  0  0  0           0  0  0
    5.5842  -20.1711    0.0000 C   0  0  0  0  0  0           0  0  0
    6.1826  -19.6032    0.0000 C   0  0  0  0  0  0           0  0  0
    5.9901  -18.8011    0.0000 C   0  0  3  0  0  0           0  0  0
    6.9735  -19.8376    0.0000 O   0  0  0  0  0  0           0  0  0
    5.7704  -17.9988    0.0000 C   0  0  0  0  0  0           0  0  0
    6.7892  -18.5959    0.0000 C   0  0  0  0  0  0           0  0  0
    5.1929  -19.0132    0.0000 C   0  0  0  0  0  0           0  0  0
    9.4411  -23.3006    0.0000 C   0  0  0  0  0  0           0  0  0
    9.0330  -24.0164    0.0000 C   0  0  0  0  0  0           0  0  0
    9.4512  -24.7266    0.0000 C   0  0  0  0  0  0           0  0  0
   10.2770  -24.7197    0.0000 C   0  0  0  0  0  0           0  0  0
   10.6829  -23.9966    0.0000 C   0  0  0  0  0  0           0  0  0
   10.2623  -23.2894    0.0000 C   0  0  0  0  0  0           0  0  0
   11.5077  -23.9863    0.0000 N   0  0  0  0  0  0           0  0  0
   11.9113  -23.2668    0.0000 C   0  0  0  0  0  0           0  0  0
    4.8306  -23.8971    0.0000 C   0  0  0  0  0  0           0  0  0
    4.6529  -24.6990    0.0000 C   0  0  0  0  0  0           0  0  0
    5.2600  -25.2582    0.0000 C   0  0  0  0  0  0           0  0  0
    6.0476  -25.0097    0.0000 C   0  0  0  0  0  0           0  0  0
    6.2282  -24.2020    0.0000 C   0  0  0  0  0  0           0  0  0
  7 18  1  0     0  0
  7  9  1  0     0  0
 18 19  1  0     0  0
  4  1  1  0     0  0
 19 20  1  0     0  0
  8 10  2  0     0  0
 19 21  2  0     0  0
 20 22  1  0     0  0
  9 11  1  0     0  0
 20 23  1  0     0  0
 10 11  1  0     0  0
 20 24  1  0     0  0
  2  3  1  0     0  0
 16 25  1  0     0  0
  9 12  2  0     0  0
 25 26  2  0     0  0
  5  6  1  0     0  0
 26 27  1  0     0  0
  8 13  1  0     0  0
 27 28  2  0     0  0
  3  5  2  0     0  0
 28 29  1  0     0  0
 11 14  1  6     0  0
 29 30  2  0     0  0
 30 25  1  0     0  0
  6  7  1  0     0  0
 29 31  1  0     0  0
 14 15  1  0     0  0
 31 32  1  0     0  0
 13 33  1  0     0  0
  1  2  2  0     0  0
 15 16  1  0     0  0
  5  8  1  0     0  0
 15 17  2  0     0  0
  6  4  2  0     0  0
 13 37  1  0     0  0
 33 34  1  0     0  0
 34 35  1  0     0  0
 35 36  1  0     0  0
 36 37  1  0     0  0
M  END