
  SciTegic12231509382D

 29 33  0  0  0  0            999 V2000
    3.8669   -1.4650    0.0000 C   0  0
    3.1501   -1.8735    0.0000 C   0  0
    2.4380   -1.4570    0.0000 C   0  0
    2.4426   -0.6320    0.0000 C   0  0
    3.1594   -0.2236    0.0000 C   0  0
    3.8715   -0.6401    0.0000 N   0  0
    1.7305   -0.2155    0.0000 C   0  0
    1.0137   -0.6240    0.0000 C   0  0  2  0  0  0
    0.5595   -1.3127    0.0000 N   0  0
   -0.4469   -1.0202    0.0000 C   0  0
   -1.0824   -1.1722    0.0000 C   0  0
   -0.2018   -1.3426    0.0000 C   0  0
    0.2365   -0.6616    0.0000 C   0  0  1  0  0  0
    0.7832    0.1681    0.0000 H   0  0
   -0.1760    0.0529    0.0000 N   0  0
   -0.5883   -0.6417    0.0000 H   0  0
    0.7897   -2.1960    0.0000 C   0  0
    0.0267   -2.1898    0.0000 C   0  0
   -1.0010    0.0529    0.0000 C   0  0
   -1.4135   -0.6616    0.0000 O   0  0
   -1.4135    0.7674    0.0000 C   0  0
   -1.0779    1.5210    0.0000 C   0  0
   -2.2340    0.8536    0.0000 O   0  0
   -2.4055    1.6606    0.0000 C   0  0
   -1.6910    2.0731    0.0000 C   0  0
   -3.1200    2.0731    0.0000 C   0  0
   -3.1200    2.8981    0.0000 C   0  0
   -2.4055    3.3106    0.0000 C   0  0
   -1.6910    2.8981    0.0000 C   0  0
  1  2  2  0
  2  3  1  0
  3  4  2  0
  4  5  1  0
  5  6  2  0
  1  6  1  0
  4  7  1  0
  8  7  1  0
 13  8  1  0
  9  8  1  0
  9 10  1  0
 10 11  1  0
 11 12  1  0
 12 13  1  0
  8 14  1  1
 13 15  1  0
 13 16  1  6
  9 17  1  0
 17 18  1  0
 18 12  1  0
 15 19  1  0
 19 20  2  0
 19 21  1  0
 22 21  2  0
 21 23  1  0
 23 24  1  0
 22 25  1  0
 24 26  1  0
 26 27  2  0
 27 28  1  0
 28 29  2  0
 25 29  1  0
 25 24  2  0
M  END