
  SciTegic04091415032D

 36 39  0  0  0  0            999 V2000
    3.3127   -9.9259    0.0000 C   0  0
    3.3116  -10.7455    0.0000 C   0  0
    4.0196  -11.1544    0.0000 C   0  0
    4.0179   -9.5171    0.0000 C   0  0
    4.7265   -9.9223    0.0000 C   0  0
    4.7272  -10.7414    0.0000 C   0  0
    5.4358  -11.1484    0.0000 N   0  0
    6.1440  -10.7376    0.0000 C   0  0
    6.1393   -9.9155    0.0000 C   0  0
    5.4302   -9.5121    0.0000 C   0  0
    2.6090   -9.5133    0.0000 C   0  0
    5.4259   -8.6949    0.0000 C   0  0
    6.1314   -8.2826    0.0000 O   0  0
    4.7160   -8.2901    0.0000 O   0  0
    6.8533  -11.1434    0.0000 C   0  0
    6.8565  -11.9606    0.0000 N   0  0
    7.5594  -10.7321    0.0000 O   0  0
    7.5658  -12.3665    0.0000 C   0  0  2  0  0  0
    7.5690  -13.1837    0.0000 C   0  0
    8.2719  -11.9551    0.0000 C   0  0
    8.9812  -12.3610    0.0000 C   0  0
    8.2783  -13.5895    0.0000 O   0  0
    6.8629  -13.5950    0.0000 O   0  0
    8.2814  -14.4067    0.0000 C   0  0
    8.9813  -13.1752    0.0000 C   0  0
    9.6897  -13.5810    0.0000 C   0  0
   10.3968  -13.1696    0.0000 C   0  0
   10.3910  -12.3482    0.0000 C   0  0
    9.6820  -11.9461    0.0000 C   0  0
   11.1066  -13.5745    0.0000 O   0  0
    2.6177   -8.6965    0.0000 C   0  0
    1.9148   -8.2839    0.0000 C   0  0
    1.2045   -8.6871    0.0000 C   0  0
    1.2016   -9.5072    0.0000 C   0  0
    1.9052   -9.9161    0.0000 C   0  0
    0.5046   -8.2732    0.0000 Cl  0  0
  1  2  2  0
  2  3  1  0
  3  6  2  0
  5  4  2  0
  4  1  1  0
  5  6  1  0
  6  7  1  0
  7  8  2  0
  8  9  1  0
  9 10  2  0
 10  5  1  0
  1 11  1  0
 10 12  1  0
 12 13  2  0
 12 14  1  0
  8 15  1  0
 15 16  1  0
 15 17  2  0
 16 18  1  0
 18 19  1  1
 18 20  1  0
 20 21  1  0
 19 22  1  0
 19 23  2  0
 22 24  1  0
 21 25  2  0
 25 26  1  0
 26 27  2  0
 27 28  1  0
 28 29  2  0
 29 21  1  0
 27 30  1  0
 11 31  2  0
 31 32  1  0
 32 33  2  0
 33 34  1  0
 34 35  2  0
 35 11  1  0
 33 36  1  0
M  END