
  SciTegic01161211232D

 44 47  0  0  0  0            999 V2000
    7.8275  -14.9143    0.0000 C   0  0  1  0  0  0
    7.1034  -16.1627    0.0000 C   0  0
    7.1076  -15.3305    0.0000 C   0  0
    8.5474  -15.3346    0.0000 C   0  0
    8.9178  -14.2693    0.0000 C   0  0
    6.3836  -16.5747    0.0000 C   0  0
    9.6460  -15.5010    0.0000 C   0  0
    9.6377  -14.6771    0.0000 C   0  0  1  0  0  0
    7.1076  -14.4982    0.0000 C   0  0
    5.6678  -16.1586    0.0000 C   0  0
    5.6720  -15.3263    0.0000 C   0  0
    4.9562  -14.9185    0.0000 C   0  0
    7.1076  -13.6743    0.0000 C   0  0
    6.3877  -14.9102    0.0000 O   0  0
    9.2632  -14.9268    0.0000 O   0  0
   11.0609  -14.6980    0.0000 C   0  0
   10.3576  -14.2735    0.0000 C   0  0
    6.3836  -17.3986    0.0000 O   0  0
    4.2446  -15.3305    0.0000 C   0  0
    4.9562  -16.5706    0.0000 C   0  0
    6.3960  -13.2623    0.0000 C   0  0
   11.7850  -14.3026    0.0000 C   0  0
    4.2446  -16.1586    0.0000 C   0  0
    4.9520  -14.0945    0.0000 O   0  0
    9.3256  -13.5535    0.0000 C   0  0
    8.5017  -13.5535    0.0000 C   0  0
    3.5330  -14.9185    0.0000 O   0  0
   12.4883  -14.7270    0.0000 C   0  0
    6.3918  -12.4383    0.0000 C   0  0
    5.6803  -13.6784    0.0000 C   0  0
   11.8017  -13.4786    0.0000 C   0  0
    8.5474  -16.1669    0.0000 C   0  0  2  0  0  0
    7.8233  -16.5831    0.0000 C   0  0
    7.8217  -17.4135    0.0000 O   0  0
    8.5424  -17.8343    0.0000 C   0  0
    9.2665  -17.4181    0.0000 C   0  0  2  0  0  0
    9.2699  -16.5813    0.0000 C   0  0
    8.1229  -18.5431    0.0000 C   0  0
    8.9469  -18.5431    0.0000 C   0  0
    9.9789  -17.8322    0.0000 C   0  0
   10.6937  -17.4224    0.0000 C   0  0
   11.4060  -17.8365    0.0000 C   0  0
   11.4035  -18.6604    0.0000 C   0  0
   12.1207  -17.4266    0.0000 C   0  0
 13  9  1  0
 14  3  2  0
 15  4  2  0
 16 17  1  0
  8 17  1  6
 18  6  2  0
 19 12  1  0
 20 10  2  0
 21 13  2  0
 22 16  2  0
 23 20  1  0
 24 12  1  0
 25  5  1  0
 26  5  1  0
 27 19  1  0
 28 22  1  0
 29 21  1  0
 30 21  1  0
 31 22  1  0
  7 32  1  0
 33  2  2  0
 23 19  2  0
 32 33  1  0
 32  4  1  0
  2  3  1  0
  3  1  1  0
  4  1  1  0
  5  1  1  0
 32 37  1  1
 33 34  1  0
 34 35  1  0
 35 36  1  0
 36 37  1  0
  6  2  1  0
 35 38  1  0
  7  8  1  0
 35 39  1  0
  8  5  1  0
 36 40  1  6
  1  9  1  1
 40 41  1  0
 10  6  1  0
 41 42  2  0
 11 10  1  0
 42 43  1  0
 12 11  2  0
 42 44  1  0
M  END