
          11280715142D 1   1.00000     0.00000     0

 29 31  0     1  0            999 V2000
    3.6042   -3.2917    0.0000 O   0  0  0  0  0  0           0  0  0
    4.3167   -2.8792    0.0000 C   0  0  2  0  0  0           0  0  0
    2.8875   -2.8792    0.0000 C   0  0  2  0  0  0           0  0  0
    5.0292   -3.2917    0.0000 C   0  0  0  0  0  0           0  0  0
    2.8792   -2.0542    0.0000 O   0  0  0  0  0  0           0  0  0
   -0.6833   -4.9417    0.0000 N   0  0  0  0  0  0           0  0  0
    4.3167   -2.0542    0.0000 C   0  0  1  0  0  0           0  0  0
    0.0292   -4.5292    0.0000 C   0  0  0  0  0  0           0  0  0
    2.1750   -3.2917    0.0000 C   0  0  0  0  0  0           0  0  0
    5.0250   -4.1167    0.0000 C   0  0  0  0  0  0           0  0  0
    8.6042   -2.0542    0.0000 C   0  0  0  0  0  0           0  0  0
    3.6000   -1.6417    0.0000 C   0  0  0  0  0  0           0  0  0
    8.6042   -2.8792    0.0000 O   0  0  0  0  0  0           0  0  0
    2.1750   -4.1167    0.0000 C   0  0  0  0  0  0           0  0  0
    1.4542   -2.8792    0.0000 C   0  0  0  0  0  0           0  0  0
    5.7417   -2.0542    0.0000 C   0  0  0  0  0  0           0  0  0
    6.5167   -2.0292    0.0000 C   0  0  0  0  0  0           0  0  0
    0.7417   -4.1167    0.0000 C   0  0  0  0  0  0           0  0  0
    9.3167   -1.6417    0.0000 O   0  0  0  0  0  0           0  0  0
    0.7417   -3.2917    0.0000 C   0  0  0  0  0  0           0  0  0
    1.4542   -4.5292    0.0000 C   0  0  0  0  0  0           0  0  0
    4.3042   -4.5292    0.0000 O   0  0  0  0  0  0           0  0  0
    5.7375   -2.8792    0.0000 C   0  0  0  0  0  0           0  0  0
    5.0292   -1.6417    0.0000 C   0  0  0  0  0  0           0  0  0
    7.8875   -1.6417    0.0000 C   0  0  0  0  0  0           0  0  0
    7.0792   -1.6167    0.0000 C   0  0  0  0  0  0           0  0  0
    5.7375   -4.5292    0.0000 C   0  0  0  0  0  0           0  0  0
    6.4500   -3.2917    0.0000 C   0  0  0  0  0  0           0  0  0
    6.4542   -4.1167    0.0000 C   0  0  0  0  0  0           0  0  0
  2  1  1  0     0  0
  3  1  1  0     0  0
  2  4  1  1     0  0
  5  3  1  0     0  0
  6  8  3  0     0  0
  7  2  1  0     0  0
  8 18  1  0     0  0
  3  9  1  1     0  0
 10  4  2  0     0  0
 11 25  1  0     0  0
 12  5  1  0     0  0
 13 11  2  0     0  0
 14  9  1  0     0  0
 15  9  2  0     0  0
 16 24  1  0     0  0
 17 16  2  0     0  0
 18 20  2  0     0  0
 19 11  1  0     0  0
 20 15  1  0     0  0
 21 14  2  0     0  0
 22 10  1  0     0  0
 23  4  1  0     0  0
  7 24  1  1     0  0
 25 26  1  0     0  0
 26 17  1  0     0  0
 27 10  1  0     0  0
 28 23  2  0     0  0
 29 28  1  0     0  0
 12  7  1  0     0  0
 21 18  1  0     0  0
 29 27  2  0     0  0
M  END