
          11280715352D 1   1.00000     0.00000     0

 38 41  0     1  0            999 V2000
    3.8750   -5.5167    0.0000 N   0  0  3  0  0  0           0  0  0
    4.8917   -4.9417    0.0000 C   0  0  0  0  0  0           0  0  0
    4.3875   -4.6542    0.0000 C   0  0  0  0  0  0           0  0  0
    4.8917   -3.7667    0.0000 C   0  0  2  0  0  0           0  0  0
    4.8875   -5.5292    0.0000 C   0  0  0  0  0  0           0  0  0
    3.8792   -4.9292    0.0000 C   0  0  0  0  0  0           0  0  0
    4.3875   -4.0667    0.0000 C   0  0  0  0  0  0           0  0  0
    5.4000   -4.0667    0.0000 C   0  0  2  0  0  0           0  0  0
    5.9167   -3.7792    0.0000 N   0  0  3  0  0  0           0  0  0
    5.4000   -4.6542    0.0000 C   0  0  0  0  0  0           0  0  0
    4.9000   -3.1792    0.0000 C   0  0  0  0  0  0           0  0  0
    5.4125   -2.8917    0.0000 C   0  0  0  0  0  0           0  0  0
    6.4417   -2.3167    0.0000 C   0  0  0  0  0  0           0  0  0
    5.9250   -3.1917    0.0000 C   0  0  0  0  0  0           0  0  0
    8.8375   -5.0417    0.0000 C   0  0  0  0  0  0           0  0  0
    7.6292   -5.0417    0.0000 C   0  0  0  0  0  0           0  0  0
    8.5292   -4.5292    0.0000 C   0  0  0  0  0  0           0  0  0
    7.9292   -4.5292    0.0000 C   0  0  0  0  0  0           0  0  0
    5.9375   -2.0167    0.0000 O   0  0  0  0  0  0           0  0  0
    3.2792   -6.0917    0.0000 C   0  0  3  0  0  0           0  0  0
    6.4375   -2.9042    0.0000 O   0  0  0  0  0  0           0  0  0
    7.9292   -5.5667    0.0000 O   0  0  0  0  0  0           0  0  0
    9.4375   -5.0417    0.0000 O   0  0  0  0  0  0           0  0  0
    5.4167   -2.3042    0.0000 C   0  0  0  0  0  0           0  0  0
    6.9542   -2.0292    0.0000 C   0  0  3  0  0  0           0  0  0
    3.3750   -4.6542    0.0000 C   0  0  0  0  0  0           0  0  0
    3.8792   -3.7667    0.0000 C   0  0  0  0  0  0           0  0  0
    6.4250   -4.0792    0.0000 C   0  0  0  0  0  0           0  0  0
    8.5292   -5.5667    0.0000 O   0  0  0  0  0  0           0  0  0
    7.0292   -5.0417    0.0000 O   0  0  0  0  0  0           0  0  0
    3.3750   -4.0667    0.0000 C   0  0  0  0  0  0           0  0  0
    7.6875   -1.6292    0.0000 C   0  0  0  0  0  0           0  0  0
    7.1167   -1.4667    0.0000 C   0  0  0  0  0  0           0  0  0
    7.5250   -2.1917    0.0000 C   0  0  0  0  0  0           0  0  0
    2.4875   -5.8667    0.0000 C   0  0  0  0  0  0           0  0  0
    3.4792   -6.8917    0.0000 C   0  0  0  0  0  0           0  0  0
    5.9125   -4.3667    0.0000 H   0  0  0  0  0  0           0  0  0
    4.1375   -3.2167    0.0000 H   0  0  0  0  0  0           0  0  0
  2  5  2  0     0  0
  3  6  1  0     0  0
  4  7  1  0     0  0
  5  1  1  0     0  0
  6  1  1  0     0  0
  7  3  2  0     0  0
  8 10  1  0     0  0
  9  8  1  0     0  0
 10  2  1  0     0  0
 11  4  1  0     0  0
 12 11  2  0     0  0
 13 19  1  0     0  0
 14  9  1  0     0  0
 16 18  1  0     0  0
 17 15  1  0     0  0
 18 17  2  0     0  0
 19 24  1  0     0  0
 20  1  1  0     0  0
 21 13  2  0     0  0
 22 16  2  0     0  0
 23 15  2  0     0  0
 24 12  1  0     0  0
 25 13  1  0     0  0
 26  6  2  0     0  0
 27  7  1  0     0  0
 28  9  1  0     0  0
 29 15  1  0     0  0
 30 16  1  0     0  0
 31 26  1  0     0  0
 32 34  1  0     0  0
 33 25  1  0     0  0
 34 25  1  0     0  0
 35 20  1  0     0  0
 36 20  1  0     0  0
  8 37  1  1     0  0
  4 38  1  6     0  0
  3  2  1  0     0  0
 31 27  2  0     0  0
  8  4  1  0     0  0
 14 12  1  0     0  0
 32 33  1  0     0  0
M  END