
  SciTegic05061409512D

 47 49  0  0  0  0            999 V2000
    5.5582  -13.4873    0.0000 C   0  0  1  0  0  0
    5.5582  -14.3123    0.0000 C   0  0
    6.2703  -13.0706    0.0000 C   0  0
    6.9823  -13.4873    0.0000 C   0  0  1  0  0  0
    7.6876  -14.7255    0.0000 C   0  0  1  0  0  0
    8.4043  -14.3183    0.0000 C   0  0
    8.4079  -13.4933    0.0000 C   0  0  2  0  0  0
    7.6945  -13.0756    0.0000 C   0  0  1  0  0  0
    6.9749  -12.6623    0.0000 H   0  0
    7.6968  -12.2506    0.0000 C   0  0
    9.1244  -13.0847    0.0000 C   0  0
    6.9788  -14.3123    0.0000 C   0  0  1  0  0  0
    6.2699  -14.7208    0.0000 C   0  0
    6.4393  -15.5214    0.0000 C   0  0  2  0  0  0
    7.2530  -15.6076    0.0000 O   0  0
    7.5363  -14.9561    0.0000 C   0  0  1  0  0  0
    8.3999  -15.1373    0.0000 O   0  0
    7.9915  -15.5707    0.0000 O   0  0
    5.8867  -16.1340    0.0000 O   0  0
    5.0799  -15.9617    0.0000 C   0  0
    4.5274  -16.5744    0.0000 C   0  0
    4.8256  -15.1769    0.0000 O   0  0
    7.5754  -16.2829    0.0000 C   0  0
    7.9842  -16.9996    0.0000 C   0  0
    6.7504  -16.2786    0.0000 O   0  0
    8.4125  -11.8401    0.0000 C   0  0  2  0  0  0
    8.4149  -11.0151    0.0000 C   0  0
    9.1305  -10.6047    0.0000 C   0  0
    9.1329   -9.7797    0.0000 C   0  0
    7.7016  -10.6006    0.0000 C   0  0
    4.8426  -13.0769    0.0000 O   0  0
    8.2749  -12.4873    0.0000 C   0  0
    9.1145  -14.7252    0.0000 C   0  0
    9.8288  -15.1381    0.0000 C   0  0
    9.1149  -13.9002    0.0000 O   0  0
   10.5434  -14.7259    0.0000 C   0  0
   11.2577  -15.1388    0.0000 C   0  0
   10.5439  -13.9009    0.0000 O   0  0
   11.9723  -14.7267    0.0000 C   0  0
   12.6866  -15.1395    0.0000 C   0  0
   13.4014  -14.7274    0.0000 C   0  0
   14.1156  -15.1403    0.0000 C   0  0
   14.8303  -14.7282    0.0000 C   0  0
   15.5445  -15.1410    0.0000 C   0  0
   16.2592  -14.7289    0.0000 C   0  0
   16.9734  -15.1418    0.0000 C   0  0
    9.1258  -12.2546    0.0000 O   0  0
  1  2  1  0
  1  3  1  0
  2 13  2  0
  4  3  1  0
  4 12  1  0
  4  8  1  0
 12  5  1  0
  5  6  1  0
  6  7  1  0
  7  8  1  0
  4  9  1  6
  8 10  1  0
  7 11  1  6
 12 13  1  1
 13 14  1  0
 14 15  1  0
 15 16  1  0
 12 16  1  0
  5 17  1  6
 16 18  1  6
 14 19  1  6
 19 20  1  0
 20 21  1  0
 20 22  2  0
 18 23  1  0
 23 24  1  0
 23 25  2  0
 10 26  1  0
 26 27  1  0
 27 28  1  0
 28 29  2  0
 27 30  2  0
  1 31  1  6
  8 32  1  1
 17 33  1  0
 33 34  1  0
 33 35  2  0
 34 36  1  0
 36 37  1  0
 36 38  1  0
 37 39  1  0
 39 40  1  0
 40 41  1  0
 41 42  1  0
 42 43  1  0
 43 44  1  0
 44 45  1  0
 45 46  1  0
 26 47  1  6
M  END