
  SciTegic01161211242D

 30 33  0  0  0  0            999 V2000
    4.0469  -18.1132    0.0000 C   0  0
    3.3758  -18.5910    0.0000 N   0  0
    3.8079  -17.3263    0.0000 C   0  0
    2.9802  -17.3144    0.0000 N   0  0
    2.7173  -18.0957    0.0000 C   0  0
    4.2136  -16.6087    0.0000 C   0  0
    5.0389  -16.6012    0.0000 N   0  0
    3.7946  -15.8977    0.0000 O   0  0
    5.4450  -15.8829    0.0000 N   0  0
    6.2718  -15.8795    0.0000 C   0  0
    6.6779  -15.1680    0.0000 C   0  0
    6.2624  -14.4560    0.0000 C   0  0
    5.4362  -14.4589    0.0000 C   0  0
    5.0256  -15.1821    0.0000 C   0  0
    4.7596  -18.5258    0.0000 C   0  0
    5.4748  -18.1141    0.0000 C   0  0
    3.3650  -19.4162    0.0000 C   0  0
    2.6441  -19.8148    0.0000 C   0  0
    2.6330  -20.6392    0.0000 C   0  0
    3.3427  -21.0619    0.0000 C   0  0
    4.0652  -20.6543    0.0000 C   0  0
    4.0728  -19.8313    0.0000 C   0  0
    3.3330  -21.8872    0.0000 Cl  0  0
    1.9963  -18.5008    0.0000 C   0  0
    1.2855  -18.0761    0.0000 C   0  0
    0.5651  -18.4806    0.0000 C   0  0
    0.5551  -19.3085    0.0000 C   0  0
    1.2714  -19.7301    0.0000 C   0  0
    1.9889  -19.3232    0.0000 C   0  0
    1.2967  -17.2510    0.0000 Cl  0  0
  6  7  1  0
  1 15  1  0
  1  3  2  0
 15 16  1  0
  6  8  2  0
  2 17  1  0
  3  4  1  0
 17 18  2  0
  7  9  1  0
 18 19  1  0
  9 10  1  0
 19 20  2  0
  4  5  2  0
 20 21  1  0
  5  2  1  0
 21 22  2  0
 22 17  1  0
 20 23  1  0
  3  6  1  0
  5 24  1  0
  2  1  1  0
 24 25  2  0
  9 14  1  0
 25 26  1  0
 10 11  1  0
 26 27  2  0
 11 12  1  0
 27 28  1  0
 12 13  1  0
 28 29  2  0
 29 24  1  0
 13 14  1  0
 25 30  1  0
M  END