
          11280715352D 1   1.00000     0.00000     0

 25 29  0     0  0            999 V2000
    4.7917   -2.0417    0.0000 N   0  0  3  0  0  0           0  0  0
    3.3667   -2.8667    0.0000 C   0  0  0  0  0  0           0  0  0
    4.0792   -3.2792    0.0000 N   0  0  0  0  0  0           0  0  0
    4.7917   -2.8667    0.0000 C   0  0  0  0  0  0           0  0  0
    3.3667   -2.0417    0.0000 C   0  0  0  0  0  0           0  0  0
    4.0792   -1.6292    0.0000 C   0  0  0  0  0  0           0  0  0
    2.6542   -3.2792    0.0000 N   0  0  3  0  0  0           0  0  0
    1.9417   -2.8667    0.0000 N   0  0  0  0  0  0           0  0  0
    6.2167   -2.0417    0.0000 C   0  0  0  0  0  0           0  0  0
    5.5042   -3.2792    0.0000 S   0  0  0  0  0  0           0  0  0
    1.9375   -2.0417    0.0000 C   0  0  0  0  0  0           0  0  0
    6.2167   -2.8667    0.0000 C   0  0  0  0  0  0           0  0  0
    4.0750   -0.8042    0.0000 O   0  0  0  0  0  0           0  0  0
    2.6542   -4.1042    0.0000 C   0  0  0  0  0  0           0  0  0
    6.7917   -1.4625    0.0000 C   0  0  0  0  0  0           0  0  0
    3.3667   -4.5042    0.0000 C   0  0  0  0  0  0           0  0  0
    1.9417   -4.5167    0.0000 C   0  0  0  0  0  0           0  0  0
    7.5917   -1.6667    0.0000 C   0  0  0  0  0  0           0  0  0
    6.5750   -0.6667    0.0000 C   0  0  0  0  0  0           0  0  0
    1.9417   -5.3417    0.0000 C   0  0  0  0  0  0           0  0  0
    3.3750   -5.3375    0.0000 C   0  0  0  0  0  0           0  0  0
    7.1542   -0.0792    0.0000 C   0  0  0  0  0  0           0  0  0
    8.1667   -1.0875    0.0000 C   0  0  0  0  0  0           0  0  0
    2.6542   -5.7542    0.0000 C   0  0  0  0  0  0           0  0  0
    7.9542   -0.2917    0.0000 C   0  0  0  0  0  0           0  0  0
  2  5  2  0     0  0
  3  4  2  0     0  0
  4  1  1  0     0  0
  5  6  1  0     0  0
  6  1  1  0     0  0
  7  2  1  0     0  0
  8 11  2  0     0  0
  9  1  1  0     0  0
 10  4  1  0     0  0
 11  5  1  0     0  0
 12  9  2  0     0  0
 13  6  2  0     0  0
 14  7  1  0     0  0
 15  9  1  0     0  0
 16 14  1  0     0  0
 17 14  2  0     0  0
 18 15  2  0     0  0
 19 15  1  0     0  0
 20 17  1  0     0  0
 21 16  2  0     0  0
 22 19  2  0     0  0
 23 18  1  0     0  0
 24 20  2  0     0  0
 25 22  1  0     0  0
 12 10  1  0     0  0
  2  3  1  0     0  0
  8  7  1  0     0  0
 25 23  2  0     0  0
 24 21  1  0     0  0
M  END