
  SciTegic04091415032D

 23 24  0  0  0  0            999 V2000
   22.1477  -11.6353    0.0000 C   0  0
   22.8610  -12.0499    0.0000 C   0  0
   23.5766  -11.6394    0.0000 C   0  0
   24.2899  -12.0540    0.0000 C   0  0
   23.5790  -10.8145    0.0000 C   0  0
   24.2874  -12.8790    0.0000 C   0  0
   25.0007  -13.2936    0.0000 C   0  0
   24.9983  -14.1186    0.0000 C   0  0
   25.7116  -14.5331    0.0000 C   0  0
   24.2826  -14.5290    0.0000 C   0  0
   25.7092  -15.3581    0.0000 C   0  0
   24.9935  -15.7685    0.0000 O   0  0
   26.4224  -15.7728    0.0000 O   0  0
   22.1546  -10.8070    0.0000 C   0  0
   21.4454  -10.3926    0.0000 C   0  0
   20.7273  -10.7995    0.0000 C   0  0
   21.4366  -12.0444    0.0000 C   0  0
   20.7218  -11.6238    0.0000 C   0  0
   20.0022  -12.0324    0.0000 C   0  0
   19.9963  -12.8615    0.0000 C   0  0
   20.7158  -13.2803    0.0000 C   0  0
   21.4324  -12.8693    0.0000 C   0  0
   20.0160  -10.3817    0.0000 C   0  0
  1  2  2  0
  2  3  1  0
  3  4  2  0
  3  5  1  0
  4  6  1  0
  6  7  2  0
  7  8  1  0
  8  9  2  0
  8 10  1  0
  9 11  1  0
 11 12  1  0
 11 13  2  0
  1 14  1  0
  1 17  1  0
 14 15  1  0
 15 16  1  0
 16 18  1  0
 17 18  2  0
 18 19  1  0
 19 20  2  0
 20 21  1  0
 21 22  2  0
 22 17  1  0
 16 23  1  0
M  END