
  SciTegic06181315362D

 43 49  0  0  0  0            999 V2000
   13.1096  -31.6789    0.0000 N   0  0
   12.3960  -32.0945    0.0000 C   0  0
   12.3992  -32.9202    0.0000 O   0  0
   11.6793  -31.6844    0.0000 O   0  0
   11.6856  -33.3361    0.0000 C   0  0
   11.5289  -34.1468    0.0000 C   0  0
   10.8808  -35.3175    0.0000 C   0  0
   10.7832  -34.5014    0.0000 C   0  0
   10.0289  -34.1793    0.0000 C   0  0
    9.3716  -34.6725    0.0000 C   0  0
    9.4734  -35.4913    0.0000 C   0  0
   10.2278  -35.8096    0.0000 C   0  0
   12.0911  -34.7517    0.0000 C   0  0
   11.6922  -35.4724    0.0000 C   0  0
   12.1167  -36.1759    0.0000 C   0  0
   12.9400  -36.1602    0.0000 C   0  0
   13.3369  -35.4348    0.0000 C   0  0
   12.9100  -34.7342    0.0000 C   0  0
   13.8243  -32.0924    0.0000 C   0  0
   13.8221  -32.9154    0.0000 C   0  0
   14.5360  -33.3288    0.0000 C   0  0
   15.2524  -32.9165    0.0000 C   0  0
   15.2477  -32.0888    0.0000 C   0  0
   14.5360  -31.6768    0.0000 C   0  0
   14.4107  -30.8583    0.0000 N   0  0
   16.0182  -31.7852    0.0000 C   0  0
   14.9681  -30.2503    0.0000 C   0  0  2  0  0  0
   16.2598  -30.9943    0.0000 N   0  0
   15.7907  -30.3128    0.0000 C   0  0
   14.6645  -29.4823    0.0000 C   0  0
   15.1778  -28.8355    0.0000 C   0  0
   17.0856  -30.9909    0.0000 C   0  0
   17.5014  -31.7042    0.0000 C   0  0
   16.0018  -28.8661    0.0000 C   0  0
   16.2901  -28.0924    0.0000 N   0  0
   14.9553  -28.0358    0.0000 C   0  0
   15.6438  -27.5809    0.0000 C   0  0
   15.5933  -26.7591    0.0000 C   0  0
   14.8549  -26.3912    0.0000 C   0  0
   14.1659  -26.8511    0.0000 C   0  0
   14.2198  -27.6713    0.0000 C   0  0
   17.0907  -32.4206    0.0000 O   0  0
   16.2020  -29.5976    0.0000 O   0  0
  1  2  1  0
  2  3  1  0
  2  4  2  0
  3  5  1  0
  5  6  1  0
  6  8  1  0
  7 14  1  0
 13  6  1  0
  7  8  2  0
  8  9  1  0
  9 10  2  0
 10 11  1  0
 11 12  2  0
 12  7  1  0
 13 14  2  0
 14 15  1  0
 15 16  2  0
 16 17  1  0
 17 18  2  0
 18 13  1  0
  1 19  1  0
 19 20  2  0
 20 21  1  0
 21 22  2  0
 22 23  1  0
 24 19  1  0
 23 24  2  0
 24 25  1  0
 23 26  1  0
 25 27  1  0
 26 28  1  0
 27 29  1  0
 28 29  1  0
 27 30  1  1
 30 31  1  0
 28 32  1  0
 32 33  1  0
 31 34  2  0
 34 35  1  0
 35 37  1  0
 36 31  1  0
 36 37  2  0
 37 38  1  0
 38 39  2  0
 39 40  1  0
 40 41  2  0
 41 36  1  0
 33 42  1  0
 29 43  2  0
M  END