
  SciTegic04191613082D

 45 48  0  0  0  0            999 V2000
    1.2990   -0.7500    0.0000 C   0  0
    1.2990    0.7500    0.0000 C   0  0
    0.0000    1.5000    0.0000 C   0  0
   -1.2990    0.7500    0.0000 C   0  0
   -1.2990   -0.7500    0.0000 C   0  0
    0.0000   -1.5000    0.0000 N   0  3
   -2.5988   -1.5004    0.0000 C   0  0
   -3.8985   -2.2508    0.0000 C   0  0
   -5.1983   -3.0013    0.0000 C   0  0
    2.5988   -1.5004    0.0000 C   0  0
    3.8985   -2.2508    0.0000 C   0  0
    5.1983   -3.0012    0.0000 C   0  0
    0.0000   -2.7000    0.0000 C   0  0
    5.1983   -4.5012    0.0000 C   0  0
    6.4973   -5.2512    0.0000 C   0  0
    7.7964   -4.5012    0.0000 C   0  0
    7.7964   -3.0012    0.0000 C   0  0
    6.4973   -2.2512    0.0000 C   0  0
   -5.1983   -4.5013    0.0000 C   0  0
   -6.4973   -5.2513    0.0000 C   0  0
   -7.7964   -4.5013    0.0000 C   0  0
   -7.7964   -3.0013    0.0000 C   0  0
   -6.4973   -2.2513    0.0000 C   0  0
   -9.0960   -5.2516    0.0000 C   0  0
   -9.0985   -6.7517    0.0000 C   0  0
  -10.3987   -7.4996    0.0000 C   0  0
  -11.6966   -6.7476    0.0000 C   0  0
  -11.6942   -5.2476    0.0000 C   0  0
  -10.3940   -4.4996    0.0000 C   0  0
    9.0961   -5.2516    0.0000 C   0  0
    9.0986   -6.7517    0.0000 C   0  0
   10.3988   -7.4996    0.0000 C   0  0
   11.6966   -6.7475    0.0000 C   0  0
   11.6942   -5.2475    0.0000 C   0  0
   10.3940   -4.4996    0.0000 C   0  0
  -12.7368   -7.3459    0.0000 O   0  0
   12.7368   -7.3459    0.0000 O   0  0
   16.7975   -2.6248    0.0000 C   0  0
   18.0975   -3.3748    0.0000 S   0  0
   15.7581   -3.2245    0.0000 F   0  0
   16.7975   -1.4248    0.0000 F   0  0
   15.7584   -2.0247    0.0000 F   0  0
   18.0975   -4.5748    0.0000 O   0  5
   19.1369   -2.7751    0.0000 O   0  0
   19.1366   -3.9750    0.0000 O   0  0
  1  2  2  0
  2  3  1  0
  3  4  2  0
  4  5  1  0
  5  6  2  0
  6  1  1  0
  5  7  1  0
  7  8  3  0
  8  9  1  0
  1 10  1  0
 10 11  3  0
 11 12  1  0
  6 13  1  0
 12 14  2  0
 14 15  1  0
 15 16  2  0
 16 17  1  0
 17 18  2  0
 18 12  1  0
  9 19  2  0
 19 20  1  0
 20 21  2  0
 21 22  1  0
 22 23  2  0
 23  9  1  0
 24 25  2  0
 25 26  1  0
 26 27  2  0
 27 28  1  0
 28 29  2  0
 29 24  1  0
 21 24  1  0
 30 31  2  0
 31 32  1  0
 32 33  2  0
 33 34  1  0
 34 35  2  0
 35 30  1  0
 16 30  1  0
 27 36  1  0
 33 37  1  0
 38 39  1  0
 38 40  1  0
 38 41  1  0
 38 42  1  0
 39 43  1  0
 39 44  2  0
 39 45  2  0
M  CHG  2   6   1  43  -1
M  END