
  SciTegic09081514192D

 40 44  0  0  0  0            999 V2000
    2.5987   -1.5004    0.0000 N   0  0
    2.7343   -2.9815    0.0000 N   0  0
    4.2010   -3.2956    0.0000 C   0  0
    4.9531   -1.9978    0.0000 C   0  0
    3.9511   -0.8815    0.0000 C   0  0
    4.8111   -4.6641    0.0000 C   0  0
    6.0045   -4.7897    0.0000 O   0  0
    4.1059   -5.6350    0.0000 O   0  0
    1.2990   -0.7500    0.0000 C   0  0
    1.2990    0.7500    0.0000 C   0  0
    0.0000    1.5000    0.0000 C   0  0
   -1.2990    0.7500    0.0000 C   0  0
   -1.2990   -0.7500    0.0000 C   0  0
    0.0000   -1.5000    0.0000 C   0  0
   -2.3383    1.3500    0.0000 Cl  0  0
    0.0000    2.7000    0.0000 Cl  0  0
    4.2567    0.5878    0.0000 C   0  0
    3.2235    1.6679    0.0000 C   0  0
    3.6446    3.1076    0.0000 C   0  0
    5.1019    3.4627    0.0000 C   0  0
    6.1382    2.3782    0.0000 C   0  0
    5.7171    0.9385    0.0000 C   0  0
    5.5263    4.9023    0.0000 C   0  0
    6.9849    5.2556    0.0000 N   0  0
    4.6988    5.7714    0.0000 S   0  0
    7.4092    6.6952    0.0000 C   0  0
    8.8679    7.0484    0.0000 C   0  0
    9.2941    8.4866    0.0000 C   0  0
   10.7527    8.8367    0.0000 C   0  0
   11.7851    7.7486    0.0000 C   0  0
   11.3590    6.3104    0.0000 C   0  0
    9.9005    5.9603    0.0000 C   0  0
   10.2616   11.4463    0.0000 O   0  0
   11.1790   10.2757    0.0000 C   0  0
   12.5875   10.7531    0.0000 C   0  0
   12.5507   12.2527    0.0000 C   0  0
   11.1132   12.6811    0.0000 C   0  0
   10.6124   14.0932    0.0000 C   0  0
    9.4326   14.3121    0.0000 O   0  0
   11.3917   15.0057    0.0000 O   0  0
  1  2  1  0
  2  3  2  0
  3  4  1  0
  4  5  2  0
  1  5  1  0
  6  7  2  0
  6  8  1  0
  3  6  1  0
  9 10  1  0
 10 11  2  0
 11 12  1  0
 12 13  2  0
 13 14  1  0
  9 14  2  0
 12 15  1  0
 11 16  1  0
  1  9  1  0
 17 18  1  0
 18 19  2  0
 19 20  1  0
 20 21  2  0
 21 22  1  0
 17 22  2  0
 23 24  1  0
 23 25  2  0
 26 27  1  0
 27 28  1  0
 28 29  2  0
 29 30  1  0
 30 31  2  0
 31 32  1  0
 27 32  2  0
 33 34  1  0
 34 35  2  0
 35 36  1  0
 36 37  2  0
 33 37  1  0
 38 39  2  0
 38 40  1  0
 37 38  1  0
 29 34  1  0
 24 26  1  0
 20 23  1  0
  5 17  1  0
M  END