
  -OEChem-11071500202D

 23 26  0     0  0  0  0  0  0999 V2000
    0.7676   -4.2217    0.0000 N   0  0  0  0  0  0  0  0  0  0  0  0
    0.7676   -5.5485    0.0000 C   0  0  0  0  0  0  0  0  0  0  0  0
    1.9190   -6.2174    0.0000 N   0  0  0  0  0  0  0  0  0  0  0  0
    3.0703   -5.5485    0.0000 C   0  0  0  0  0  0  0  0  0  0  0  0
    3.0703   -4.2217    0.0000 C   0  0  0  0  0  0  0  0  0  0  0  0
    1.9190   -3.5528    0.0000 C   0  0  0  0  0  0  0  0  0  0  0  0
    4.0572   -3.3335    0.0000 C   0  0  0  0  0  0  0  0  0  0  0  0
    3.5090   -2.1163    0.0000 N   0  0  0  0  0  0  0  0  0  0  0  0
    2.1931   -2.2589    0.0000 N   0  0  0  0  0  0  0  0  0  0  0  0
    1.3049   -1.2720    0.0000 C   0  0  0  0  0  0  0  0  0  0  0  0
    1.7106    0.0000    0.0000 C   0  0  0  0  0  0  0  0  0  0  0  0
    0.0000   -1.5461    0.0000 C   0  0  0  0  0  0  0  0  0  0  0  0
    5.3512   -3.6076    0.0000 C   0  0  0  0  0  0  0  0  0  0  0  0
    4.2217   -6.2174    0.0000 N   0  0  0  0  0  0  0  0  0  0  0  0
    5.7679   -4.8687    0.0000 C   0  0  0  0  0  0  0  0  0  0  0  0
    7.0727   -5.1538    0.0000 C   0  0  0  0  0  0  0  0  0  0  0  0
    7.9610   -4.1669    0.0000 C   0  0  0  0  0  0  0  0  0  0  0  0
    7.5443   -2.8949    0.0000 C   0  0  0  0  0  0  0  0  0  0  0  0
    6.2503   -2.6208    0.0000 C   0  0  0  0  0  0  0  0  0  0  0  0
    9.2878   -4.1669    0.0000 O   0  0  0  0  0  0  0  0  0  0  0  0
    9.7045   -2.8949    0.0000 C   0  0  0  0  0  0  0  0  0  0  0  0
    8.6189   -2.1163    0.0000 N   0  0  0  0  0  0  0  0  0  0  0  0
   10.9655   -2.4892    0.0000 N   0  0  0  0  0  0  0  0  0  0  0  0
  1  2  2  0  0  0  0
  1  6  1  0  0  0  0
  2  3  1  0  0  0  0
  3  4  2  0  0  0  0
  4  5  1  0  0  0  0
  4 14  1  0  0  0  0
  5  6  2  0  0  0  0
  5  7  1  0  0  0  0
  6  9  1  0  0  0  0
  7  8  2  0  0  0  0
  7 13  1  0  0  0  0
  8  9  1  0  0  0  0
  9 10  1  0  0  0  0
 10 11  1  0  0  0  0
 10 12  1  0  0  0  0
 13 15  2  0  0  0  0
 13 19  1  0  0  0  0
 15 16  1  0  0  0  0
 16 17  2  0  0  0  0
 17 18  1  0  0  0  0
 17 20  1  0  0  0  0
 18 19  2  0  0  0  0
 18 22  1  0  0  0  0
 20 21  1  0  0  0  0
 21 22  2  0  0  0  0
 21 23  1  0  0  0  0
M  END
