
          11280715582D 1   1.00000     0.00000     0

 85 93  0     0  0            999 V2000
   12.5792   -6.3542    0.0000 N   0  0  3  0  0  0           0  0  0
    8.2917   -6.3750    0.0000 N   0  0  3  0  0  0           0  0  0
   -1.7000   -7.2125    0.0000 N   0  0  3  0  0  0           0  0  0
   12.6375   -7.1750    0.0000 C   0  0  0  0  0  0           0  0  0
    8.7917   -7.0250    0.0000 C   0  0  0  0  0  0           0  0  0
   -2.4708   -7.5125    0.0000 C   0  0  0  0  0  0           0  0  0
   11.8625   -5.9417    0.0000 C   0  0  0  0  0  0           0  0  0
    9.0042   -5.9542    0.0000 C   0  0  0  0  0  0           0  0  0
   -2.2458   -8.9792    0.0000 C   0  0  0  0  0  0           0  0  0
   14.1042   -7.4042    0.0000 C   0  0  0  0  0  0           0  0  0
    7.8542   -8.1750    0.0000 C   0  0  0  0  0  0           0  0  0
   13.1792   -5.7917    0.0000 C   0  0  0  0  0  0           0  0  0
    7.4667   -6.3625    0.0000 C   0  0  0  0  0  0           0  0  0
   -2.7125   -8.2917    0.0000 C   0  0  0  0  0  0           0  0  0
   13.3125   -7.6417    0.0000 C   0  0  0  0  0  0           0  0  0
    8.6042   -7.8250    0.0000 C   0  0  0  0  0  0           0  0  0
   -0.9875   -7.6167    0.0000 C   0  0  0  0  0  0           0  0  0
    7.1167   -7.8042    0.0000 N   0  0  0  0  0  0           0  0  0
   14.4042   -6.6375    0.0000 N   0  0  0  0  0  0           0  0  0
   -1.4250   -9.0417    0.0000 N   0  0  0  0  0  0           0  0  0
   -0.8625   -8.4375    0.0000 C   0  0  0  0  0  0           0  0  0
   14.0000   -5.9167    0.0000 C   0  0  0  0  0  0           0  0  0
    6.9417   -7.0000    0.0000 C   0  0  0  0  0  0           0  0  0
   -1.7083   -6.3875    0.0000 C   0  0  0  0  0  0           0  0  0
    1.1542   -3.9042    0.0000 C   0  0  0  0  0  0           0  0  0
    8.9917   -3.4792    0.0000 C   0  0  0  0  0  0           0  0  0
   11.1500   -6.3625    0.0000 C   0  0  0  0  0  0           0  0  0
    9.7167   -6.3667    0.0000 C   0  0  0  0  0  0           0  0  0
   -0.3458   -7.1042    0.0000 N   0  0  0  0  0  0           0  0  0
    7.1792   -5.5917    0.0000 N   0  0  0  0  0  0           0  0  0
   12.8792   -5.0292    0.0000 N   0  0  0  0  0  0           0  0  0
    9.0000   -5.1292    0.0000 O   0  0  0  0  0  0           0  0  0
   11.8542   -5.1167    0.0000 O   0  0  0  0  0  0           0  0  0
   10.4292   -5.9500    0.0000 N   0  0  3  0  0  0           0  0  0
   14.6625   -8.0125    0.0000 O   0  0  0  0  0  0           0  0  0
    7.8417   -9.0000    0.0000 O   0  0  0  0  0  0           0  0  0
   -2.6583   -9.6917    0.0000 O   0  0  0  0  0  0           0  0  0
    8.2792   -3.8917    0.0000 N   0  0  3  0  0  0           0  0  0
    1.8667   -3.4917    0.0000 N   0  0  3  0  0  0           0  0  0
   -2.4208   -5.9750    0.0000 O   0  0  0  0  0  0           0  0  0
    1.1542   -4.7292    0.0000 O   0  0  0  0  0  0           0  0  0
    8.9917   -2.6542    0.0000 O   0  0  0  0  0  0           0  0  0
   -3.5125   -8.4750    0.0000 C   0  0  0  0  0  0           0  0  0
    9.2042   -8.3792    0.0000 C   0  0  0  0  0  0           0  0  0
   13.2417   -8.4542    0.0000 C   0  0  0  0  0  0           0  0  0
   11.9000   -7.5167    0.0000 C   0  0  0  0  0  0           0  0  0
    9.5750   -6.7875    0.0000 C   0  0  0  0  0  0           0  0  0
   -3.0208   -6.9125    0.0000 C   0  0  0  0  0  0           0  0  0
   -0.9875   -5.1500    0.0000 N   0  0  0  0  0  0           0  0  0
   -0.9875   -5.9750    0.0000 C   0  0  0  0  0  0           0  0  0
   14.5125   -5.2792    0.0000 C   0  0  0  0  0  0           0  0  0
   -0.1000   -8.7375    0.0000 C   0  0  0  0  0  0           0  0  0
    6.1292   -6.8667    0.0000 C   0  0  0  0  0  0           0  0  0
    0.4375   -3.4917    0.0000 C   0  0  0  0  0  0           0  0  0
    9.7125   -3.8917    0.0000 C   0  0  0  0  0  0           0  0  0
    0.4250   -7.4042    0.0000 C   0  0  0  0  0  0           0  0  0
   13.4000   -4.3792    0.0000 C   0  0  0  0  0  0           0  0  0
    6.3625   -5.4542    0.0000 C   0  0  0  0  0  0           0  0  0
    7.5667   -3.4792    0.0000 C   0  0  0  0  0  0           0  0  0
    2.5792   -3.9042    0.0000 C   0  0  0  0  0  0           0  0  0
   10.4292   -5.1250    0.0000 C   0  0  0  0  0  0           0  0  0
    1.8667   -2.6667    0.0000 C   0  0  0  0  0  0           0  0  0
    8.2792   -4.7167    0.0000 C   0  0  0  0  0  0           0  0  0
   -1.7083   -4.7375    0.0000 C   0  0  0  0  0  0           0  0  0
   -0.2750   -3.9042    0.0000 C   0  0  0  0  0  0           0  0  0
   10.4250   -3.4750    0.0000 C   0  0  0  0  0  0           0  0  0
    3.2917   -3.4917    0.0000 C   0  0  0  0  0  0           0  0  0
    6.8542   -3.8917    0.0000 C   0  0  0  0  0  0           0  0  0
   11.1417   -4.7125    0.0000 C   0  0  0  0  0  0           0  0  0
   -1.7083   -3.9125    0.0000 C   0  0  0  0  0  0           0  0  0
   14.2167   -4.5167    0.0000 C   0  0  0  0  0  0           0  0  0
    0.5417   -8.2250    0.0000 C   0  0  0  0  0  0           0  0  0
    5.8417   -6.1000    0.0000 C   0  0  0  0  0  0           0  0  0
   -4.0708   -7.8667    0.0000 C   0  0  0  0  0  0           0  0  0
   12.5000   -8.8042    0.0000 C   0  0  0  0  0  0           0  0  0
    9.9875   -8.1500    0.0000 C   0  0  0  0  0  0           0  0  0
   11.8250   -8.3292    0.0000 C   0  0  0  0  0  0           0  0  0
   -3.8208   -7.0792    0.0000 C   0  0  0  0  0  0           0  0  0
   10.1667   -7.3417    0.0000 C   0  0  0  0  0  0           0  0  0
   11.1375   -3.8875    0.0000 C   0  0  0  0  0  0           0  0  0
    4.0042   -3.9000    0.0000 C   0  0  0  0  0  0           0  0  0
    4.7167   -3.4875    0.0000 C   0  0  0  0  0  0           0  0  0
    5.4292   -3.9000    0.0000 C   0  0  0  0  0  0           0  0  0
    6.1417   -3.4875    0.0000 C   0  0  0  0  0  0           0  0  0
   -0.9958   -3.5000    0.0000 C   0  0  0  0  0  0           0  0  0
  2  8  1  0     0  0
  3 24  1  0     0  0
  4  1  1  0     0  0
  5  2  1  0     0  0
  6  3  1  0     0  0
  7  1  1  0     0  0
  8 28  1  0     0  0
  9 14  1  0     0  0
 10 15  1  0     0  0
 11 16  1  0     0  0
 12  1  1  0     0  0
 13  2  1  0     0  0
 14  6  2  0     0  0
 15  4  2  0     0  0
 16  5  2  0     0  0
 17  3  1  0     0  0
 18 23  1  0     0  0
 19 22  1  0     0  0
 20 21  1  0     0  0
 21 17  2  0     0  0
 22 12  2  0     0  0
 23 13  2  0     0  0
 24 50  1  0     0  0
 25 39  1  0     0  0
 26 55  1  0     0  0
 27  7  1  0     0  0
 28 34  1  0     0  0
 29 17  1  0     0  0
 30 13  1  0     0  0
 31 12  1  0     0  0
 32  8  2  0     0  0
 33  7  2  0     0  0
 34 27  1  0     0  0
 35 10  2  0     0  0
 36 11  2  0     0  0
 37  9  2  0     0  0
 38 26  1  0     0  0
 39 60  1  0     0  0
 40 24  2  0     0  0
 41 25  2  0     0  0
 42 26  2  0     0  0
 43 14  1  0     0  0
 44 16  1  0     0  0
 45 15  1  0     0  0
 46  4  1  0     0  0
 47  5  1  0     0  0
 48  6  1  0     0  0
 49 64  1  0     0  0
 50 49  1  0     0  0
 51 22  1  0     0  0
 52 21  1  0     0  0
 53 23  1  0     0  0
 54 25  1  0     0  0
 55 66  1  0     0  0
 56 29  2  0     0  0
 57 31  2  0     0  0
 58 30  2  0     0  0
 59 38  1  0     0  0
 60 67  1  0     0  0
 61 34  1  0     0  0
 62 39  1  0     0  0
 63 38  1  0     0  0
 64 70  1  0     0  0
 65 54  1  0     0  0
 66 80  1  0     0  0
 67 81  1  0     0  0
 68 59  1  0     0  0
 69 61  1  0     0  0
 70 85  1  0     0  0
 71 57  1  0     0  0
 72 56  1  0     0  0
 73 58  1  0     0  0
 74 78  1  0     0  0
 75 77  1  0     0  0
 76 79  1  0     0  0
 77 46  2  0     0  0
 78 48  2  0     0  0
 79 47  2  0     0  0
 80 69  1  0     0  0
 81 82  1  0     0  0
 82 83  1  0     0  0
 83 84  1  0     0  0
 84 68  1  0     0  0
 85 65  1  0     0  0
 10 19  1  0     0  0
 71 51  2  0     0  0
 45 75  2  0     0  0
 11 18  1  0     0  0
 73 53  2  0     0  0
 44 76  2  0     0  0
  9 20  1  0     0  0
 72 52  2  0     0  0
 43 74  2  0     0  0
M  END