
  SciTegic05171617282D

 33 36  0  0  0  0            999 V2000
  -14.0456   -1.3525    0.0000 C   0  0
  -13.0071   -0.7512    0.0000 C   0  0
  -11.7072   -1.4996    0.0000 C   0  0
  -10.4091   -0.7479    0.0000 C   0  0
  -10.4109    0.7522    0.0000 C   0  0
   -9.1106    1.5016    0.0000 N   0  0
   -7.8109    0.7510    0.0000 C   0  0
   -7.8115   -0.4490    0.0000 O   0  0
   -6.5106    1.5004    0.0000 C   0  0
   -5.2109    0.7498    0.0000 N   0  0
   -3.9106    1.4992    0.0000 S   0  0
   -4.9495    2.0999    0.0000 O   0  0
   -3.9101    2.6992    0.0000 O   0  0
   -2.6111    0.7486    0.0000 C   0  0
   -2.6111   -0.7486    0.0000 C   0  0
   -1.2964   -1.4973    0.0000 C   0  0
    0.0000   -0.7486    0.0000 C   0  0
    1.2964   -1.4973    0.0000 N   0  0
    2.5929   -0.7486    0.0000 C   0  0
    3.6321   -1.3486    0.0000 O   0  0
    2.5929    0.7486    0.0000 C   0  0
    1.2964    1.4973    0.0000 C   0  0
    0.0000    0.7486    0.0000 C   0  0
   -1.2964    1.4973    0.0000 C   0  0
   -6.5099    3.0012    0.0000 C   0  0
   -5.2115    3.7525    0.0000 C   0  0
   -5.2129    5.2525    0.0000 C   0  0
   -6.5126    6.0013    0.0000 C   0  0
   -7.8110    5.2501    0.0000 C   0  0
   -7.8096    3.7501    0.0000 C   0  0
  -11.7110    1.5004    0.0000 C   0  0
  -11.7125    2.7004    0.0000 Br  0  0
  -13.0090    0.7488    0.0000 C   0  0
  1  2  1  0
  2  3  2  0
  3  4  1  0
  4  5  2  0
  5  6  1  0
  6  7  1  0
  7  8  2  0
  7  9  1  0
  9 10  1  0
 10 11  1  0
 11 12  2  0
 11 13  2  0
 11 14  1  0
 14 15  2  0
 15 16  1  0
 16 17  2  0
 17 18  1  0
 18 19  1  0
 19 20  2  0
 19 21  1  0
 21 22  1  0
 22 23  1  0
 17 23  1  0
 23 24  2  0
 14 24  1  0
  9 25  1  0
 25 26  2  0
 26 27  1  0
 27 28  2  0
 28 29  1  0
 29 30  2  0
 25 30  1  0
  5 31  1  0
 31 32  1  0
 31 33  2  0
  2 33  1  0
M  END