
          11280714512D 1   1.00000     0.00000     0

 27 27  0     0  0            999 V2000
    4.9125   -8.9667    0.0000 C   0  0  3  0  0  0           0  0  0
    3.3500  -11.0792    0.0000 C   0  0  0  0  0  0           0  0  0
    4.3917   -9.2750    0.0000 N   0  0  0  0  0  0           0  0  0
    3.9500  -11.0792    0.0000 C   0  0  0  0  0  0           0  0  0
    5.4375   -9.2667    0.0000 C   0  0  0  0  0  0           0  0  0
    4.9125   -8.3667    0.0000 C   0  0  0  0  0  0           0  0  0
    2.8292  -10.7792    0.0000 C   0  0  0  0  0  0           0  0  0
    2.8292  -10.1667    0.0000 O   0  0  0  0  0  0           0  0  0
    4.2417  -10.5542    0.0000 O   0  0  0  0  0  0           0  0  0
    5.9542   -8.9625    0.0000 O   0  0  0  0  0  0           0  0  0
    4.3875   -8.0667    0.0000 O   0  0  0  0  0  0           0  0  0
    3.8667   -8.9667    0.0000 C   0  0  0  0  0  0           0  0  0
    3.3500   -9.2625    0.0000 C   0  0  3  0  0  0           0  0  0
    3.3500   -9.8667    0.0000 C   0  0  0  0  0  0           0  0  0
    4.2500  -11.5917    0.0000 O   0  0  0  0  0  0           0  0  0
    5.4417   -9.8667    0.0000 O   0  0  0  0  0  0           0  0  0
    5.4292   -8.0667    0.0000 O   0  0  0  0  0  0           0  0  0
    3.3500  -11.6667    0.0000 C   0  0  0  0  0  0           0  0  0
    2.8292   -8.9667    0.0000 O   0  0  0  0  0  0           0  0  0
    2.3000  -11.0750    0.0000 C   0  0  0  0  0  0           0  0  0
    5.9625  -10.1625    0.0000 C   0  0  0  0  0  0           0  0  0
    5.4250   -7.4667    0.0000 C   0  0  0  0  0  0           0  0  0
    4.8500  -11.5917    0.0000 C   0  0  0  0  0  0           0  0  0
    2.8292  -11.9750    0.0000 C   0  0  0  0  0  0           0  0  0
    5.9667  -10.7625    0.0000 C   0  0  0  0  0  0           0  0  0
    5.9417   -7.1625    0.0000 C   0  0  0  0  0  0           0  0  0
    2.3000  -11.6792    0.0000 C   0  0  0  0  0  0           0  0  0
  2  7  1  0     0  0
  3  1  1  0     0  0
  4  2  1  0     0  0
  5  1  1  0     0  0
  6  1  1  0     0  0
  7  8  1  0     0  0
  8 14  1  0     0  0
  9  4  2  0     0  0
 10  5  2  0     0  0
 11  6  2  0     0  0
 12  3  1  0     0  0
 13 12  1  0     0  0
 14 13  1  0     0  0
 15  4  1  0     0  0
 16  5  1  0     0  0
 17  6  1  0     0  0
 18  2  2  0     0  0
 19 13  1  0     0  0
 20  7  2  0     0  0
 21 16  1  0     0  0
 22 17  1  0     0  0
 23 15  1  0     0  0
 24 27  2  0     0  0
 25 21  1  0     0  0
 26 22  1  0     0  0
 27 20  1  0     0  0
 18 24  1  0     0  0
M  END