
  SciTegic12171313022D

 17 18  0  0  0  0            999 V2000
   13.6042   -6.5757    0.0000 C   0  0
   13.6030   -7.4031    0.0000 C   0  0
   14.3178   -7.8160    0.0000 C   0  0
   15.0343   -7.4026    0.0000 C   0  0
   15.0314   -6.5721    0.0000 C   0  0
   14.3160   -6.1630    0.0000 C   0  0
   15.7494   -7.8140    0.0000 O   0  0
   15.7507   -8.6390    0.0000 C   0  0
   16.4658   -9.0504    0.0000 C   0  0
   15.7443   -6.1569    0.0000 N   0  0
   15.7412   -5.3319    0.0000 C   0  0
   16.4261   -4.8716    0.0000 C   0  0
   15.0252   -4.9221    0.0000 O   0  0
   17.1993   -5.1504    0.0000 C   0  0
   17.7083   -4.5011    0.0000 C   0  0
   17.2481   -3.8164    0.0000 O   0  0
   16.4547   -4.0426    0.0000 C   0  0
  1  2  2  0
  2  3  1  0
  3  4  2  0
  4  5  1  0
  5  6  2  0
  6  1  1  0
  4  7  1  0
  7  8  1  0
  8  9  1  0
  5 10  1  0
 10 11  1  0
 11 12  1  0
 11 13  2  0
 12 14  1  0
 14 15  2  0
 15 16  1  0
 16 17  1  0
 17 12  2  0
M  END