
  SciTegic02011310462D

 27 29  0  0  0  0            999 V2000
   17.7333   -5.5346    0.0000 C   0  0
   17.7321   -6.3541    0.0000 C   0  0
   18.4402   -6.7631    0.0000 C   0  0
   18.4384   -5.1257    0.0000 C   0  0
   19.1470   -5.5310    0.0000 C   0  0
   19.1459   -6.3516    0.0000 C   0  0
   19.8521   -6.7607    0.0000 O   0  0
   20.5639   -6.3536    0.0000 C   0  0
   19.8544   -5.1194    0.0000 C   0  0
   20.5641   -5.5343    0.0000 C   0  0
   21.2707   -6.7638    0.0000 O   0  0
   18.4360   -4.3085    0.0000 O   0  0
   21.2729   -5.1277    0.0000 C   0  0
   21.2753   -4.3106    0.0000 C   0  0
   21.9846   -3.9062    0.0000 C   0  0
   21.9873   -3.0897    0.0000 C   0  0
   21.2802   -2.6783    0.0000 C   0  0
   20.5690   -3.0893    0.0000 C   0  0
   20.5698   -3.9044    0.0000 C   0  0
   17.7270   -3.9020    0.0000 C   0  0
   22.6963   -2.6835    0.0000 O   0  0
   23.4027   -3.0944    0.0000 C   0  0
   17.0241   -6.7621    0.0000 C   0  0
   16.3167   -6.3530    0.0000 C   0  0
   15.6087   -6.7610    0.0000 C   0  0
   14.9013   -6.3519    0.0000 C   0  0
   14.1933   -6.7599    0.0000 C   0  0
  1  2  2  0
  2  3  1  0
  3  6  2  0
  5  4  2  0
  4  1  1  0
  5  6  1  0
  5  9  1  0
  6  7  1  0
  7  8  1  0
  8 10  1  0
  9 10  2  0
  8 11  2  0
  4 12  1  0
 10 13  1  0
 13 14  1  0
 14 15  2  0
 15 16  1  0
 16 17  2  0
 17 18  1  0
 18 19  2  0
 19 14  1  0
 12 20  1  0
 16 21  1  0
 21 22  1  0
  2 23  1  0
 23 24  1  0
 24 25  1  0
 25 26  1  0
 26 27  1  0
M  END