
  SciTegic11201309402D

 51 53  0  0  0  0            999 V2000
   -0.0796   -0.1041    0.0000 C   0  0
   -0.4921   -0.8186    0.0000 C   0  0
   -1.3171   -0.8186    0.0000 C   0  0
   -1.7296   -0.1041    0.0000 C   0  0
   -1.3171    0.6103    0.0000 C   0  0
   -0.4921    0.6103    0.0000 C   0  0
    1.1507   -1.9071    0.0000 C   0  0
    1.2453   -1.0876    0.0000 C   0  0  2  0  0  0
    0.4882   -1.4154    0.0000 C   0  0
    0.3936   -2.2350    0.0000 O   0  0
    1.8131   -2.3989    0.0000 C   0  0
    1.7185   -3.2184    0.0000 C   0  0
    2.3809   -3.7102    0.0000 C   0  0
    3.1380   -3.3823    0.0000 C   0  0
    3.2326   -2.5628    0.0000 C   0  0
    2.5702   -2.0711    0.0000 C   0  0
    3.8004   -3.8741    0.0000 O   0  0
   -0.7420    0.3876    0.0000 C   0  0
    0.1097    1.5350    0.0000 C   0  0  1  0  0  0
    0.7721    1.0432    0.0000 C   0  0
    0.2043    2.3545    0.0000 C   0  0
    0.6775    0.2237    0.0000 O   0  0
   -0.4581    2.8463    0.0000 C   0  0
   -1.2152    2.5184    0.0000 O   0  0
    2.1916    0.8793    0.0000 C   0  0  2  0  0  0
    2.2863    1.6989    0.0000 C   0  0
    2.6648   -1.2515    0.0000 C   0  0
    3.3273   -1.7432    0.0000 C   0  0
    2.7594   -0.4320    0.0000 O   0  0
    1.6238    2.1906    0.0000 C   0  0
    3.0434    2.0267    0.0000 C   0  0
    2.9487    1.2072    0.0000 C   0  0
    3.5070    1.8146    0.0000 O   0  0
    3.5165   -0.1041    0.0000 C   0  0  2  0  0  0
    4.1790   -0.5959    0.0000 C   0  0
    4.0843   -1.4154    0.0000 S   0  3
    4.2736    0.2237    0.0000 C   0  0
    4.9360   -0.2680    0.0000 O   0  0
    4.7468   -1.9071    0.0000 O   0  5
    4.5575   -3.5463    0.0000 P   0  0
    5.3146   -3.2184    0.0000 O   0  0
    4.8853   -4.3033    0.0000 O   0  0
    4.2297   -2.7892    0.0000 O   0  0
    1.9077   -1.5793    0.0000 N   0  0
   -0.1742   -0.9237    0.0000 N   0  0
    1.5292    1.3711    0.0000 N   0  0
   -0.3635    3.6658    0.0000 N   0  0
    3.6112    0.7154    0.0000 N   0  0
    4.3682    1.0432    0.0000 N   0  0
   -1.4991    0.0598    0.0000 O   0  0
   -0.6474    1.2072    0.0000 N   0  0
 12 13  1  0
 13 14  2  0
 14 15  1  0
 15 16  2  0
 16 11  1  0
 14 17  1  0
  1 18  1  0
 19 21  1  6
 20 22  2  0
 21 23  1  0
 23 24  2  0
 25 26  1  1
 27 28  1  0
 27 29  2  0
 26 30  1  0
 26 31  1  0
 25 32  1  0
 32 33  2  0
 34 35  1  0
 36 35  1  0
 34 37  1  6
 37 38  2  0
 36 28  1  0
  4  5  1  0
 36 39  1  1
  5  6  1  0
 17 40  1  0
 40 41  1  0
  1  2  1  0
 40 42  2  0
  1  6  1  0
 40 43  1  0
  2  3  1  0
  3  4  1  0
  8  7  1  1
  8  9  1  0
  9 10  2  0
 20 46  1  0
 46 25  1  0
 45  1  1  0
  9 45  1  0
 23 47  1  0
 44 27  1  0
  8 44  1  0
 32 48  1  0
 48 34  1  0
 37 49  1  0
 19 20  1  0
 18 50  2  0
 18 51  1  0
 51 19  1  0
  7 11  1  0
 11 12  2  0
M  CHG  2  36   1  39  -1
M  END