
          11280714542D 1   1.00000     0.00000     0

 34 36  0     0  0            999 V2000
    1.2292   -5.3292    0.0000 C   0  0  0  0  0  0           0  0  0
    1.7542   -5.6250    0.0000 N   0  0  0  0  0  0           0  0  0
    4.9250   -4.4417    0.0000 N   0  0  3  0  0  0           0  0  0
    2.2667   -5.3250    0.0000 C   0  0  0  0  0  0           0  0  0
    0.7167   -5.6292    0.0000 C   0  0  0  0  0  0           0  0  0
    4.6917   -5.1500    0.0000 C   0  0  3  0  0  0           0  0  0
    4.3667   -4.7542    0.0000 C   0  0  3  0  0  0           0  0  0
    3.3125   -5.3167    0.0000 C   0  0  3  0  0  0           0  0  0
    3.8292   -5.0125    0.0000 C   0  0  0  0  0  0           0  0  0
    3.5417   -4.6167    0.0000 C   0  0  0  0  0  0           0  0  0
    2.7917   -5.6167    0.0000 N   0  0  0  0  0  0           0  0  0
    6.1292   -5.2792    0.0000 C   0  0  0  0  0  0           0  0  0
    7.3292   -5.2792    0.0000 C   0  0  0  0  0  0           0  0  0
    7.0292   -4.7667    0.0000 C   0  0  0  0  0  0           0  0  0
    6.4292   -4.7667    0.0000 C   0  0  0  0  0  0           0  0  0
    0.1917   -5.3292    0.0000 C   0  0  0  0  0  0           0  0  0
   -0.8458   -4.7375    0.0000 C   0  0  3  0  0  0           0  0  0
   -1.4458   -4.7417    0.0000 C   0  0  0  0  0  0           0  0  0
   -1.1458   -5.2625    0.0000 C   0  0  0  0  0  0           0  0  0
    1.2292   -4.7292    0.0000 O   0  0  0  0  0  0           0  0  0
    2.2667   -4.7250    0.0000 O   0  0  0  0  0  0           0  0  0
    0.1917   -4.7292    0.0000 O   0  0  0  0  0  0           0  0  0
    4.1667   -5.4500    0.0000 C   0  0  0  0  0  0           0  0  0
    4.6875   -5.7500    0.0000 C   0  0  0  0  0  0           0  0  0
    5.5292   -5.2792    0.0000 O   0  0  0  0  0  0           0  0  0
    7.9292   -5.2792    0.0000 O   0  0  0  0  0  0           0  0  0
   -0.3333   -4.4375    0.0000 C   0  0  0  0  0  0           0  0  0
    6.4292   -5.8042    0.0000 O   0  0  0  0  0  0           0  0  0
    7.0292   -5.8042    0.0000 O   0  0  0  0  0  0           0  0  0
    5.2167   -3.9250    0.0000 C   0  0  0  0  0  0           0  0  0
    0.7167   -6.2375    0.0000 C   0  0  0  0  0  0           0  0  0
   -0.3208   -5.6292    0.0000 C   0  0  0  0  0  0           0  0  0
    0.1917   -6.5375    0.0000 C   0  0  0  0  0  0           0  0  0
   -0.3208   -6.2375    0.0000 C   0  0  0  0  0  0           0  0  0
  2  1  1  0     0  0
  3  6  1  0     0  0
  4  2  1  0     0  0
  5  1  1  0     0  0
  6  9  1  0     0  0
  7 10  1  0     0  0
  8 11  1  0     0  0
  9  8  1  0     0  0
 10  8  1  0     0  0
 11  4  1  0     0  0
 13 14  1  0     0  0
 14 15  2  0     0  0
 15 12  1  0     0  0
 16  5  2  0     0  0
 17 27  1  0     0  0
 18 17  1  0     0  0
 19 17  1  0     0  0
 20  1  2  0     0  0
 21  4  2  0     0  0
 22 16  1  0     0  0
 23  7  1  0     0  0
 24  6  1  0     0  0
 25 12  2  0     0  0
 26 13  2  0     0  0
 27 22  1  0     0  0
 28 12  1  0     0  0
 29 13  1  0     0  0
 30  3  1  0     0  0
 31  5  1  0     0  0
 32 16  1  0     0  0
 33 31  2  0     0  0
 34 33  1  0     0  0
 34 32  2  0     0  0
 18 19  1  0     0  0
  7  3  1  0     0  0
 23 24  1  0     0  0
M  END