
  SciTegic12171312552D

 71 77  0  0  0  0            999 V2000
   19.8001  -15.5298    0.0000 F   0  0
   20.6039  -15.3174    0.0000 B   0  5
   20.0160  -14.7270    0.0000 F   0  0
   20.3402  -12.6455    0.0000 C   0  0
   20.3406  -13.4743    0.0000 C   0  0
   21.0590  -13.8862    0.0000 C   0  0
   22.3741  -14.1614    0.0000 C   0  0
   21.8178  -13.5490    0.0000 C   0  0
   21.9580  -14.8800    0.0000 C   0  0
   21.1514  -14.7080    0.0000 N   0  3
   22.2173  -15.6618    0.0000 C   0  0
   21.6606  -16.2748    0.0000 C   0  0
   20.8538  -16.1052    0.0000 N   0  0
   20.4445  -16.8202    0.0000 C   0  0
   20.9941  -17.4292    0.0000 C   0  0
   21.7472  -17.0947    0.0000 C   0  0
   19.6203  -16.9073    0.0000 C   0  0
   19.0638  -16.2958    0.0000 S   0  0
   18.3067  -16.6321    0.0000 C   0  0
   19.2047  -17.6310    0.0000 C   0  0
   18.3924  -17.4540    0.0000 C   0  0
   18.3924  -17.4540    0.0000 C   0  0
    3.2006  -12.6661    0.0000 C   0  0
    3.1983  -13.4901    0.0000 C   0  0
    3.9139  -13.8999    0.0000 N   0  0
    4.6305  -13.4940    0.0000 C   0  0
    4.6306  -12.6659    0.0000 N   0  0
    3.9121  -12.2510    0.0000 C   0  0
    2.4196  -12.4088    0.0000 N   0  0
    1.9351  -13.0799    0.0000 C   0  0
    2.4160  -13.7404    0.0000 N   0  0
    3.9121  -11.4263    0.0000 N   0  0
    4.6298  -11.0141    0.0000 C   0  0
    5.3433  -11.4263    0.0000 C   0  0
    2.1635  -14.5239    0.0000 C   0  0  2  0  0  0
    1.3724  -14.7873    0.0000 O   0  0
    1.3740  -15.6079    0.0000 C   0  0  1  0  0  0
    2.1558  -15.8619    0.0000 C   0  0  2  0  0  0
    2.6445  -15.2010    0.0000 C   0  0  1  0  0  0
    3.4692  -15.2010    0.0000 O   0  0
    2.4150  -16.6508    0.0000 O   0  0
    0.7033  -16.0934    0.0000 C   0  0
   -0.0503  -15.7557    0.0000 N   0  0
    0.7886  -16.9143    0.0000 O   0  0
   -0.7148  -16.2369    0.0000 C   0  0
   -1.4761  -15.9035    0.0000 C   0  0
    6.0546  -11.0141    0.0000 O   0  0
    6.7712  -11.4286    0.0000 C   0  0
    7.4815  -11.0146    0.0000 C   0  0
    8.1982  -11.4250    0.0000 O   0  0
    8.9126  -11.0110    0.0000 C   0  0
    9.6250  -11.4214    0.0000 C   0  0
   10.3395  -11.0073    0.0000 N   0  0
   11.0562  -11.4177    0.0000 C   0  0
   11.7665  -11.0079    0.0000 C   0  0
   11.0541  -12.2424    0.0000 O   0  0
   12.4831  -11.4182    0.0000 C   0  0
   13.1975  -11.0042    0.0000 C   0  0
   13.9100  -11.4146    0.0000 C   0  0
   14.6245  -11.0006    0.0000 C   0  0
   15.3411  -11.4110    0.0000 N   0  0
   16.0556  -11.0011    0.0000 C   0  0
   16.7680  -11.4115    0.0000 C   0  0
   16.0535  -10.1722    0.0000 O   0  0
   17.4824  -10.9975    0.0000 O   0  0
   18.1949  -11.4078    0.0000 C   0  0
   18.1981  -12.2325    0.0000 C   0  0
   18.9152  -12.6421    0.0000 C   0  0
   19.6291  -12.2325    0.0000 C   0  0
   19.6291  -11.4078    0.0000 C   0  0
   18.9152  -10.9984    0.0000 C   0  0
  2  1  1  0
  3  2  1  0
  4  5  2  0
  5  6  1  0
  6 10  2  0
  9  7  1  0
  7  8  2  0
  8  6  1  0
  9 10  1  0
  9 11  2  0
 10  2  1  0
  2 13  1  0
 12 11  1  0
 12 13  1  0
 13 14  1  0
 14 15  2  0
 15 16  1  0
 16 12  2  0
 14 17  1  0
 17 18  1  0
 18 19  1  0
 19 22  2  0
 21 20  1  0
 20 17  2  0
 23 24  2  0
 24 25  1  0
 25 26  2  0
 26 27  1  0
 27 28  2  0
 28 23  1  0
 23 29  1  0
 29 30  2  0
 30 31  1  0
 31 24  1  0
 28 32  1  0
 32 33  1  0
 33 34  1  0
 35 31  1  1
 35 36  1  0
 36 37  1  0
 37 38  1  0
 38 39  1  0
 39 35  1  0
 39 40  1  6
 38 41  1  6
 37 42  1  1
 42 43  1  0
 42 44  2  0
 43 45  1  0
 45 46  1  0
 34 47  1  0
 47 48  1  0
 48 49  1  0
 49 50  1  0
 50 51  1  0
 51 52  1  0
 52 53  1  0
 53 54  1  0
 54 55  1  0
 54 56  2  0
 55 57  1  0
 57 58  1  0
 58 59  1  0
 59 60  1  0
 60 61  1  0
 61 62  1  0
 62 63  1  0
 62 64  2  0
 63 65  1  0
 65 66  1  0
 66 67  2  0
 67 68  1  0
 68 69  2  0
 69 70  1  0
 70 71  2  0
 71 66  1  0
 69  4  1  0
M  CHG  2   2  -1  10   1
M  END