
  SciTegic11201309402D

 76 80  0  0  1  0            999 V2000
    5.1625   -5.9792    0.0000 N   0  0
    5.4167   -5.1917    0.0000 C   0  0
    3.6417   -0.0250    0.0000 N   0  0
    4.8667   -4.5750    0.0000 C   0  0  1  0  0  0
    5.0625   -0.8417    0.0000 C   0  0
    5.3792   -3.9292    0.0000 N   0  0
    5.5125   -1.5292    0.0000 N   0  0
    1.3292   -0.6500    0.0000 N   0  0
    2.8167    0.0208    0.0000 C   0  0
    5.6792   -3.1625    0.0000 C   0  0
    0.8042   -1.2917    0.0000 C   0  0
    6.4792   -6.6417    0.0000 C   0  0
    4.4167   -0.3167    0.0000 C   0  0  2  0  0  0
    5.7167   -2.3375    0.0000 C   0  0  1  0  0  0
    0.4625   -2.8875    0.0000 N   0  0
    5.6500   -6.6417    0.0000 C   0  0  2  0  0  0
    2.0167   -0.1917    0.0000 C   0  0  1  0  0  0
    0.6792   -3.6792    0.0000 C   0  0
    0.5042   -2.0625    0.0000 C   0  0  2  0  0  0
    6.8917   -7.3542    0.0000 N   0  0
    6.5417   -2.2500    0.0000 C   0  0
    8.1292   -8.0750    0.0000 C   0  0
   10.6125   -5.2125    0.0000 C   0  0
    1.1292   -4.3792    0.0000 C   0  0
    3.3750   -5.2417    0.0000 S   0  0
    2.5917   -5.3250    0.0000 S   0  0
    7.2542   -1.8292    0.0000 C   0  0
    8.9542   -8.0750    0.0000 N   0  0
    1.7750   -4.9000    0.0000 C   0  0
    7.7167   -7.3542    0.0000 C   0  0  2  0  0  0
   10.1917   -8.7917    0.0000 C   0  0
   11.4375   -5.2125    0.0000 N   0  0
    6.2292   -5.0167    0.0000 O   0  0
    5.6667   -0.2917    0.0000 O   0  0
    4.1667   -5.0250    0.0000 C   0  0
    6.8917   -5.9292    0.0000 O   0  0
    2.7750    0.7208    0.0000 O   0  0
    0.0917   -0.8792    0.0000 O   0  0
    6.4875   -3.3292    0.0000 O   0  0
    1.6875    0.5583    0.0000 C   0  0
   -0.3000   -1.8917    0.0000 C   0  0
   -0.0708   -4.0167    0.0000 O   0  0
    7.7167   -8.7917    0.0000 O   0  0
    7.2500   -1.0042    0.0000 O   0  0
   10.6125   -8.0750    0.0000 O   0  0
   10.1917   -5.9292    0.0000 N   0  0
    9.3667   -8.7917    0.0000 C   0  0
   10.1917   -4.4917    0.0000 N   0  0
    4.8292    0.3958    0.0000 C   0  0
    4.3750   -6.2292    0.0000 C   0  0
    7.9750   -2.2417    0.0000 N   0  0
   10.6042   -9.5042    0.0000 N   0  0
   -0.5583   -1.1042    0.0000 C   0  0
    2.1667    1.2333    0.0000 C   0  0
    5.1625   -7.3167    0.0000 C   0  0
    4.3750   -7.0625    0.0000 C   0  0
    2.2417   -5.5167    0.0000 C   0  0
    1.0000   -4.8042    0.0000 C   0  0
    8.1292   -6.6417    0.0000 C   0  0
    9.3667   -5.9292    0.0000 C   0  0
    4.4125    1.1083    0.0000 C   0  0
    5.6542    0.3958    0.0000 C   0  0
   -1.3708   -0.9292    0.0000 C   0  0
    1.8375    1.9833    0.0000 C   0  0
    2.9917    1.1375    0.0000 C   0  0
   -0.0083   -0.4917    0.0000 C   0  0
    8.9542   -6.6417    0.0000 C   0  0
    1.8292   -6.2375    0.0000 C   0  0
    0.5917   -5.5167    0.0000 C   0  0
   -0.2583    0.2958    0.0000 C   0  0
    2.3167    2.6583    0.0000 C   0  0
    3.4750    1.8083    0.0000 C   0  0
   -1.6208   -0.1417    0.0000 C   0  0
    1.0000   -6.2375    0.0000 C   0  0
   -1.0708    0.4708    0.0000 C   0  0
    3.1417    2.5625    0.0000 C   0  0
  2  1  1  0
  3 13  1  0
  4  2  1  6
  5  7  1  0
  6  4  1  0
  7 14  1  0
  8 11  1  0
  9  3  1  0
 10  6  1  0
 11 19  1  0
 16 12  1  6
 13  5  1  0
 14 10  1  0
 15 18  1  0
 16  1  1  0
 17  9  1  0
 18 24  1  0
 19 15  1  0
 20 12  1  0
 14 21  1  6
 22 30  1  0
 23 46  2  0
 24 29  1  0
 25 35  1  0
 26 25  1  0
 27 21  1  0
 28 22  1  0
 29 26  1  0
 30 20  1  1
 31 47  1  0
 32 23  1  0
 33  2  2  0
 34  5  2  0
  4 35  1  0
 36 12  2  0
 37  9  2  0
 38 11  2  0
 39 10  2  0
 17 40  1  6
 19 41  1  6
 42 18  2  0
 43 22  2  0
 44 27  2  0
 45 31  2  0
 46 60  1  0
 47 28  1  0
 48 23  1  0
 13 49  1  1
 50  1  1  0
 51 27  1  0
 52 31  1  0
 53 41  1  0
 54 40  1  0
 16 55  1  0
 56 50  1  0
 57 29  1  0
 58 29  1  0
 30 59  1  0
 60 67  1  0
 61 49  1  0
 62 49  1  0
 63 53  1  0
 64 54  1  0
 65 54  2  0
 66 53  2  0
 67 59  1  0
 68 57  1  0
 69 58  1  0
 70 66  1  0
 71 64  2  0
 72 65  1  0
 73 63  2  0
 74 69  1  0
 75 70  2  0
 76 72  2  0
 55 56  1  0
 74 68  1  0
  8 17  1  0
 75 73  1  0
 76 71  1  0
M  END