
  SciTegic12231509382D

 20 22  0  0  0  0            999 V2000
   13.7546    1.6394    0.0000 C   0  0
   13.7534    0.8132    0.0000 C   0  0
   14.4672    0.4009    0.0000 C   0  0
   15.1808    0.8179    0.0000 C   0  0
   15.1798    1.6430    0.0000 C   0  0
   15.8270    2.1642    0.0000 C   0  0
   15.8327    0.3023    0.0000 C   0  0  2  0  0  0
   16.6356    1.9868    0.0000 C   0  0
   16.6411    0.4908    0.0000 C   0  0
   16.9957    1.2414    0.0000 N   0  0
   13.0396    0.4018    0.0000 O   0  0
   15.8250   -0.5198    0.0000 C   0  0
   15.1051   -0.9227    0.0000 C   0  0
   15.0951   -1.7458    0.0000 C   0  0
   15.8042   -2.1669    0.0000 C   0  0
   16.5249   -1.7589    0.0000 C   0  0
   16.5314   -0.9372    0.0000 C   0  0
   14.4654    2.0517    0.0000 C   0  0
   14.4654    2.8767    0.0000 Cl  0  0
   13.0400    2.0517    0.0000 O   0  0
  6  8  1  0
  7  9  1  0
  5 18  2  0
  8 10  1  0
  9 10  1  0
 18  1  1  0
  2 11  1  0
  1  2  2  0
  4  5  1  0
 12 13  2  0
 13 14  1  0
  5  6  1  0
 14 15  2  0
  2  3  1  0
 15 16  1  0
  4  7  1  0
 16 17  2  0
 17 12  1  0
  7 12  1  6
  3  4  2  0
  1 20  1  0
 18 19  1  0
M  END