
  SciTegic01161211262D

 41 45  0  0  0  0            999 V2000
    6.1410   -7.9547    0.0000 C   0  0
    6.9670   -7.9537    0.0000 C   0  0
    7.2234   -8.7383    0.0000 C   0  0
    6.5541   -9.2250    0.0000 N   0  0
    5.8891   -8.7383    0.0000 N   0  0
    7.3818   -7.2444    0.0000 C   0  0
    8.2078   -7.2516    0.0000 C   0  0
    8.6253   -6.5410    0.0000 C   0  0
    8.2179   -5.8226    0.0000 C   0  0
    7.3886   -5.8193    0.0000 C   0  0
    6.9749   -6.5306    0.0000 C   0  0
    5.7498   -7.2336    0.0000 C   0  0
    6.1847   -6.5311    0.0000 C   0  0
    5.7938   -5.8055    0.0000 C   0  0
    4.9683   -5.7810    0.0000 C   0  0
    4.5352   -6.4882    0.0000 C   0  0
    4.9285   -7.2110    0.0000 C   0  0
    4.5758   -5.0554    0.0000 Cl  0  0
    6.5529  -10.0500    0.0000 C   0  0
    5.8378  -10.4614    0.0000 N   0  0
    5.8365  -11.2864    0.0000 S   0  0
    5.1214  -11.6978    0.0000 C   0  0
    4.4101  -11.2818    0.0000 C   0  0
    3.6954  -11.6925    0.0000 C   0  0
    3.6937  -12.5184    0.0000 C   0  0
    4.4126  -12.9318    0.0000 C   0  0
    5.1243  -12.5187    0.0000 C   0  0
    6.2417  -11.9958    0.0000 O   0  0
    6.5458  -10.8667    0.0000 O   0  0
    2.9792  -12.9307    0.0000 Cl  0  0
    7.2667  -10.4636    0.0000 N   0  0
    7.2634  -11.2884    0.0000 C   0  0
    7.9732  -11.7018    0.0000 C   0  0
    8.6907  -11.2939    0.0000 N   0  0
    8.6939  -10.4680    0.0000 C   0  0
    7.9796  -10.0499    0.0000 C   0  0
    9.4030  -11.7102    0.0000 C   0  0
    9.3986  -12.5352    0.0000 C   0  0
   10.1109  -12.9515    0.0000 N   0  0
   10.1065  -13.7765    0.0000 C   0  0
   10.8275  -12.5428    0.0000 C   0  0
  9 10  1  0
 19 20  2  0
  5  1  2  0
 20 21  1  0
 10 11  2  0
 21 22  1  0
 11  6  1  0
 22 23  2  0
  2  6  1  0
 23 24  1  0
  1  2  1  0
 24 25  2  0
 25 26  1  0
 12 13  2  0
 26 27  2  0
 27 22  1  0
  6  7  2  0
 21 28  2  0
 13 14  1  0
 21 29  2  0
  2  3  1  0
 25 30  1  0
 14 15  2  0
 19 31  1  0
 31 32  1  0
  7  8  1  0
 15 16  1  0
  3  4  1  0
 16 17  2  0
 17 12  1  0
 31 36  1  0
 32 33  1  0
 33 34  1  0
 34 35  1  0
 35 36  1  0
  1 12  1  0
 34 37  1  0
  8  9  2  0
 37 38  1  0
 15 18  1  0
 38 39  1  0
  4  5  1  0
 39 40  1  0
  4 19  1  0
 39 41  1  0
M  END