
          11280715432D 1   1.00000     0.00000     0

 30 33  0     1  0            999 V2000
   -1.6625   -1.1167    0.0000 C   0  0  0  0  0  0           0  0  0
   -0.5333   -0.4042    0.0000 C   0  0  0  0  0  0           0  0  0
   -1.1625    0.1208    0.0000 C   0  0  0  0  0  0           0  0  0
   -0.8375   -1.1667    0.0000 N   0  0  0  0  0  0           0  0  0
   -1.8583   -0.3167    0.0000 S   0  0  0  0  0  0           0  0  0
   -2.2000   -1.7417    0.0000 N   0  0  0  0  0  0           0  0  0
   -3.0125   -1.5917    0.0000 C   0  0  0  0  0  0           0  0  0
    0.2375   -0.1292    0.0000 C   0  0  0  0  0  0           0  0  0
   -1.1458    0.9458    0.0000 C   0  0  0  0  0  0           0  0  0
   -3.5458   -2.2167    0.0000 O   0  0  0  0  0  0           0  0  0
   -3.2875   -0.8167    0.0000 C   0  0  1  0  0  0           0  0  0
    0.3792    0.6833    0.0000 C   0  0  0  0  0  0           0  0  0
    0.8667   -0.6542    0.0000 C   0  0  0  0  0  0           0  0  0
    1.7875    0.4458    0.0000 C   0  0  0  0  0  0           0  0  0
    2.5667    0.7208    0.0000 C   0  0  0  0  0  0           0  0  0
   -4.0958   -0.6667    0.0000 N   0  0  0  0  0  0           0  0  0
    1.1500    0.9708    0.0000 C   0  0  0  0  0  0           0  0  0
    1.6375   -0.3667    0.0000 C   0  0  0  0  0  0           0  0  0
    3.2000    0.1958    0.0000 C   0  0  0  0  0  0           0  0  0
   -1.8500    1.3708    0.0000 C   0  0  0  0  0  0           0  0  0
   -0.4250    1.3333    0.0000 C   0  0  0  0  0  0           0  0  0
   -2.7500   -0.1917    0.0000 C   0  0  0  0  0  0           0  0  0
    3.0542   -0.6167    0.0000 C   0  0  0  0  0  0           0  0  0
    3.9750    0.4708    0.0000 C   0  0  0  0  0  0           0  0  0
   -1.8333    2.2083    0.0000 C   0  0  0  0  0  0           0  0  0
   -0.4083    2.1708    0.0000 C   0  0  0  0  0  0           0  0  0
    3.6875   -1.1417    0.0000 C   0  0  0  0  0  0           0  0  0
    4.6042   -0.0667    0.0000 C   0  0  0  0  0  0           0  0  0
   -1.1125    2.5833    0.0000 C   0  0  0  0  0  0           0  0  0
    4.4625   -0.8667    0.0000 C   0  0  0  0  0  0           0  0  0
  2  4  1  0     0  0
  3  5  1  0     0  0
  4  1  2  0     0  0
  5  1  1  0     0  0
  6  1  1  0     0  0
  7  6  1  0     0  0
  8  2  1  0     0  0
  9  3  1  0     0  0
 10  7  2  0     0  0
 11  7  1  0     0  0
 12  8  1  0     0  0
 13  8  2  0     0  0
 14 18  2  0     0  0
 15 14  1  0     0  0
 16 11  1  0     0  0
 17 12  2  0     0  0
 18 13  1  0     0  0
 19 15  1  0     0  0
 20  9  1  0     0  0
 21  9  2  0     0  0
 11 22  1  1     0  0
 23 19  2  0     0  0
 24 19  1  0     0  0
 25 20  2  0     0  0
 26 21  1  0     0  0
 27 23  1  0     0  0
 28 24  2  0     0  0
 29 26  2  0     0  0
 30 28  1  0     0  0
  3  2  2  0     0  0
 14 17  1  0     0  0
 29 25  1  0     0  0
 30 27  2  0     0  0
M  END