
          11280714582D 1   1.00000     0.00000     0

 30 33  0     0  0            999 V2000
    5.5417   -4.1250    0.0000 C   0  0  0  0  0  0           0  0  0
    6.2792   -2.9042    0.0000 C   0  0  0  0  0  0           0  0  0
    6.2542   -4.5542    0.0000 O   0  0  0  0  0  0           0  0  0
    6.9750   -4.1542    0.0000 C   0  0  0  0  0  0           0  0  0
    5.5625   -3.3042    0.0000 C   0  0  0  0  0  0           0  0  0
   -0.9000   -5.2625    0.0000 N   0  0  3  0  0  0           0  0  0
    6.9917   -3.3250    0.0000 C   0  0  0  0  0  0           0  0  0
   -1.6125   -5.6625    0.0000 C   0  0  0  0  0  0           0  0  0
    4.8292   -4.5292    0.0000 C   0  0  0  0  0  0           0  0  0
    0.5417   -4.4542    0.0000 N   0  0  3  0  0  0           0  0  0
    4.8500   -2.8792    0.0000 C   0  0  0  0  0  0           0  0  0
   -0.1875   -5.6792    0.0000 C   0  0  0  0  0  0           0  0  0
   -0.8750   -4.4292    0.0000 C   0  0  0  0  0  0           0  0  0
    7.6875   -4.5750    0.0000 O   0  0  0  0  0  0           0  0  0
   -2.3208   -5.2292    0.0000 C   0  0  0  0  0  0           0  0  0
   -0.1583   -4.0292    0.0000 C   0  0  0  0  0  0           0  0  0
    0.5375   -5.2792    0.0000 C   0  0  0  0  0  0           0  0  0
    4.1250   -4.1042    0.0000 C   0  0  0  0  0  0           0  0  0
    4.1292   -3.2792    0.0000 C   0  0  0  0  0  0           0  0  0
    6.2917   -2.0792    0.0000 C   0  0  0  0  0  0           0  0  0
   -2.3083   -4.4042    0.0000 O   0  0  0  0  0  0           0  0  0
    1.2667   -4.0542    0.0000 C   0  0  0  0  0  0           0  0  0
    1.9750   -4.4792    0.0000 C   0  0  0  0  0  0           0  0  0
    3.4042   -4.5042    0.0000 O   0  0  0  0  0  0           0  0  0
   -1.6333   -6.4792    0.0000 C   0  0  0  0  0  0           0  0  0
    2.6917   -4.0667    0.0000 C   0  0  0  0  0  0           0  0  0
   -3.0458   -5.6292    0.0000 C   0  0  0  0  0  0           0  0  0
   -3.0125   -3.9750    0.0000 C   0  0  0  0  0  0           0  0  0
   -2.3458   -6.8792    0.0000 C   0  0  0  0  0  0           0  0  0
   -3.0583   -6.4542    0.0000 C   0  0  0  0  0  0           0  0  0
  2  5  1  0     0  0
  3  1  1  0     0  0
  4  3  1  0     0  0
  5  1  2  0     0  0
  6 12  1  0     0  0
  7  2  2  0     0  0
  8  6  1  0     0  0
  9  1  1  0     0  0
 10 22  1  0     0  0
 11  5  1  0     0  0
 12 17  1  0     0  0
 13 16  1  0     0  0
 14  4  2  0     0  0
 15  8  2  0     0  0
 16 10  1  0     0  0
 17 10  1  0     0  0
 18  9  2  0     0  0
 19 18  1  0     0  0
 20  2  1  0     0  0
 21 15  1  0     0  0
 22 23  1  0     0  0
 23 26  1  0     0  0
 24 18  1  0     0  0
 25  8  1  0     0  0
 26 24  1  0     0  0
 27 15  1  0     0  0
 28 21  1  0     0  0
 29 25  2  0     0  0
 30 29  1  0     0  0
 11 19  2  0     0  0
  4  7  1  0     0  0
 13  6  1  0     0  0
 27 30  2  0     0  0
M  END