
  SciTegic06271217572D

 24 26  0  0  0  0            999 V2000
    4.1614  -10.8507    0.0000 C   0  0
    4.1602  -11.6781    0.0000 C   0  0
    4.8750  -12.0910    0.0000 C   0  0
    5.5916  -11.6777    0.0000 C   0  0
    5.5887  -10.8470    0.0000 C   0  0
    4.8732  -10.4379    0.0000 C   0  0
    3.4453  -12.0901    0.0000 Br  0  0
    6.3016  -10.4318    0.0000 O   0  0
    6.2985   -9.6067    0.0000 C   0  0
    7.0115   -9.1916    0.0000 C   0  0
    7.7228   -9.6049    0.0000 C   0  0
    8.4353   -9.1904    0.0000 C   0  0
    8.4326   -8.3644    0.0000 C   0  0
    7.7115   -7.9548    0.0000 C   0  0
    7.0020   -8.3717    0.0000 C   0  0
    6.3067  -12.0890    0.0000 C   0  0
    6.3080  -12.9140    0.0000 N   0  0
    7.0232  -13.3255    0.0000 C   0  0
    7.0245  -14.1505    0.0000 C   0  0
    6.3120  -14.5613    0.0000 C   0  0
    6.3129  -15.3856    0.0000 C   0  0
    7.0287  -15.7978    0.0000 C   0  0
    7.7449  -15.3797    0.0000 C   0  0
    7.7404  -14.5569    0.0000 N   0  0
 11 12  1  0
  6  1  1  0
 12 13  2  0
  1  2  2  0
 13 14  1  0
  2  7  1  0
 14 15  2  0
 15 10  1  0
  3  4  2  0
  4 16  1  0
  5  8  1  0
 16 17  1  0
 17 18  1  0
  8  9  1  0
 18 19  1  0
  4  5  1  0
 19 20  2  0
  9 10  1  0
 20 21  1  0
  2  3  1  0
 21 22  2  0
 10 11  2  0
 22 23  1  0
  5  6  2  0
 23 24  2  0
 24 19  1  0
M  END