
  SciTegic06271217572D

 18 20  0  0  0  0            999 V2000
   -2.2848  -18.8041    0.0000 C   0  0
   -2.2859  -19.6315    0.0000 C   0  0
   -1.5711  -20.0444    0.0000 C   0  0
   -1.5729  -18.3914    0.0000 C   0  0
   -0.8575  -18.8005    0.0000 C   0  0
   -0.8568  -19.6273    0.0000 C   0  0
   -0.1415  -20.0383    0.0000 N   0  0
    0.5736  -19.6235    0.0000 C   0  0
    0.5688  -18.7936    0.0000 C   0  0
   -0.1471  -18.3863    0.0000 C   0  0
    1.2896  -20.0333    0.0000 N   0  0
   -2.9972  -18.3920    0.0000 C   0  0
   -2.9961  -17.5659    0.0000 C   0  0
   -3.7098  -17.1536    0.0000 C   0  0
   -4.4252  -17.5663    0.0000 C   0  0
   -4.4223  -18.3956    0.0000 C   0  0
   -3.7080  -18.8041    0.0000 C   0  0
   -2.2813  -17.1539    0.0000 F   0  0
  8  9  1  0
  4  1  1  0
  9 10  2  0
 10  5  1  0
  8 11  1  0
  2  3  1  0
  5  6  1  0
 12 13  2  0
  3  6  2  0
 13 14  1  0
  6  7  1  0
 14 15  2  0
  1  2  2  0
 15 16  1  0
  7  8  2  0
 16 17  2  0
 17 12  1  0
  1 12  1  0
  5  4  2  0
 13 18  1  0
M  END