
  SciTegic06181315362D

 30 33  0  0  0  0            999 V2000
    5.9276   -1.3874    0.0000 C   0  0
    5.9265   -2.2148    0.0000 C   0  0
    6.6412   -2.6276    0.0000 C   0  0
    6.6394   -0.9747    0.0000 C   0  0
    7.3549   -1.3838    0.0000 C   0  0
    7.3556   -2.2106    0.0000 C   0  0
    8.0709   -2.6216    0.0000 C   0  0
    8.7859   -2.2068    0.0000 C   0  0
    8.7811   -1.3769    0.0000 C   0  0
    8.0653   -0.9697    0.0000 N   0  0
    8.0727   -3.4466    0.0000 N   0  0
    8.7879   -3.8575    0.0000 C   0  0
    8.7863   -4.6802    0.0000 C   0  0
    9.5007   -5.0911    0.0000 C   0  0
   10.2153   -4.6771    0.0000 C   0  0
   10.2109   -3.8478    0.0000 C   0  0
    9.4959   -3.4406    0.0000 C   0  0
    5.2130   -0.9751    0.0000 Cl  0  0
   10.9231   -3.4313    0.0000 C   0  0
   10.9339   -2.6010    0.0000 N   0  0
   10.2257   -2.1778    0.0000 C   0  0
   11.6545   -2.1994    0.0000 C   0  0
   10.2382   -1.3529    0.0000 C   0  0
   11.6669   -1.3745    0.0000 C   0  0
   10.9312   -5.0872    0.0000 N   0  0
   10.9295   -5.9088    0.0000 C   0  0
   11.6414   -6.3188    0.0000 C   0  0
   12.3568   -5.9074    0.0000 O   0  0
   12.3560   -5.0814    0.0000 C   0  0
   11.6396   -4.6669    0.0000 C   0  0
  1  2  2  0
  2  3  1  0
  3  6  2  0
  5  4  2  0
  4  1  1  0
  5  6  1  0
  6  7  1  0
  7  8  2  0
  8  9  1  0
  9 10  2  0
 10  5  1  0
  7 11  1  0
 11 12  1  0
 12 13  2  0
 13 14  1  0
 14 15  2  0
 15 16  1  0
 16 17  2  0
 17 12  1  0
  1 18  1  0
 16 19  1  0
 19 20  1  0
 20 21  1  0
 20 22  1  0
 21 23  1  0
 22 24  1  0
 15 25  1  0
 25 26  1  0
 25 30  1  0
 26 27  1  0
 27 28  1  0
 28 29  1  0
 29 30  1  0
M  END