
  SciTegic02131210002D

 35 38  0  0  0  0            999 V2000
    0.2321  -12.6366    0.0000 C   0  0  1  0  0  0
    0.2321  -11.8116    0.0000 C   0  0  1  0  0  0
    1.0066  -12.8843    0.0000 C   0  0
   -0.4796  -13.0451    0.0000 C   0  0
    0.2321  -13.4575    0.0000 C   0  0
    1.0066  -11.5640    0.0000 C   0  0  2  0  0  0
   -0.4796  -11.4033    0.0000 C   0  0
    0.2321  -10.9906    0.0000 C   0  0
    1.4904  -12.2242    0.0000 C   0  0
   -0.4679  -13.9013    0.0000 C   0  0
   -1.1958  -12.6366    0.0000 C   0  0
    1.4236  -10.8517    0.0000 C   0  0  1  0  0  0
   -1.1958  -11.8116    0.0000 C   0  0
   -1.2072  -14.3359    0.0000 C   0  0
   -1.9416  -13.0536    0.0000 C   0  0  2  0  0  0
    2.2438  -10.8528    0.0000 C   0  0
    1.0114  -10.1403    0.0000 C   0  0
   -1.9474  -13.9099    0.0000 C   0  0  2  0  0  0
   -2.7044  -12.5902    0.0000 C   0  0
   -1.9361  -12.2287    0.0000 C   0  0
    2.6560  -10.1433    0.0000 C   0  0
   -2.7210  -14.3597    0.0000 C   0  0
   -1.9477  -14.5684    0.0000 H   0  0
   -3.4852  -13.0252    0.0000 C   0  0
   -3.4915  -13.9149    0.0000 C   0  0
   -3.1294  -15.0738    0.0000 C   0  0
   -2.3043  -15.0731    0.0000 C   0  0
   -4.2057  -14.3231    0.0000 O   0  0
    1.8317  -11.5640    0.0000 H   0  0
    3.4811  -10.1456    0.0000 C   0  0
    3.8957   -9.4321    0.0000 C   0  0
    4.7208   -9.4344    0.0000 C   0  0
    3.4850   -8.7166    0.0000 C   0  0
    3.8996   -8.0031    0.0000 O   0  0
    5.1353   -8.7211    0.0000 O   0  0
  2  6  1  0
  2  7  1  0
  2  8  1  1
  3  9  1  0
  4 10  2  0
  4 11  1  0
  6  9  1  0
  7 13  1  0
 10 14  1  0
 11 13  2  0
 11 15  1  0
 12  6  1  0
 12 16  1  0
 12 17  1  6
 14 18  1  0
 15 18  1  0
 15 19  1  0
 15 20  1  1
 16 21  1  0
 18 22  1  0
 18 23  1  6
 19 24  1  0
 22 25  1  0
 22 26  1  0
 22 27  1  0
 24 25  1  0
 25 28  2  0
  6 29  1  6
 21 30  1  0
  1  2  1  0
 30 31  2  0
  1  3  1  0
 31 32  1  0
  1  4  1  0
 31 33  1  0
  1  5  1  6
 33 34  1  0
 32 35  1  0
M  END