
          11280715012D 1   1.00000     0.00000     0

 46 50  0     1  0            999 V2000
    7.1792   -3.5917    0.0000 C   0  0  0  0  0  0           0  0  0
    5.7542   -2.7750    0.0000 C   0  0  0  0  0  0           0  0  0
    7.1792   -2.7667    0.0000 N   0  0  0  0  0  0           0  0  0
    2.8917   -5.2625    0.0000 C   0  0  0  0  0  0           0  0  0
    6.4667   -4.0042    0.0000 N   0  0  0  0  0  0           0  0  0
    6.4667   -2.3625    0.0000 C   0  0  1  0  0  0           0  0  0
    5.0417   -2.3625    0.0000 N   0  0  0  0  0  0           0  0  0
    7.9042   -4.0000    0.0000 N   0  0  0  0  0  0           0  0  0
    3.6042   -4.8500    0.0000 N   0  0  0  0  0  0           0  0  0
    2.1792   -4.8500    0.0000 N   0  0  0  0  0  0           0  0  0
    6.4667   -1.5375    0.0000 C   0  0  0  0  0  0           0  0  0
    5.7542   -3.6000    0.0000 O   0  0  0  0  0  0           0  0  0
    8.6042   -1.1125    0.0000 C   0  0  0  0  0  0           0  0  0
    7.1792   -1.1167    0.0000 C   0  0  0  0  0  0           0  0  0
    7.8917   -1.5292    0.0000 C   0  0  0  0  0  0           0  0  0
    2.8917   -6.0875    0.0000 N   0  0  0  0  0  0           0  0  0
    8.5917   -0.2917    0.0000 C   0  0  0  0  0  0           0  0  0
    4.3292   -2.7792    0.0000 C   0  0  0  0  0  0           0  0  0
    7.8792    0.1208    0.0000 C   0  0  0  0  0  0           0  0  0
    2.1792   -4.0250    0.0000 C   0  0  0  0  0  0           0  0  0
    7.1667   -0.3000    0.0000 C   0  0  0  0  0  0           0  0  0
    2.8917   -3.6125    0.0000 C   0  0  0  0  0  0           0  0  0
    6.4792   -4.8375    0.0000 C   0  0  3  0  0  0           0  0  0
    8.6167   -3.5875    0.0000 C   0  0  3  0  0  0           0  0  0
    4.3292   -3.6125    0.0000 C   0  0  0  0  0  0           0  0  0
    3.6042   -2.3667    0.0000 C   0  0  0  0  0  0           0  0  0
    3.6042   -4.0250    0.0000 C   0  0  0  0  0  0           0  0  0
    2.8917   -2.7875    0.0000 C   0  0  0  0  0  0           0  0  0
    4.3292   -5.2625    0.0000 C   0  0  0  0  0  0           0  0  0
    9.3167   -1.5250    0.0000 C   0  0  0  0  0  0           0  0  0
    3.6042   -6.5000    0.0000 C   0  0  0  0  0  0           0  0  0
    9.3042    0.1208    0.0000 C   0  0  0  0  0  0           0  0  0
    7.1917   -5.2375    0.0000 C   0  0  0  0  0  0           0  0  0
    5.7542   -5.2417    0.0000 C   0  0  0  0  0  0           0  0  0
    8.6042   -2.7667    0.0000 C   0  0  0  0  0  0           0  0  0
    9.3292   -4.0000    0.0000 C   0  0  0  0  0  0           0  0  0
    5.0417   -4.8500    0.0000 C   0  0  0  0  0  0           0  0  0
    3.6042   -7.3250    0.0000 C   0  0  0  0  0  0           0  0  0
   10.0167   -1.1125    0.0000 C   0  0  0  0  0  0           0  0  0
   10.0167   -0.2875    0.0000 C   0  0  0  0  0  0           0  0  0
    5.7667   -6.0667    0.0000 C   0  0  0  0  0  0           0  0  0
    7.1917   -6.0667    0.0000 C   0  0  0  0  0  0           0  0  0
   10.0417   -3.5875    0.0000 C   0  0  0  0  0  0           0  0  0
    9.3292   -2.3500    0.0000 C   0  0  0  0  0  0           0  0  0
   10.0417   -2.7625    0.0000 C   0  0  0  0  0  0           0  0  0
    6.4792   -6.4792    0.0000 C   0  0  0  0  0  0           0  0  0
  2  6  1  0     0  0
  3  1  2  0     0  0
  4 10  1  0     0  0
  5  1  1  0     0  0
  6  3  1  0     0  0
  7  2  1  0     0  0
  8  1  1  0     0  0
  9  4  1  0     0  0
 10 20  1  0     0  0
  6 11  1  6     0  0
 12  2  2  0     0  0
 13 15  1  0     0  0
 14 11  1  0     0  0
 15 14  2  0     0  0
 16  4  2  0     0  0
 17 19  1  0     0  0
 18  7  1  0     0  0
 19 21  2  0     0  0
 20 22  1  0     0  0
 21 14  1  0     0  0
 22 28  1  0     0  0
 23  5  1  0     0  0
 24  8  1  0     0  0
 25 18  2  0     0  0
 26 18  1  0     0  0
 27 25  1  0     0  0
 28 26  2  0     0  0
 29  9  1  0     0  0
 30 13  2  0     0  0
 31 16  1  0     0  0
 32 17  2  0     0  0
 33 23  1  0     0  0
 34 23  1  0     0  0
 35 24  1  0     0  0
 36 24  1  0     0  0
 37 29  1  0     0  0
 38 31  1  0     0  0
 39 30  1  0     0  0
 40 32  1  0     0  0
 41 34  1  0     0  0
 42 33  1  0     0  0
 43 36  1  0     0  0
 44 35  1  0     0  0
 45 43  1  0     0  0
 46 41  1  0     0  0
 45 44  1  0     0  0
 46 42  1  0     0  0
 13 17  1  0     0  0
 27 22  2  0     0  0
 40 39  2  0     0  0
M  END