
  CDK    9/16/09,9:47

 47 50  0  0  0  0  0  0  0  0999 V2000
   14.2125    0.2715    0.0000 N   0  0  0  0  0  0  0  0  0  0  0  0
   13.6031    0.8253    0.0000 C   0  0  0  0  0  0  0  0  0  0  0  0
   14.9344    0.6789    0.0000 C   0  0  0  0  0  0  0  0  0  0  0  0
   15.6390    0.2539    0.0000 C   0  0  0  0  0  0  0  0  0  0  0  0
   16.3633    0.6490    0.0000 C   0  0  0  0  0  0  0  0  0  0  0  0
   17.0694    0.2201    0.0000 C   0  0  0  0  0  0  0  0  0  0  0  0
   17.7922    0.6191    0.0000 C   0  0  0  0  0  0  0  0  0  0  0  0
   18.4982    0.1903    0.0000 C   0  0  0  0  0  0  0  0  0  0  0  0
   19.2224    0.5853    0.0000 C   0  0  0  0  0  0  0  0  0  0  0  0
   19.9271    0.1604    0.0000 O   0  0  0  0  0  0  0  0  0  0  0  0
   19.2391    1.4131    0.0000 O   0  0  0  0  0  0  0  0  0  0  0  0
   16.3800    1.4768    0.0000 O   0  0  0  0  0  0  0  0  0  0  0  0
   17.8103    1.4430    0.0000 O   0  0  0  0  0  0  0  0  0  0  0  0
   13.8691   -0.4824    0.0000 C   0  0  0  0  0  0  0  0  0  0  0  0
   14.2754   -1.1989    0.0000 C   0  0  0  0  0  0  0  0  0  0  0  0
   13.8607   -1.9134    0.0000 C   0  0  0  0  0  0  0  0  0  0  0  0
   14.2662   -2.6275    0.0000 C   0  0  0  0  0  0  0  0  0  0  0  0
   15.0923   -2.6318    0.0000 C   0  0  0  0  0  0  0  0  0  0  0  0
   15.5078   -1.9144    0.0000 C   0  0  0  0  0  0  0  0  0  0  0  0
   15.0986   -1.2049    0.0000 C   0  0  0  0  0  0  0  0  0  0  0  0
   15.4988   -3.3524    0.0000 F   0  0  0  0  0  0  0  0  0  0  0  0
   13.5863    1.6501    0.0000 C   0  0  0  0  0  0  0  0  0  0  0  0
   12.8841    0.4134    0.0000 C   0  0  0  0  0  0  0  0  0  0  0  0
   13.0535   -0.3971    0.0000 C   0  0  0  0  0  0  0  0  0  0  0  0
   14.2765    2.1016    0.0000 C   0  0  0  0  0  0  0  0  0  0  0  0
   12.8514    2.0240    0.0000 C   0  0  0  0  0  0  0  0  0  0  0  0
   12.6449   -1.1142    0.0000 C   0  0  0  0  0  0  0  0  0  0  0  0
   11.8195   -1.1138    0.0000 C   0  0  0  0  0  0  0  0  0  0  0  0
   11.4110   -1.8302    0.0000 C   0  0  0  0  0  0  0  0  0  0  0  0
   11.8279   -2.5435    0.0000 C   0  0  0  0  0  0  0  0  0  0  0  0
   12.6575   -2.5361    0.0000 C   0  0  0  0  0  0  0  0  0  0  0  0
   13.0623   -1.8193    0.0000 C   0  0  0  0  0  0  0  0  0  0  0  0
   11.4202   -3.2613    0.0000 F   0  0  0  0  0  0  0  0  0  0  0  0
   12.1313    0.7517    0.0000 S   0  0  0  0  0  0  0  0  0  0  0  0
   11.4137    1.1673    0.0000 N   0  0  0  0  0  0  0  0  0  0  0  0
   10.6984    0.7555    0.0000 C   0  0  0  0  0  0  0  0  0  0  0  0
    9.9882    1.1720    0.0000 C   0  0  0  0  0  0  0  0  0  0  0  0
    9.2733    0.7609    0.0000 C   0  0  0  0  0  0  0  0  0  0  0  0
    9.2717   -0.0654    0.0000 C   0  0  0  0  0  0  0  0  0  0  0  0
    9.9911   -0.4789    0.0000 C   0  0  0  0  0  0  0  0  0  0  0  0
   10.7030   -0.0655    0.0000 C   0  0  0  0  0  0  0  0  0  0  0  0
    8.5547   -0.4796    0.0000 C   0  0  0  0  0  0  0  0  0  0  0  0
    7.8399   -0.0669    0.0000 O   0  0  0  0  0  0  0  0  0  0  0  0
    8.5547   -1.3050    0.0000 O   0  0  0  0  0  0  0  0  0  0  0  0
    7.8399    0.7585    0.0000 C   0  0  0  0  0  0  0  0  0  0  0  0
   11.7548    0.0171    0.0000 O   0  0  0  0  0  0  0  0  0  0  0  0
   12.5114    1.4843    0.0000 O   0  0  0  0  0  0  0  0  0  0  0  0
 20 15  1  0  0  0  0 
 14 15  1  0  0  0  0 
 18 21  1  0  0  0  0 
  2 22  1  0  0  0  0 
 23 24  1  0  0  0  0 
 22 25  1  0  0  0  0 
 22 26  1  0  0  0  0 
 24 27  1  0  0  0  0 
 14  1  1  0  0  0  0 
 27 28  2  0  0  0  0 
  1  2  1  0  0  0  0 
 28 29  1  0  0  0  0 
  2 23  2  0  0  0  0 
 29 30  2  0  0  0  0 
  1  3  1  0  0  0  0 
 30 31  1  0  0  0  0 
  3  4  1  0  0  0  0 
 31 32  2  0  0  0  0 
 32 27  1  0  0  0  0 
  4  5  1  0  0  0  0 
 30 33  1  0  0  0  0 
  5  6  1  0  0  0  0 
 23 34  1  0  0  0  0 
  6  7  1  0  0  0  0 
 34 35  1  0  0  0  0 
  7  8  1  0  0  0  0 
 35 36  1  0  0  0  0 
  8  9  1  0  0  0  0 
 36 37  2  0  0  0  0 
  9 10  1  0  0  0  0 
 37 38  1  0  0  0  0 
  9 11  2  0  0  0  0 
 38 39  2  0  0  0  0 
  5 12  1  1  0  0  0 
 39 40  1  0  0  0  0 
  7 13  1  1  0  0  0 
 40 41  2  0  0  0  0 
 41 36  1  0  0  0  0 
 14 24  2  0  0  0  0 
 15 16  2  0  0  0  0 
 16 17  1  0  0  0  0 
 42 43  1  0  0  0  0 
 42 44  2  0  0  0  0 
 39 42  1  0  0  0  0 
 17 18  2  0  0  0  0 
 43 45  1  0  0  0  0 
 18 19  1  0  0  0  0 
 34 46  2  0  0  0  0 
 19 20  2  0  0  0  0 
 34 47  2  0  0  0  0 
M  END