
  Mrv0541 04051115152D          

 21 22  0  0  0  0            999 V2000
   -0.6949   -2.3402    0.0000 N   0  0  0  0  0  0  0  0  0  0  0  0
    0.0195   -1.9277    0.0000 C   0  0  0  0  0  0  0  0  0  0  0  0
    0.0195   -1.1027    0.0000 N   0  0  0  0  0  0  0  0  0  0  0  0
   -0.6949   -0.6902    0.0000 C   0  0  0  0  0  0  0  0  0  0  0  0
   -1.4094   -1.1027    0.0000 C   0  0  0  0  0  0  0  0  0  0  0  0
   -1.4094   -1.9277    0.0000 C   0  0  0  0  0  0  0  0  0  0  0  0
   -0.6949    0.1348    0.0000 N   0  0  0  0  0  0  0  0  0  0  0  0
    0.0195    0.5473    0.0000 C   0  0  0  0  0  0  0  0  0  0  0  0
    0.0195    1.3723    0.0000 C   0  0  0  0  0  0  0  0  0  0  0  0
    0.7340    1.7848    0.0000 C   0  0  0  0  0  0  0  0  0  0  0  0
    1.4485    1.3723    0.0000 C   0  0  0  0  0  0  0  0  0  0  0  0
    1.4485    0.5473    0.0000 C   0  0  0  0  0  0  0  0  0  0  0  0
    0.7340    0.1348    0.0000 C   0  0  0  0  0  0  0  0  0  0  0  0
    2.1629    1.7848    0.0000 S   0  0  0  0  0  0  0  0  0  0  0  0
    2.8774    2.1973    0.0000 O   0  0  0  0  0  0  0  0  0  0  0  0
    2.5754    1.0703    0.0000 O   0  0  0  0  0  0  0  0  0  0  0  0
    1.7504    2.4992    0.0000 N   0  0  0  0  0  0  0  0  0  0  0  0
   -2.1239   -0.6902    0.0000 N   0  3  0  0  0  0  0  0  0  0  0  0
   -2.8384   -1.1027    0.0000 O   0  5  0  0  0  0  0  0  0  0  0  0
   -2.1239    0.1348    0.0000 O   0  0  0  0  0  0  0  0  0  0  0  0
   -2.1239   -2.3402    0.0000 Cl  0  0  0  0  0  0  0  0  0  0  0  0
  2  1  2  0  0  0  0
  6  1  1  0  0  0  0
  2  3  1  0  0  0  0
  4  3  2  0  0  0  0
  4  5  1  0  0  0  0
  4  7  1  0  0  0  0
  5  6  2  0  0  0  0
  5 18  1  0  0  0  0
  6 21  1  0  0  0  0
  8  7  1  0  0  0  0
  8  9  2  0  0  0  0
 13  8  1  0  0  0  0
 10  9  1  0  0  0  0
 10 11  2  0  0  0  0
 11 12  1  0  0  0  0
 11 14  1  0  0  0  0
 12 13  2  0  0  0  0
 15 14  2  0  0  0  0
 16 14  2  0  0  0  0
 17 14  1  0  0  0  0
 18 19  1  0  0  0  0
 18 20  2  0  0  0  0
M  CHG  2  18   1  19  -1
M  END