
  CDK    9/16/09,10:8

 34 36  0  0  0  0  0  0  0  0999 V2000
   -4.6875  -23.3125    0.0000 C   0  0  0  0  0  0  0  0  0  0  0  0
   -4.6875  -24.1375    0.0000 C   0  0  0  0  0  0  0  0  0  0  0  0
   -3.9755  -24.5458    0.0000 C   0  0  0  0  0  0  0  0  0  0  0  0
   -3.9755  -22.8958    0.0000 C   0  0  0  0  0  0  0  0  0  0  0  0
   -3.2635  -23.3125    0.0000 C   0  0  0  0  0  0  0  0  0  0  0  0
   -3.2670  -24.1375    0.0000 C   0  0  0  0  0  0  0  0  0  0  0  0
   -2.5582  -24.5507    0.0000 C   0  0  0  0  0  0  0  0  0  0  0  0
   -1.8414  -24.1435    0.0000 C   0  0  0  0  0  0  0  0  0  0  0  0
   -2.5628  -25.3757    0.0000 O   0  0  0  0  0  0  0  0  0  0  0  0
   -2.5512  -22.9007    0.0000 C   0  0  0  0  0  0  0  0  0  0  0  0
   -1.8355  -23.3195    0.0000 C   0  0  0  0  0  0  0  0  0  0  0  0
   -1.1217  -20.4122    0.0000 C   0  0  0  0  0  0  0  0  0  0  0  0
   -1.8365  -20.8313    0.0000 C   0  0  0  0  0  0  0  0  0  0  0  0
   -1.8277  -21.6640    0.0000 C   0  0  0  0  0  0  0  0  0  0  0  0
   -2.5504  -22.0739    0.0000 C   0  0  0  0  0  0  0  0  0  0  0  0
   -2.5583  -23.7250    0.0000 H   0  0  0  0  0  0  0  0  0  0  0  0
   -2.5543  -20.4246    0.0000 C   0  0  0  0  0  0  0  0  0  0  0  0
   -2.5610  -19.5996    0.0000 C   0  0  0  0  0  0  0  0  0  0  0  0
   -3.3694  -18.3759    0.0000 O   0  0  0  0  0  0  0  0  0  0  0  0
   -4.1778  -18.2159    0.0000 C   0  0  0  0  0  0  0  0  0  0  0  0
   -4.5845  -18.9314    0.0000 C   0  0  0  0  0  0  0  0  0  0  0  0
   -4.0274  -19.5354    0.0000 C   0  0  0  0  0  0  0  0  0  0  0  0
   -4.5194  -17.4585    0.0000 O   0  0  0  0  0  0  0  0  0  0  0  0
   -3.2708  -22.4875    0.0000 C   0  0  0  0  0  0  0  0  0  0  0  0
   -4.1900  -20.3442    0.0000 C   0  0  0  0  0  0  0  0  0  0  0  0
   -3.2750  -24.9583    0.0000 H   0  0  0  0  0  0  0  0  0  0  0  0
   -3.7667  -25.3417    0.0000 C   0  0  0  0  0  0  0  0  0  0  0  0
   -4.6958  -24.9542    0.0000 C   0  0  0  0  0  0  0  0  0  0  0  0
   -1.4292  -22.6000    0.0000 C   0  0  0  0  0  0  0  0  0  0  0  0
   -1.1250  -23.7292    0.0000 O   0  0  0  0  0  0  0  0  0  0  0  0
   -5.4070  -24.5360    0.0000 O   0  0  0  0  0  0  0  0  0  0  0  0
   -1.8499  -19.1813    0.0000 O   0  0  0  0  0  0  0  0  0  0  0  0
   -3.2788  -19.1929    0.0000 C   0  0  0  0  0  0  0  0  0  0  0  0
   -2.5643  -18.7804    0.0000 H   0  0  0  0  0  0  0  0  0  0  0  0
 10 16  1  6  0  0  0 
  6  7  1  0  0  0  0 
 13 17  2  0  0  0  0 
  7  8  1  0  0  0  0 
 17 18  1  0  0  0  0 
  8 11  1  0  0  0  0 
 33 18  1  0  0  0  0 
 33 19  1  0  0  0  0 
  3  6  1  0  0  0  0 
  7  9  1  6  0  0  0 
 10 11  1  0  0  0  0 
  5  4  1  0  0  0  0 
 19 20  1  0  0  0  0 
 20 21  1  0  0  0  0 
 21 22  2  0  0  0  0 
 22 33  1  0  0  0  0 
  5  6  1  0  0  0  0 
 20 23  2  0  0  0  0 
  5 24  1  1  0  0  0 
  1  2  1  0  0  0  0 
 22 25  1  0  0  0  0 
  1  4  1  0  0  0  0 
  6 26  1  6  0  0  0 
  2  3  1  0  0  0  0 
  3 27  1  1  0  0  0 
 10 15  1  0  0  0  0 
  3 28  1  0  0  0  0 
 12 13  1  0  0  0  0 
 11 29  1  0  0  0  0 
 13 14  1  0  0  0  0 
 11 30  1  6  0  0  0 
 14 15  1  0  0  0  0 
 28 31  2  0  0  0  0 
  5 10  1  0  0  0  0 
 18 32  1  1  0  0  0 
 33 34  1  1  0  0  0 
M  END