
  SciTegic10311316302D

246250  0  0  0  0            999 V2000
    1.9897  -10.4070    0.0000 C   0  0
    2.6424   -9.9318    0.0000 N   0  0
    2.2303  -11.1778    0.0000 N   0  0
    3.3040  -10.4158    0.0000 C   0  0  1  0  0  0
    3.0486  -11.1877    0.0000 C   0  0  2  0  0  0
    4.3629  -11.1965    0.0000 S   0  0
    4.1236  -10.4217    0.0000 C   0  0  1  0  0  0
    3.6984  -11.6678    0.0000 C   0  0
    1.2164  -10.1426    0.0000 O   0  0
    5.4630   -7.1219    0.0000 C   0  0
    5.2654   -6.3262    0.0000 O   0  0
    6.2233   -7.4255    0.0000 N   0  0
    4.8809   -7.6988    0.0000 C   0  0
    4.7057   -9.8448    0.0000 C   0  0
    5.0863   -8.4840    0.0000 C   0  0
    4.4964   -9.0583    0.0000 C   0  0
    2.8768  -11.9829    0.0000 H   0  0
    3.4901   -9.6166    0.0000 H   0  0
    6.8328   -6.7529    0.0000 C   0  0  2  0  0  0
    7.8353   -7.7553    0.0000 O   0  0
    7.6243   -6.9638    0.0000 C   0  0
    6.6219   -5.9614    0.0000 C   0  0
    7.2024   -5.3809    0.0000 C   0  0
    6.9873   -4.5894    0.0000 O   0  0
    7.9897   -5.5960    0.0000 O   0  0
    8.2048   -6.3875    0.0000 N   0  0
    8.9963   -6.5984    0.0000 C   0  0  2  0  0  0
    9.3617   -5.2264    0.0000 O   0  0
    9.5727   -6.0179    0.0000 C   0  0
    9.2073   -7.3899    0.0000 C   0  0
    9.9987   -7.6009    0.0000 C   0  0
   10.2097   -8.3924    0.0000 C   0  0
   10.5793   -7.0204    0.0000 C   0  0
   12.6821   -3.9151    0.0000 N   0  0
   12.4711   -3.1236    0.0000 C   0  0
   13.0516   -2.5431    0.0000 N   0  0
   11.6796   -2.9085    0.0000 N   0  0
   10.3642   -6.2289    0.0000 N   0  0
   10.9447   -5.6525    0.0000 C   0  0  2  0  0  0
   12.3167   -5.2830    0.0000 O   0  0
   11.7362   -5.8635    0.0000 C   0  0
   10.7337   -4.8610    0.0000 C   0  0
   11.3142   -4.2805    0.0000 C   0  0
   12.1057   -4.4915    0.0000 C   0  0
   11.9471   -6.6550    0.0000 N   0  0
   12.7123   -6.9481    0.0000 C   0  0  2  0  0  0
   13.4005   -5.6855    0.0000 O   0  0
   13.4005   -6.5047    0.0000 C   0  0
   12.6691   -7.7674    0.0000 C   0  0
   11.4329   -7.2955    0.0000 C   0  0
   11.8786   -7.9829    0.0000 C   0  0
   14.1105   -6.9123    0.0000 N   0  0
   14.8206   -6.5047    0.0000 C   0  0  2  0  0  0
   15.5306   -7.7315    0.0000 O   0  0
   15.5306   -6.9123    0.0000 C   0  0
   14.8206   -5.6855    0.0000 C   0  0
   15.5306   -5.2738    0.0000 C   0  0
   15.5306   -4.4545    0.0000 C   0  0
   16.2407   -4.0470    0.0000 O   0  0
   14.8206   -4.0470    0.0000 O   0  0
   16.2407   -6.5047    0.0000 N   0  0
   16.9466   -6.9123    0.0000 C   0  0  2  0  0  0
   17.6566   -5.6855    0.0000 O   0  0
   17.6566   -6.5047    0.0000 C   0  0
   16.9466   -7.7315    0.0000 C   0  0  1  0  0  0
   17.6566   -8.1432    0.0000 C   0  0
   16.2407   -8.1432    0.0000 C   0  0
   16.2407   -8.9625    0.0000 C   0  0
   20.4968   -4.0470    0.0000 N   0  0
   20.4968   -3.2277    0.0000 C   0  0
   19.7868   -2.8160    0.0000 N   0  0
   21.2069   -2.8160    0.0000 N   0  0
   18.3667   -6.9123    0.0000 N   0  0
   19.0767   -6.5047    0.0000 C   0  0  2  0  0  0
   19.7868   -7.7315    0.0000 O   0  0
   19.7868   -6.9123    0.0000 C   0  0
   19.0767   -5.6855    0.0000 C   0  0
   19.7868   -5.2738    0.0000 C   0  0
   19.7868   -4.4545    0.0000 C   0  0
   20.4968   -6.5047    0.0000 N   0  0
   21.2069   -6.9123    0.0000 C   0  0  2  0  0  0
   21.9169   -5.6855    0.0000 O   0  0
   21.9169   -6.5047    0.0000 C   0  0
   21.2069   -7.7315    0.0000 C   0  0  1  0  0  0
   21.9169   -8.1432    0.0000 C   0  0
   20.4968   -8.1432    0.0000 C   0  0
   20.4968   -8.9625    0.0000 C   0  0
   22.6228   -6.9123    0.0000 N   0  0
   23.3329   -6.5047    0.0000 C   0  0  1  0  0  0
   24.0429   -7.7315    0.0000 O   0  0
   23.3329   -5.6855    0.0000 C   0  0
   24.0429   -6.9123    0.0000 C   0  0
   24.7530   -6.5047    0.0000 N   0  0
   25.4630   -6.9123    0.0000 C   0  0  2  0  0  0
   26.1731   -5.6855    0.0000 O   0  0
   26.1731   -6.5047    0.0000 C   0  0
   25.4630   -7.7315    0.0000 C   0  0
   26.1731   -8.1432    0.0000 C   0  0
   26.1731   -8.9625    0.0000 C   0  0
   26.8831   -9.3701    0.0000 O   0  0
   25.4630   -9.3701    0.0000 N   0  0
   26.8831   -6.9123    0.0000 N   0  0
   27.5891   -6.5047    0.0000 C   0  0  2  0  0  0
   28.2991   -7.7315    0.0000 O   0  0
   28.2991   -6.9123    0.0000 C   0  0
   27.5891   -5.6855    0.0000 C   0  0
   28.2991   -5.2738    0.0000 C   0  0
   28.2991   -4.4545    0.0000 C   0  0
   29.0092   -4.0470    0.0000 O   0  0
   27.5891   -4.0470    0.0000 O   0  0
   29.0092   -6.5047    0.0000 N   0  0
   29.7192   -6.9123    0.0000 C   0  0  2  0  0  0
   30.4293   -5.6855    0.0000 O   0  0
   30.4293   -6.5047    0.0000 C   0  0
   29.7192   -7.7315    0.0000 C   0  0
   30.4293   -8.1432    0.0000 C   0  0
   30.4293   -8.9625    0.0000 C   0  0
   31.1393   -7.7315    0.0000 C   0  0
   33.2653   -4.0470    0.0000 N   0  0
   33.2653   -3.2277    0.0000 C   0  0
   32.5594   -2.8160    0.0000 N   0  0
   33.9754   -2.8160    0.0000 N   0  0
   31.1393   -6.9123    0.0000 N   0  0
   31.8493   -6.5047    0.0000 C   0  0  2  0  0  0
   32.5594   -7.7315    0.0000 O   0  0
   32.5594   -6.9123    0.0000 C   0  0
   31.8493   -5.6855    0.0000 C   0  0
   32.5594   -5.2738    0.0000 C   0  0
   32.5594   -4.4545    0.0000 C   0  0
   35.3955   -9.3701    0.0000 N   0  0
   35.3955  -10.1893    0.0000 C   0  0
   34.6854  -10.6010    0.0000 N   0  0
   36.1055  -10.6010    0.0000 N   0  0
   33.2653   -6.5047    0.0000 N   0  0
   33.9754   -6.9123    0.0000 C   0  0  2  0  0  0
   34.6854   -5.6855    0.0000 O   0  0
   34.6854   -6.5047    0.0000 C   0  0
   33.9754   -7.7315    0.0000 C   0  0
   34.6854   -8.1432    0.0000 C   0  0
   34.6854   -8.9625    0.0000 C   0  0
   35.3955   -6.9123    0.0000 N   0  0
   36.1055   -6.5047    0.0000 C   0  0  2  0  0  0
   36.8156   -7.7315    0.0000 O   0  0
   36.8156   -6.9123    0.0000 C   0  0
   36.1055   -5.6855    0.0000 C   0  0  1  0  0  0
   36.8156   -5.2738    0.0000 C   0  0
   35.3955   -5.2738    0.0000 C   0  0
   35.3955   -4.4545    0.0000 C   0  0
   37.5256   -6.5047    0.0000 N   0  0
   38.2357   -6.9123    0.0000 C   0  0
   38.9416   -5.6855    0.0000 O   0  0
   38.9416   -6.5047    0.0000 C   0  0
   39.6516   -6.9123    0.0000 N   0  0
   40.3617   -6.5047    0.0000 C   0  0  2  0  0  0
   41.0717   -7.7315    0.0000 O   0  0
   41.0717   -6.9123    0.0000 C   0  0
   40.3617   -5.6855    0.0000 C   0  0
   41.0717   -5.2738    0.0000 C   0  0
   41.0717   -4.4545    0.0000 O   0  0
   41.7818   -5.6855    0.0000 O   0  0
   41.7818   -6.5047    0.0000 N   0  0
   42.4918   -6.9123    0.0000 C   0  0  2  0  0  0
   43.2019   -5.6855    0.0000 O   0  0
   43.2019   -6.5047    0.0000 C   0  0
   42.4918   -7.7315    0.0000 C   0  0
   43.2019   -8.1432    0.0000 C   0  0
   43.2019   -8.9625    0.0000 C   0  0
   43.9078   -9.3701    0.0000 O   0  0
   42.4918   -9.3701    0.0000 O   0  0
   43.9078   -6.9123    0.0000 N   0  0
   44.6178   -6.5047    0.0000 C   0  0  2  0  0  0
   45.3279   -7.7315    0.0000 O   0  0
   45.3279   -6.9123    0.0000 C   0  0
   44.6178   -5.6855    0.0000 C   0  0
   45.3279   -4.4545    0.0000 C   0  0
   45.3279   -5.2738    0.0000 C   0  0
   46.0379   -5.6855    0.0000 C   0  0
   46.7480   -5.2738    0.0000 C   0  0
   46.7480   -4.4545    0.0000 C   0  0
   46.0379   -4.0470    0.0000 C   0  0
   46.0379   -6.5047    0.0000 N   0  0
   46.7480   -6.9123    0.0000 C   0  0  2  0  0  0
   47.4580   -5.6855    0.0000 O   0  0
   47.4580   -6.5047    0.0000 C   0  0
   46.7480   -7.7315    0.0000 C   0  0
   47.4580   -8.1432    0.0000 C   0  0
   47.4580   -8.9625    0.0000 O   0  0
   48.1681   -7.7315    0.0000 N   0  0
   48.1681   -6.9123    0.0000 N   0  0
   48.8781   -6.5047    0.0000 C   0  0  2  0  0  0
   49.5841   -7.7315    0.0000 O   0  0
   49.5841   -6.9123    0.0000 C   0  0
   48.8781   -5.6855    0.0000 C   0  0
   49.5841   -5.2738    0.0000 C   0  0
   49.5841   -4.4545    0.0000 C   0  0
   50.2941   -4.0470    0.0000 O   0  0
   48.8781   -4.0470    0.0000 O   0  0
   50.2941   -6.5047    0.0000 N   0  0
   51.0042   -6.9123    0.0000 C   0  0  2  0  0  0
   51.7142   -5.6855    0.0000 O   0  0
   51.7142   -6.5047    0.0000 C   0  0
   51.0042   -7.7315    0.0000 C   0  0  2  0  0  0
   51.7142   -8.1432    0.0000 O   0  0
   50.2941   -8.1432    0.0000 C   0  0
   52.4242   -6.9123    0.0000 N   0  0
   53.1343   -6.5047    0.0000 C   0  0  2  0  0  0
   53.8443   -7.7315    0.0000 O   0  0
   53.8443   -6.9123    0.0000 C   0  0
   53.1343   -5.6855    0.0000 C   0  0
   53.8443   -4.4545    0.0000 C   0  0
   53.8443   -5.2738    0.0000 C   0  0
   54.5503   -5.6855    0.0000 C   0  0
   55.2603   -5.2738    0.0000 C   0  0
   55.2603   -4.4545    0.0000 C   0  0
   54.5503   -4.0470    0.0000 C   0  0
   55.9704   -4.0470    0.0000 O   0  0
   54.5503   -6.5047    0.0000 N   0  0
   55.2603   -6.9123    0.0000 C   0  0  2  0  0  0
   55.9704   -5.6855    0.0000 O   0  0
   55.9704   -6.5047    0.0000 C   0  0
   55.2603   -7.7315    0.0000 C   0  0  2  0  0  0
   55.9704   -8.1432    0.0000 O   0  0
   54.5503   -8.1432    0.0000 C   0  0
   58.8106   -4.0470    0.0000 N   0  0
   58.8106   -3.2277    0.0000 C   0  0
   58.1005   -2.8160    0.0000 N   0  0
   59.5206   -2.8160    0.0000 N   0  0
   56.6804   -6.9123    0.0000 N   0  0
   57.3905   -6.5047    0.0000 C   0  0  2  0  0  0
   58.1005   -7.7315    0.0000 O   0  0
   58.1005   -6.9123    0.0000 C   0  0
   57.3905   -5.6855    0.0000 C   0  0
   58.1005   -5.2738    0.0000 C   0  0
   58.1005   -4.4545    0.0000 C   0  0
   60.9366   -9.3701    0.0000 N   0  0
   60.9366  -10.1893    0.0000 C   0  0
   60.2265  -10.6010    0.0000 N   0  0
   61.6466  -10.6010    0.0000 N   0  0
   58.8106   -6.5047    0.0000 N   0  0
   59.5206   -6.9123    0.0000 C   0  0  2  0  0  0
   60.2265   -5.6855    0.0000 O   0  0
   60.2265   -6.5047    0.0000 C   0  0
   59.5206   -7.7315    0.0000 C   0  0
   60.2265   -8.1432    0.0000 C   0  0
   60.2265   -8.9625    0.0000 C   0  0
   60.9366   -6.9123    0.0000 O   0  0
  2  1  1  0
  3  1  1  0
  4  2  1  0
  5  3  1  0
  6  8  1  0
  7  4  1  0
  8  5  1  0
  9  1  2  0
 10 13  1  0
 11 10  2  0
 12 10  1  0
 13 15  1  0
  7 14  1  6
 15 16  1  0
 16 14  1  0
  5 17  1  1
  4 18  1  1
  5  4  1  0
  6  7  1  0
 21 26  1  0
 29 38  1  0
 41 45  1  0
 48 52  1  0
 55 61  1  0
 64 73  1  0
 76 80  1  0
 83 88  1  0
 92 93  1  0
 96102  1  0
105111  1  0
114123  1  0
126134  1  0
137141  1  0
144149  1  0
152153  1  0
156161  1  0
164170  1  0
173181  1  0
184189  1  0
192198  1  0
201205  1  0
208217  1  0
220228  1  0
231239  1  0
242246  1  0
 12 19  1  0
 19 21  1  0
 21 20  2  0
 19 22  1  1
 22 23  1  0
 23 24  2  0
 23 25  1  0
 26 27  1  0
 27 29  1  0
 29 28  2  0
 27 30  1  6
 30 31  1  0
 31 32  1  0
 31 33  1  0
 34 35  1  0
 35 36  1  0
 35 37  2  0
 38 39  1  0
 39 41  1  0
 41 40  2  0
 39 42  1  1
 42 43  1  0
 43 44  1  0
 44 34  1  0
 45 46  1  0
 46 48  1  6
 48 47  2  0
 46 49  1  0
 50 51  1  0
 51 49  1  0
 50 45  1  0
 52 53  1  0
 53 55  1  0
 55 54  2  0
 53 56  1  1
 56 57  1  0
 57 58  1  0
 58 59  2  0
 58 60  1  0
 62 61  1  6
 62 64  1  0
 64 63  2  0
 62 65  1  0
 65 66  1  1
 65 67  1  0
 67 68  1  0
 69 70  1  0
 70 71  1  0
 70 72  2  0
 73 74  1  0
 74 76  1  0
 76 75  2  0
 74 77  1  1
 77 78  1  0
 78 79  1  0
 79 69  1  0
 81 80  1  6
 81 83  1  0
 83 82  2  0
 81 84  1  0
 84 85  1  1
 84 86  1  0
 86 87  1  0
 88 89  1  0
 89 92  1  0
 92 90  2  0
 89 91  1  1
 93 94  1  0
 94 96  1  0
 96 95  2  0
 94 97  1  6
 97 98  1  0
 98 99  1  0
 99100  2  0
 99101  1  0
102103  1  0
103105  1  0
105104  2  0
103106  1  1
106107  1  0
107108  1  0
108109  2  0
108110  1  0
111112  1  0
112114  1  0
114113  2  0
112115  1  6
115116  1  0
116117  1  0
116118  1  0
119120  1  0
120121  1  0
120122  2  0
123124  1  0
124126  1  0
126125  2  0
124127  1  1
127128  1  0
128129  1  0
129119  1  0
130131  1  0
131132  1  0
131133  2  0
134135  1  0
135137  1  0
137136  2  0
135138  1  6
138139  1  0
139140  1  0
140130  1  0
142141  1  1
142144  1  0
144143  2  0
142145  1  0
145146  1  6
145147  1  0
147148  1  0
149150  1  0
150152  1  0
152151  2  0
153154  1  0
154156  1  0
156155  2  0
154157  1  1
157158  1  0
158159  2  0
158160  1  0
161162  1  0
162164  1  0
164163  2  0
162165  1  6
165166  1  0
166167  1  0
167168  2  0
167169  1  0
170171  1  0
171173  1  0
173172  2  0
171174  1  1
174176  1  0
175176  2  0
176177  1  0
177178  2  0
178179  1  0
179180  2  0
180175  1  0
181182  1  0
182184  1  0
184183  2  0
182185  1  6
185186  1  0
186187  2  0
186188  1  0
189190  1  0
190192  1  0
192191  2  0
190193  1  1
193194  1  0
194195  1  0
195196  2  0
195197  1  0
199198  1  6
199201  1  0
201200  2  0
199202  1  0
202203  1  6
202204  1  0
205206  1  0
206208  1  0
208207  2  0
206209  1  1
209211  1  0
210211  2  0
211212  1  0
212213  2  0
213214  1  0
214215  2  0
215210  1  0
214216  1  0
218217  1  6
218220  1  0
220219  2  0
218221  1  0
221222  1  6
221223  1  0
224225  1  0
225226  1  0
225227  2  0
228229  1  0
229231  1  0
231230  2  0
229232  1  1
232233  1  0
233234  1  0
234224  1  0
235236  1  0
236237  1  0
236238  2  0
239240  1  0
240242  1  0
242241  2  0
240243  1  6
243244  1  0
244245  1  0
245235  1  0
M  END