
          08180812482D 1   1.00000     0.00000     0

 42 46  0     0  0            999 V2000
   -4.0431  -16.2833    0.0000 C   0  0  0  0  0  0           0  0  0
   -4.0443  -17.1107    0.0000 C   0  0  0  0  0  0           0  0  0
   -3.3294  -17.5235    0.0000 C   0  0  0  0  0  0           0  0  0
   -3.3312  -15.8705    0.0000 C   0  0  0  0  0  0           0  0  0
   -2.6110  -17.1078    0.0000 C   0  0  0  0  0  0           0  0  0
   -2.6159  -16.2797    0.0000 C   0  0  0  0  0  0           0  0  0
   -1.9688  -15.7538    0.0000 N   0  0  3  0  0  0           0  0  0
   -1.9548  -17.6222    0.0000 N   0  0  3  0  0  0           0  0  0
   -1.1566  -15.9280    0.0000 C   0  0  0  0  0  0           0  0  0
   -1.1441  -17.4292    0.0000 C   0  0  0  0  0  0           0  0  0
   -0.7918  -16.6744    0.0000 N   0  0  3  0  0  0           0  0  0
   -0.6229  -18.0687    0.0000 O   0  0  0  0  0  0           0  0  0
   -0.6483  -15.2782    0.0000 O   0  0  0  0  0  0           0  0  0
   -2.1613  -14.9515    0.0000 C   0  0  0  0  0  0           0  0  0
   -1.5628  -14.3837    0.0000 C   0  0  0  0  0  0           0  0  0
   -0.7718  -14.6181    0.0000 O   0  0  0  0  0  0           0  0  0
    0.0332  -16.6671    0.0000 C   0  0  0  0  0  0           0  0  0
    0.4393  -15.9490    0.0000 C   0  0  0  0  0  0           0  0  0
    1.2642  -15.9416    0.0000 N   0  0  0  0  0  0           0  0  0
    0.0204  -15.2382    0.0000 O   0  0  0  0  0  0           0  0  0
    1.6703  -15.2235    0.0000 C   0  0  0  0  0  0           0  0  0
    2.4938  -15.2184    0.0000 C   0  0  0  0  0  0           0  0  0
    2.8998  -14.5011    0.0000 C   0  0  0  0  0  0           0  0  0
    2.4809  -13.7894    0.0000 C   0  0  0  0  0  0           0  0  0
    1.6517  -13.7994    0.0000 C   0  0  0  0  0  0           0  0  0
    1.2494  -14.5173    0.0000 C   0  0  0  0  0  0           0  0  0
   -1.7553  -13.5815    0.0000 C   0  0  3  0  0  0           0  0  0
   -1.9750  -12.7792    0.0000 C   0  0  0  0  0  0           0  0  0
   -0.9562  -13.3762    0.0000 C   0  0  0  0  0  0           0  0  0
   -2.5526  -13.7935    0.0000 C   0  0  0  0  0  0           0  0  0
    3.7248  -14.4942    0.0000 C   0  0  0  0  0  0           0  0  0
    4.2149  -15.1523    0.0000 N   0  0  0  0  0  0           0  0  0
    4.9974  -14.8908    0.0000 C   0  0  0  0  0  0           0  0  0
    4.9904  -14.0658    0.0000 O   0  0  0  0  0  0           0  0  0
    4.2037  -13.8176    0.0000 N   0  0  0  0  0  0           0  0  0
    5.6689  -15.3701    0.0000 O   0  0  0  0  0  0           0  0  0
   -2.1273  -18.4293    0.0000 C   0  0  3  0  0  0           0  0  0
   -2.9150  -18.6778    0.0000 C   0  0  0  0  0  0           0  0  0
   -3.0926  -19.4798    0.0000 C   0  0  0  0  0  0           0  0  0
   -2.4855  -20.0390    0.0000 C   0  0  0  0  0  0           0  0  0
   -1.6978  -19.7904    0.0000 C   0  0  0  0  0  0           0  0  0
   -1.5172  -18.9827    0.0000 C   0  0  0  0  0  0           0  0  0
  8 10  1  0     0  0
 19 21  1  0     0  0
 21 22  2  0     0  0
  9 11  1  0     0  0
 22 23  1  0     0  0
 10 11  1  0     0  0
 23 24  2  0     0  0
  2  3  1  0     0  0
 24 25  1  0     0  0
 10 12  2  0     0  0
 25 26  2  0     0  0
 26 21  1  0     0  0
  5  6  1  0     0  0
 15 27  1  0     0  0
  9 13  2  0     0  0
 27 28  1  0     0  0
  3  5  2  0     0  0
 27 29  1  0     0  0
  7 14  1  0     0  0
 27 30  1  0     0  0
  6  7  1  0     0  0
 23 31  1  0     0  0
 31 32  2  0     0  0
 14 15  1  0     0  0
  1  2  2  0     0  0
 15 16  2  0     0  0
  5  8  1  0     0  0
 32 33  1  0     0  0
 33 34  1  0     0  0
 34 35  1  0     0  0
 35 31  1  0     0  0
 11 17  1  0     0  0
 33 36  2  0     0  0
 37 38  1  0     0  0
  6  4  2  0     0  0
 17 18  1  0     0  0
  7  9  1  0     0  0
 18 19  1  0     0  0
  4  1  1  0     0  0
 18 20  2  0     0  0
 37 42  1  0     0  0
 38 39  1  0     0  0
 39 40  1  0     0  0
 40 41  1  0     0  0
 41 42  1  0     0  0
  8 37  1  0     0  0
M  END