
  CDK    9/15/10,16:21

 36 38  0  0  0  0  0  0  0  0999 V2000
    3.3292   -0.9792    0.0000 C   0  0  0  0  0  0  0  0  0  0  0  0
    3.7792   -0.2917    0.0000 O   0  0  0  0  0  0  0  0  0  0  0  0
    3.8417   -1.6292    0.0000 O   0  0  0  0  0  0  0  0  0  0  0  0
    5.7375   -6.6375    0.0000 C   0  0  0  0  0  0  0  0  0  0  0  0
    5.7375   -7.4625    0.0000 C   0  0  0  0  0  0  0  0  0  0  0  0
    2.6625   -0.4875    0.0000 C   0  0  0  0  0  0  0  0  0  0  0  0
    2.9250   -1.6917    0.0000 C   0  0  0  0  0  0  0  0  0  0  0  0
    5.0167   -6.2250    0.0000 O   0  0  0  0  0  0  0  0  0  0  0  0
    4.6125   -1.3375    0.0000 C   0  0  0  0  0  0  0  0  0  0  0  0
    6.0417   -1.4292    0.0000 N   0  0  0  0  0  0  0  0  0  0  0  0
    6.4500   -6.2250    0.0000 O   0  0  0  0  0  0  0  0  0  0  0  0
    6.4500   -7.8750    0.0000 O   0  0  0  0  0  0  0  0  0  0  0  0
    4.5792   -0.5167    0.0000 C   0  0  0  0  0  0  0  0  0  0  0  0
    9.0167   -3.4292    0.0000 C   0  0  0  0  0  0  0  0  0  0  0  0
    8.5750   -2.7417    0.0000 C   0  0  0  0  0  0  0  0  0  0  0  0
    5.0167   -7.8750    0.0000 O   0  0  0  0  0  0  0  0  0  0  0  0
    5.3000   -1.7917    0.0000 C   0  0  0  0  0  0  0  0  0  0  0  0
    8.6292   -4.1667    0.0000 O   0  0  0  0  0  0  0  0  0  0  0  0
    7.7500   -2.7792    0.0000 O   0  0  0  0  0  0  0  0  0  0  0  0
    6.4792   -2.1250    0.0000 C   0  0  0  0  0  0  0  0  0  0  0  0
    1.9042   -0.8250    0.0000 C   0  0  0  0  0  0  0  0  0  0  0  0
    2.1000   -1.7042    0.0000 C   0  0  0  0  0  0  0  0  0  0  0  0
    3.3417   -2.4042    0.0000 C   0  0  0  0  0  0  0  0  0  0  0  0
    2.7542    0.3333    0.0000 C   0  0  0  0  0  0  0  0  0  0  0  0
    9.8500   -3.3917    0.0000 C   0  0  0  0  0  0  0  0  0  0  0  0
    8.9542   -2.0042    0.0000 C   0  0  0  0  0  0  0  0  0  0  0  0
    7.3042   -2.0875    0.0000 C   0  0  0  0  0  0  0  0  0  0  0  0
    9.0792   -4.8667    0.0000 C   0  0  0  0  0  0  0  0  0  0  0  0
    9.7792   -1.9625    0.0000 C   0  0  0  0  0  0  0  0  0  0  0  0
    2.9417   -3.1167    0.0000 C   0  0  0  0  0  0  0  0  0  0  0  0
    2.0917    0.8250    0.0000 C   0  0  0  0  0  0  0  0  0  0  0  0
    1.2417   -0.3292    0.0000 C   0  0  0  0  0  0  0  0  0  0  0  0
    1.6917   -2.4167    0.0000 C   0  0  0  0  0  0  0  0  0  0  0  0
   10.2375   -2.6667    0.0000 C   0  0  0  0  0  0  0  0  0  0  0  0
    1.3292    0.4958    0.0000 C   0  0  0  0  0  0  0  0  0  0  0  0
    2.1125   -3.1292    0.0000 C   0  0  0  0  0  0  0  0  0  0  0  0
  2  1  1  0  0  0  0 
  3  1  1  0  0  0  0 
  5  4  1  0  0  0  0 
  6  1  1  0  0  0  0 
  1  7  1  0  0  0  0 
  8  4  1  0  0  0  0 
  9  3  1  0  0  0  0 
 10 17  1  0  0  0  0 
 11  4  2  0  0  0  0 
 12  5  2  0  0  0  0 
 13  2  1  0  0  0  0 
 14 15  2  0  0  0  0 
 15 19  1  0  0  0  0 
 16  5  1  0  0  0  0 
 17  9  1  0  0  0  0 
 18 14  1  0  0  0  0 
 19 27  1  0  0  0  0 
 20 10  1  0  0  0  0 
 21  6  1  0  0  0  0 
 22  7  2  0  0  0  0 
 23  7  1  0  0  0  0 
 24  6  2  0  0  0  0 
 25 14  1  0  0  0  0 
 26 15  1  0  0  0  0 
 27 20  1  0  0  0  0 
 28 18  1  0  0  0  0 
 29 26  2  0  0  0  0 
 30 23  2  0  0  0  0 
 31 24  1  0  0  0  0 
 32 21  2  0  0  0  0 
 33 22  1  0  0  0  0 
 34 29  1  0  0  0  0 
 35 32  1  0  0  0  0 
 36 33  2  0  0  0  0 
 13  9  1  0  0  0  0 
 36 30  1  0  0  0  0 
 35 31  2  0  0  0  0 
 34 25  2  0  0  0  0 
M  END