
          11280714522D 1   1.00000     0.00000     0

 42 47  0     0  0            999 V2000
    5.9250   -5.4375    0.0000 S   0  0  3  0  0  0           0  0  0
    4.5125   -7.9167    0.0000 C   0  0  0  0  0  0           0  0  0
    5.2167   -7.5042    0.0000 C   0  0  0  0  0  0           0  0  0
    5.9292   -6.2625    0.0000 N   0  0  0  0  0  0           0  0  0
    3.7917   -7.5042    0.0000 O   0  0  0  0  0  0           0  0  0
    5.2167   -6.6792    0.0000 C   0  0  0  0  0  0           0  0  0
    4.5125   -8.7417    0.0000 C   0  0  0  0  0  0           0  0  0
    3.0792   -7.9250    0.0000 C   0  0  0  0  0  0           0  0  0
    3.0792   -8.7500    0.0000 C   0  0  0  0  0  0           0  0  0
    3.7917   -9.1625    0.0000 C   0  0  0  0  0  0           0  0  0
   -1.9083   -6.6500    0.0000 N   0  0  0  0  0  0           0  0  0
    6.6375   -5.0167    0.0000 O   0  0  0  0  0  0           0  0  0
    5.2042   -5.0292    0.0000 O   0  0  0  0  0  0           0  0  0
    5.9375   -7.9125    0.0000 C   0  0  0  0  0  0           0  0  0
    5.9167   -4.6125    0.0000 C   0  0  0  0  0  0           0  0  0
    2.3667   -7.5125    0.0000 C   0  0  0  0  0  0           0  0  0
    5.2292   -9.1542    0.0000 C   0  0  0  0  0  0           0  0  0
   -2.6208   -6.2250    0.0000 C   0  0  0  0  0  0           0  0  0
    4.5000   -6.2667    0.0000 O   0  0  0  0  0  0           0  0  0
    5.9417   -8.7417    0.0000 C   0  0  0  0  0  0           0  0  0
    3.8000   -9.9875    0.0000 O   0  0  0  0  0  0           0  0  0
   -1.1958   -6.2417    0.0000 C   0  0  0  0  0  0           0  0  0
   -2.6083   -5.4042    0.0000 C   0  0  0  0  0  0           0  0  0
    2.3667   -6.6792    0.0000 C   0  0  0  0  0  0           0  0  0
    1.6542   -7.9250    0.0000 C   0  0  0  0  0  0           0  0  0
   -1.8958   -5.0000    0.0000 C   0  0  0  0  0  0           0  0  0
    0.2292   -6.2625    0.0000 O   0  0  0  0  0  0           0  0  0
    0.9417   -6.6792    0.0000 C   0  0  0  0  0  0           0  0  0
    6.6542   -9.1500    0.0000 Br  0  0  0  0  0  0           0  0  0
   -0.4833   -6.6625    0.0000 C   0  0  0  0  0  0           0  0  0
   -1.1833   -5.4167    0.0000 C   0  0  0  0  0  0           0  0  0
    1.6625   -6.2667    0.0000 C   0  0  0  0  0  0           0  0  0
    0.9417   -7.5042    0.0000 C   0  0  0  0  0  0           0  0  0
   -3.3333   -6.6375    0.0000 C   0  0  0  0  0  0           0  0  0
    6.6292   -4.1917    0.0000 C   0  0  0  0  0  0           0  0  0
    5.2000   -4.2042    0.0000 C   0  0  0  0  0  0           0  0  0
   -3.3125   -4.9792    0.0000 C   0  0  0  0  0  0           0  0  0
   -4.0458   -6.2125    0.0000 C   0  0  0  0  0  0           0  0  0
    5.1917   -3.3792    0.0000 C   0  0  0  0  0  0           0  0  0
    6.6292   -3.3667    0.0000 C   0  0  0  0  0  0           0  0  0
   -4.0333   -5.3875    0.0000 C   0  0  0  0  0  0           0  0  0
    5.9042   -2.9542    0.0000 C   0  0  0  0  0  0           0  0  0
  2  3  1  0     0  0
  3  6  1  0     0  0
  4  1  1  0     0  0
  5  2  1  0     0  0
  6  4  1  0     0  0
  7  2  2  0     0  0
  8  5  1  0     0  0
  9 10  1  0     0  0
 10  7  1  0     0  0
 11 22  2  0     0  0
 12  1  2  0     0  0
 13  1  2  0     0  0
 14  3  2  0     0  0
 15  1  1  0     0  0
 16  8  1  0     0  0
 17 20  2  0     0  0
 18 11  1  0     0  0
 19  6  2  0     0  0
 20 14  1  0     0  0
 21 10  2  0     0  0
 22 30  1  0     0  0
 23 26  1  0     0  0
 24 16  1  0     0  0
 25 16  2  0     0  0
 26 31  2  0     0  0
 27 28  1  0     0  0
 28 33  2  0     0  0
 29 20  1  0     0  0
 30 27  1  0     0  0
 31 22  1  0     0  0
 32 24  2  0     0  0
 33 25  1  0     0  0
 34 18  1  0     0  0
 35 15  2  0     0  0
 36 15  1  0     0  0
 37 23  1  0     0  0
 38 34  2  0     0  0
 39 36  2  0     0  0
 40 35  1  0     0  0
 41 37  2  0     0  0
 42 39  1  0     0  0
 42 40  2  0     0  0
 17  7  1  0     0  0
  9  8  2  0     0  0
 28 32  1  0     0  0
 18 23  2  0     0  0
 38 41  1  0     0  0
M  END