
  SciTegic10311316302D

 60 64  0  0  0  0            999 V2000
    4.2198  -10.7191    0.0000 Na  0  3
   16.6540   -4.8645    0.0000 C   0  0
   16.2599   -5.5809    0.0000 C   0  0
   16.6831   -6.2807    0.0000 C   0  0
   17.4716   -4.8477    0.0000 C   0  0
   18.6993   -5.7026    0.0000 O   0  0
   17.8947   -5.5452    0.0000 C   0  0
   17.5012   -6.2625    0.0000 C   0  0
   18.0608   -6.8608    0.0000 C   0  0
   18.8023   -6.5104    0.0000 C   0  0
   16.2317   -4.1649    0.0000 O   0  0
   18.0874   -7.6776    0.0000 C   0  0
   17.3940   -8.1086    0.0000 O   0  0
   18.8071   -8.0635    0.0000 O   0  0
   18.7914   -8.8783    0.0000 C   0  0
   19.4864   -9.3033    0.0000 C   0  0
   16.6273   -3.4491    0.0000 C   0  0
   19.5164   -6.9028    0.0000 C   0  0
   15.4417   -5.5976    0.0000 O   0  0
    7.6851   -9.5038    0.0000 C   0  0
    8.1051  -10.2035    0.0000 C   0  0
    8.9244  -10.1873    0.0000 C   0  0
    8.0774   -8.7892    0.0000 C   0  0
    9.4334   -8.1511    0.0000 O   0  0
    8.8940   -8.7676    0.0000 C   0  0
    9.3176   -9.4705    0.0000 C   0  0
   10.1166   -9.2808    0.0000 C   0  0
   10.1824   -8.4634    0.0000 C   0  0
    6.8704   -9.5183    0.0000 O   0  0
    7.7127  -10.9176    0.0000 O   0  0
    6.8935  -10.9348    0.0000 S   0  0
    6.6121  -11.7030    0.0000 O   0  5
    6.0794  -10.9488    0.0000 O   0  0
    6.8796  -10.1193    0.0000 O   0  0
   10.8555   -9.6377    0.0000 C   0  0
   10.8704  -10.4526    0.0000 O   0  0
   11.5509   -9.2134    0.0000 O   0  0
   12.2671   -9.6039    0.0000 C   0  0
   12.9655   -9.1824    0.0000 C   0  0
    6.4481   -8.8187    0.0000 C   0  0
   10.8820   -8.0411    0.0000 C   0  0
   10.8675   -7.2253    0.0000 O   0  0
   11.5502   -5.9819    0.0000 C   0  0
   11.5666   -6.8033    0.0000 C   0  0
   12.2815   -7.1951    0.0000 C   0  0
   12.2477   -5.5613    0.0000 C   0  0
   13.7380   -5.6818    0.0000 O   0  0
   12.9658   -5.9514    0.0000 C   0  0
   12.9807   -6.7695    0.0000 C   0  0
   13.7641   -7.0063    0.0000 C   0  0
   14.2276   -6.3304    0.0000 C   0  0
   10.8361   -5.5895    0.0000 O   0  0
   14.2275   -7.6778    0.0000 C   0  0
   13.8786   -8.4175    0.0000 O   0  0
   15.0451   -7.6585    0.0000 O   0  0
   15.4707   -8.3591    0.0000 C   0  0
   16.2884   -8.3399    0.0000 C   0  0
   10.8195   -4.7719    0.0000 C   0  0
   15.0458   -6.3138    0.0000 C   0  0
    5.6299   -8.8354    0.0000 C   0  0
  2  3  2  0
  3  4  1  0
  4  8  2  0
  7  5  2  0
  5  2  1  0
  7  8  1  0
  6  7  1  0
  8  9  1  0
  9 10  2  0
 10  6  1  0
  2 11  1  0
  9 12  1  0
 12 13  2  0
 12 14  1  0
 14 15  1  0
 15 16  1  0
 11 17  1  0
 10 18  1  0
  3 19  1  0
 20 21  2  0
 21 22  1  0
 22 26  2  0
 25 23  2  0
 23 20  1  0
 25 26  1  0
 24 25  1  0
 26 27  1  0
 27 28  2  0
 28 24  1  0
 20 29  1  0
 21 30  1  0
 30 31  1  0
 31 32  1  0
 31 33  2  0
 31 34  2  0
 27 35  1  0
 35 36  2  0
 35 37  1  0
 37 38  1  0
 38 39  1  0
 29 40  1  0
 28 41  1  0
 41 42  1  0
 43 44  2  0
 44 45  1  0
 45 49  2  0
 48 46  2  0
 46 43  1  0
 48 49  1  0
 47 48  1  0
 49 50  1  0
 50 51  2  0
 51 47  1  0
 43 52  1  0
 50 53  1  0
 53 54  2  0
 53 55  1  0
 55 56  1  0
 56 57  1  0
 52 58  1  0
 51 59  1  0
 59 19  1  0
 44 42  1  0
 40 60  1  0
M  CHG  2   1   1  32  -1
M  END