
  SciTegic01181116592D

 19 21  0  0  0  0            999 V2000
    3.1637  -25.9749    0.0000 C   0  0
    3.1626  -26.8018    0.0000 C   0  0
    3.8770  -27.2145    0.0000 C   0  0
    3.8752  -25.5623    0.0000 C   0  0
    4.5903  -25.9712    0.0000 C   0  0
    4.5910  -26.7977    0.0000 C   0  0
    5.3059  -27.2084    0.0000 N   0  0
    6.0207  -26.7939    0.0000 C   0  0
    6.0159  -25.9643    0.0000 C   0  0
    5.3003  -25.5573    0.0000 N   0  0
    6.7274  -25.5477    0.0000 C   0  0
    7.4441  -25.9556    0.0000 N   0  0
    6.7224  -24.7231    0.0000 O   0  0
    8.1557  -25.5390    0.0000 C   0  0
    8.8702  -25.9496    0.0000 C   0  0
    9.5797  -25.5365    0.0000 C   0  0
    9.5789  -24.7115    0.0000 C   0  0
    8.8624  -24.3014    0.0000 C   0  0
    8.1467  -24.7162    0.0000 C   0  0
  4  1  1  0
  9 10  2  0
 10  5  1  0
  9 11  1  0
  2  3  1  0
 11 12  1  0
  5  6  1  0
 11 13  2  0
  3  6  2  0
 12 14  1  0
 14 15  1  0
  6  7  1  0
  1  2  2  0
  7  8  2  0
  5  4  2  0
  8  9  1  0
 14 19  1  0
 15 16  1  0
 16 17  1  0
 17 18  1  0
 18 19  1  0
M  END