
          11280715122D 1   1.00000     0.00000     0

 29 32  0     0  0            999 V2000
    8.1292   -3.0792    0.0000 C   0  0  0  0  0  0           0  0  0
    7.4125   -2.6667    0.0000 C   0  0  0  0  0  0           0  0  0
    2.8542   -2.6917    0.0000 N   0  0  3  0  0  0           0  0  0
    7.4125   -1.8417    0.0000 C   0  0  3  0  0  0           0  0  0
    8.1250   -3.9042    0.0000 C   0  0  0  0  0  0           0  0  0
    7.8250   -1.1292    0.0000 C   0  0  0  0  0  0           0  0  0
    6.9917   -1.1292    0.0000 C   0  0  0  0  0  0           0  0  0
    2.1417   -2.2792    0.0000 C   0  0  0  0  0  0           0  0  0
    4.2792   -3.5167    0.0000 N   0  0  3  0  0  0           0  0  0
    8.8417   -4.3167    0.0000 N   0  0  0  0  0  0           0  0  0
    6.7000   -3.0792    0.0000 O   0  0  0  0  0  0           0  0  0
    3.5750   -2.2792    0.0000 C   0  0  0  0  0  0           0  0  0
    2.8542   -3.5167    0.0000 C   0  0  0  0  0  0           0  0  0
    2.1417   -1.4542    0.0000 C   0  0  0  0  0  0           0  0  0
    7.3000   -3.9042    0.0000 N   0  0  0  0  0  0           0  0  0
    4.2792   -2.6917    0.0000 C   0  0  0  0  0  0           0  0  0
    3.5667   -3.9292    0.0000 C   0  0  0  0  0  0           0  0  0
    8.8417   -2.6667    0.0000 C   0  0  0  0  0  0           0  0  0
    2.8542   -1.0375    0.0000 O   0  0  0  0  0  0           0  0  0
    5.0000   -3.9292    0.0000 C   0  0  0  0  0  0           0  0  0
    5.7917   -3.7125    0.0000 C   0  0  0  0  0  0           0  0  0
    1.4250   -2.6917    0.0000 C   0  0  0  0  0  0           0  0  0
    9.5542   -3.9042    0.0000 C   0  0  0  0  0  0           0  0  0
    6.5042   -4.1250    0.0000 C   0  0  0  0  0  0           0  0  0
    1.4250   -1.0417    0.0000 C   0  0  0  0  0  0           0  0  0
    3.5667   -1.4417    0.0000 C   0  0  0  0  0  0           0  0  0
    9.5542   -3.0750    0.0000 C   0  0  0  0  0  0           0  0  0
    0.7125   -2.2792    0.0000 C   0  0  0  0  0  0           0  0  0
    0.7125   -1.4542    0.0000 C   0  0  0  0  0  0           0  0  0
  2  1  1  0     0  0
  3 13  1  0     0  0
  4  2  1  0     0  0
  5  1  2  0     0  0
  6  4  1  0     0  0
  7  4  1  0     0  0
  8  3  1  0     0  0
  9 20  1  0     0  0
 10  5  1  0     0  0
 11  2  2  0     0  0
 12 16  1  0     0  0
 13 17  1  0     0  0
 14  8  1  0     0  0
 15  5  1  0     0  0
 16  9  1  0     0  0
 17  9  1  0     0  0
 18  1  1  0     0  0
 19 14  1  0     0  0
 20 21  1  0     0  0
 21 24  1  0     0  0
 22  8  2  0     0  0
 23 27  1  0     0  0
 24 15  1  0     0  0
 25 14  2  0     0  0
 26 19  1  0     0  0
 27 18  2  0     0  0
 28 22  1  0     0  0
 29 28  2  0     0  0
 23 10  2  0     0  0
  6  7  1  0     0  0
  3 12  1  0     0  0
 29 25  1  0     0  0
M  END