
  SciTegic08261113352D

 17 18  0  0  0  0            999 V2000
    4.9374   -5.3859    0.0000 N   0  0
    5.0204   -4.5637    0.0000 C   0  0
    7.1175   -5.1990    0.0000 C   0  0
    6.3576   -5.5354    0.0000 C   0  0
    5.5977   -5.8718    0.0000 C   0  0  2  0  0  0
    7.9646   -4.0405    0.0000 N   0  0
    5.7721   -4.2273    0.0000 O   0  0
    7.8774   -4.8627    0.0000 C   0  0
    4.1858   -5.7223    0.0000 C   0  0
    4.3477   -4.0861    0.0000 C   0  0
    7.3002   -3.5546    0.0000 C   0  0
    8.6332   -3.5546    0.0000 C   0  0
    5.5105   -6.6898    0.0000 C   0  0
    4.0986   -6.5445    0.0000 C   0  0
    8.3716   -2.7698    0.0000 C   0  0
    7.5535   -2.7698    0.0000 C   0  0
    4.7630   -7.0261    0.0000 C   0  0
  2  1  1  0
  3  4  3  0
  5  4  1  6
  5  1  1  0
  6  8  1  0
  7  2  2  0
  8  3  1  0
  9  1  1  0
 10  2  1  0
 11  6  1  0
 12  6  1  0
 13  5  1  0
 14  9  1  0
 15 12  1  0
 16 11  1  0
 17 14  1  0
 17 13  1  0
 15 16  1  0
M  END