
  SciTegic01161211252D

 45 50  0  0  0  0            999 V2000
    4.1164  -24.5061    0.0000 C   0  0
    4.8289  -24.0894    0.0000 C   0  0
    4.6529  -23.2830    0.0000 C   0  0
    3.8315  -23.2012    0.0000 C   0  0
    3.5001  -23.9572    0.0000 C   0  0
    1.9708  -24.9208    0.0000 C   0  0
    2.6853  -24.5083    0.0000 C   0  0
    3.3998  -24.9208    0.0000 N   0  0
    2.6853  -23.6833    0.0000 O   0  0
    4.8287  -24.9208    0.0000 C   0  0
    5.5432  -24.5083    0.0000 N   0  0
    4.8287  -25.7458    0.0000 O   0  0
    6.2577  -24.9208    0.0000 C   0  0  1  0  0  0
    6.9721  -24.5083    0.0000 C   0  0
    6.2577  -25.7458    0.0000 C   0  0
    6.9721  -26.1583    0.0000 C   0  0
    6.9681  -26.9844    0.0000 C   0  0
    7.6817  -27.3968    0.0000 C   0  0
    8.3971  -26.9843    0.0000 C   0  0
    8.3945  -26.1550    0.0000 C   0  0
    7.6803  -25.7463    0.0000 C   0  0
    7.6866  -24.9208    0.0000 C   0  0
    8.4011  -24.5083    0.0000 C   0  0
    9.1155  -24.9208    0.0000 N   0  0
    9.1102  -25.7468    0.0000 C   0  0
    9.8206  -26.1592    0.0000 C   0  0
   10.5375  -25.7502    0.0000 N   0  0
   10.5395  -24.9242    0.0000 C   0  0
    9.8246  -24.5073    0.0000 C   0  0
   11.2504  -26.1654    0.0000 C   0  0
   11.9664  -25.7556    0.0000 C   0  0
   12.6756  -26.1759    0.0000 C   0  0
   13.3895  -25.7696    0.0000 C   0  0
   13.3969  -24.9443    0.0000 O   0  0
   12.6841  -24.5269    0.0000 C   0  0
   11.9640  -24.9348    0.0000 C   0  0
    1.2153  -24.5895    0.0000 C   0  0
    1.8828  -25.7455    0.0000 S   0  0
    1.0758  -25.9171    0.0000 C   0  0
    0.6664  -25.2011    0.0000 C   0  0
   -0.1566  -25.1987    0.0000 C   0  0
   -0.5710  -25.9116    0.0000 C   0  0
   -0.1565  -26.6283    0.0000 C   0  0
    0.6651  -26.6272    0.0000 C   0  0
   -0.5682  -27.3432    0.0000 C   0  0
 14 22  1  0
 10 11  1  0
 22 23  1  0
  1  2  1  0
 23 24  1  0
 24 25  1  0
 10 12  2  0
 13 11  1  0
  6  7  1  0
 13 14  1  0
 24 29  1  0
 25 26  1  0
 26 27  1  0
 27 28  1  0
 28 29  1  0
  2  3  1  0
 27 30  1  0
 13 15  1  1
 30 31  1  0
 31 32  1  0
  7  8  1  0
 15 16  1  0
  3  4  1  0
 16 17  2  0
  7  9  2  0
 31 36  1  0
 32 33  1  0
 33 34  1  0
 34 35  1  0
 35 36  1  0
  6 37  2  0
 17 18  1  0
  8  1  1  0
 37 40  1  0
 39 38  1  0
 38  6  1  0
 18 19  2  0
  4  5  1  0
 39 40  2  0
 19 20  1  0
 40 41  1  0
  1 10  1  0
 41 42  2  0
 20 21  2  0
 42 43  1  0
 21 16  1  0
 43 44  2  0
 44 39  1  0
  5  1  1  0
 43 45  1  0
M  END