
  SciTegic01161211242D

 25 28  0  0  0  0            999 V2000
   -5.0141   -6.9886    0.0000 C   0  0
   -5.0152   -7.8146    0.0000 C   0  0
   -4.3016   -8.2268    0.0000 C   0  0
   -4.3034   -6.5765    0.0000 C   0  0
   -3.5891   -6.9849    0.0000 C   0  0
   -3.5858   -7.8167    0.0000 C   0  0
   -2.8677   -8.2273    0.0000 C   0  0
   -2.1485   -7.8108    0.0000 C   0  0
   -2.8746   -6.5638    0.0000 C   0  0  2  0  0  0
   -2.1515   -6.9810    0.0000 C   0  0  1  0  0  0
   -1.5312   -6.4221    0.0000 N   0  0
   -1.8711   -5.6596    0.0000 C   0  0
   -2.7013   -5.7472    0.0000 C   0  0
   -0.7069   -6.4156    0.0000 C   0  0  1  0  0  0
   -0.3000   -5.6996    0.0000 C   0  0
   -3.5941   -6.1483    0.0000 H   0  0
   -1.3603   -7.1925    0.0000 H   0  0
   -4.3059   -5.7528    0.0000 O   0  0
   -5.0204   -5.3431    0.0000 C   0  0
    0.5242   -5.6963    0.0000 C   0  0
    0.9311   -4.9811    0.0000 C   0  0
    0.5144   -4.2696    0.0000 C   0  0
   -0.3135   -4.2778    0.0000 C   0  0
   -0.7166   -4.9937    0.0000 C   0  0
   -0.2899   -7.1260    0.0000 C   0  0
 10 11  1  0
 11 12  1  0
 12 13  1  0
 13  9  1  0
  3  6  2  0
 11 14  1  0
  1  2  2  0
 14 15  1  0
  5  9  1  0
  9 16  1  6
  6  7  1  0
 10 17  1  6
  7  8  1  0
  4 18  1  0
  8 10  1  0
 18 19  1  0
  9 10  1  0
 15 20  2  0
  5  4  2  0
 20 21  1  0
  4  1  1  0
 21 22  2  0
  5  6  1  0
 22 23  1  0
 23 24  2  0
 24 15  1  0
  2  3  1  0
 14 25  1  1
M  END