
  SciTegic12201612092D

 33 36  0  0  0  0            999 V2000
    3.6490    2.9355    0.0000 C   0  0
    4.6510    1.8181    0.0000 C   0  0
    6.1195    2.1239    0.0000 C   0  0
    7.1186    1.0050    0.0000 C   0  0
    6.6493   -0.4196    0.0000 C   0  0
    5.1808   -0.7255    0.0000 C   0  0
    4.1816    0.3933    0.0000 C   0  0
    4.0226    4.0759    0.0000 O   0  0
    2.1802    2.6274    0.0000 N   0  0
    8.5879    1.3111    0.0000 C   0  0
    1.1782    3.7448    0.0000 C   0  0
   -0.2903    3.4390    0.0000 C   0  0
   -1.2894    4.5579    0.0000 C   0  0
   -0.8201    5.9825    0.0000 C   0  0
    0.6484    6.2884    0.0000 C   0  0
    1.6475    5.1696    0.0000 C   0  0
   -0.6659    2.2993    0.0000 C   0  0
    1.0239    7.4281    0.0000 O   0  0
    1.7138   -1.2033    0.0000 N   0  0
    2.5889    0.0182    0.0000 C   0  0
    1.7138    1.2033    0.0000 C   0  0
    0.2917    0.7475    0.0000 C   0  0
   -1.0028    1.5132    0.0000 C   0  0
   -2.3155    0.7475    0.0000 C   0  0
   -2.3155   -0.7475    0.0000 C   0  0
   -1.0028   -1.5132    0.0000 C   0  0
    0.2917   -0.7475    0.0000 C   0  0
    2.1855   -2.6254    0.0000 C   0  0
    3.3606   -2.8684    0.0000 O   0  0
    1.3877   -3.5218    0.0000 C   0  0
    8.9641    2.4506    0.0000 F   0  0
    9.3869    0.4157    0.0000 F   0  0
    9.7628    1.5552    0.0000 F   0  0
  1  2  1  0
  2  3  1  0
  3  4  2  0
  4  5  1  0
  5  6  2  0
  6  7  1  0
  2  7  2  0
  1  8  2  0
  1  9  1  0
  4 10  1  0
 11 12  1  0
 12 13  2  0
 13 14  1  0
 14 15  2  0
 15 16  1  0
 11 16  2  0
 12 17  1  0
 15 18  1  0
  9 11  1  0
 19 20  1  0
 20 21  2  0
 21 22  1  0
 22 23  1  0
 23 24  2  0
 24 25  1  0
 25 26  2  0
 26 27  1  0
 19 27  1  0
 22 27  2  0
 28 29  2  0
 28 30  1  0
 19 28  1  0
  9 21  1  0
 10 31  1  0
 10 32  1  0
 10 33  1  0
M  END