
  SciTegic06051313522D

 31 35  0  0  0  0            999 V2000
   11.2866   -5.7698    0.0000 C   0  0
   11.2854   -6.5894    0.0000 C   0  0
   11.9935   -6.9983    0.0000 C   0  0
   11.9917   -5.3610    0.0000 C   0  0
   12.7003   -5.7662    0.0000 C   0  0
   12.7010   -6.5852    0.0000 C   0  0
   13.4096   -6.9923    0.0000 C   0  0
   14.1178   -6.5815    0.0000 C   0  0
   14.1131   -5.7594    0.0000 C   0  0
   13.4040   -5.3560    0.0000 C   0  0
   12.2055   -4.5647    0.0000 C   0  0
   13.1865   -4.5606    0.0000 C   0  0
   13.4857   -3.6263    0.0000 C   0  0
   12.6896   -3.0530    0.0000 C   0  0
   11.8985   -3.6330    0.0000 N   0  0
   12.6854   -2.0719    0.0000 O   0  0
   14.4175   -3.3192    0.0000 N   0  0
   15.1493   -3.9726    0.0000 C   0  0
   16.0810   -3.6656    0.0000 C   0  0
   16.8128   -4.3189    0.0000 C   0  0
   17.7446   -4.0119    0.0000 C   0  0
   13.4113   -7.8095    0.0000 O   0  0
   14.1198   -8.2166    0.0000 C   0  0
   14.1182   -9.0315    0.0000 C   0  0
   14.8259   -9.4385    0.0000 C   0  0
   15.5337   -9.0284    0.0000 C   0  0
   15.5294   -8.2070    0.0000 C   0  0
   14.8211   -7.8036    0.0000 C   0  0
   16.2428   -9.4346    0.0000 C   0  0
   16.2456  -10.2518    0.0000 C   0  0
   16.9492   -9.0236    0.0000 C   0  0
  1  2  2  0
  2  3  1  0
  3  6  2  0
  5  4  2  0
  4  1  1  0
  5  6  1  0
  6  7  1  0
  7  8  2  0
  8  9  1  0
  9 10  2  0
 10  5  1  0
  4 11  1  0
 10 12  1  0
 11 12  1  0
 12 13  2  0
 13 14  1  0
 14 15  1  0
 15 11  2  0
 14 16  2  0
 13 17  1  0
 17 18  1  0
 18 19  1  0
 19 20  1  0
 20 21  1  0
  7 22  1  0
 22 23  1  0
 23 24  2  0
 24 25  1  0
 25 26  2  0
 26 27  1  0
 27 28  2  0
 28 23  1  0
 26 29  1  0
 29 30  1  0
 29 31  1  0
M  END