
  Mrv0541 04051115152D          

  5  5  0  0  0  0            999 V2000
    0.6774    0.2169    0.0000 C   0  0  0  0  0  0  0  0  0  0  0  0
    0.4225   -0.5678    0.0000 C   0  0  0  0  0  0  0  0  0  0  0  0
   -0.4025   -0.5678    0.0000 C   0  0  0  0  0  0  0  0  0  0  0  0
   -0.6575    0.2169    0.0000 N   0  0  0  0  0  0  0  0  0  0  0  0
    0.0100    0.7018    0.0000 N   0  0  0  0  0  0  0  0  0  0  0  0
  2  1  1  0  0  0  0
  1  5  2  0  0  0  0
  3  2  2  0  0  0  0
  3  4  1  0  0  0  0
  5  4  1  0  0  0  0
M  END