
  SciTegic11201309402D

117123  0  0  0  0            999 V2000
    3.1825  -15.0643    0.0000 C   0  0  1  0  0  0
    3.1848  -15.8999    0.0000 C   0  0
    3.8953  -16.3310    0.0000 N   0  0
    4.6292  -15.9098    0.0000 C   0  0
    6.0802  -15.9302    0.0000 N   0  0
    5.3531  -16.3404    0.0000 C   0  0
    4.6466  -12.6504    0.0000 C   0  0
    7.5236  -15.9290    0.0000 C   0  0
    6.7872  -16.3565    0.0000 C   0  0  2  0  0  0
    3.2285  -12.6353    0.0000 S   0  0
    3.9391  -12.2343    0.0000 S   0  0
    2.4872  -14.6872    0.0000 N   0  0
    8.2361  -16.3422    0.0000 N   0  0
    8.9518  -15.9275    0.0000 C   0  0  2  0  0  0
    9.6643  -16.3406    0.0000 C   0  0
   10.3758  -15.9301    0.0000 N   0  0
   11.0925  -16.3434    0.0000 C   0  0  1  0  0  0
   11.8046  -12.6292    0.0000 C   0  0
   11.0878  -12.2202    0.0000 N   0  0
   10.3763  -12.6307    0.0000 C   0  0  2  0  0  0
    9.6596  -12.2218    0.0000 C   0  0
    8.9481  -12.6323    0.0000 C   0  0
    6.8032  -12.2249    0.0000 C   0  0
    6.0916  -12.6355    0.0000 N   0  0
    5.3793  -12.2223    0.0000 C   0  0  2  0  0  0
    5.3735  -11.3986    0.0000 C   0  0
    6.0869  -10.9839    0.0000 O   0  0
    6.8022  -11.4012    0.0000 O   0  0
    8.2370  -12.2229    0.0000 N   0  0
    7.5227  -12.6289    0.0000 C   0  0  1  0  0  0
    7.6879  -13.4332    0.0000 C   0  0
    8.5028  -13.5255    0.0000 C   0  0
    8.8431  -12.7773    0.0000 C   0  0
    9.3515  -13.3434    0.0000 O   0  0
    9.6587  -11.3980    0.0000 O   0  0
    9.6652  -17.1687    0.0000 O   0  0
   10.3661  -11.8064    0.0000 C   0  0
   11.0772  -11.3921    0.0000 C   0  0
   11.7953  -11.7980    0.0000 C   0  0
   12.5057  -11.3804    0.0000 C   0  0
   12.5004  -10.5554    0.0000 C   0  0
   11.7798  -10.1463    0.0000 C   0  0
   11.0655  -10.5674    0.0000 C   0  0
    8.9440  -16.7533    0.0000 C   0  0
    7.5227  -15.1053    0.0000 O   0  0
    8.5278  -17.4665    0.0000 C   0  0
    7.7017  -17.4593    0.0000 C   0  0
    7.2856  -18.1712    0.0000 C   0  0
    7.6939  -18.8888    0.0000 C   0  0
    8.5249  -18.8918    0.0000 C   0  0
    8.9395  -18.1790    0.0000 C   0  0
    6.7807  -17.1802    0.0000 C   0  0
    6.0633  -17.5848    0.0000 C   0  0
    5.3121  -17.2486    0.0000 N   0  0
    4.7588  -17.8558    0.0000 C   0  0
    5.9699  -18.4070    0.0000 C   0  0
    4.7644  -16.9181    0.0000 O   0  0
    2.4667  -16.3075    0.0000 O   0  0
    3.8902  -14.6443    0.0000 C   0  0
    1.7806  -15.1190    0.0000 C   0  0
    1.0555  -14.7275    0.0000 C   0  0  2  0  0  0
    1.8033  -15.9423    0.0000 O   0  0
    1.0489  -13.9027    0.0000 C   0  0
    0.3511  -15.1529    0.0000 N   0  0
    4.6586  -10.9895    0.0000 N   0  0
    0.3658  -15.9765    0.0000 C   0  0
   -0.3386  -16.4021    0.0000 C   0  0  2  0  0  0
    1.0892  -16.3746    0.0000 O   0  0
   -1.0578  -15.9997    0.0000 C   0  0
   -1.0767  -15.1762    0.0000 C   0  0
   -0.3665  -14.7560    0.0000 C   0  0
   -0.3850  -13.9336    0.0000 C   0  0
   -1.1050  -13.5300    0.0000 C   0  0
   -1.8129  -13.9625    0.0000 C   0  0
   -1.7934  -14.7869    0.0000 C   0  0
   -1.0330  -17.6484    0.0000 C   0  0
   -1.0183  -18.4762    0.0000 C   0  0  2  0  0  0
   -1.7564  -17.2545    0.0000 O   0  0
   -0.2991  -18.8742    0.0000 C   0  0
   -0.2845  -19.6977    0.0000 C   0  0
    0.4389  -20.0958    0.0000 C   0  0
    1.1737  -21.3235    0.0000 C   0  0
    1.8782  -20.8979    0.0000 N   0  0
    5.3809  -13.2223    0.0000 H   0  0
    6.7152  -13.2187    0.0000 H   0  0
    4.0522  -15.5579    0.0000 H   0  0
    1.0796  -15.7272    0.0000 H   0  0
   -2.4430  -18.4975    0.0000 C   0  0
   -3.1644  -18.9307    0.0000 C   0  0
   -2.4552  -17.6568    0.0000 O   0  0
    0.8255  -13.0836    0.0000 C   0  0
    0.2066  -13.8989    0.0000 C   0  0
   11.0891  -17.1683    0.0000 C   0  0
   11.8016  -17.5814    0.0000 C   0  0
   12.5203  -17.1709    0.0000 C   0  0
   12.5218  -16.3427    0.0000 N   0  0
   11.8046  -15.9249    0.0000 C   0  0
   11.8031  -15.0798    0.0000 O   0  0
   13.2548  -15.9221    0.0000 C   0  0
   13.2573  -15.0770    0.0000 C   0  0
   13.9903  -14.6565    0.0000 O   0  0
   12.5266  -14.6524    0.0000 N   0  0
   12.5290  -13.8073    0.0000 C   0  0  1  0  0  0
   11.7907  -14.2275    0.0000 C   0  0
   13.3424  -13.5785    0.0000 C   0  0
   13.5511  -12.7595    0.0000 C   0  0
   14.3645  -12.5306    0.0000 C   0  0
   12.9461  -12.1693    0.0000 C   0  0
   12.4010  -12.0251    0.0000 O   0  0
    2.4654  -13.8424    0.0000 C   0  0
   13.2107  -10.1353    0.0000 O   0  0
    5.1623  -18.5754    0.0000 N   0  0
   -0.3238  -17.2269    0.0000 N   0  0
   -1.7244  -18.9029    0.0000 N   0  0
    0.4537  -20.9207    0.0000 N   0  0
    1.1885  -22.1471    0.0000 N   0  0
   10.2256  -16.8418    0.0000 H   0  0
 30 31  1  0
 31 32  1  0
 32 33  1  0
 33 29  1  0
 22 34  2  0
 21 35  2  0
 15 36  2  0
 20 37  1  1
 37 38  1  0
 38 39  2  0
 39 40  1  0
 40 41  2  0
 41 42  1  0
 42 43  2  0
 43 38  1  0
 14 44  1  1
  8 45  2  0
 44 46  1  0
 46 47  2  0
 47 48  1  0
 48 49  2  0
 49 50  1  0
 50 51  2  0
 51 46  1  0
  9 52  1  6
 52 53  1  0
 53 54  1  0
 54 55  2  0
 56 53  2  0
  6 57  2  0
  2 58  2  0
  1 59  1  0
 12 60  1  0
 60 61  1  0
 60 62  2  0
 61 63  1  0
 63 10  1  0
 61 64  1  0
 26 65  1  0
 64 66  1  0
 66 67  1  0
 66 68  2  0
 67 69  1  1
 69 70  1  0
 70 71  2  0
 71 72  1  0
 72 73  2  0
 73 74  1  0
 74 75  2  0
 75 70  1  0
 76 77  1  0
 76 78  2  0
 77 79  1  6
 79 80  1  0
 80 81  1  0
 82 83  2  0
 25 84  1  6
 30 85  1  6
  1 86  1  6
 61 87  1  6
  1  2  1  0
 88 89  1  0
  2  3  1  0
 88 90  2  0
  3  4  1  0
 63 91  1  0
  5  6  1  0
 63 92  1  0
 17 93  1  0
  6  4  1  0
  7 25  1  0
  5  9  1  0
  9  8  1  0
  7 11  1  0
 17 97  1  0
 93 94  1  0
 94 95  1  0
 95 96  1  0
 96 97  1  0
 10 11  1  0
 97 98  2  0
 12  1  1  0
 96 99  1  0
  8 13  1  0
 99100  1  0
 13 14  1  0
100101  2  0
 14 15  1  0
100102  1  0
 15 16  1  0
102103  1  0
 17 16  1  0
102104  1  0
 18103  1  0
 18 19  1  0
103105  1  6
 19 20  1  0
105106  1  0
 20 21  1  0
106107  1  0
 21 22  1  0
106108  1  0
 22 29  1  0
 18109  2  0
 30 23  1  0
 12110  1  0
 23 24  1  0
 24 25  1  0
 25 26  1  0
 26 27  2  0
 23 28  2  0
 29 30  1  0
 67113  1  0
113 76  1  0
 77114  1  0
114 88  1  0
 55112  1  0
112 56  1  0
 81115  1  0
115 82  1  0
 41111  1  0
 82116  1  0
 17117  1  1
M  END