
  SciTegic11061219412D

 18 19  0  0  0  0            999 V2000
    5.9732   -4.2838    0.0000 N   0  0
    6.7698   -4.0293    0.0000 C   0  0
    7.1494   -6.1442    0.0000 C   0  0
    6.4988   -5.6228    0.0000 C   0  0
    5.8480   -5.1098    0.0000 C   0  0  2  0  0  0
    7.6750   -7.4748    0.0000 N   0  0
    7.3830   -4.5842    0.0000 O   0  0
    7.8002   -6.6572    0.0000 C   0  0
    5.4058   -3.6832    0.0000 C   0  0
    6.9450   -3.2285    0.0000 C   0  0
    8.2589   -8.0504    0.0000 C   0  0
    6.9492   -7.8502    0.0000 C   0  0
    5.1348   -5.5226    0.0000 C   0  0
    4.5925   -3.7540    0.0000 C   0  0
    7.0868   -8.6636    0.0000 C   0  0
    7.8836   -8.7762    0.0000 C   0  0
    4.3589   -5.2224    0.0000 C   0  0
    4.1169   -4.4423    0.0000 C   0  0
  2  1  1  0
  3  4  3  0
  5  4  1  6
  5  1  1  0
  6  8  1  0
  7  2  2  0
  8  3  1  0
  9  1  1  0
 10  2  1  0
 11  6  1  0
 12  6  1  0
 13  5  1  0
 14  9  1  0
 15 12  1  0
 16 11  1  0
 17 13  1  0
 18 14  1  0
 17 18  1  0
 15 16  1  0
M  END