
  SciTegic10261211122D

 39 39  0  0  1  0            999 V2000
    0.2125   -4.4625    0.0000 C   0  0  2  0  0  0
    1.5625   -4.9292    0.0000 P   0  0
   -0.6000   -4.6167    0.0000 C   0  0  1  0  0  0
    0.7500   -5.0875    0.0000 O   0  0
   -1.1375   -3.9958    0.0000 C   0  0  1  0  0  0
    0.4792   -3.6833    0.0000 O   0  0
    6.4208   -6.1792    0.0000 C   0  0
    2.9125   -5.4000    0.0000 C   0  0  1  0  0  0
    3.7208   -5.2417    0.0000 C   0  0
   -0.8708   -3.2167    0.0000 C   0  0  2  0  0  0
    2.3708   -4.7750    0.0000 N   0  0
    7.5917   -5.5333    0.0000 N   0  0
    4.2625   -5.8667    0.0000 N   0  0
    6.7708   -5.4292    0.0000 C   0  0
   -0.0583   -3.0583    0.0000 C   0  0  2  0  0  0
    5.0708   -5.7083    0.0000 C   0  0  2  0  0  0
    5.3417   -4.9292    0.0000 C   0  0
    7.0250   -6.7417    0.0000 C   0  0
    5.6125   -6.3333    0.0000 C   0  0
    1.7167   -5.7417    0.0000 O   0  5
    7.7458   -6.3417    0.0000 C   0  0
    1.4042   -4.1208    0.0000 O   0  0
    2.6417   -6.1792    0.0000 C   0  0
    4.8000   -4.3083    0.0000 O   0  5
    3.9917   -4.4625    0.0000 O   0  0
    6.1500   -4.7750    0.0000 O   0  0
   -0.8708   -5.4000    0.0000 O   0  0
   -1.9500   -4.1500    0.0000 O   0  0
   -1.4083   -2.5917    0.0000 O   0  0
    0.2125   -2.2792    0.0000 C   0  0
    7.0083   -7.5667    0.0000 C   0  0
    3.1792   -6.8000    0.0000 C   0  0
    8.4542   -6.7708    0.0000 C   0  0
    2.9125   -7.5792    0.0000 C   0  0
    3.9917   -6.6458    0.0000 C   0  0
    7.7125   -7.9917    0.0000 C   0  0
    8.4375   -7.5958    0.0000 C   0  0
   10.6917   -5.3125    0.0000 Na  0  3
    0.3500   -7.6125    0.0000 Na  0  3
  2  4  1  0
  3  1  1  0
  1  4  1  1
  5  3  1  0
  6  1  1  0
  7 19  1  0
  8 11  1  0
  9  8  1  0
 10  5  1  0
 11  2  1  0
 12 14  1  0
 13  9  1  0
 14  7  2  0
 15  6  1  0
 16 13  1  6
 17 16  1  0
 18  7  1  0
 19 16  1  0
 20  2  1  0
 21 18  1  0
 22  2  2  0
  8 23  1  6
 24 17  1  0
 25  9  2  0
 26 17  2  0
  3 27  1  6
  5 28  1  6
 10 29  1  1
 15 30  1  6
 31 18  2  0
 32 23  1  0
 33 21  2  0
 34 32  1  0
 35 32  1  0
 36 31  1  0
 37 36  2  0
 15 10  1  0
 21 12  1  0
 37 33  1  0
M  CHG  4  20  -1  24  -1  38   1  39   1
M  END