
  SciTegic12231509382D

 25 27  0  0  0  0            999 V2000
    7.4395    0.6930    0.0000 N   0  0
    5.2961    0.2805    0.0000 C   0  0
    4.5816    0.6930    0.0000 C   0  0
    5.2961   -0.5445    0.0000 C   0  0
    6.0106    0.6930    0.0000 C   0  0
    3.8671    0.2805    0.0000 C   0  0
    6.0106   -0.9570    0.0000 C   0  0
    4.5816    1.5180    0.0000 C   0  0
    4.5816   -0.9570    0.0000 C   0  0
    6.7250    0.2805    0.0000 C   0  0
    3.1527    0.6930    0.0000 C   0  0
    6.0106   -1.7820    0.0000 C   0  0
    3.8671    1.9305    0.0000 C   0  0
    4.5816   -1.7820    0.0000 C   0  0
    3.1527    1.5180    0.0000 C   0  0
    5.2961   -2.1945    0.0000 C   0  0
    8.1540    0.2805    0.0000 C   0  0
    9.5829    0.2805    0.0000 C   0  0
    8.8684    0.6930    0.0000 C   0  0
   10.2974    0.6930    0.0000 C   0  0
    9.5829   -0.5445    0.0000 C   0  0
   11.0119    0.2805    0.0000 C   0  0
   10.2974   -0.9570    0.0000 C   0  0
    8.1540   -0.5445    0.0000 C   0  0
   11.0119   -0.5445    0.0000 C   0  0
  1 10  1  0
  1 17  1  0
  2  3  1  0
  2  4  1  0
  2  5  1  0
  3  6  2  0
  3  8  1  0
  4  7  2  0
  4  9  1  0
  5 10  1  0
  6 11  1  0
  7 12  1  0
  8 13  2  0
  9 14  2  0
 11 15  2  0
 12 16  2  0
 13 15  1  0
 14 16  1  0
 17 19  1  0
 17 24  1  0
 18 19  1  0
 18 20  2  0
 18 21  1  0
 20 22  1  0
 21 23  2  0
 22 25  2  0
 23 25  1  0
M  END