
  SciTegic01161211252D

163154  0  0  0  0            999 V2000
    7.3624  -16.0406    0.0000 Na  0  3
    9.9540  -16.0094    0.0000 Na  0  3
    5.4577  -13.9799    0.0000 Na  0  3
    8.6738  -13.5428    0.0000 Na  0  3
   11.5777  -13.4802    0.0000 Na  0  3
   12.7018  -15.4161    0.0000 Na  0  3
   14.8874  -13.4177    0.0000 Na  0  3
   15.9492  -10.9510    0.0000 Na  0  3
   14.9499   -7.9848    0.0000 Na  0  3
   11.4216   -7.8598    0.0000 Na  0  3
    8.4239   -7.9223    0.0000 Na  0  3
    5.5514   -7.7349    0.0000 Na  0  3
    1.6171   -7.5163    0.0000 Na  0  3
   -1.3983   -9.7651    0.0000 Na  0  3
   -1.7121  -12.9967    0.0000 Na  0  3
   -1.6807  -16.6990    0.0000 Na  0  3
   -0.5910  -21.6497    0.0000 C   0  0
   -1.2590  -21.1667    0.0000 N   0  0
   -1.2620  -20.3386    0.0000 N   0  0
   -2.0480  -20.0859    0.0000 N   0  0
   -2.5316  -20.7552    0.0000 C   0  0
   -2.0457  -21.4198    0.0000 C   0  0
   -3.3560  -20.7564    0.0000 C   0  0
   -3.7724  -20.0428    0.0000 C   0  0
   -4.5968  -20.0402    0.0000 C   0  0
   -5.0049  -20.7569    0.0000 C   0  0
    3.7296  -14.2118    0.0000 O   0  0
    3.0151  -13.8020    0.0000 C   0  0  2  0  0  0
    3.0151  -12.9737    0.0000 C   0  0  2  0  0  0
    3.7296  -12.5638    0.0000 O   0  0
    2.3007  -12.5638    0.0000 C   0  0  2  0  0  0
    2.3007  -11.7355    0.0000 O   0  0
    1.5861  -12.9737    0.0000 C   0  0  2  0  0  0
    0.8674  -12.5638    0.0000 O   0  0
    1.5861  -13.8020    0.0000 C   0  0  2  0  0  0
    2.3007  -14.2118    0.0000 O   0  0
    0.8674  -14.2118    0.0000 C   0  0
    0.8674  -15.0401    0.0000 O   0  0
    3.7296  -11.7355    0.0000 C   0  0  2  0  0  0
    4.4441  -11.3255    0.0000 C   0  0  2  0  0  0
    5.1586  -11.7355    0.0000 O   0  0
    4.4441  -10.4972    0.0000 C   0  0  2  0  0  0
    5.1586  -10.0874    0.0000 O   0  0
    3.7296  -10.0874    0.0000 C   0  0  2  0  0  0
    3.7296   -9.2591    0.0000 O   0  0
    3.0151  -10.4972    0.0000 C   0  0  2  0  0  0
    3.0151  -11.3255    0.0000 O   0  0
    2.3007  -10.0874    0.0000 C   0  0
    2.3007   -9.2591    0.0000 O   0  0
    1.5861   -8.8490    0.0000 S   0  0
    1.1720   -9.5636    0.0000 O   0  0
    1.9961   -8.1346    0.0000 O   0  0
    0.8674   -8.4350    0.0000 O   0  5
    4.4441   -8.8490    0.0000 S   0  0
    4.8542   -9.5636    0.0000 O   0  0
    4.0301   -8.1346    0.0000 O   0  0
    5.1586   -8.4350    0.0000 O   0  5
    5.1586  -12.5638    0.0000 S   0  0
    4.3304  -12.5638    0.0000 O   0  0
    5.9827  -12.5638    0.0000 O   0  0
    5.1586  -13.3879    0.0000 O   0  5
    5.8731  -10.4972    0.0000 C   0  0  2  0  0  0
    6.5877  -10.0874    0.0000 C   0  0  2  0  0  0
    6.5877   -9.2591    0.0000 O   0  0
    7.3023  -10.4972    0.0000 C   0  0  2  0  0  0
    8.0167  -10.0874    0.0000 O   0  0
    7.3023  -11.3255    0.0000 C   0  0  2  0  0  0
    8.0167  -11.7355    0.0000 O   0  0
    6.5877  -11.7355    0.0000 C   0  0  2  0  0  0
    5.8731  -11.3255    0.0000 O   0  0
    6.5877  -12.8105    0.0000 C   0  0
    7.3023  -13.2246    0.0000 O   0  0
    7.3023  -14.0488    0.0000 S   0  0
    8.1263  -14.0488    0.0000 O   0  0
    6.4781  -14.0488    0.0000 O   0  0
    7.3023  -14.8729    0.0000 O   0  5
    8.0167  -12.5638    0.0000 S   0  0
    8.8449  -12.5638    0.0000 O   0  0
    7.1925  -12.5638    0.0000 O   0  0
    8.0167  -13.3879    0.0000 O   0  5
    7.3023   -8.8490    0.0000 S   0  0
    6.8881   -8.1346    0.0000 O   0  0
    7.7164   -9.5636    0.0000 O   0  0
    8.0167   -8.4350    0.0000 O   0  5
    8.7313  -10.4972    0.0000 C   0  0  2  0  0  0
    9.4499  -10.0874    0.0000 C   0  0  2  0  0  0
    9.4499   -9.2591    0.0000 O   0  0
   10.1645  -10.4972    0.0000 C   0  0  2  0  0  0
   10.8788  -10.0874    0.0000 O   0  0
   10.1645  -11.3255    0.0000 C   0  0  2  0  0  0
   10.8788  -11.7355    0.0000 O   0  0
    9.4499  -11.7355    0.0000 C   0  0  2  0  0  0
    8.7313  -11.3255    0.0000 O   0  0
    9.4499  -12.8105    0.0000 C   0  0
   10.1645  -13.2246    0.0000 O   0  0
   10.1645  -14.0488    0.0000 S   0  0
   10.9885  -14.0488    0.0000 O   0  0
    9.3362  -14.0488    0.0000 O   0  0
   10.1645  -14.8729    0.0000 O   0  5
   10.8788  -12.5638    0.0000 S   0  0
   10.0507  -12.5638    0.0000 O   0  0
   11.7029  -12.5638    0.0000 O   0  0
   10.8788  -13.3879    0.0000 O   0  5
   10.1645   -8.8490    0.0000 S   0  0
    9.7503   -8.1346    0.0000 O   0  0
   10.5743   -9.5636    0.0000 O   0  0
   10.8788   -8.4350    0.0000 O   0  5
   11.5935  -10.4972    0.0000 C   0  0  2  0  0  0
   12.3080  -10.0874    0.0000 C   0  0  2  0  0  0
   12.3080   -9.2591    0.0000 O   0  0
   13.0225  -10.4972    0.0000 C   0  0  2  0  0  0
   13.7369  -10.0874    0.0000 O   0  0
   13.0225  -11.3255    0.0000 C   0  0  2  0  0  0
   13.7369  -11.7355    0.0000 O   0  0
   12.3080  -11.7355    0.0000 C   0  0  2  0  0  0
   11.5935  -11.3255    0.0000 O   0  0
   12.3080  -12.8105    0.0000 C   0  0
   13.0225  -13.2246    0.0000 O   0  0
   13.0225  -14.0488    0.0000 S   0  0
   13.8466  -14.0488    0.0000 O   0  0
   12.1984  -14.0488    0.0000 O   0  0
   13.0225  -14.8729    0.0000 O   0  5
   13.7369  -12.5638    0.0000 S   0  0
   14.5611  -12.5638    0.0000 O   0  0
   12.9129  -12.5638    0.0000 O   0  0
   13.7369  -13.3879    0.0000 O   0  5
   14.4515  -10.4972    0.0000 S   0  0
   14.8657   -9.7828    0.0000 O   0  0
   14.0373  -11.2118    0.0000 O   0  0
   15.1661  -10.9114    0.0000 O   0  5
   13.0225   -8.8490    0.0000 S   0  0
   12.6083   -8.1346    0.0000 O   0  0
   13.4366   -9.5636    0.0000 O   0  0
   13.7369   -8.4350    0.0000 O   0  5
    3.7296  -15.0401    0.0000 C   0  0
    3.0151  -15.4502    0.0000 C   0  0
    0.1558  -12.9795    0.0000 S   0  0
   -0.5669  -13.3755    0.0000 O   0  5
    0.5618  -13.6967    0.0000 O   0  0
   -0.2501  -12.2623    0.0000 O   0  0
    1.6052  -11.2932    0.0000 S   0  0
    0.8928  -10.8790    0.0000 O   0  5
    2.0335  -10.5891    0.0000 O   0  0
    1.1303  -11.9667    0.0000 O   0  0
    0.1536  -15.4523    0.0000 S   0  0
   -0.5880  -15.8114    0.0000 O   0  5
    0.5396  -16.1805    0.0000 O   0  0
   -0.2322  -14.7240    0.0000 O   0  0
    3.0128  -16.2785    0.0000 C   0  0
    2.2944  -16.6906    0.0000 C   0  0
    2.2922  -17.5189    0.0000 C   0  0
    1.5737  -17.9312    0.0000 C   0  0
    1.5715  -18.7595    0.0000 C   0  0
    0.8530  -19.1716    0.0000 C   0  0
    0.8508  -20.0000    0.0000 C   0  0
    0.1323  -20.4122    0.0000 C   0  0
    0.1300  -21.2405    0.0000 C   0  0
   -3.7694  -21.4693    0.0000 C   0  0
   -4.5966  -21.4737    0.0000 C   0  0
   -5.0044  -22.1911    0.0000 C   0  0
   -4.5863  -22.9044    0.0000 C   0  0
   -3.7561  -22.8960    0.0000 C   0  0
   -3.3520  -22.1780    0.0000 C   0  0
 18 22  1  0
 23 24  1  0
 24 25  2  0
 25 26  1  0
 26159  2  0
 23158  2  0
 21 23  1  0
 17 18  1  0
 28 27  1  1
 28 29  1  0
 29 30  1  6
 29 31  1  0
 31 32  1  6
 31 33  1  0
 33 34  1  1
 33 35  1  0
 35 36  1  0
 35 37  1  6
 37 38  1  0
 28 36  1  0
 39 40  1  0
 40 41  1  6
 40 42  1  0
 42 43  1  6
 42 44  1  0
 44 45  1  1
 44 46  1  0
 46 47  1  0
 46 48  1  6
 48 49  1  0
 39 47  1  0
 50 51  2  0
 50 52  2  0
 50 53  1  0
 49 50  1  0
 54 55  2  0
 54 56  2  0
 54 57  1  0
 45 54  1  0
 58 59  2  0
 58 60  2  0
 58 61  1  0
 41 58  1  0
 62 63  1  0
 63 64  1  1
 63 65  1  0
 65 66  1  1
 65 67  1  0
 67 68  1  6
 67 69  1  0
 69 70  1  0
 69 71  1  1
 71 72  1  0
 62 70  1  0
 73 74  2  0
 73 75  2  0
 73 76  1  0
 72 73  1  0
 77 78  2  0
 77 79  2  0
 77 80  1  0
 68 77  1  0
 81 82  2  0
 81 83  2  0
 81 84  1  0
 64 81  1  0
 85 86  1  0
 86 87  1  1
 86 88  1  0
 88 89  1  1
 88 90  1  0
 90 91  1  6
 90 92  1  0
 92 93  1  0
 92 94  1  1
 94 95  1  0
 85 93  1  0
 96 97  2  0
 96 98  2  0
 96 99  1  0
 95 96  1  0
100101  2  0
100102  2  0
100103  1  0
 91100  1  0
104105  2  0
104106  2  0
104107  1  0
 87104  1  0
108109  1  0
109110  1  1
109111  1  0
111112  1  1
111113  1  0
113114  1  6
113115  1  0
115116  1  0
115117  1  1
117118  1  0
108116  1  0
119120  2  0
119121  2  0
119122  1  0
118119  1  0
123124  2  0
123125  2  0
123126  1  0
114123  1  0
127128  2  0
127129  2  0
127130  1  0
112127  1  0
131132  2  0
131133  2  0
131134  1  0
110131  1  0
108 89  1  6
 85 66  1  6
 62 43  1  6
 39 30  1  1
135136  1  0
 27135  1  0
 34137  1  0
137138  1  0
137139  2  0
137140  2  0
 32141  1  0
141142  1  0
141143  2  0
141144  2  0
 38145  1  0
145146  1  0
145147  2  0
145148  2  0
136149  1  0
149150  1  0
150151  1  0
151152  1  0
152153  1  0
153154  1  0
154155  1  0
155156  1  0
156157  1  0
157 17  1  0
158159  1  0
 18 19  1  0
159160  1  0
 19 20  2  0
160161  2  0
 20 21  1  0
161162  1  0
 21 22  2  0
162163  2  0
163158  1  0
M  CHG  8   1   1   2   1   3   1   4   1   5   1   6   1   7   1   8   1
M  CHG  8   9   1  10   1  11   1  12   1  13   1  14   1  15   1  16   1
M  CHG  8  53  -1  57  -1  61  -1  76  -1  80  -1  84  -1  99  -1 103  -1
M  CHG  8 107  -1 122  -1 126  -1 130  -1 134  -1 138  -1 142  -1 146  -1
M  END