
  SciTegic04191613082D

 27 30  0  0  0  0            999 V2000
   -1.2964    1.4973    0.0000 C   0  0
   -2.6111    0.7486    0.0000 C   0  0
   -2.6111   -0.7486    0.0000 C   0  0
   -1.2964   -1.4973    0.0000 N   0  0
    0.0000    0.7486    0.0000 C   0  0
    0.0000   -0.7486    0.0000 C   0  0
    1.2964   -1.4973    0.0000 C   0  0
    2.5929   -0.7486    0.0000 N   0  0
    2.5929    0.7486    0.0000 C   0  0
    1.2964    1.4973    0.0000 C   0  0
    1.2995   -2.9981    0.0000 N   0  0
    2.6003   -3.7467    0.0000 C   0  0  1  0  0  0
    2.6056   -5.2467    0.0000 C   0  0  1  0  0  0
    3.9072   -5.9922    0.0000 C   0  0
    5.2037   -5.2377    0.0000 N   0  0
    5.1985   -3.7377    0.0000 C   0  0
    3.8969   -2.9922    0.0000 C   0  0
    1.3069   -5.9990    0.0000 O   0  0
    0.0056   -5.2513    0.0000 C   0  0
   -3.6486    1.3517    0.0000 C   0  0
   -3.6486   -1.3517    0.0000 O   0  0
   -1.2930   -6.0036    0.0000 C   0  0
   -2.5948   -5.2581    0.0000 C   0  0
   -3.8912   -6.0127    0.0000 C   0  0
   -3.8860   -7.5126    0.0000 O   0  0
   -2.5843   -8.2581    0.0000 C   0  0
   -1.2879   -7.5036    0.0000 C   0  0
  1  2  2  0
  1  5  1  0
  2  3  1  0
  3  4  1  0
  4  6  1  0
  5  6  2  0
  5 10  1  0
  6  7  1  0
  7  8  2  0
  8  9  1  0
  9 10  2  0
  7 11  1  0
 12 11  1  6
 12 13  1  0
 12 17  1  0
 13 14  1  0
 14 15  1  0
 15 16  1  0
 16 17  1  0
 13 18  1  1
 18 19  1  0
  2 20  1  0
  3 21  2  0
 22 19  1  0
 22 23  1  0
 22 27  1  0
 23 24  1  0
 24 25  1  0
 25 26  1  0
 26 27  1  0
M  END