
  SciTegic08041117222D

 29 29  0  0  0  0            999 V2000
   16.6482  -11.6944    0.0000 C   0  0
   17.3625  -12.1059    0.0000 C   0  0
   18.0767  -11.6944    0.0000 C   0  0
   15.9343  -12.1103    0.0000 C   0  0
   15.1780  -11.7725    0.0000 N   0  0
   14.6242  -12.3890    0.0000 C   0  0
   15.0367  -13.1051    0.0000 N   0  0
   15.8455  -12.9330    0.0000 C   0  0
   18.7924  -12.1120    0.0000 O   0  0
   19.5103  -11.6985    0.0000 C   0  0
   20.2258  -12.1162    0.0000 N   0  0
   19.5127  -10.8716    0.0000 O   0  0
   20.9438  -11.7027    0.0000 C   0  0
   21.6594  -12.1203    0.0000 C   0  0
   22.3732  -11.7068    0.0000 C   0  0
   23.0835  -12.1275    0.0000 C   0  0
   23.0715  -12.9514    0.0000 C   0  0
   23.7777  -13.3679    0.0000 C   0  0
   24.4981  -12.9681    0.0000 C   0  0
   24.5077  -12.1432    0.0000 C   0  0
   23.7970  -11.7181    0.0000 C   0  0
   20.0375  -13.0355    0.0000 O   0  0
   20.4500  -13.7500    0.0000 C   0  0
   21.2750  -13.7500    0.0000 O   0  0
   20.0375  -14.4645    0.0000 C   0  0
   19.2125  -14.4645    0.0000 C   0  0
   18.8000  -13.7500    0.0000 C   0  0
   17.9751  -13.7500    0.0000 O   0  0
   19.2125  -13.0355    0.0000 O   0  0
  2  3  1  0
 10 11  1  0
  7  8  1  0
 10 12  2  0
 11 13  1  0
  4  5  1  0
 13 14  1  0
  6  7  1  0
 14 15  1  0
  8  4  2  0
 15 16  1  0
 16 17  1  0
  1  4  1  0
  1  2  1  0
  3  9  1  0
  5  6  2  0
  9 10  1  0
 16 21  1  0
 17 18  1  0
 18 19  1  0
 19 20  1  0
 20 21  1  0
 22 23  1  0
 23 24  2  0
 23 25  1  0
 25 26  2  0
 26 27  1  0
 27 28  2  0
 27 29  1  0
M  END