
  SciTegic06051313522D

 21 23  0  0  0  0            999 V2000
    7.6557   -3.0032    0.0000 C   0  0
    8.3654   -2.5937    0.0000 C   0  0
    8.3626   -1.7711    0.0000 C   0  0
    7.6539   -1.3658    0.0000 C   0  0
    9.0687   -1.3598    0.0000 N   0  0
    9.7780   -1.7657    0.0000 C   0  0
    6.9477   -2.5942    0.0000 C   0  0
    6.9489   -1.7731    0.0000 C   0  0
    6.1684   -1.5182    0.0000 N   0  0
    5.6847   -2.1818    0.0000 O   0  0
    6.1664   -2.8467    0.0000 N   0  0
    7.6540   -0.5448    0.0000 N   0  3
    6.9454   -0.1378    0.0000 O   0  0
    8.3608   -0.1347    0.0000 O   0  5
    9.7777   -2.5806    0.0000 C   0  0
   10.4861   -2.9864    0.0000 C   0  0
   11.1933   -2.5751    0.0000 C   0  0
   11.1876   -1.7537    0.0000 C   0  0
   10.4786   -1.3516    0.0000 C   0  0
   11.9031   -2.9801    0.0000 Cl  0  0
   10.4888   -3.8036    0.0000 Cl  0  0
  7  1  1  0
  1  2  2  0
  2  3  1  0
  3  4  2  0
  4  8  1  0
  3  5  1  0
  5  6  1  0
  7  8  1  0
  8  9  2  0
  9 10  1  0
 10 11  1  0
 11  7  2  0
 12 13  2  0
 12 14  1  0
  4 12  1  0
  6 15  2  0
 15 16  1  0
 16 17  2  0
 17 18  1  0
 18 19  2  0
 19  6  1  0
 17 20  1  0
 16 21  1  0
M  CHG  2  12   1  14  -1
M  END