
          11280714502D 1   1.00000     0.00000     0

 39 42  0     1  0            999 V2000
    6.3375   -1.5792    0.0000 C   0  0  2  0  0  0           0  0  0
    6.3375   -2.4167    0.0000 C   0  0  1  0  0  0           0  0  0
    6.9917   -2.0375    0.0000 C   0  0  3  0  0  0           0  0  0
    4.8750   -2.4167    0.0000 C   0  0  2  0  0  0           0  0  0
    4.1042   -2.7167    0.0000 C   0  0  1  0  0  0           0  0  0
    3.8542   -3.5167    0.0000 C   0  0  1  0  0  0           0  0  0
    5.6042   -2.8417    0.0000 C   0  0  1  0  0  0           0  0  0
    5.6042   -1.1667    0.0000 C   0  0  1  0  0  0           0  0  0
    4.8750   -1.5792    0.0000 C   0  0  1  0  0  0           0  0  0
    3.4167   -2.2375    0.0000 C   0  0  0  0  0  0           0  0  0
    3.0042   -3.5250    0.0000 C   0  0  0  0  0  0           0  0  0
    2.7417   -2.7417    0.0000 C   0  0  0  0  0  0           0  0  0
    5.7167   -3.6750    0.0000 C   0  0  0  0  0  0           0  0  0
    7.0667   -1.1542    0.0000 O   0  0  0  0  0  0           0  0  0
    5.6042   -0.3167    0.0000 O   0  0  0  0  0  0           0  0  0
    5.1375   -4.2792    0.0000 C   0  0  0  0  0  0           0  0  0
    4.3125   -4.2042    0.0000 C   0  0  0  0  0  0           0  0  0
    7.0667   -0.3292    0.0000 C   0  0  0  0  0  0           0  0  0
    4.8917    0.0958    0.0000 C   0  0  0  0  0  0           0  0  0
    2.5042   -4.2042    0.0000 O   0  0  0  0  0  0           0  0  0
    4.1625   -2.0000    0.0000 O   0  0  0  0  0  0           0  0  0
    3.5917   -4.3167    0.0000 O   0  0  0  0  0  0           0  0  0
    6.3500    0.0833    0.0000 O   0  0  0  0  0  0           0  0  0
    4.1792   -0.3167    0.0000 O   0  0  0  0  0  0           0  0  0
    7.5542   -1.6417    0.0000 C   0  0  0  0  0  0           0  0  0
    7.5417   -2.4750    0.0000 C   0  0  0  0  0  0           0  0  0
    4.1500   -1.1542    0.0000 C   0  0  0  0  0  0           0  0  0
    1.9292   -2.5292    0.0000 C   0  0  0  0  0  0           0  0  0
    5.4250   -5.0875    0.0000 C   0  0  0  0  0  0           0  0  0
    6.2417   -5.2375    0.0000 O   0  0  0  0  0  0           0  0  0
    4.8917    0.9208    0.0000 C   0  0  0  0  0  0           0  0  0
    7.7792    0.0875    0.0000 C   0  0  0  0  0  0           0  0  0
    7.7750    0.9125    0.0000 C   0  0  0  0  0  0           0  0  0
    4.1792    1.3333    0.0000 C   0  0  0  0  0  0           0  0  0
    8.4875    1.3333    0.0000 C   0  0  0  0  0  0           0  0  0
    4.1792    2.1583    0.0000 C   0  0  0  0  0  0           0  0  0
    7.0667   -2.8542    0.0000 H   0  0  0  0  0  0           0  0  0
    6.3375   -3.2542    0.0000 H   0  0  0  0  0  0           0  0  0
    4.7417   -3.1792    0.0000 H   0  0  0  0  0  0           0  0  0
  2  1  1  0     0  0
  3  1  1  0     0  0
  4  9  1  0     0  0
  5  4  1  0     0  0
  6  5  1  0     0  0
  7  2  1  0     0  0
  8  1  1  0     0  0
  9  8  1  0     0  0
 10  5  1  0     0  0
 11  6  1  0     0  0
 12 10  2  0     0  0
 13  7  1  0     0  0
  1 14  1  6     0  0
  8 15  1  1     0  0
 16 13  2  0     0  0
 17 16  1  0     0  0
 18 14  1  0     0  0
 19 15  1  0     0  0
 20 11  2  0     0  0
  4 21  1  6     0  0
  6 22  1  1     0  0
 23 18  2  0     0  0
 24 19  2  0     0  0
 25  3  1  0     0  0
 26  3  1  0     0  0
  9 27  1  6     0  0
 28 12  1  0     0  0
 29 16  1  0     0  0
 30 29  1  0     0  0
 31 19  1  0     0  0
 32 18  1  0     0  0
 33 32  1  0     0  0
 34 31  1  0     0  0
 35 33  1  0     0  0
 36 34  1  0     0  0
  2 37  1  6     0  0
  7 38  1  1     0  0
  5 39  1  6     0  0
  2  3  1  0     0  0
  4  7  1  0     0  0
  6 17  1  0     0  0
 11 12  1  0     0  0
M  END