
          11280715502D 1   1.00000     0.00000     0

 44 47  0     1  0            999 V2000
    0.8809    3.0636    0.0000 C   0  0  0  0  0  0           0  0  0
    1.2624    2.3308    0.0000 C   0  0  0  0  0  0           0  0  0
    2.0859    2.2960    0.0000 C   0  0  0  0  0  0           0  0  0
    2.5288    2.9931    0.0000 C   0  0  0  0  0  0           0  0  0
    2.1422    3.7268    0.0000 C   0  0  0  0  0  0           0  0  0
    1.3200    3.7580    0.0000 C   0  0  0  0  0  0           0  0  0
    3.3531    2.9597    0.0000 C   0  0  0  0  0  0           0  0  0
    3.7364    2.2291    0.0000 N   0  0  0  0  0  0           0  0  0
    3.7943    3.6569    0.0000 O   0  0  0  0  0  0           0  0  0
    4.5607    2.1957    0.0000 S   0  0  3  0  0  0           0  0  0
    4.5239    1.3745    0.0000 O   0  0  0  0  0  0           0  0  0
    5.3852    2.1659    0.0000 C   0  0  0  0  0  0           0  0  0
    4.5975    3.0198    0.0000 O   0  0  0  0  0  0           0  0  0
    5.7698    1.4347    0.0000 C   0  0  0  0  0  0           0  0  0
    6.5935    1.4046    0.0000 C   0  0  0  0  0  0           0  0  0
    7.0325    2.1043    0.0000 C   0  0  0  0  0  0           0  0  0
    6.6416    2.8358    0.0000 C   0  0  0  0  0  0           0  0  0
    5.8191    2.8623    0.0000 C   0  0  0  0  0  0           0  0  0
    7.0771    3.5374    0.0000 N   0  3  0  0  0  0           0  0  0
    6.6881    4.2684    0.0000 O   0  0  0  0  0  0           0  0  0
    7.9016    3.5106    0.0000 O   0  5  0  0  0  0           0  0  0
    7.8570    2.0756    0.0000 N   0  0  0  0  0  0           0  0  0
    8.2444    1.3472    0.0000 C   0  0  1  0  0  0           0  0  0
    8.1476    0.5557    0.0000 C   0  0  0  0  0  0           0  0  0
    7.4793    0.1498    0.0000 S   0  0  0  0  0  0           0  0  0
    7.5081   -0.6747    0.0000 C   0  0  0  0  0  0           0  0  0
    6.8026   -1.1121    0.0000 C   0  0  0  0  0  0           0  0  0
    6.8309   -1.9319    0.0000 C   0  0  0  0  0  0           0  0  0
    7.5598   -2.3158    0.0000 C   0  0  0  0  0  0           0  0  0
    8.2618   -1.8805    0.0000 C   0  0  0  0  0  0           0  0  0
    8.2299   -1.0600    0.0000 C   0  0  0  0  0  0           0  0  0
    0.0590    3.1018    0.0000 N   0  0  3  0  0  0           0  0  0
   -0.3226    3.8345    0.0000 C   0  0  0  0  0  0           0  0  0
   -1.1461    3.8694    0.0000 C   0  0  0  0  0  0           0  0  0
   -1.5889    3.1723    0.0000 C   0  0  3  0  0  0           0  0  0
   -1.2024    2.4386    0.0000 C   0  0  0  0  0  0           0  0  0
   -0.3801    2.4074    0.0000 C   0  0  0  0  0  0           0  0  0
   -1.9162    2.4149    0.0000 C   0  0  0  0  0  0           0  0  0
   -2.0300    3.8695    0.0000 C   0  0  0  0  0  0           0  0  0
    9.0260    1.6787    0.0000 C   0  0  0  0  0  0           0  0  0
    9.6405    1.1285    0.0000 C   0  0  0  0  0  0           0  0  0
   10.4245    1.3856    0.0000 N   0  0  3  0  0  0           0  0  0
   11.0391    0.8353    0.0000 C   0  0  0  0  0  0           0  0  0
   10.5937    2.1931    0.0000 C   0  0  0  0  0  0           0  0  0
  2  3  2  0     0  0
 16 22  1  0     0  0
 10 11  2  0     0  0
 22 23  1  0     0  0
  5  6  1  0     0  0
 23 24  1  0     0  0
 10 12  1  0     0  0
 24 25  1  0     0  0
  6  1  2  0     0  0
 25 26  1  0     0  0
 10 13  2  0     0  0
 26 27  2  0     0  0
  1  2  1  0     0  0
 27 28  1  0     0  0
 12 14  2  0     0  0
 28 29  2  0     0  0
  4  7  1  0     0  0
 29 30  1  0     0  0
 14 15  1  0     0  0
 30 31  2  0     0  0
 31 26  1  0     0  0
  3  4  1  0     0  0
 15 16  2  0     0  0
 32 33  1  0     0  0
  7  8  1  0     0  0
 33 34  1  0     0  0
 16 17  1  0     0  0
 34 35  1  0     0  0
 35 36  1  0     0  0
 17 18  2  0     0  0
 36 37  1  0     0  0
 37 32  1  0     0  0
  1 32  1  0     0  0
 18 12  1  0     0  0
 35 38  1  0     0  0
  7  9  2  0     0  0
 35 39  1  0     0  0
  4  5  2  0     0  0
 23 40  1  6     0  0
  8 10  1  0     0  0
 40 41  1  0     0  0
 19 20  2  0     0  0
 41 42  1  0     0  0
 19 21  1  0     0  0
 42 43  1  0     0  0
 17 19  1  0     0  0
 42 44  1  0     0  0
M  CHG  2  19   1  21  -1
M  END