
  SciTegic01181116592D

 22 24  0  0  0  0            999 V2000
   13.1224   -3.8163    0.0000 C   0  0
   13.1212   -4.6436    0.0000 C   0  0
   13.8359   -5.0564    0.0000 C   0  0
   13.8341   -3.4036    0.0000 C   0  0
   14.5495   -3.8127    0.0000 C   0  0
   14.5503   -4.6394    0.0000 C   0  0
   15.2655   -5.0503    0.0000 N   0  0
   15.9804   -4.6356    0.0000 C   0  0
   15.9756   -3.8058    0.0000 C   0  0
   15.2598   -3.3985    0.0000 N   0  0
   16.6876   -3.3889    0.0000 C   0  0
   17.4044   -3.7971    0.0000 N   0  0
   16.6826   -2.5640    0.0000 O   0  0
   18.1163   -3.3802    0.0000 C   0  0
   18.8346   -3.7939    0.0000 C   0  0
   19.5460   -3.3777    0.0000 C   0  0
   19.5414   -2.5519    0.0000 C   0  0
   18.8195   -2.1440    0.0000 C   0  0
   18.1110   -2.5625    0.0000 C   0  0
   18.8116   -1.3191    0.0000 C   0  0
   19.5219   -0.8998    0.0000 C   0  0
   18.0932   -0.9135    0.0000 O   0  0
  9 11  1  0
  2  3  1  0
 11 12  1  0
  5  6  1  0
 11 13  2  0
  3  6  2  0
 12 14  1  0
  6  7  1  0
 14 15  2  0
  1  2  2  0
 15 16  1  0
  7  8  2  0
 16 17  2  0
  5  4  2  0
 17 18  1  0
  8  9  1  0
 18 19  2  0
 19 14  1  0
  4  1  1  0
 18 20  1  0
  9 10  2  0
 20 21  1  0
 10  5  1  0
 20 22  2  0
M  END