
  SciTegic10311316212D

 26 29  0  0  0  0            999 V2000
   27.1062  -10.1818    0.0000 C   0  0
   27.1051  -11.0014    0.0000 C   0  0
   27.8131  -11.4103    0.0000 C   0  0
   28.5228  -11.0009    0.0000 C   0  0
   28.5200  -10.1782    0.0000 C   0  0
   27.8113   -9.7730    0.0000 C   0  0
   27.8031   -8.9549    0.0000 N   0  0
   28.4627   -8.4726    0.0000 C   0  0
   28.2079   -7.6961    0.0000 N   0  0
   27.3906   -7.6985    0.0000 N   0  0
   27.1406   -8.4765    0.0000 C   0  0
   29.2407   -8.7227    0.0000 S   0  0
   29.8463   -8.1741    0.0000 C   0  0
   30.6243   -8.4243    0.0000 C   0  0
   31.2299   -7.8757    0.0000 O   0  0
   30.7966   -9.2231    0.0000 O   0  0
   26.3658   -8.7357    0.0000 C   0  0
   25.7033   -8.2574    0.0000 C   0  0
   26.1157   -9.5136    0.0000 S   0  0
   25.2985   -9.5163    0.0000 C   0  0
   25.0456   -8.7392    0.0000 C   0  0
   24.2479   -8.5711    0.0000 C   0  0
   23.7022   -9.1790    0.0000 C   0  0
   23.9598   -9.9577    0.0000 C   0  0
   24.7570  -10.1222    0.0000 C   0  0
   25.7004   -7.4402    0.0000 Cl  0  0
  1  2  2  0
  2  3  1  0
  3  4  2  0
  4  5  1  0
  5  6  2  0
  6  1  1  0
  7  8  1  0
  8  9  2  0
  9 10  1  0
 10 11  2  0
 11  7  1  0
  6  7  1  0
  8 12  1  0
 12 13  1  0
 13 14  1  0
 14 15  1  0
 14 16  2  0
 17 18  2  0
 18 21  1  0
 20 19  1  0
 19 17  1  0
 11 17  1  0
 20 21  2  0
 21 22  1  0
 22 23  2  0
 23 24  1  0
 24 25  2  0
 25 20  1  0
 18 26  1  0
M  END