
          11280715342D 1   1.00000     0.00000     0

 25 26  0     0  0            999 V2000
   -0.6708   -1.4542    0.0000 S   0  0  3  0  0  0           0  0  0
    2.6250   -1.4417    0.0000 C   0  0  0  0  0  0           0  0  0
    3.0417   -2.1542    0.0000 N   0  0  0  0  0  0           0  0  0
    3.8667   -2.1417    0.0000 C   0  0  3  0  0  0           0  0  0
    4.2792   -2.8542    0.0000 C   0  0  0  0  0  0           0  0  0
    0.1542   -1.4542    0.0000 C   0  0  0  0  0  0           0  0  0
   -0.6708   -2.2792    0.0000 O   0  0  0  0  0  0           0  0  0
   -0.6708   -0.6292    0.0000 O   0  0  0  0  0  0           0  0  0
    1.8000   -1.4417    0.0000 C   0  0  0  0  0  0           0  0  0
   -1.4958   -1.4500    0.0000 N   0  0  0  0  0  0           0  0  0
    3.0292   -0.7250    0.0000 O   0  0  0  0  0  0           0  0  0
    4.2750   -1.4292    0.0000 C   0  0  0  0  0  0           0  0  0
    3.8750   -3.5750    0.0000 O   0  0  0  0  0  0           0  0  0
    0.5542   -0.7417    0.0000 C   0  0  0  0  0  0           0  0  0
    0.5667   -2.1667    0.0000 C   0  0  0  0  0  0           0  0  0
    1.3917   -2.1625    0.0000 C   0  0  0  0  0  0           0  0  0
    1.3792   -0.7292    0.0000 C   0  0  0  0  0  0           0  0  0
    5.1000   -1.4250    0.0000 C   0  0  0  0  0  0           0  0  0
    5.1042   -2.8542    0.0000 O   0  0  0  0  0  0           0  0  0
    6.7417   -1.4167    0.0000 C   0  0  0  0  0  0           0  0  0
    7.5667   -1.4042    0.0000 F   0  0  0  0  0  0           0  0  0
    5.5000   -0.7042    0.0000 C   0  0  0  0  0  0           0  0  0
    5.5125   -2.1375    0.0000 C   0  0  0  0  0  0           0  0  0
    6.3375   -2.1292    0.0000 C   0  0  0  0  0  0           0  0  0
    6.3250   -0.7000    0.0000 C   0  0  0  0  0  0           0  0  0
  2  9  1  0     0  0
  3  2  1  0     0  0
  4  3  1  0     0  0
  5  4  1  0     0  0
  6  1  1  0     0  0
  7  1  2  0     0  0
  8  1  2  0     0  0
  9 16  2  0     0  0
 10  1  1  0     0  0
 11  2  2  0     0  0
 12  4  1  0     0  0
 13  5  2  0     0  0
 14  6  1  0     0  0
 15  6  2  0     0  0
 16 15  1  0     0  0
 17 14  2  0     0  0
 18 12  1  0     0  0
 19  5  1  0     0  0
 20 24  2  0     0  0
 21 20  1  0     0  0
 22 18  1  0     0  0
 23 18  2  0     0  0
 24 23  1  0     0  0
 25 22  2  0     0  0
  9 17  1  0     0  0
 20 25  1  0     0  0
M  END