
  Mrv0541 05211314572D          

 21 22  0  0  0  0            999 V2000
    5.1772   -5.8942    0.0000 C   0  0  0  0  0  0  0  0  0  0  0  0
    4.4627   -6.3067    0.0000 C   0  0  0  0  0  0  0  0  0  0  0  0
    3.7483   -5.8942    0.0000 C   0  0  0  0  0  0  0  0  0  0  0  0
    3.0338   -6.3067    0.0000 C   0  0  0  0  0  0  0  0  0  0  0  0
    2.3193   -6.7192    0.0000 C   0  0  0  0  0  0  0  0  0  0  0  0
    3.7483   -5.0692    0.0000 O   0  0  0  0  0  0  0  0  0  0  0  0
    4.4627   -7.1317    0.0000 N   0  0  0  0  0  0  0  0  0  0  0  0
    5.1302   -7.6166    0.0000 N   0  0  0  0  0  0  0  0  0  0  0  0
    4.8752   -8.4012    0.0000 C   0  0  0  0  0  0  0  0  0  0  0  0
    4.0502   -8.4012    0.0000 N   0  0  0  0  0  0  0  0  0  0  0  0
    3.7953   -7.6166    0.0000 C   0  0  0  0  0  0  0  0  0  0  0  0
    3.4463   -7.0212    0.0000 C   0  0  0  0  0  0  0  0  0  0  0  0
    2.6213   -5.5922    0.0000 C   0  0  0  0  0  0  0  0  0  0  0  0
    5.8917   -6.3067    0.0000 C   0  0  0  0  0  0  0  0  0  0  0  0
    6.6061   -5.8942    0.0000 C   0  0  0  0  0  0  0  0  0  0  0  0
    7.3206   -6.3067    0.0000 C   0  0  0  0  0  0  0  0  0  0  0  0
    7.3206   -7.1317    0.0000 C   0  0  0  0  0  0  0  0  0  0  0  0
    6.6061   -7.5442    0.0000 C   0  0  0  0  0  0  0  0  0  0  0  0
    5.8917   -7.1317    0.0000 C   0  0  0  0  0  0  0  0  0  0  0  0
    8.0351   -7.5442    0.0000 Cl  0  0  0  0  0  0  0  0  0  0  0  0
    6.6061   -5.0692    0.0000 Cl  0  0  0  0  0  0  0  0  0  0  0  0
  1  2  2  0  0  0  0
  2  3  1  0  0  0  0
  3  4  1  0  0  0  0
  4  5  1  0  0  0  0
  3  6  1  0  0  0  0
  7  8  1  0  0  0  0
  8  9  2  0  0  0  0
  9 10  1  0  0  0  0
 10 11  2  0  0  0  0
  7 11  1  0  0  0  0
  2  7  1  0  0  0  0
  4 12  1  0  0  0  0
  4 13  1  0  0  0  0
 14 15  1  0  0  0  0
 15 16  2  0  0  0  0
 16 17  1  0  0  0  0
 17 18  2  0  0  0  0
 18 19  1  0  0  0  0
 14 19  2  0  0  0  0
 17 20  1  0  0  0  0
 15 21  1  0  0  0  0
  1 14  1  0  0  0  0
M  END