
  SciTegic02271515152D

 94 95  0  0  0  0            999 V2000
   11.9947   -6.1880    0.0000 F   0  0
   11.3880   -6.7990    0.0000 C   0  0
   12.2204   -7.0189    0.0000 F   0  0
    2.7713   -0.4717    0.0000 O   0  0
    2.8677   -2.8787    0.0000 C   0  0
    2.1554   -0.8269    0.0000 O   0  0
    2.1554   -3.2960    0.0000 C   0  0
    0.7251   -3.2960    0.0000 C   0  0
    1.4412   -2.8787    0.0000 C   0  0
    0.7251   -0.8269    0.0000 C   0  0
    0.0172   -2.8787    0.0000 O   0  0
   -2.1294   -0.8269    0.0000 C   0  0
   -1.4216    0.4179    0.0000 C   0  0
   -1.4216   -0.4173    0.0000 C   0  0
   -0.7081   -0.8269    0.0000 C   0  0
   -2.1294   -1.6454    0.0000 C   0  0
   -0.7070   -4.4763    0.0000 O   0  0
   -2.0924   -3.6076    0.0000 C   0  0
   -3.5075   -3.5719    0.0000 C   0  0
   -2.8165   -3.9999    0.0000 C   0  0
   -2.8303   -4.8220    0.0000 C   0  0
   -2.8415   -6.4882    0.0000 C   0  0
   -1.4216   -7.3070    0.0000 O   0  0
   -0.7081   -5.2508    0.0000 C   0  0
    0.7251   -5.2508    0.0000 O   0  0
    1.4412   -7.3070    0.0000 C   0  0
    2.8677   -7.3070    0.0000 O   0  0
    2.1554   -5.2508    0.0000 C   0  0
    2.8677   -4.0145    0.0000 C   0  0
    2.8677   -4.8413    0.0000 C   0  0
    3.5843   -5.2508    0.0000 C   0  0
    4.2933   -7.3070    0.0000 C   0  0
    5.0058   -5.2508    0.0000 O   0  0
    6.4345   -7.7288    0.0000 C   0  0
    5.0058   -7.7288    0.0000 C   0  0
    5.7226   -7.3070    0.0000 C   0  0
    7.1518   -7.3070    0.0000 O   0  0
    8.6913   -4.5874    0.0000 C   0  0
    8.5773   -2.8787    0.0000 O   0  0
    7.8923   -2.4420    0.0000 C   0  0
    7.8603   -1.6454    0.0000 C   0  0
    6.4345   -0.8269    0.0000 O   0  0
    4.2933   -2.8787    0.0000 O   0  0
    4.2933   -2.0594    0.0000 C   0  0
    6.4345   -3.2960    0.0000 C   0  0
    5.7226   -2.8787    0.0000 C   0  0
    5.7226   -2.0594    0.0000 C   0  0  1  0  0  0
    6.4345   -1.6454    0.0000 C   0  0
    7.1518   -2.0594    0.0000 N   0  0
    7.1518   -2.8787    0.0000 C   0  0  1  0  0  0
    7.8603   -3.2960    0.0000 C   0  0
    7.8603   -4.5874    0.0000 N   0  0
    8.5763   -7.3446    0.0000 C   0  0
    9.2896   -6.0786    0.0000 C   0  0
    8.5773   -6.4882    0.0000 C   0  0  2  0  0  0
    7.8603   -6.0786    0.0000 C   0  0  1  0  0  0
    7.1518   -6.4882    0.0000 C   0  0
    6.4345   -6.0786    0.0000 N   0  0
    5.7226   -6.4882    0.0000 C   0  0  2  0  0  0
    5.0058   -6.0786    0.0000 C   0  0
    4.2933   -6.4882    0.0000 N   0  0
    3.5843   -6.0786    0.0000 C   0  0  2  0  0  0
    2.8677   -6.4882    0.0000 C   0  0
    2.1554   -6.0786    0.0000 N   0  0
    1.4412   -6.4882    0.0000 C   0  0  2  0  0  0
    0.7251   -6.0786    0.0000 C   0  0
    0.0172   -6.4882    0.0000 N   0  0
   -0.7081   -6.0786    0.0000 C   0  0  1  0  0  0
   -1.4216   -6.4882    0.0000 C   0  0
   -2.1294   -6.0786    0.0000 N   0  0
   -2.1294   -5.2508    0.0000 C   0  0  2  0  0  0
   -1.4216   -4.8902    0.0000 C   0  0
   -1.4216   -2.0594    0.0000 N   0  0
   -0.7081   -1.6454    0.0000 C   0  0  2  0  0  0
    0.0172   -2.0594    0.0000 C   0  0
    0.7251   -1.6454    0.0000 N   0  0
    1.4412   -2.0594    0.0000 C   0  0  2  0  0  0
    2.1554   -1.6454    0.0000 C   0  0
    2.8677   -2.0594    0.0000 N   0  0
    3.5843   -1.6454    0.0000 C   0  0  1  0  0  0
    5.0058   -0.8269    0.0000 C   0  0
    2.8677    2.0694    0.0000 C   0  0
    3.5843    1.6556    0.0000 C   0  0
    3.5843    0.8401    0.0000 C   0  0
    4.2933    0.4178    0.0000 C   0  0
    4.2933   -0.4173    0.0000 C   0  0  2  0  0  0
    3.5843   -0.8269    0.0000 C   0  0  1  0  0  0
    5.0058   -1.6458    0.0000 N   0  0
   10.0319   -6.5090    0.0000 N   0  0
   10.1203   -7.3620    0.0000 C   0  0
   10.9593   -7.5419    0.0000 C   0  0
   10.8165   -6.1610    0.0000 C   0  0
    2.7182   -1.1455    0.0000 H   0  0
    7.8629   -7.0786    0.0000 H   0  0
  2  1  1  0
  3  2  1  0
 87 86  1  0
 80 87  1  0
 87  4  1  6
 86 85  1  0
 86 81  1  1
 85 84  1  0
 84 83  2  0
 83 82  1  0
 80 79  1  0
 80 44  1  0
 78 79  1  0
 79  5  1  0
 77 78  1  0
 78  6  2  0
 76 77  1  0
 77  9  1  6
 75 76  1  0
 76 10  1  0
 74 75  1  0
 75 11  2  0
 73 74  1  0
 74 15  1  1
 73 72  1  0
 73 16  1  0
 71 72  1  0
 72 17  2  0
 70 71  1  0
 71 21  1  1
 69 70  1  0
 70 22  1  0
 68 69  1  0
 69 23  2  0
 67 68  1  0
 68 24  1  1
 66 67  1  0
 65 66  1  0
 66 25  2  0
 64 65  1  0
 65 26  1  1
 63 64  1  0
 62 63  1  0
 63 27  2  0
 61 62  1  0
 62 31  1  6
 60 61  1  0
 61 32  1  0
 59 60  1  0
 60 33  2  0
 58 59  1  0
 59 36  1  1
 57 58  1  0
 57 56  1  0
 57 37  2  0
 56 55  1  0
 56 52  1  0
 55 54  1  0
 55 53  1  1
 51 52  1  0
 52 38  1  0
 50 51  1  0
 51 39  2  0
 49 50  1  0
 50 40  1  1
 48 49  1  0
 49 41  1  0
 47 48  1  0
 48 42  2  0
 47 46  1  6
 88 47  1  0
 46 45  1  0
 44 43  2  0
 44 88  1  0
 36 35  1  0
 36 34  1  0
 31 30  1  0
 30 29  1  0
 30 28  1  0
 21 20  1  0
 20 19  1  0
 20 18  1  0
 15 14  1  0
 14 13  1  0
 14 12  1  0
  9  8  1  0
  9  7  1  0
 54 89  1  0
 89 90  1  0
 90 91  1  0
 91  2  1  0
  2 92  1  0
 92 89  1  0
 80 93  1  6
 56 94  1  6
M  STY  1   1 SUP
M  SLB  1   1   1
M  SAL   1  1  88
M  SBL   1  2  71  74
M  SMT   1 N
M  END