
  SciTegic02271514372D

 62 64  0  0  0  0            999 V2000
   15.1246   -5.4757    0.0000 O   0  0
   16.5429   -2.1957    0.0000 C   0  0
   15.1232   -3.0131    0.0000 C   0  0
   12.9895   -4.2423    0.0000 C   0  0
   15.1246   -4.6548    0.0000 C   0  0
    6.5922   -5.4757    0.0000 O   0  0
   12.2777   -4.6548    0.0000 C   0  0  2  0  0  0
    9.4391   -4.6548    0.0000 N   0  0
    4.4618   -4.2435    0.0000 C   0  0
    8.7274   -4.2423    0.0000 C   0  0
    8.0115   -5.4757    0.0000 C   0  0
   11.5646   -3.4214    0.0000 C   0  0
   11.5660   -4.2423    0.0000 N   0  0
   15.1206   -2.1975    0.0000 C   0  0
   14.4129   -4.2423    0.0000 C   0  0  1  0  0  0
    8.7260   -6.7049    0.0000 C   0  0
   12.9881   -6.7049    0.0000 C   0  0
   10.8584   -5.4757    0.0000 O   0  0
    3.7522   -4.6572    0.0000 O   0  0
   15.8322   -4.2423    0.0000 O   0  0
   12.2777   -5.4757    0.0000 C   0  0
   10.1467   -3.4214    0.0000 C   0  0
    9.4363   -5.4757    0.0000 C   0  0
   16.5425   -3.0174    0.0000 C   0  0
   13.6984   -5.4757    0.0000 C   0  0
   15.8326   -3.4251    0.0000 C   0  0
    8.0115   -4.6548    0.0000 C   0  0  1  0  0  0
   10.8570   -2.1922    0.0000 C   0  0
    8.7274   -3.4214    0.0000 O   0  0
    3.0412   -4.2459    0.0000 C   0  0
    8.7260   -5.8841    0.0000 C   0  0
    4.4604   -3.4226    0.0000 O   0  0
    6.5922   -4.6548    0.0000 C   0  0
   13.7012   -4.6548    0.0000 N   0  0
    2.3274   -4.6596    0.0000 C   0  0
   12.2763   -2.1922    0.0000 C   0  0
   15.8275   -1.7833    0.0000 C   0  0
   10.1467   -4.2423    0.0000 C   0  0  1  0  0  0
   12.9895   -3.4214    0.0000 O   0  0
   10.8584   -4.6548    0.0000 C   0  0
   10.8570   -3.0131    0.0000 C   0  0
    2.3231   -3.8339    0.0000 C   0  0
    7.2998   -4.2423    0.0000 N   0  0
   14.4129   -3.4214    0.0000 C   0  0
    3.0398   -3.4250    0.0000 C   0  0
   12.2763   -3.0131    0.0000 C   0  0
    5.1729   -4.6548    0.0000 N   0  0
    5.8804   -4.2423    0.0000 C   0  0  1  0  0  0
    5.8804   -3.4214    0.0000 C   0  0
   12.9881   -5.8841    0.0000 C   0  0
   11.5646   -1.7797    0.0000 C   0  0
    6.5882   -3.0128    0.0000 C   0  0
    7.2949   -3.4253    0.0000 C   0  0
    8.0021   -3.0174    0.0000 C   0  0
    8.0026   -2.1993    0.0000 C   0  0
    7.2899   -1.7909    0.0000 C   0  0
    6.5856   -2.2012    0.0000 C   0  0
    8.7097   -1.7898    0.0000 O   0  0
    8.7086   -0.9726    0.0000 C   0  0
    9.4158   -0.5631    0.0000 C   0  0
    8.0004   -0.5650    0.0000 C   0  0
    8.7043   -0.1527    0.0000 C   0  0
  5 20  1  0
  2 37  1  0
 50 17  1  0
 31 16  1  0
 28 41  2  0
 44  3  1  0
 40 13  1  0
 33  6  2  0
 46 36  1  0
 27 10  1  0
 30 45  1  0
 33 43  1  0
 30 35  1  0
 31 23  1  0
  7  4  1  0
 24  2  2  0
 13  7  1  0
 30 42  1  0
 50 25  1  0
  7 21  1  1
  9 19  1  0
  8 38  1  0
 34 15  1  0
 19 30  1  0
 11 31  1  0
 12 46  2  0
 14  3  1  0
 15  5  1  0
 15 44  1  1
 27 11  1  1
 26 24  1  0
  4 34  1  0
 10  8  1  0
 41 12  1  0
  4 39  2  0
 37 14  2  0
  3 26  2  0
 38 22  1  1
 36 51  2  0
 22 41  1  0
 10 29  2  0
  9 32  2  0
 21 50  1  0
 48 49  1  0
 38 40  1  0
 47 48  1  0
 48 33  1  1
 43 27  1  0
 40 18  2  0
 51 28  1  0
 47  9  1  0
  5  1  2  0
 49 52  1  0
 52 53  2  0
 53 54  1  0
 54 55  2  0
 55 56  1  0
 56 57  2  0
 57 52  1  0
 55 58  1  0
 58 59  1  0
 59 60  1  0
 59 61  1  0
 59 62  1  0
M  END