
          11280715512D 1   1.00000     0.00000     0

 23 24  0     1  0            999 V2000
   -0.0539  -14.3606    0.0000 C   0  0  0  0  0  0           0  0  0
    0.6620  -14.7731    0.0000 N   0  0  3  0  0  0           0  0  0
    0.6620  -15.5981    0.0000 C   0  0  0  0  0  0           0  0  0
   -0.0539  -16.0106    0.0000 C   0  0  0  0  0  0           0  0  0
   -0.7656  -15.5981    0.0000 C   0  0  0  0  0  0           0  0  0
   -0.7656  -14.7731    0.0000 N   0  0  3  0  0  0           0  0  0
   -0.0539  -13.5356    0.0000 O   0  0  0  0  0  0           0  0  0
    1.3778  -16.0106    0.0000 O   0  0  0  0  0  0           0  0  0
    1.3778  -14.3606    0.0000 C   0  0  0  0  0  0           0  0  0
    3.3970  -15.0520    0.0000 O   0  0  0  0  0  0           0  0  0
    2.8440  -14.4397    0.0000 C   0  0  0  0  0  0           0  0  0
    2.0937  -14.7731    0.0000 C   0  0  0  0  0  0           0  0  0
    2.1785  -15.5954    0.0000 C   0  0  0  0  0  0           0  0  0
    2.9845  -15.7678    0.0000 C   0  0  0  0  0  0           0  0  0
    3.0163  -13.6337    0.0000 C   0  0  0  0  0  0           0  0  0
    2.4325  -13.0498    0.0000 O   0  0  0  0  0  0           0  0  0
    3.8154  -13.4185    0.0000 O   0  0  0  0  0  0           0  0  0
   -1.4815  -14.3606    0.0000 C   0  0  0  0  0  0           0  0  0
   -2.1932  -14.7731    0.0000 C   0  0  1  0  0  0           0  0  0
   -2.1932  -15.5981    0.0000 C   0  0  0  0  0  0           0  0  0
   -2.9090  -16.0106    0.0000 O   0  0  0  0  0  0           0  0  0
   -1.4815  -16.0106    0.0000 O   0  0  0  0  0  0           0  0  0
   -2.9090  -14.3606    0.0000 N   0  0  0  0  0  0           0  0  0
  1  2  1  0     0  0
  2  3  1  0     0  0
  3  4  1  0     0  0
  4  5  2  0     0  0
  5  6  1  0     0  0
  1  6  1  0     0  0
  1  7  2  0     0  0
  3  8  2  0     0  0
 10 11  1  0     0  0
 11 12  2  0     0  0
 12 13  1  0     0  0
 13 14  2  0     0  0
 10 14  1  0     0  0
 15 16  2  0     0  0
 15 17  1  0     0  0
 11 15  1  0     0  0
  9 12  1  0     0  0
  2  9  1  0     0  0
 18 19  1  0     0  0
 20 21  2  0     0  0
 20 22  1  0     0  0
 19 20  1  0     0  0
 19 23  1  1     0  0
  6 18  1  0     0  0
M  END