
  SciTegic11201309402D

 84 89  0  0  0  0            999 V2000
    3.3800   -3.1100    0.0000 C   0  0
    4.7300   -3.8600    0.0000 C   0  0
    6.0600   -3.0800    0.0000 C   0  0
    6.0400   -1.5300    0.0000 C   0  0
    4.6900   -0.7700    0.0000 C   0  0
    3.3600   -1.5700    0.0000 C   0  0
   -4.5700   -4.7600    0.0000 C   0  0  2  0  0  0
   -3.2126   -6.7099    0.0000 O   0  0
   -3.2300   -5.5100    0.0000 C   0  0
   -5.8570   -5.5310    0.0000 C   0  0
   -5.8335   -7.0317    0.0000 C   0  0
   -6.8629   -7.6485    0.0000 O   0  0
   -1.9100   -4.7200    0.0000 N   0  0
   -0.5500   -5.4700    0.0000 C   0  0  2  0  0  0
   -1.5394   -7.5943    0.0000 O   0  0
   -0.5145   -6.9701    0.0000 C   0  0
    0.7600   -4.6900    0.0000 C   0  0
    2.0800   -5.4400    0.0000 S   0  0
    0.8022   -7.6903    0.0000 N   0  0
    0.9772   -9.1672    0.0000 C   0  0  2  0  0  0
    0.1471  -11.3564    0.0000 O   0  0
   -0.1207  -10.1866    0.0000 C   0  0
    2.4517   -9.4422    0.0000 C   0  0
    2.1376   -7.0356    0.0000 C   0  0
    3.1689   -8.1248    0.0000 C   0  0
   -9.1586  -11.4862    0.0000 C   0  0
   -2.6551  -10.7668    0.0000 C   0  0  2  0  0  0
   -3.1949  -13.0474    0.0000 O   0  0
   -2.3172  -12.2291    0.0000 C   0  0
   -4.0897  -10.3258    0.0000 C   0  0
   -5.1896  -11.3470    0.0000 C   0  0
   -6.6241  -10.9060    0.0000 C   0  0
   -0.5443  -14.1308    0.0000 C   0  0
    1.1610  -15.7394    0.0000 O   0  0
    0.8908  -14.5702    0.0000 C   0  0
    1.7685  -13.7519    0.0000 N   0  0
   -5.9200   -2.4400    0.0000 C   0  0
   -5.9300   -0.9000    0.0000 C   0  0  2  0  0  0
   -6.9550   -3.0473    0.0000 O   0  0
   -7.2332   -0.1566    0.0000 C   0  0
   -8.5295   -0.9130    0.0000 C   0  0
   -9.8332   -0.1695    0.0000 C   0  0
  -10.8696   -0.7743    0.0000 O   0  0
   -4.5900    1.3700    0.0000 C   0  0
   -5.6323    1.9647    0.0000 O   0  0
   -3.2700    2.1500    0.0000 C   0  0  2  0  0  0
   -3.2883    3.6503    0.0000 C   0  0
   -4.5967    4.3856    0.0000 C   0  0
   -4.6173    5.8855    0.0000 C   0  0
   -5.9264    6.6177    0.0000 C   0  0
   -7.2151    5.8501    0.0000 C   0  0
   -7.1947    4.3502    0.0000 C   0  0
   -5.8855    3.6180    0.0000 C   0  0
   -0.6000    2.1600    0.0000 C   0  0
    0.7200    1.3900    0.0000 C   0  0  2  0  0  0
   -0.5980    3.3600    0.0000 O   0  0
    1.6871    2.5378    0.0000 C   0  0
    2.0400   -0.8900    0.0000 C   0  0
    3.1644    2.2735    0.0000 C   0  0
    1.1763    3.9490    0.0000 C   0  0
   -0.2999    4.2153    0.0000 C   0  0
   -0.8075    5.6268    0.0000 C   0  0
    0.1612    6.7721    0.0000 C   0  0
    1.6373    6.5059    0.0000 C   0  0
    2.1449    5.0944    0.0000 C   0  0
    2.0200   -2.3600    0.0000 C   0  0
    3.4000   -4.6500    0.0000 S   0  0
    3.6770    0.8637    0.0000 C   0  0
    5.1541    0.6026    0.0000 C   0  0
    6.1187    1.7513    0.0000 C   0  0
    5.6063    3.1611    0.0000 C   0  0
    4.1292    3.4222    0.0000 C   0  0
   -4.5800   -3.2000    0.0000 N   0  0
   -4.7849   -7.6150    0.0000 N   0  0
   -7.7240  -11.9272    0.0000 N   0  0
   -9.4263  -10.3164    0.0000 N   0  0
  -10.0380  -12.3026    0.0000 N   0  0
   -1.5553   -9.7456    0.0000 N   0  0
   -0.8822  -12.6685    0.0000 N   0  0
   -4.5900   -0.1300    0.0000 N   0  0
   -9.8391    1.0305    0.0000 N   0  0
   -1.9300    1.3900    0.0000 N   0  0
    0.7400   -0.1100    0.0000 N   0  0
    3.0882   -0.3059    0.0000 O   0  0
 22 21  2  0
 20 23  1  0
 24 25  1  0
 25 23  1  0
 24 19  1  0
 27 29  1  0
 29 28  2  0
 27 30  1  6
 30 31  1  0
 31 32  1  0
 33 35  1  0
 35 34  2  0
 37 38  1  0
 37 39  2  0
 38 40  1  6
 40 41  1  0
 41 42  1  0
 42 43  2  0
 44 45  2  0
 44 46  1  0
 46 47  1  6
 47 48  1  0
 48 49  2  0
 49 50  1  0
 50 51  2  0
 51 52  1  0
 52 53  2  0
 53 48  1  0
 54 55  1  0
 54 56  2  0
 55 57  1  6
  2  3  1  0
 57 59  1  0
  3  4  1  0
 57 60  1  0
  4  5  1  0
 60 61  2  0
  5  6  1  0
 61 62  1  0
 62 63  2  0
  1  2  1  0
 63 64  1  0
  1  6  1  0
 64 65  2  0
 65 60  1  0
  9 13  1  0
 58 66  1  0
 66  1  1  0
 16 19  1  0
  1 67  1  0
 59 68  2  0
 35 36  1  0
 68 69  1  0
 69 70  2  0
  7  9  1  0
 70 71  1  0
  9  8  2  0
 71 72  2  0
 72 59  1  0
  7 10  1  6
 10 11  1  0
 11 12  2  0
 14 13  1  0
 14 16  1  1
 16 15  2  0
 14 17  1  0
 17 18  1  0
 19 20  1  0
 20 22  1  1
 73 37  1  0
 73  7  1  0
 78 27  1  0
 22 78  1  0
 75 26  1  0
 32 75  1  0
 79 33  1  0
 29 79  1  0
 38 80  1  0
 80 44  1  0
 26 76  1  0
 42 81  1  0
 11 74  1  0
 46 82  1  0
 82 54  1  0
 26 77  2  0
 55 83  1  0
 83 58  1  0
 58 84  2  0
 18 67  1  0
M  END