
  CDK    9/16/09,9:54

 40 43  0  0  0  0  0  0  0  0999 V2000
   -3.4917  -21.2625    0.0000 C   0  0  0  0  0  0  0  0  0  0  0  0
   -3.4917  -22.0875    0.0000 C   0  0  0  0  0  0  0  0  0  0  0  0
   -2.7796  -22.4958    0.0000 C   0  0  0  0  0  0  0  0  0  0  0  0
   -2.0676  -22.0875    0.0000 C   0  0  0  0  0  0  0  0  0  0  0  0
   -2.0676  -21.2625    0.0000 O   0  0  0  0  0  0  0  0  0  0  0  0
   -2.7796  -20.8458    0.0000 C   0  0  0  0  0  0  0  0  0  0  0  0
   -2.7796  -20.0208    0.0000 C   0  0  0  0  0  0  0  0  0  0  0  0
   -2.0652  -19.6083    0.0000 O   0  0  0  0  0  0  0  0  0  0  0  0
   -4.2073  -20.8521    0.0000 O   0  0  0  0  0  0  0  0  0  0  0  0
   -4.2055  -22.5010    0.0000 N   0  0  0  0  0  0  0  0  0  0  0  0
   -4.9206  -22.0896    0.0000 C   0  0  0  0  0  0  0  0  0  0  0  0
   -5.6345  -22.5031    0.0000 C   0  0  0  0  0  0  0  0  0  0  0  0
   -4.9218  -21.2646    0.0000 O   0  0  0  0  0  0  0  0  0  0  0  0
   -6.3530  -22.0912    0.0000 C   0  0  0  0  0  0  0  0  0  0  0  0
   -7.0646  -22.5041    0.0000 C   0  0  0  0  0  0  0  0  0  0  0  0
   -7.0654  -23.3300    0.0000 C   0  0  0  0  0  0  0  0  0  0  0  0
   -6.3438  -23.7413    0.0000 C   0  0  0  0  0  0  0  0  0  0  0  0
   -5.6291  -23.3260    0.0000 C   0  0  0  0  0  0  0  0  0  0  0  0
   -2.7796  -23.3208    0.0000 O   0  0  0  0  0  0  0  0  0  0  0  0
   -1.3538  -22.5010    0.0000 S   0  0  0  0  0  0  0  0  0  0  0  0
   -0.6387  -22.0896    0.0000 C   0  0  0  0  0  0  0  0  0  0  0  0
    0.0714  -22.5070    0.0000 O   0  0  0  0  0  0  0  0  0  0  0  0
    0.7843  -22.0990    0.0000 C   0  0  0  0  0  0  0  0  0  0  0  0
    0.7898  -21.2737    0.0000 C   0  0  0  0  0  0  0  0  0  0  0  0
    0.0761  -20.8580    0.0000 C   0  0  0  0  0  0  0  0  0  0  0  0
   -0.6431  -21.2676    0.0000 C   0  0  0  0  0  0  0  0  0  0  0  0
    1.4966  -22.5153    0.0000 C   0  0  0  0  0  0  0  0  0  0  0  0
    1.4923  -23.3402    0.0000 O   0  0  0  0  0  0  0  0  0  0  0  0
   -0.6458  -22.9125    0.0000 H   0  0  0  0  0  0  0  0  0  0  0  0
   -1.3574  -20.8549    0.0000 O   0  0  0  0  0  0  0  0  0  0  0  0
    0.0801  -20.0330    0.0000 N   0  0  0  0  0  0  0  0  0  0  0  0
    0.7966  -19.6239    0.0000 C   0  0  0  0  0  0  0  0  0  0  0  0
    1.5069  -20.0375    0.0000 O   0  0  0  0  0  0  0  0  0  0  0  0
    1.5040  -20.8624    0.0000 O   0  0  0  0  0  0  0  0  0  0  0  0
    0.8000  -18.7990    0.0000 C   0  0  0  0  0  0  0  0  0  0  0  0
    1.5159  -18.3929    0.0000 C   0  0  0  0  0  0  0  0  0  0  0  0
    1.5197  -17.5687    0.0000 C   0  0  0  0  0  0  0  0  0  0  0  0
    0.8065  -17.1524    0.0000 C   0  0  0  0  0  0  0  0  0  0  0  0
    0.0879  -17.5663    0.0000 C   0  0  0  0  0  0  0  0  0  0  0  0
    0.0876  -18.3891    0.0000 C   0  0  0  0  0  0  0  0  0  0  0  0
  2  3  1  0  0  0  0 
  4 20  1  1  0  0  0 
  2 10  1  1  0  0  0 
 20 21  1  0  0  0  0 
 21 22  1  0  0  0  0 
  3  4  1  0  0  0  0 
 10 11  1  0  0  0  0 
  4  5  1  0  0  0  0 
 11 12  1  0  0  0  0 
  5  6  1  0  0  0  0 
 21 26  1  0  0  0  0 
 22 23  1  0  0  0  0 
 23 24  1  0  0  0  0 
 24 25  1  0  0  0  0 
 25 26  1  0  0  0  0 
 11 13  2  0  0  0  0 
 23 27  1  1  0  0  0 
 27 28  1  0  0  0  0 
 12 14  2  0  0  0  0 
 21 29  1  6  0  0  0 
  6  7  1  1  0  0  0 
 26 30  1  6  0  0  0 
 14 15  1  0  0  0  0 
 25 31  1  1  0  0  0 
  1  2  1  0  0  0  0 
 31 32  1  0  0  0  0 
 15 16  2  0  0  0  0 
 32 33  2  0  0  0  0 
 24 34  1  1  0  0  0 
  7  8  1  0  0  0  0 
 16 17  1  0  0  0  0 
 32 35  1  0  0  0  0 
  1  6  1  0  0  0  0 
 35 36  2  0  0  0  0 
 17 18  2  0  0  0  0 
 36 37  1  0  0  0  0 
 18 12  1  0  0  0  0 
 37 38  2  0  0  0  0 
  1  9  1  1  0  0  0 
 38 39  1  0  0  0  0 
  3 19  1  6  0  0  0 
 39 40  2  0  0  0  0 
 40 35  1  0  0  0  0 
M  END