
          11280714502D 1   1.00000     0.00000     0

 34 36  0     0  0            999 V2000
    1.4542   -0.6667    0.0000 N   0  0  3  0  0  0           0  0  0
    1.1042    0.2333    0.0000 N   0  0  0  0  0  0           0  0  0
    1.9250   -0.2917    0.0000 C   0  0  0  0  0  0           0  0  0
    1.7042    0.2708    0.0000 C   0  0  0  0  0  0           0  0  0
    0.9542   -0.3417    0.0000 C   0  0  0  0  0  0           0  0  0
    4.1292   -2.0250    0.0000 C   0  0  0  0  0  0           0  0  0
    2.5042   -0.4417    0.0000 C   0  0  0  0  0  0           0  0  0
    4.6625   -2.2917    0.0000 C   0  0  0  0  0  0           0  0  0
    4.6917   -2.8917    0.0000 C   0  0  0  0  0  0           0  0  0
    4.1917   -3.2250    0.0000 C   0  0  0  0  0  0           0  0  0
    3.6250   -2.3542    0.0000 N   0  0  0  0  0  0           0  0  0
    2.9292   -0.0167    0.0000 C   0  0  0  0  0  0           0  0  0
    1.4917   -1.2667    0.0000 C   0  0  0  0  0  0           0  0  0
    4.0917   -1.4292    0.0000 O   0  0  0  0  0  0           0  0  0
    2.0292    0.7708    0.0000 Cl  0  0  0  0  0  0           0  0  0
    4.2292   -3.8250    0.0000 O   0  0  0  0  0  0           0  0  0
    2.7750    0.5583    0.0000 O   0  0  0  0  0  0           0  0  0
    3.0917   -2.0792    0.0000 C   0  0  0  0  0  0           0  0  0
    2.0250   -1.5417    0.0000 C   0  0  0  0  0  0           0  0  0
    3.6542   -2.9542    0.0000 O   0  0  0  0  0  0           0  0  0
    0.3917   -0.5625    0.0000 C   0  0  0  0  0  0           0  0  0
    3.5042   -0.1750    0.0000 O   0  0  0  0  0  0           0  0  0
    2.5875   -2.4125    0.0000 C   0  0  0  0  0  0           0  0  0
    3.0542   -1.4792    0.0000 C   0  0  0  0  0  0           0  0  0
    2.0542   -2.1417    0.0000 C   0  0  0  0  0  0           0  0  0
    2.5167   -1.2125    0.0000 C   0  0  0  0  0  0           0  0  0
    5.1625   -1.9625    0.0000 C   0  0  0  0  0  0           0  0  0
    5.2292   -3.1667    0.0000 C   0  0  0  0  0  0           0  0  0
    3.6667   -0.7542    0.0000 C   0  0  0  0  0  0           0  0  0
   -0.0750   -0.1875    0.0000 C   0  0  0  0  0  0           0  0  0
   -0.6333   -0.4042    0.0000 C   0  0  0  0  0  0           0  0  0
    5.7000   -2.2292    0.0000 C   0  0  0  0  0  0           0  0  0
    5.7375   -2.8375    0.0000 C   0  0  0  0  0  0           0  0  0
   -1.1000   -0.0292    0.0000 C   0  0  0  0  0  0           0  0  0
  2  5  2  0     0  0
  3  1  1  0     0  0
  4  3  2  0     0  0
  5  1  1  0     0  0
  6 11  1  0     0  0
  7  3  1  0     0  0
  8  6  1  0     0  0
  9  8  2  0     0  0
 10  9  1  0     0  0
 11 18  1  0     0  0
 12  7  1  0     0  0
 13  1  1  0     0  0
 14  6  2  0     0  0
 15  4  1  0     0  0
 16 10  2  0     0  0
 17 12  2  0     0  0
 18 24  1  0     0  0
 19 13  1  0     0  0
 20 10  1  0     0  0
 21  5  1  0     0  0
 22 12  1  0     0  0
 23 25  1  0     0  0
 24 26  2  0     0  0
 25 19  2  0     0  0
 26 19  1  0     0  0
 27  8  1  0     0  0
 28  9  1  0     0  0
 29 22  1  0     0  0
 30 21  1  0     0  0
 31 30  1  0     0  0
 32 27  2  0     0  0
 33 32  1  0     0  0
 34 31  1  0     0  0
  4  2  1  0     0  0
 23 18  2  0     0  0
 28 33  2  0     0  0
M  END