
          11280715152D 1   1.00000     0.00000     0

 26 29  0     0  0            999 V2000
    2.9125   -4.3792    0.0000 N   0  0  3  0  0  0           0  0  0
    2.9042   -5.2125    0.0000 C   0  0  0  0  0  0           0  0  0
    2.1917   -3.9667    0.0000 C   0  0  0  0  0  0           0  0  0
    3.7000   -5.4667    0.0000 N   0  0  0  0  0  0           0  0  0
    3.7042   -4.1292    0.0000 N   0  0  0  0  0  0           0  0  0
    4.1875   -4.7917    0.0000 C   0  0  0  0  0  0           0  0  0
    2.1917   -5.6250    0.0000 C   0  0  0  0  0  0           0  0  0
    1.4792   -4.3792    0.0000 N   0  0  0  0  0  0           0  0  0
    2.1917   -3.1417    0.0000 N   0  0  0  0  0  0           0  0  0
    1.4792   -5.2125    0.0000 C   0  0  0  0  0  0           0  0  0
    5.0125   -4.7917    0.0000 C   0  0  0  0  0  0           0  0  0
    2.9042   -2.7292    0.0000 C   0  0  0  0  0  0           0  0  0
    2.1917   -6.4417    0.0000 C   0  0  0  0  0  0           0  0  0
    5.4917   -5.4625    0.0000 O   0  0  0  0  0  0           0  0  0
    5.4917   -4.1292    0.0000 C   0  0  0  0  0  0           0  0  0
    0.7667   -5.6250    0.0000 C   0  0  0  0  0  0           0  0  0
    6.2792   -5.2042    0.0000 C   0  0  0  0  0  0           0  0  0
    6.2792   -4.3792    0.0000 C   0  0  0  0  0  0           0  0  0
    3.6167   -3.1417    0.0000 O   0  0  0  0  0  0           0  0  0
    1.4917   -6.8625    0.0000 C   0  0  0  0  0  0           0  0  0
    0.7667   -6.4500    0.0000 C   0  0  0  0  0  0           0  0  0
    1.4917   -7.6875    0.0000 Cl  0  0  0  0  0  0           0  0  0
    4.3292   -0.2542    0.0000 N   0  0  0  0  0  0           0  0  0
    2.9042   -1.9042    0.0000 C   0  0  0  0  0  0           0  0  0
    3.6167   -0.6667    0.0000 C   0  0  0  0  0  0           0  0  0
    3.6167   -1.4917    0.0000 C   0  0  0  0  0  0           0  0  0
  2  1  1  0     0  0
  3  1  1  0     0  0
  4  2  2  0     0  0
  5  1  1  0     0  0
  6  5  2  0     0  0
  7  2  1  0     0  0
  8  3  2  0     0  0
  9  3  1  0     0  0
 10  8  1  0     0  0
 11  6  1  0     0  0
 12  9  1  0     0  0
 13  7  1  0     0  0
 14 11  1  0     0  0
 15 11  2  0     0  0
 16 10  1  0     0  0
 17 14  1  0     0  0
 18 15  1  0     0  0
 19 12  2  0     0  0
 20 13  2  0     0  0
 21 16  2  0     0  0
 22 20  1  0     0  0
 23 25  1  0     0  0
 24 12  1  0     0  0
 25 26  1  0     0  0
 26 24  1  0     0  0
  6  4  1  0     0  0
 10  7  2  0     0  0
 18 17  2  0     0  0
 20 21  1  0     0  0
M  END