
  SciTegic06051315212D

 15 15  0  0  0  0            999 V2000
    7.0355   -2.5836    0.0000 C   0  0
    7.0344   -3.4031    0.0000 C   0  0
    7.7424   -3.8121    0.0000 C   0  0
    8.4521   -3.4027    0.0000 C   0  0
    8.4492   -2.5800    0.0000 C   0  0
    7.7406   -2.1747    0.0000 C   0  0
    7.7382   -1.3576    0.0000 S   0  0
    8.4447   -0.9469    0.0000 N   0  0
    6.9420   -1.5642    0.0000 O   0  0
    7.3217   -0.6438    0.0000 O   0  0
    9.1554   -2.1687    0.0000 F   0  0
    6.3277   -2.1752    0.0000 F   0  0
    6.3263   -3.8112    0.0000 F   0  0
    9.1604   -3.8102    0.0000 F   0  0
    7.7422   -4.6293    0.0000 F   0  0
  1  2  2  0
  2  3  1  0
  3  4  2  0
  4  5  1  0
  5  6  2  0
  6  1  1  0
  6  7  1  0
  7  8  1  0
  7  9  2  0
  7 10  2  0
  5 11  1  0
  1 12  1  0
  2 13  1  0
  4 14  1  0
  3 15  1  0
M  END