
          11280714432D 1   1.00000     0.00000     0

 23 24  0     0  0            999 V2000
    3.3750    0.4208    0.0000 N   0  0  0  0  0  0           0  0  0
    1.2917    0.4125    0.0000 O   0  0  0  0  0  0           0  0  0
    2.3375    0.4208    0.0000 C   0  0  3  0  0  0           0  0  0
    0.7750    0.7125    0.0000 C   0  0  0  0  0  0           0  0  0
    2.8542    0.7208    0.0000 C   0  0  0  0  0  0           0  0  0
    1.8167    0.7208    0.0000 C   0  0  0  0  0  0           0  0  0
   -0.2625    1.3125    0.0000 C   0  0  0  0  0  0           0  0  0
   -1.8208    1.6125    0.0000 S   0  0  0  0  0  0           0  0  0
    0.7750    1.3208    0.0000 C   0  0  0  0  0  0           0  0  0
    0.2542    0.4125    0.0000 C   0  0  0  0  0  0           0  0  0
    0.2542    1.6208    0.0000 C   0  0  0  0  0  0           0  0  0
   -0.2625    0.7125    0.0000 C   0  0  0  0  0  0           0  0  0
    2.3375   -0.1792    0.0000 O   0  0  0  0  0  0           0  0  0
    3.8917    0.7208    0.0000 C   0  0  3  0  0  0           0  0  0
   -3.7625    1.7000    0.0000 C   0  0  0  0  0  0           0  0  0
   -2.9250    1.4708    0.0000 C   0  0  3  0  0  0           0  0  0
   -2.3458    1.3125    0.0000 C   0  0  0  0  0  0           0  0  0
   -1.3000    1.3125    0.0000 C   0  0  0  0  0  0           0  0  0
   -0.7833    1.6125    0.0000 C   0  0  0  0  0  0           0  0  0
   -3.2333    2.0000    0.0000 C   0  0  0  0  0  0           0  0  0
   -3.4583    1.1708    0.0000 C   0  0  0  0  0  0           0  0  0
    4.4167    0.4208    0.0000 C   0  0  0  0  0  0           0  0  0
    3.8917    1.3208    0.0000 C   0  0  0  0  0  0           0  0  0
  2  6  1  0     0  0
  3  5  1  0     0  0
  4  2  1  0     0  0
  5  1  1  0     0  0
  6  3  1  0     0  0
  7 12  2  0     0  0
  8 18  1  0     0  0
  9  4  1  0     0  0
 10  4  2  0     0  0
 11  9  2  0     0  0
 12 10  1  0     0  0
 13  3  1  0     0  0
 14  1  1  0     0  0
 15 21  1  0     0  0
 16 17  1  0     0  0
 17  8  1  0     0  0
 18 19  1  0     0  0
 19  7  1  0     0  0
 20 16  1  0     0  0
 21 16  1  0     0  0
 22 14  1  0     0  0
 23 14  1  0     0  0
  7 11  1  0     0  0
 15 20  1  0     0  0
M  END