
  CDK    9/16/09,10:2

 22 24  0  0  0  0  0  0  0  0999 V2000
   -4.2817    2.0860    0.0000 C   0  0  0  0  0  0  0  0  0  0  0  0
   -4.6992    1.3745    0.0000 C   0  0  0  0  0  0  0  0  0  0  0  0
   -4.2918    0.6593    0.0000 C   0  0  0  0  0  0  0  0  0  0  0  0
   -3.4671    0.6545    0.0000 C   0  0  0  0  0  0  0  0  0  0  0  0
   -3.0515    1.3708    0.0000 C   0  0  0  0  0  0  0  0  0  0  0  0
   -3.4613    2.0830    0.0000 C   0  0  0  0  0  0  0  0  0  0  0  0
   -3.0615   -0.0625    0.0000 C   0  0  0  0  0  0  0  0  0  0  0  0
   -3.3097   -0.8507    0.0000 N   0  0  0  0  0  0  0  0  0  0  0  0
   -2.6368   -1.3304    0.0000 N   0  0  0  0  0  0  0  0  0  0  0  0
   -1.9726   -0.8386    0.0000 S   0  0  0  0  0  0  0  0  0  0  0  0
   -2.2352   -0.0551    0.0000 C   0  0  0  0  0  0  0  0  0  0  0  0
   -1.7597    0.6154    0.0000 C   0  0  0  0  0  0  0  0  0  0  0  0
   -0.9324    0.5965    0.0000 C   0  0  0  0  0  0  0  0  0  0  0  0
   -0.5042    1.3022    0.0000 C   0  0  0  0  0  0  0  0  0  0  0  0
   -0.9021    2.0275    0.0000 C   0  0  0  0  0  0  0  0  0  0  0  0
   -1.7326    2.0426    0.0000 C   0  0  0  0  0  0  0  0  0  0  0  0
   -2.1571    1.3361    0.0000 C   0  0  0  0  0  0  0  0  0  0  0  0
   -0.4747    2.7348    0.0000 O   0  0  0  0  0  0  0  0  0  0  0  0
    0.3515    2.7183    0.0000 C   0  0  0  0  0  0  0  0  0  0  0  0
   -4.7091   -0.0539    0.0000 O   0  0  0  0  0  0  0  0  0  0  0  0
   -4.6911    2.8038    0.0000 O   0  0  0  0  0  0  0  0  0  0  0  0
   -3.0463    2.7976    0.0000 Cl  0  0  0  0  0  0  0  0  0  0  0  0
 11  7  2  0  0  0  0 
  4  7  1  0  0  0  0 
  5  6  2  0  0  0  0 
  6  1  1  0  0  0  0 
 12 13  2  0  0  0  0 
  7  8  1  0  0  0  0 
 13 14  1  0  0  0  0 
  1  2  2  0  0  0  0 
 14 15  2  0  0  0  0 
  3  4  2  0  0  0  0 
 15 16  1  0  0  0  0 
 16 17  2  0  0  0  0 
 17 12  1  0  0  0  0 
 11 12  1  0  0  0  0 
  4  5  1  0  0  0  0 
 15 18  1  0  0  0  0 
  2  3  1  0  0  0  0 
 18 19  1  0  0  0  0 
  8  9  2  0  0  0  0 
  3 20  1  0  0  0  0 
  9 10  1  0  0  0  0 
  1 21  1  0  0  0  0 
 10 11  1  0  0  0  0 
  6 22  1  0  0  0  0 
M  END