
  SciTegic12231509382D

 20 22  0  0  0  0            999 V2000
   -5.3930   -4.0074    0.0000 C   0  0
   -5.3930   -4.8330    0.0000 C   0  0
   -4.6799   -5.2395    0.0000 C   0  0
   -3.9711   -4.8330    0.0000 C   0  0
   -3.9711   -4.0074    0.0000 C   0  0
   -4.6799   -3.5884    0.0000 C   0  0
   -3.2561   -5.2447    0.0000 N   0  0
   -2.5400   -4.8350    0.0000 C   0  0
   -1.8252   -5.2467    0.0000 N   0  0
   -2.5388   -4.0095    0.0000 S   0  0
   -1.8240   -6.0698    0.0000 C   0  0
   -1.1131   -6.4856    0.0000 C   0  0
   -0.3947   -6.0753    0.0000 C   0  0
   -0.3915   -5.2488    0.0000 C   0  0
   -1.1068   -4.8327    0.0000 C   0  0
    0.3221   -6.4915    0.0000 C   0  0
    0.4036   -7.3130    0.0000 N   0  0
    1.2104   -7.4879    0.0000 C   0  0
    1.6248   -6.7746    0.0000 N   0  0
    1.0784   -6.1613    0.0000 C   0  0
  9 15  1  0
 11 12  1  0
 12 13  1  0
 13 14  1  0
 14 15  1  0
 19 20  1  0
  4  7  1  0
 17 18  1  0
  7  8  1  0
  1  2  1  0
  8  9  1  0
 16 17  1  0
 18 19  2  0
 20 16  2  0
 13 16  1  0
  1  6  1  0
  8 10  2  0
  9 11  1  0
  2  3  1  0
  3  4  1  0
  4  5  1  0
  5  6  1  0
M  END