
  SciTegic12231509382D

 42 46  0  0  0  0            999 V2000
   10.8742    1.8771    0.0000 C   0  0
   10.8742    1.0507    0.0000 N   0  0
   11.5882    0.6416    0.0000 C   0  0
   12.2981    1.0507    0.0000 C   0  0  2  0  0  0
   12.2981    1.8771    0.0000 C   0  0
   11.5882    2.2904    0.0000 C   0  0
   10.1615    0.6379    0.0000 C   0  0
    9.4472    1.0475    0.0000 O   0  0
   10.1634   -0.1886    0.0000 C   0  0
    9.4402   -0.6004    0.0000 C   0  0
   10.1549   -1.8369    0.0000 C   0  0
   10.8702   -1.4219    0.0000 C   0  0
    9.4390   -1.4215    0.0000 C   0  0
   10.8698   -0.5956    0.0000 C   0  0
   13.0080    1.4681    0.0000 C   0  0
   13.7227    1.0594    0.0000 C   0  0
   14.4307    2.2949    0.0000 C   0  0
   13.7117    2.7037    0.0000 C   0  0
   14.4295    1.4715    0.0000 C   0  0
   12.9998    2.2890    0.0000 C   0  0
   12.2911    0.2242    0.0000 C   0  0
   13.0032   -0.1925    0.0000 C   0  0
   12.9962   -1.0189    0.0000 C   0  0
   13.7041   -1.4396    0.0000 N   0  0
   13.6955   -2.2630    0.0000 C   0  0
   14.4014   -2.6836    0.0000 C   0  0
   15.1354   -2.2794    0.0000 C   0  0
   15.1300   -1.4555    0.0000 C   0  0
   14.4214   -1.0320    0.0000 C   0  0
   15.1187   -3.1052    0.0000 C   0  0
   14.4072   -3.5256    0.0000 C   0  0
   15.1147   -4.7514    0.0000 C   0  0
   15.8305   -4.3423    0.0000 C   0  0
   14.4043   -4.3390    0.0000 C   0  0
   15.8358   -3.5166    0.0000 C   0  0
   15.8332   -1.8610    0.0000 N   0  0
   16.5508   -2.2693    0.0000 C   0  0
   15.8292   -1.0388    0.0000 C   0  0
   16.5548   -3.0957    0.0000 C   0  0
   17.2644   -1.8553    0.0000 O   0  0
   15.1441    2.7092    0.0000 Cl  0  0
   15.1445    1.0600    0.0000 Cl  0  0
  1  2  1  0
  1  6  1  0
  2  3  1  0
  3  4  1  0
  4  5  1  0
  5  6  1  0
  2  7  1  0
  7  8  2  0
  7  9  1  0
  9 10  2  0
 11 12  1  0
  9 14  1  0
 10 13  1  0
 13 11  2  0
 12 14  2  0
  4 15  1  0
 15 16  2  0
 17 18  1  0
 15 20  1  0
 16 19  1  0
 19 17  2  0
 18 20  2  0
  4 21  1  1
 21 22  1  0
 22 23  1  0
 23 24  1  0
 24 25  1  0
 24 29  1  0
 25 26  1  0
 26 27  1  0
 27 28  1  0
 28 29  1  0
 27 30  1  0
 30 31  2  0
 32 33  1  0
 30 35  1  0
 31 34  1  0
 34 32  2  0
 33 35  2  0
 27 36  1  0
 36 37  1  0
 36 38  1  0
 37 39  1  0
 37 40  2  0
 19 42  1  0
 17 41  1  0
M  END