
  SciTegic01061414252D

 21 23  0  0  0  0            999 V2000
   20.6760   -3.3554    0.0000 C   0  0
   20.6749   -4.1749    0.0000 C   0  0
   21.3829   -4.5839    0.0000 N   0  0
   21.3811   -2.9465    0.0000 C   0  0
   22.0897   -3.3518    0.0000 C   0  0
   22.0905   -4.1708    0.0000 C   0  0
   22.7990   -4.5779    0.0000 C   0  0
   23.5073   -4.1671    0.0000 C   0  0
   23.5026   -3.3449    0.0000 C   0  0
   22.7934   -2.9416    0.0000 C   0  0
   21.3771   -2.1350    0.0000 N   0  0
   22.0854   -1.7255    0.0000 C   0  0
   22.0849   -0.9119    0.0000 C   0  0
   21.3778   -0.5016    0.0000 N   0  0
   20.6695   -0.9111    0.0000 C   0  0
   20.6683   -1.7309    0.0000 C   0  0
   19.9668   -4.5830    0.0000 C   0  0
   19.2594   -4.1738    0.0000 F   0  0
   19.9662   -5.4002    0.0000 F   0  0
   19.1710   -4.7917    0.0000 F   0  0
   24.2078   -2.9320    0.0000 C   0  0
  1  2  2  0
  2  3  1  0
  3  6  2  0
  5  4  2  0
  4  1  1  0
  5  6  1  0
  6  7  1  0
  7  8  2  0
  8  9  1  0
  9 10  2  0
 10  5  1  0
 11 12  1  0
 11 16  1  0
 12 13  1  0
 13 14  1  0
 14 15  1  0
 15 16  1  0
  4 11  1  0
  2 17  1  0
 17 18  1  0
 17 19  1  0
 17 20  1  0
  9 21  1  0
M  END