
  CDK    9/16/09,10:6

 30 33  0  0  0  0  0  0  0  0999 V2000
   11.8677   -0.5154    0.0000 N   0  0  0  0  0  0  0  0  0  0  0  0
   11.8671   -1.3413    0.0000 C   0  0  0  0  0  0  0  0  0  0  0  0
   11.1514   -1.7511    0.0000 C   0  0  0  0  0  0  0  0  0  0  0  0
   11.1504   -2.5762    0.0000 C   0  0  0  0  0  0  0  0  0  0  0  0
   11.8659   -2.9906    0.0000 N   0  0  0  0  0  0  0  0  0  0  0  0
   12.5838   -2.5737    0.0000 C   0  0  0  0  0  0  0  0  0  0  0  0
   12.5813   -1.7499    0.0000 C   0  0  0  0  0  0  0  0  0  0  0  0
   12.5833   -0.1030    0.0000 C   0  0  0  0  0  0  0  0  0  0  0  0
   12.5840    0.7229    0.0000 C   0  0  0  0  0  0  0  0  0  0  0  0
   13.2983   -0.5166    0.0000 O   0  0  0  0  0  0  0  0  0  0  0  0
   13.2996    1.1353    0.0000 N   0  0  0  0  0  0  0  0  0  0  0  0
   11.8690    1.1365    0.0000 C   0  0  0  0  0  0  0  0  0  0  0  0
   13.3002    1.9612    0.0000 C   0  0  0  0  0  0  0  0  0  0  0  0
   14.0158    2.3737    0.0000 C   0  0  0  0  0  0  0  0  0  0  0  0
   12.5853    2.3748    0.0000 O   0  0  0  0  0  0  0  0  0  0  0  0
   14.7307    1.9577    0.0000 C   0  0  0  0  0  0  0  0  0  0  0  0
   15.4441    2.3666    0.0000 C   0  0  0  0  0  0  0  0  0  0  0  0
   15.4491    3.1929    0.0000 C   0  0  0  0  0  0  0  0  0  0  0  0
   14.7343    3.6085    0.0000 C   0  0  0  0  0  0  0  0  0  0  0  0
   14.0146    3.1981    0.0000 C   0  0  0  0  0  0  0  0  0  0  0  0
   16.1662    3.6025    0.0000 C   0  0  0  0  0  0  0  0  0  0  0  0
   11.1534    0.7240    0.0000 C   0  0  0  0  0  0  0  0  0  0  0  0
   10.2631   -0.2676    0.0000 N   0  0  0  0  0  0  0  0  0  0  0  0
   11.0710   -0.0964    0.0000 C   0  0  0  0  0  0  0  0  0  0  0  0
    9.8506    0.4481    0.0000 C   0  0  0  0  0  0  0  0  0  0  0  0
   10.4033    1.0564    0.0000 C   0  0  0  0  0  0  0  0  0  0  0  0
   10.1525    1.8371    0.0000 C   0  0  0  0  0  0  0  0  0  0  0  0
    9.3494    2.0106    0.0000 C   0  0  0  0  0  0  0  0  0  0  0  0
    8.7976    1.3973    0.0000 C   0  0  0  0  0  0  0  0  0  0  0  0
    9.0513    0.6190    0.0000 C   0  0  0  0  0  0  0  0  0  0  0  0
 13 15  2  0  0  0  0 
 14 16  1  0  0  0  0 
  3  4  1  0  0  0  0 
  1  8  1  0  0  0  0 
  8  9  1  0  0  0  0 
  4  5  2  0  0  0  0 
 14 20  1  0  0  0  0 
 16 17  1  0  0  0  0 
 17 18  1  0  0  0  0 
 18 19  1  0  0  0  0 
 19 20  1  0  0  0  0 
  8 10  2  0  0  0  0 
 18 21  1  0  0  0  0 
  2  3  2  0  0  0  0 
 12 22  1  0  0  0  0 
 22 26  1  0  0  0  0 
  9 11  1  0  0  0  0 
  5  6  1  0  0  0  0 
 25 23  1  0  0  0  0 
 23 24  1  0  0  0  0 
 24 22  2  0  0  0  0 
  9 12  1  0  0  0  0 
  1  2  1  0  0  0  0 
 25 26  2  0  0  0  0 
 11 13  1  0  0  0  0 
 26 27  1  0  0  0  0 
  6  7  2  0  0  0  0 
 27 28  2  0  0  0  0 
 13 14  1  0  0  0  0 
 28 29  1  0  0  0  0 
  7  2  1  0  0  0  0 
 29 30  2  0  0  0  0 
 30 25  1  0  0  0  0 
M  END