
  CDK    9/16/09,9:56

 25 28  0  0  0  0  0  0  0  0999 V2000
   -4.7939   -7.5118    0.0000 C   0  0  0  0  0  0  0  0  0  0  0  0
   -4.7939   -8.3412    0.0000 C   0  0  0  0  0  0  0  0  0  0  0  0
   -4.0795   -8.7537    0.0000 N   0  0  0  0  0  0  0  0  0  0  0  0
   -3.3605   -8.3412    0.0000 C   0  0  0  0  0  0  0  0  0  0  0  0
   -3.3605   -7.5118    0.0000 C   0  0  0  0  0  0  0  0  0  0  0  0
   -4.0795   -7.0947    0.0000 O   0  0  0  0  0  0  0  0  0  0  0  0
   -2.6456   -7.1000    0.0000 C   0  0  0  0  0  0  0  0  0  0  0  0
   -1.9316   -7.5132    0.0000 O   0  0  0  0  0  0  0  0  0  0  0  0
   -1.2168   -7.1014    0.0000 C   0  0  0  0  0  0  0  0  0  0  0  0
   -0.5060   -7.5185    0.0000 C   0  0  0  0  0  0  0  0  0  0  0  0
    0.2084   -7.1073    0.0000 C   0  0  0  0  0  0  0  0  0  0  0  0
    0.2097   -6.2815    0.0000 C   0  0  0  0  0  0  0  0  0  0  0  0
   -0.5094   -5.8684    0.0000 C   0  0  0  0  0  0  0  0  0  0  0  0
   -1.2208   -6.2819    0.0000 C   0  0  0  0  0  0  0  0  0  0  0  0
   -4.0807   -9.5787    0.0000 C   0  0  0  0  0  0  0  0  0  0  0  0
   -4.7474  -10.0674    0.0000 C   0  0  0  0  0  0  0  0  0  0  0  0
   -4.4935  -10.8523    0.0000 C   0  0  0  0  0  0  0  0  0  0  0  0
   -3.6684  -10.8534    0.0000 C   0  0  0  0  0  0  0  0  0  0  0  0
   -3.4126  -10.0692    0.0000 C   0  0  0  0  0  0  0  0  0  0  0  0
    0.9240   -5.8688    0.0000 C   0  0  0  0  0  0  0  0  0  0  0  0
    1.6386   -6.2810    0.0000 N   0  0  0  0  0  0  0  0  0  0  0  0
    1.7269   -7.0989    0.0000 C   0  0  0  0  0  0  0  0  0  0  0  0
    2.5340   -7.2701    0.0000 C   0  0  0  0  0  0  0  0  0  0  0  0
    2.9462   -6.5555    0.0000 C   0  0  0  0  0  0  0  0  0  0  0  0
    2.3939   -5.9427    0.0000 C   0  0  0  0  0  0  0  0  0  0  0  0
  5  6  1  0  0  0  0 
 12 13  1  0  0  0  0 
 13 14  2  0  0  0  0 
 14  9  1  0  0  0  0 
  5  7  1  0  0  0  0 
  3 15  1  0  0  0  0 
 15 16  1  0  0  0  0 
  1  2  1  0  0  0  0 
  7  8  1  0  0  0  0 
  1  6  1  0  0  0  0 
  8  9  1  0  0  0  0 
 16 17  1  0  0  0  0 
 17 18  1  0  0  0  0 
 18 19  1  0  0  0  0 
 19 15  1  0  0  0  0 
  2  3  1  0  0  0  0 
 12 20  1  0  0  0  0 
  9 10  2  0  0  0  0 
 20 21  1  0  0  0  0 
 21 22  1  0  0  0  0 
  3  4  1  0  0  0  0 
 10 11  1  0  0  0  0 
  4  5  1  0  0  0  0 
 11 12  2  0  0  0  0 
 22 23  1  0  0  0  0 
 23 24  1  0  0  0  0 
 24 25  1  0  0  0  0 
 25 21  1  0  0  0  0 
M  END