
  SciTegic05161214222D

 51 55  0  0  0  0            999 V2000
    2.3944  -28.6207    0.0000 N   0  3
    2.4804  -29.4410    0.0000 C   0  0
    3.2873  -29.6131    0.0000 C   0  0
    3.7003  -28.8988    0.0000 C   0  0
    3.1486  -28.2854    0.0000 C   0  0
   -1.1708  -28.2167    0.0000 C   0  0
   -1.1708  -29.0417    0.0000 C   0  0
   -0.4588  -29.4500    0.0000 O   0  0
    0.2532  -29.0417    0.0000 C   0  0
    0.2532  -28.2167    0.0000 C   0  0
   -0.4588  -27.8000    0.0000 C   0  0
   -1.8885  -27.8114    0.0000 S   0  0
   -2.2968  -28.5283    0.0000 O   0  0
   -1.4719  -28.5235    0.0000 O   0  0
   -4.7556  -22.8750    0.0000 C   0  0
   -4.7568  -23.7023    0.0000 C   0  0
   -4.0419  -24.1152    0.0000 C   0  0
   -4.0437  -22.4622    0.0000 C   0  0
   -3.3284  -22.8713    0.0000 C   0  0
   -3.3276  -23.6982    0.0000 C   0  0
   -2.6123  -24.1091    0.0000 N   0  0
   -1.8973  -23.6944    0.0000 C   0  0
   -1.9020  -22.8644    0.0000 C   0  0
   -2.6179  -22.4572    0.0000 C   0  0
   -1.1812  -24.1041    0.0000 C   0  0
   -2.6223  -21.6322    0.0000 C   0  0
   -4.0400  -24.9402    0.0000 O   0  0
   -3.3246  -25.3510    0.0000 C   0  0
   -3.3227  -26.1760    0.0000 C   0  0
   -4.0388  -26.5858    0.0000 C   0  0
   -4.0372  -27.4101    0.0000 C   0  0
   -3.3213  -27.8217    0.0000 C   0  0
   -2.6054  -27.4031    0.0000 C   0  0
   -2.6105  -26.5803    0.0000 C   0  0
   -4.7529  -26.1726    0.0000 Cl  0  0
   -1.8988  -26.1629    0.0000 Cl  0  0
   -1.1765  -27.3948    0.0000 N   0  0
    0.2524  -27.3864    0.0000 C   0  0
    0.9682  -27.7967    0.0000 N   0  0
    0.2499  -26.5614    0.0000 O   0  0
    0.9671  -28.6217    0.0000 C   0  0
    1.6787  -29.0319    0.0000 C   0  0
    2.3938  -27.7948    0.0000 C   0  0
    1.6776  -27.3800    0.0000 C   0  0
    2.0347  -26.8988    0.0000 F   0  0
    2.7491  -26.4863    0.0000 C   0  0
    3.4636  -26.8988    0.0000 F   0  0
    2.7430  -27.3071    0.0000 F   0  0
    2.7522  -25.6613    0.0000 C   0  0
    3.4682  -25.2515    0.0000 O   0  5
    2.0393  -25.2461    0.0000 O   0  0
 10 11  1  0
 22 23  1  0
 13 12  2  0
 23 24  2  0
 24 19  1  0
 12 14  2  0
 22 25  1  0
  6  7  1  0
 24 26  1  0
 17 27  1  0
  1  2  1  0
 27 28  1  0
  2  3  1  0
 28 29  1  0
  3  4  1  0
 29 30  2  0
 15 16  2  0
 30 31  1  0
  4  5  1  0
 31 32  2  0
 16 17  1  0
 32 33  1  0
 17 20  2  0
 33 34  2  0
 34 29  1  0
  5  1  1  0
 30 35  1  0
 19 18  2  0
 34 36  1  0
 33 12  1  0
 18 15  1  0
 12 37  1  0
 37 11  1  0
  6 11  1  0
 11 38  1  0
  7  8  1  0
 38 39  1  0
 19 20  1  0
 38 40  2  0
 39 41  1  0
  8  9  1  0
 20 21  1  0
  9 10  1  0
 21 22  2  0
 39 44  1  0
 41 42  1  0
 42  1  1  0
  1 43  1  0
 43 44  1  0
 45 46  1  0
 46 48  1  0
 46 49  1  0
 46 47  1  0
 49 50  1  0
 49 51  2  0
M  CHG  2   1   1  50  -1
M  END