
          11280715042D 1   1.00000     0.00000     0

 20 21  0     0  0            999 V2000
    1.3292    0.1875    0.0000 S   0  0  3  0  0  0           0  0  0
   -2.3583    0.0333    0.0000 N   0  0  0  0  0  0           0  0  0
    1.8667   -0.0875    0.0000 C   0  0  0  0  0  0           0  0  0
   -2.3125    1.0000    0.0000 N   0  0  0  0  0  0           0  0  0
   -2.6875    0.5333    0.0000 C   0  0  0  0  0  0           0  0  0
   -1.7833    0.1875    0.0000 C   0  0  0  0  0  0           0  0  0
    0.9792    0.8958    0.0000 O   0  0  0  0  0  0           0  0  0
    1.6667    0.8958    0.0000 O   0  0  0  0  0  0           0  0  0
    0.8125   -0.1125    0.0000 N   0  0  0  0  0  0           0  0  0
   -1.7500    0.7875    0.0000 C   0  0  0  0  0  0           0  0  0
    2.3667    0.2250    0.0000 C   0  0  0  0  0  0           0  0  0
    1.8917   -0.6667    0.0000 C   0  0  0  0  0  0           0  0  0
    2.4167   -0.9417    0.0000 C   0  0  0  0  0  0           0  0  0
    2.9000   -0.0500    0.0000 C   0  0  0  0  0  0           0  0  0
    2.9292   -0.6292    0.0000 C   0  0  0  0  0  0           0  0  0
   -1.2625   -0.1125    0.0000 C   0  0  0  0  0  0           0  0  0
    0.2917    0.1875    0.0000 C   0  0  0  0  0  0           0  0  0
    3.4542   -0.9167    0.0000 C   0  0  0  0  0  0           0  0  0
   -0.7458    0.1875    0.0000 C   0  0  0  0  0  0           0  0  0
   -0.2250   -0.1125    0.0000 C   0  0  0  0  0  0           0  0  0
  2  6  1  0     0  0
  3  1  1  0     0  0
  4 10  1  0     0  0
  5  2  2  0     0  0
  6 16  1  0     0  0
  7  1  2  0     0  0
  8  1  2  0     0  0
  9  1  1  0     0  0
 10  6  2  0     0  0
 11  3  2  0     0  0
 12  3  1  0     0  0
 13 12  2  0     0  0
 14 11  1  0     0  0
 15 13  1  0     0  0
 16 19  1  0     0  0
 17  9  1  0     0  0
 18 15  1  0     0  0
 19 20  1  0     0  0
 20 17  1  0     0  0
 14 15  2  0     0  0
  4  5  1  0     0  0
M  END