
          11280715522D 1   1.00000     0.00000     0

 35 37  0     0  0            999 V2000
   -2.6930  -12.3390    0.0000 C   0  0  0  0  0  0           0  0  0
   -1.9773  -12.7456    0.0000 C   0  0  0  0  0  0           0  0  0
   -1.2694  -12.3292    0.0000 C   0  0  0  0  0  0           0  0  0
   -1.2760  -11.5062    0.0000 C   0  0  0  0  0  0           0  0  0
   -1.9965  -11.1015    0.0000 C   0  0  0  0  0  0           0  0  0
   -2.7014  -11.5203    0.0000 C   0  0  0  0  0  0           0  0  0
   -3.4205  -11.1160    0.0000 O   0  0  0  0  0  0           0  0  0
   -3.4299  -10.2910    0.0000 C   0  0  0  0  0  0           0  0  0
   -4.1490   -9.8867    0.0000 C   0  0  0  0  0  0           0  0  0
   -4.1584   -9.0617    0.0000 O   0  0  0  0  0  0           0  0  0
   -4.8775   -8.6573    0.0000 C   0  0  0  0  0  0           0  0  0
   -4.8869   -7.8324    0.0000 C   0  0  3  0  0  0           0  0  0
   -4.4869   -7.1155    0.0000 C   0  0  0  0  0  0           0  0  0
   -5.3119   -7.1248    0.0000 C   0  0  0  0  0  0           0  0  0
   -0.5657  -11.0866    0.0000 C   0  0  0  0  0  0           0  0  0
    0.1426  -10.6630    0.0000 N   0  0  0  0  0  0           0  0  0
   -0.5516  -12.7358    0.0000 O   0  0  0  0  0  0           0  0  0
    0.1595  -12.3175    0.0000 C   0  0  0  0  0  0           0  0  0
    0.8773  -12.7242    0.0000 C   0  0  3  0  0  0           0  0  0
    1.5884  -12.3059    0.0000 C   0  0  0  0  0  0           0  0  0
    0.8840  -13.5492    0.0000 O   0  0  0  0  0  0           0  0  0
    2.3062  -12.7126    0.0000 N   0  0  0  0  0  0           0  0  0
    3.0173  -12.2943    0.0000 C   0  0  0  0  0  0           0  0  0
    3.7351  -12.7010    0.0000 C   0  0  0  0  0  0           0  0  0
    4.4462  -12.2827    0.0000 N   0  0  0  0  0  0           0  0  0
    5.1640  -12.6894    0.0000 C   0  0  0  0  0  0           0  0  0
    5.8751  -12.2711    0.0000 N   0  0  0  0  0  0           0  0  0
    5.1707  -13.5144    0.0000 O   0  0  0  0  0  0           0  0  0
    6.5929  -12.6778    0.0000 C   0  0  0  0  0  0           0  0  0
    6.5953  -13.4998    0.0000 C   0  0  0  0  0  0           0  0  0
    7.3123  -13.9064    0.0000 C   0  0  0  0  0  0           0  0  0
    8.0244  -13.4880    0.0000 C   0  0  0  0  0  0           0  0  0
    8.0150  -12.6588    0.0000 C   0  0  0  0  0  0           0  0  0
    7.2975  -12.2560    0.0000 C   0  0  0  0  0  0           0  0  0
    8.7427  -13.8938    0.0000 O   0  0  0  0  0  0           0  0  0
  3 17  1  0     0  0
 17 18  1  0     0  0
  8  9  1  0     0  0
 18 19  1  0     0  0
  4  5  1  0     0  0
 19 20  1  0     0  0
  9 10  1  0     0  0
 19 21  1  0     0  0
  2  3  1  0     0  0
 20 22  1  0     0  0
 10 11  1  0     0  0
 22 23  1  0     0  0
  5  6  2  0     0  0
 23 24  1  0     0  0
 11 12  1  0     0  0
 24 25  1  0     0  0
 13 12  1  0     0  0
 25 26  1  0     0  0
 14 13  1  0     0  0
 26 27  1  0     0  0
 12 14  1  0     0  0
 26 28  2  0     0  0
  6  1  1  0     0  0
 27 29  1  0     0  0
  1  2  2  0     0  0
 29 30  2  0     0  0
  6  7  1  0     0  0
 30 31  1  0     0  0
  4 15  1  0     0  0
 31 32  2  0     0  0
  3  4  2  0     0  0
 32 33  1  0     0  0
 15 16  3  0     0  0
 33 34  2  0     0  0
 34 29  1  0     0  0
  7  8  1  0     0  0
 32 35  1  0     0  0
M  END