
  SciTegic12171313032D

 26 28  0  0  0  0            999 V2000
   34.2463  -17.2972    0.0000 C   0  0
   34.2452  -18.1167    0.0000 C   0  0
   34.9532  -18.5257    0.0000 N   0  0
   35.6629  -18.1162    0.0000 C   0  0
   35.6601  -17.2936    0.0000 C   0  0
   34.9514  -16.8883    0.0000 N   0  0
   36.3712  -18.5237    0.0000 N   0  0
   36.3662  -16.8823    0.0000 N   0  0
   36.3631  -16.0651    0.0000 C   0  0  1  0  0  0
   37.0693  -15.6539    0.0000 C   0  0
   35.6539  -15.6592    0.0000 C   0  0
   37.7738  -16.0633    0.0000 C   0  0
   38.4795  -15.6528    0.0000 C   0  0
   38.4769  -14.8347    0.0000 C   0  0
   37.7626  -14.4290    0.0000 C   0  0
   37.0599  -14.8419    0.0000 C   0  0
   33.5406  -16.8889    0.0000 C   0  0
   33.5417  -16.0706    0.0000 C   0  0
   32.8348  -15.6623    0.0000 C   0  0
   32.1262  -16.0711    0.0000 C   0  0
   32.1290  -16.8925    0.0000 C   0  0
   32.8365  -17.2972    0.0000 C   0  0
   31.4209  -17.3016    0.0000 C   0  0
   30.7117  -16.8957    0.0000 O   0  0
   31.4240  -18.1188    0.0000 O   0  0
   39.1825  -14.4225    0.0000 Cl  0  0
  1  2  2  0
  2  3  1  0
  3  4  2  0
  4  5  1  0
  5  6  2  0
  6  1  1  0
  4  7  1  0
  5  8  1  0
  8  9  1  0
  9 10  1  0
  9 11  1  6
 10 12  2  0
 12 13  1  0
 13 14  2  0
 14 15  1  0
 15 16  2  0
 16 10  1  0
 17 18  2  0
 18 19  1  0
 19 20  2  0
 20 21  1  0
 21 22  2  0
 22 17  1  0
  1 17  1  0
 23 24  1  0
 23 25  2  0
 21 23  1  0
 14 26  1  0
M  END