
  SciTegic05171617282D

 34 37  0  0  0  0            999 V2000
   -3.6486    1.3517    0.0000 C   0  0
   -2.6111    0.7486    0.0000 N   0  0
   -2.6111   -0.7486    0.0000 C   0  0
   -1.2964   -1.4973    0.0000 C   0  0
    0.0000   -0.7486    0.0000 C   0  0
    1.2964   -1.4973    0.0000 C   0  0
    2.5929   -0.7486    0.0000 C   0  0
    3.8942   -1.4964    0.0000 N   0  0
    5.1929   -0.7441    0.0000 C   0  0
    6.4946   -1.4896    0.0000 N   0  0
    7.7910   -0.7351    0.0000 C   0  0
    7.7858    0.7649    0.0000 C   0  0
    6.4842    1.5104    0.0000 C   0  0
    6.4759    3.0112    0.0000 C   0  0
    5.1725    3.7553    0.0000 C   0  0
    5.1642    5.2561    0.0000 C   0  0
    6.4607    6.0107    0.0000 C   0  0
    6.4554    7.5107    0.0000 C   0  0
    5.1538    8.2562    0.0000 C   0  0
    3.8574    7.5016    0.0000 C   0  0
    3.8626    6.0016    0.0000 C   0  0
    2.5639    5.2494    0.0000 C   0  0
    1.2626    5.9972    0.0000 C   0  0
    1.2606    7.1972    0.0000 N   0  0
    0.2242    5.3957    0.0000 O   0  0
    5.1877    0.7559    0.0000 N   0  0
    9.0830    1.5198    0.0000 C   0  0
   10.1246    0.9241    0.0000 F   0  0
    9.0784    2.7198    0.0000 F   0  0
   10.1198    2.1239    0.0000 F   0  0
    2.5929    0.7486    0.0000 C   0  0
    1.2964    1.4973    0.0000 C   0  0
    0.0000    0.7486    0.0000 C   0  0
   -1.2964    1.4973    0.0000 C   0  0
  1  2  1  0
  2  3  1  0
  3  4  1  0
  4  5  1  0
  5  6  2  0
  6  7  1  0
  7  8  1  0
  8  9  1  0
  9 10  2  0
 10 11  1  0
 11 12  2  0
 12 13  1  0
 13 14  1  0
 14 15  1  0
 15 16  1  0
 16 17  2  0
 17 18  1  0
 18 19  2  0
 19 20  1  0
 20 21  2  0
 16 21  1  0
 21 22  1  0
 22 23  1  0
 23 24  1  0
 23 25  2  0
 13 26  2  0
  9 26  1  0
 12 27  1  0
 27 28  1  0
 27 29  1  0
 27 30  1  0
  7 31  2  0
 31 32  1  0
 32 33  2  0
  5 33  1  0
 33 34  1  0
  2 34  1  0
M  END