
  SciTegic04091416462D

 37 38  0  0  0  0            999 V2000
    2.3455  -31.1781    0.0000 S   0  0
    3.1384  -30.9499    0.0000 C   0  0
    3.1683  -30.1253    0.0000 C   0  0
    2.3905  -29.8426    0.0000 N   0  0
    1.8860  -30.4943    0.0000 C   0  0
    1.0614  -30.4667    0.0000 C   0  0
    3.8525  -29.6642    0.0000 C   0  0
    0.6732  -29.7388    0.0000 C   0  0
    0.6253  -31.1669    0.0000 C   0  0
    4.5937  -30.0264    0.0000 N   0  0
    5.2777  -29.5654    0.0000 C   0  0
    4.6003  -30.8514    0.0000 C   0  0
    6.0192  -29.9273    0.0000 N   0  0
    5.2750  -28.7404    0.0000 O   0  0
    6.7274  -29.5041    0.0000 C   0  0  2  0  0  0
    7.4480  -29.9059    0.0000 C   0  0
    6.7150  -28.6792    0.0000 C   0  0
    7.4233  -28.2561    0.0000 C   0  0
    5.9944  -28.2775    0.0000 C   0  0
    7.4603  -30.7308    0.0000 O   0  0
    8.1562  -29.4827    0.0000 N   0  0
    8.8767  -29.8845    0.0000 C   0  0  2  0  0  0
    9.5849  -29.4613    0.0000 C   0  0
    8.8891  -30.7094    0.0000 C   0  0
   10.3055  -29.8631    0.0000 C   0  0
   11.0137  -29.4399    0.0000 C   0  0  2  0  0  0
   11.0014  -28.6150    0.0000 C   0  0
   11.7341  -29.8417    0.0000 N   0  0
   12.4523  -29.4358    0.0000 C   0  0
   13.1630  -29.8548    0.0000 O   0  0
   12.4599  -28.6108    0.0000 O   0  0
   13.8813  -29.4489    0.0000 C   0  0
   14.5919  -29.8680    0.0000 C   0  0
   14.6699  -30.6875    0.0000 C   0  0
   15.4753  -30.8664    0.0000 N   0  0
   15.8943  -30.1558    0.0000 C   0  0
   15.3478  -29.5377    0.0000 S   0  0
  1  2  1  0
  2  3  2  0
  3  4  1  0
  4  5  2  0
  5  1  1  0
  5  6  1  0
  3  7  1  0
  6  8  1  0
  6  9  1  0
  7 10  1  0
 10 11  1  0
 10 12  1  0
 11 13  1  0
 11 14  2  0
 13 15  1  0
 15 16  1  0
 15 17  1  1
 17 18  1  0
 17 19  1  0
 16 20  2  0
 16 21  1  0
 21 22  1  0
 22 23  1  0
 22 24  1  6
 23 25  1  0
 25 26  1  0
 26 27  1  6
 26 28  1  0
 28 29  1  0
 29 30  1  0
 29 31  2  0
 30 32  1  0
 32 33  1  0
 33 34  2  0
 34 35  1  0
 35 36  2  0
 36 37  1  0
 37 33  1  0
M  END