
  CDK    6/4/10,11:41

 34 37  0  0  0  0  0  0  0  0999 V2000
    8.3736  -11.9500    0.0000 C   0  0  0  0  0  0  0  0  0  0  0  0
    8.3724  -12.7773    0.0000 C   0  0  0  0  0  0  0  0  0  0  0  0
    9.0872  -13.1902    0.0000 C   0  0  0  0  0  0  0  0  0  0  0  0
    9.8037  -12.7769    0.0000 C   0  0  0  0  0  0  0  0  0  0  0  0
    9.8008  -11.9463    0.0000 C   0  0  0  0  0  0  0  0  0  0  0  0
    9.0854  -11.5372    0.0000 C   0  0  0  0  0  0  0  0  0  0  0  0
   10.5137  -11.5311    0.0000 C   0  0  0  0  0  0  0  0  0  0  0  0
   11.2297  -11.9409    0.0000 N   0  0  0  0  0  0  0  0  0  0  0  0
   10.5106  -10.7061    0.0000 O   0  0  0  0  0  0  0  0  0  0  0  0
   11.3228  -12.7600    0.0000 N   0  0  0  0  0  0  0  0  0  0  0  0
   12.1304  -12.9285    0.0000 C   0  0  0  0  0  0  0  0  0  0  0  0
   12.5402  -12.2124    0.0000 C   0  0  0  0  0  0  0  0  0  0  0  0
   11.9858  -11.6015    0.0000 C   0  0  0  0  0  0  0  0  0  0  0  0
   12.1545  -10.7940    0.0000 O   0  0  0  0  0  0  0  0  0  0  0  0
   12.4688  -13.6809    0.0000 C   0  0  0  0  0  0  0  0  0  0  0  0
   13.3647  -12.2021    0.0000 N   0  0  0  0  0  0  0  0  0  0  0  0
   13.7864  -12.9112    0.0000 N   0  0  0  0  0  0  0  0  0  0  0  0
   14.6113  -12.9006    0.0000 C   0  0  0  0  0  0  0  0  0  0  0  0
   15.0282  -13.6099    0.0000 C   0  0  0  0  0  0  0  0  0  0  0  0
   15.8524  -13.5997    0.0000 C   0  0  0  0  0  0  0  0  0  0  0  0
   16.2565  -12.8794    0.0000 C   0  0  0  0  0  0  0  0  0  0  0  0
   15.8304  -12.1680    0.0000 C   0  0  0  0  0  0  0  0  0  0  0  0
   15.0077  -12.1817    0.0000 C   0  0  0  0  0  0  0  0  0  0  0  0
   17.0814  -12.8677    0.0000 S   0  0  0  0  0  0  0  0  0  0  0  0
   17.9042  -12.8667    0.0000 N   0  0  0  0  0  0  0  0  0  0  0  0
   17.0751  -12.0428    0.0000 O   0  0  0  0  0  0  0  0  0  0  0  0
   17.0901  -13.6927    0.0000 O   0  0  0  0  0  0  0  0  0  0  0  0
   18.3176  -13.5806    0.0000 C   0  0  0  0  0  0  0  0  0  0  0  0
   17.9030  -14.2935    0.0000 N   0  0  0  0  0  0  0  0  0  0  0  0
   18.3157  -15.0069    0.0000 C   0  0  0  0  0  0  0  0  0  0  0  0
   19.1416  -15.0063    0.0000 C   0  0  0  0  0  0  0  0  0  0  0  0
   19.5530  -14.2862    0.0000 C   0  0  0  0  0  0  0  0  0  0  0  0
   19.1379  -13.5757    0.0000 N   0  0  0  0  0  0  0  0  0  0  0  0
    7.6576  -13.1893    0.0000 O   0  0  0  0  0  0  0  0  0  0  0  0
  7  8  1  0  0  0  0 
 16 17  2  0  0  0  0 
 17 18  1  0  0  0  0 
  7  9  2  0  0  0  0 
 18 19  2  0  0  0  0 
  8 10  1  0  0  0  0 
 19 20  1  0  0  0  0 
  4  5  1  0  0  0  0 
 20 21  2  0  0  0  0 
  2  3  1  0  0  0  0 
 21 22  1  0  0  0  0 
  5  6  2  0  0  0  0 
 22 23  2  0  0  0  0 
 23 18  1  0  0  0  0 
  6  1  1  0  0  0  0 
 21 24  1  0  0  0  0 
 10 11  2  0  0  0  0 
 24 25  1  0  0  0  0 
 11 12  1  0  0  0  0 
 24 26  2  0  0  0  0 
 12 13  1  0  0  0  0 
 24 27  2  0  0  0  0 
 13  8  1  0  0  0  0 
 25 28  1  0  0  0  0 
  1  2  2  0  0  0  0 
 28 29  2  0  0  0  0 
 13 14  2  0  0  0  0 
 29 30  1  0  0  0  0 
  5  7  1  0  0  0  0 
 30 31  2  0  0  0  0 
 11 15  1  0  0  0  0 
 31 32  1  0  0  0  0 
  3  4  2  0  0  0  0 
 32 33  2  0  0  0  0 
 33 28  1  0  0  0  0 
 12 16  1  0  0  0  0 
  2 34  1  0  0  0  0 
M  END