
  SciTegic12201615522D

 32 31  0  0  0  0            999 V2000
   15.5999    0.0000    0.0000 N   0  0
   14.2999    0.7500    0.0000 C   0  0  2  0  0  0
   12.9999    0.0000    0.0000 C   0  0
   14.2999    1.9500    0.0000 C   0  0
   12.9999   -1.2000    0.0000 O   0  0
   11.6999    0.7500    0.0000 O   0  0
   10.3999    0.0000    0.0000 C   0  0  2  0  0  0
    9.0999    0.7500    0.0000 C   0  0
   10.3968   -1.5008    0.0000 C   0  0
    9.3567   -2.0994    0.0000 C   0  0
   11.4350   -2.1026    0.0000 C   0  0
    7.7999    0.0000    0.0000 N   0  0
    9.0999    1.9500    0.0000 O   0  0
    6.5000    0.7500    0.0000 C   0  0  2  0  0  0
    5.2000    0.0000    0.0000 C   0  0
    6.5000    1.9500    0.0000 C   0  0
    5.2000   -1.2000    0.0000 O   0  0
    3.9000    0.7500    0.0000 O   0  0
    2.6000    0.0000    0.0000 C   0  0  2  0  0  0
    1.3000    0.7500    0.0000 C   0  0
    2.5969   -1.5008    0.0000 C   0  0
    1.5568   -2.0994    0.0000 C   0  0
    3.6351   -2.1026    0.0000 C   0  0
    1.3000    1.9500    0.0000 O   0  0
    0.2606    0.1503    0.0000 O   0  0
   16.8999    0.7500    0.0000 C   0  0
   18.1999    0.0000    0.0000 O   0  0
   16.8999    1.9500    0.0000 O   0  0
   19.4998    0.7500    0.0000 C   0  0
   20.5393    0.1503    0.0000 C   0  0
   19.4998    1.9500    0.0000 C   0  0
   20.5390    1.3502    0.0000 C   0  0
  1  2  1  0
  2  3  1  0
  2  4  1  6
  3  5  2  0
  3  6  1  0
  6  7  1  0
  7  8  1  0
  7  9  1  1
  9 10  1  0
  9 11  1  0
  8 12  1  0
  8 13  2  0
 12 14  1  0
 14 15  1  0
 14 16  1  6
 15 17  2  0
 15 18  1  0
 18 19  1  0
 19 20  1  0
 19 21  1  1
 21 22  1  0
 21 23  1  0
 20 24  1  0
 20 25  2  0
  1 26  1  0
 26 27  1  0
 26 28  2  0
 27 29  1  0
 29 30  1  0
 29 31  1  0
 29 32  1  0
M  END