
  SciTegic02131210002D

 30 32  0  0  0  0            999 V2000
    9.4208  -13.5458    0.0000 O   0  0
    9.8375  -12.8333    0.0000 S   0  0
    9.0121  -12.8287    0.0000 O   0  0
    6.9958   -9.5333    0.0000 C   0  0
    6.9958  -10.3583    0.0000 C   0  0
    7.7079  -10.7667    0.0000 N   0  0
    8.4199  -10.3583    0.0000 C   0  0
    8.4199   -9.5333    0.0000 N   0  0
    7.7079   -9.1167    0.0000 C   0  0
    9.1319  -10.7708    0.0000 C   0  0
    9.1294  -11.5969    0.0000 C   0  0
    9.8424  -12.0104    0.0000 C   0  0
   10.5584  -11.5988    0.0000 C   0  0
   10.5570  -10.7696    0.0000 C   0  0
    9.8434  -10.3599    0.0000 C   0  0
   10.5545  -13.2492    0.0000 N   0  0
   10.5506  -14.0715    0.0000 C   0  0
   11.2601  -14.4852    0.0000 C   0  0
   11.9778  -14.0776    0.0000 N   0  0
   11.9814  -13.2517    0.0000 C   0  0
   11.2673  -12.8333    0.0000 C   0  0
    7.7079   -8.2917    0.0000 O   0  0
    6.2820  -10.7719    0.0000 C   0  0
    6.2832  -11.5969    0.0000 C   0  0
    9.8423   -9.5349    0.0000 O   0  0
   10.5562   -9.1214    0.0000 C   0  0
   11.2712   -9.5330    0.0000 C   0  0
   11.9852   -9.1196    0.0000 C   0  0
   12.6899  -14.4942    0.0000 C   0  0
    6.2802   -9.1229    0.0000 F   0  0
  7 10  1  0
 12  2  1  0
  6  7  2  0
  2 16  1  0
 16 17  1  0
  7  8  1  0
  8  9  1  0
  3  2  2  0
  4  5  2  0
 10 11  2  0
 16 21  1  0
 17 18  1  0
 18 19  1  0
 19 20  1  0
 20 21  1  0
  9 22  2  0
 11 12  1  0
  5 23  1  0
  2  1  2  0
 23 24  1  0
 12 13  2  0
 15 25  1  0
  4  9  1  0
 25 26  1  0
 13 14  1  0
 26 27  1  0
  5  6  1  0
 27 28  1  0
 14 15  2  0
 19 29  1  0
 15 10  1  0
  4 30  1  0
M  END