
  CDK    12/20/10,15:21

 38 43  0  0  0  0  0  0  0  0999 V2000
   19.3111   -3.8208    0.0000 C   0  0  0  0  0  0  0  0  0  0  0  0
   19.3099   -4.6482    0.0000 C   0  0  0  0  0  0  0  0  0  0  0  0
   20.0247   -5.0610    0.0000 C   0  0  0  0  0  0  0  0  0  0  0  0
   20.7412   -4.6477    0.0000 C   0  0  0  0  0  0  0  0  0  0  0  0
   20.7383   -3.8172    0.0000 N   0  0  0  0  0  0  0  0  0  0  0  0
   20.0229   -3.4080    0.0000 C   0  0  0  0  0  0  0  0  0  0  0  0
   18.5951   -5.0601    0.0000 C   0  0  0  0  0  0  0  0  0  0  0  0
   17.8810   -4.6470    0.0000 N   0  0  0  0  0  0  0  0  0  0  0  0
   17.8856   -3.8178    0.0000 C   0  0  0  0  0  0  0  0  0  0  0  0
   17.1756   -3.4049    0.0000 C   0  0  0  0  0  0  0  0  0  0  0  0
   16.4583   -3.8133    0.0000 C   0  0  0  0  0  0  0  0  0  0  0  0
   16.4557   -4.6392    0.0000 C   0  0  0  0  0  0  0  0  0  0  0  0
   17.1703   -5.0568    0.0000 C   0  0  0  0  0  0  0  0  0  0  0  0
   15.7458   -3.3975    0.0000 C   0  0  0  0  0  0  0  0  0  0  0  0
   15.7495   -2.5725    0.0000 O   0  0  0  0  0  0  0  0  0  0  0  0
   15.0294   -3.8067    0.0000 N   0  0  0  0  0  0  0  0  0  0  0  0
   14.3133   -3.3916    0.0000 C   0  0  0  0  0  0  0  0  0  0  0  0
   13.5991   -3.7973    0.0000 C   0  0  0  0  0  0  0  0  0  0  0  0
   13.5911   -4.6227    0.0000 C   0  0  0  0  0  0  0  0  0  0  0  0
   14.3035   -5.0406    0.0000 C   0  0  0  0  0  0  0  0  0  0  0  0
   15.0239   -4.6333    0.0000 C   0  0  0  0  0  0  0  0  0  0  0  0
   12.8732   -5.0292    0.0000 N   0  0  0  0  0  0  0  0  0  0  0  0
   12.1206   -4.6865    0.0000 C   0  0  0  0  0  0  0  0  0  0  0  0
   11.5634   -5.2950    0.0000 N   0  0  0  0  0  0  0  0  0  0  0  0
   12.7783   -5.8480    0.0000 C   0  0  0  0  0  0  0  0  0  0  0  0
   11.9727   -6.0148    0.0000 C   0  0  0  0  0  0  0  0  0  0  0  0
   11.7159   -6.7944    0.0000 C   0  0  0  0  0  0  0  0  0  0  0  0
   12.2636   -7.4079    0.0000 C   0  0  0  0  0  0  0  0  0  0  0  0
   13.0715   -7.2366    0.0000 C   0  0  0  0  0  0  0  0  0  0  0  0
   13.3246   -6.4572    0.0000 C   0  0  0  0  0  0  0  0  0  0  0  0
   11.9558   -3.8782    0.0000 O   0  0  0  0  0  0  0  0  0  0  0  0
   10.7436   -5.2026    0.0000 C   0  0  0  0  0  0  0  0  0  0  0  0
   10.4137   -4.4465    0.0000 C   0  0  0  0  0  0  0  0  0  0  0  0
   10.9071   -3.7847    0.0000 C   0  0  0  0  0  0  0  0  0  0  0  0
   10.5779   -3.0291    0.0000 C   0  0  0  0  0  0  0  0  0  0  0  0
    9.7572   -2.9361    0.0000 C   0  0  0  0  0  0  0  0  0  0  0  0
    9.2669   -3.6049    0.0000 C   0  0  0  0  0  0  0  0  0  0  0  0
    9.5989   -4.3579    0.0000 C   0  0  0  0  0  0  0  0  0  0  0  0
  4  5  1  0  0  0  0 
  2  3  1  0  0  0  0 
 16 21  1  0  0  0  0 
 17 18  1  0  0  0  0 
 18 19  1  0  0  0  0 
 19 20  1  0  0  0  0 
 20 21  1  0  0  0  0 
  5  6  2  0  0  0  0 
 19 22  1  0  0  0  0 
 22 23  1  0  0  0  0 
  6  1  1  0  0  0  0 
  8 13  1  0  0  0  0 
 23 24  1  0  0  0  0 
 24 26  1  0  0  0  0 
 25 22  1  0  0  0  0 
  9 10  1  0  0  0  0 
 10 11  1  0  0  0  0 
 25 26  2  0  0  0  0 
 11 12  1  0  0  0  0 
 26 27  1  0  0  0  0 
 12 13  1  0  0  0  0 
 27 28  2  0  0  0  0 
  1  2  2  0  0  0  0 
 28 29  1  0  0  0  0 
 11 14  1  0  0  0  0 
 29 30  2  0  0  0  0 
 30 25  1  0  0  0  0 
  2  7  1  0  0  0  0 
 23 31  2  0  0  0  0 
 14 15  2  0  0  0  0 
 24 32  1  0  0  0  0 
  3  4  2  0  0  0  0 
 32 33  1  0  0  0  0 
 14 16  1  0  0  0  0 
 33 34  2  0  0  0  0 
 16 17  1  0  0  0  0 
 34 35  1  0  0  0  0 
  7  8  1  0  0  0  0 
 35 36  2  0  0  0  0 
  8  9  1  0  0  0  0 
 36 37  1  0  0  0  0 
 37 38  2  0  0  0  0 
 38 33  1  0  0  0  0 
M  END