
  SciTegic10311316212D

 33 36  0  0  0  0            999 V2000
   15.8290   -8.6996    0.0000 C   0  0
   15.4535   -8.0475    0.0000 C   0  0  2  0  0  0
   15.0734   -8.6970    0.0000 C   0  0
   14.8014   -6.9083    0.0000 C   0  0
   14.8014   -7.6677    0.0000 C   0  0
   15.4571   -6.5245    0.0000 C   0  0
   16.1129   -6.9083    0.0000 C   0  0  1  0  0  0
   16.1094   -7.6677    0.0000 C   0  0  1  0  0  0
   16.7619   -8.0482    0.0000 C   0  0
   17.4224   -7.6737    0.0000 C   0  0
   16.7689   -6.5294    0.0000 C   0  0  2  0  0  0
   17.4220   -7.0902    0.0000 C   0  0  2  0  0  0
   18.0805   -6.5475    0.0000 C   0  0
   18.0920   -5.7892    0.0000 C   0  0
   17.4388   -5.4018    0.0000 C   0  0  2  0  0  0
   16.7741   -5.7726    0.0000 C   0  0
   18.7511   -5.4185    0.0000 C   0  0
   19.4041   -5.8071    0.0000 C   0  0
   18.7615   -4.6591    0.0000 C   0  0
   16.1056   -6.1489    0.0000 C   0  0
   15.4471   -9.3564    0.0000 O   0  0
   16.5884   -8.7022    0.0000 O   0  0
   17.1786   -6.0423    0.0000 C   0  0  2  0  0  0
   18.0474   -7.1291    0.0000 C   0  0  2  0  0  0
   16.4175   -8.2072    0.0000 H   0  0
   16.7658   -7.3011    0.0000 H   0  0
   17.7172   -4.6823    0.0000 H   0  0
   16.7648   -5.3324    0.0000 C   0  0
   17.1705   -4.6230    0.0000 O   0  0
   15.9476   -5.3357    0.0000 O   0  0
   18.7725   -7.5060    0.0000 C   0  0
   18.8087   -8.3224    0.0000 O   0  0
   19.4615   -7.0665    0.0000 O   0  0
  2  1  1  6
  3  2  1  0
  4  5  1  0
  4  6  1  0
  5  2  1  0
  2  8  1  0
  7  6  1  0
  7  8  1  0
  7 11  1  0
  8  9  1  0
  9 10  1  0
 12 10  1  6
 11 12  1  0
 11 16  1  0
 12 13  1  0
 13 14  2  0
 14 15  1  0
 15 16  1  0
 14 17  1  0
 17 18  1  0
 17 19  1  0
  7 20  1  1
  1 21  1  0
  1 22  2  0
 12 24  1  0
 23 24  1  0
  8 25  1  6
 11 26  1  6
 15 23  1  0
 15 27  1  6
 23 28  1  6
 28 29  2  0
 28 30  1  0
 24 31  1  6
 31 32  1  0
 31 33  2  0
M  END