
          11280715122D 1   1.00000     0.00000     0

 37 40  0     0  0            999 V2000
    7.9292   -2.5167    0.0000 C   0  0  0  0  0  0           0  0  0
    7.9292   -1.6917    0.0000 C   0  0  0  0  0  0           0  0  0
    7.2167   -2.9292    0.0000 C   0  0  0  0  0  0           0  0  0
    3.0542   -3.1625    0.0000 N   0  0  3  0  0  0           0  0  0
    7.2167   -3.7625    0.0000 C   0  0  0  0  0  0           0  0  0
    8.6500   -2.9292    0.0000 C   0  0  0  0  0  0           0  0  0
    3.7542   -0.2625    0.0000 C   0  0  3  0  0  0           0  0  0
    8.6500   -3.7625    0.0000 N   0  0  0  0  0  0           0  0  0
    2.3417   -2.7542    0.0000 C   0  0  0  0  0  0           0  0  0
    4.4917   -3.9542    0.0000 N   0  0  3  0  0  0           0  0  0
    8.6417   -1.2792    0.0000 N   0  0  3  0  0  0           0  0  0
    7.9292   -4.1750    0.0000 C   0  0  0  0  0  0           0  0  0
    7.2167   -1.2875    0.0000 O   0  0  0  0  0  0           0  0  0
    2.3417   -1.9250    0.0000 C   0  0  0  0  0  0           0  0  0
    3.0542   -1.5042    0.0000 O   0  0  0  0  0  0           0  0  0
    3.0667   -3.9875    0.0000 C   0  0  0  0  0  0           0  0  0
    3.7625   -2.7375    0.0000 C   0  0  0  0  0  0           0  0  0
    6.5042   -2.5250    0.0000 N   0  0  0  0  0  0           0  0  0
    3.0417   -0.6792    0.0000 C   0  0  0  0  0  0           0  0  0
    4.4042    0.1208    0.0000 F   0  0  0  0  0  0           0  0  0
    4.5667   -0.5625    0.0000 F   0  0  0  0  0  0           0  0  0
    3.8917    0.5958    0.0000 F   0  0  0  0  0  0           0  0  0
    4.4792   -3.1292    0.0000 C   0  0  0  0  0  0           0  0  0
    3.7917   -4.3792    0.0000 C   0  0  0  0  0  0           0  0  0
    5.2167   -4.3542    0.0000 C   0  0  0  0  0  0           0  0  0
    6.5042   -4.1750    0.0000 C   0  0  0  0  0  0           0  0  0
    5.8042   -3.7667    0.0000 C   0  0  0  0  0  0           0  0  0
    1.6250   -3.1667    0.0000 C   0  0  0  0  0  0           0  0  0
    5.7917   -2.9417    0.0000 C   0  0  0  0  0  0           0  0  0
    9.3542   -1.6917    0.0000 C   0  0  0  0  0  0           0  0  0
    8.6417   -0.4542    0.0000 C   0  0  0  0  0  0           0  0  0
    1.6250   -1.5125    0.0000 C   0  0  0  0  0  0           0  0  0
    7.9375   -4.9917    0.0000 C   0  0  0  0  0  0           0  0  0
    6.5042   -5.0000    0.0000 C   0  0  0  0  0  0           0  0  0
    0.9125   -2.7542    0.0000 C   0  0  0  0  0  0           0  0  0
    0.9125   -1.9292    0.0000 C   0  0  0  0  0  0           0  0  0
    7.2292   -5.4125    0.0000 C   0  0  0  0  0  0           0  0  0
  2  1  1  0     0  0
  3  1  1  0     0  0
  4 16  1  0     0  0
  5  3  2  0     0  0
  6  1  2  0     0  0
  7 19  1  0     0  0
  8  6  1  0     0  0
  9  4  1  0     0  0
 10 25  1  0     0  0
 11  2  1  0     0  0
 12  8  2  0     0  0
 13  2  2  0     0  0
 14  9  1  0     0  0
 15 14  1  0     0  0
 16 24  1  0     0  0
 17 23  1  0     0  0
 18  3  1  0     0  0
 19 15  1  0     0  0
 20  7  1  0     0  0
 21  7  1  0     0  0
 22  7  1  0     0  0
 23 10  1  0     0  0
 24 10  1  0     0  0
 25 27  1  0     0  0
 26  5  1  0     0  0
 27 29  1  0     0  0
 28  9  2  0     0  0
 29 18  1  0     0  0
 30 11  1  0     0  0
 31 11  1  0     0  0
 32 14  2  0     0  0
 33 12  1  0     0  0
 34 26  2  0     0  0
 35 28  1  0     0  0
 36 35  2  0     0  0
 37 33  2  0     0  0
  5 12  1  0     0  0
 37 34  1  0     0  0
  4 17  1  0     0  0
 36 32  1  0     0  0
M  END