
  SciTegic05171617262D

 32 36  0  0  0  0            999 V2000
    2.7572    7.4022    0.0000 N   0  0
    3.8053    6.8178    0.0000 C   0  0
    5.0930    7.5871    0.0000 C   0  0
    6.4031    6.8567    0.0000 C   0  0
    6.4255    5.3568    0.0000 C   0  0
    5.1379    4.5875    0.0000 C   0  0
    3.8276    5.3179    0.0000 C   0  0
    2.5408    4.5455    0.0000 C   0  0
    1.4917    5.1281    0.0000 N   0  0
    2.5654    3.0449    0.0000 C   0  0
    1.2785    2.2729    0.0000 N   0  0
    0.0000    3.0035    0.0000 C   0  0
   -1.2988    2.2729    0.0000 C   0  0
   -1.2988    0.7306    0.0000 C   0  0
    0.0000    0.0000    0.0000 C   0  0
   -1.2988   -0.7509    0.0000 C   0  0
   -1.2988   -2.2526    0.0000 C   0  0
    0.0000   -3.0238    0.0000 N   0  0
    1.2785   -2.2526    0.0000 C   0  0
    1.2785   -0.7509    0.0000 C   0  0
    0.0052   -4.5245    0.0000 C   0  0
    1.2944   -5.2850    0.0000 C   0  0
    1.2697   -6.7977    0.0000 N   0  0
   -0.0345   -7.5327    0.0000 C   0  0
   -0.0499   -9.0297    0.0000 C   0  0
   -1.3541   -9.7646    0.0000 C   0  0
   -2.6430   -9.0026    0.0000 C   0  0
   -2.6276   -7.5056    0.0000 C   0  0
   -1.3234   -6.7707    0.0000 C   0  0
   -1.3080   -5.2737    0.0000 N   0  0
    1.2785    0.7306    0.0000 C   0  0
    2.3164    0.1283    0.0000 O   0  0
  1  2  1  0
  2  3  2  0
  3  4  1  0
  4  5  2  0
  5  6  1  0
  6  7  2  0
  2  7  1  0
  7  8  1  0
  8  9  2  0
  8 10  1  0
 10 11  1  0
 11 12  1  0
 12 13  1  0
 13 14  1  0
 14 15  1  0
 15 16  1  0
 16 17  1  0
 17 18  1  0
 18 19  1  0
 19 20  1  0
 15 20  1  0
 18 21  1  0
 21 22  2  0
 22 23  1  0
 23 24  2  0
 24 25  1  0
 25 26  2  0
 26 27  1  0
 27 28  2  0
 28 29  1  0
 24 29  1  0
 29 30  2  0
 21 30  1  0
 15 31  1  0
 11 31  1  0
 31 32  2  0
M  END