
          11280715262D 1   1.00000     0.00000     0

 34 37  0     0  0            999 V2000
   -0.0708    1.4458    0.0000 N   0  0  3  0  0  0           0  0  0
    4.9417   -3.0667    0.0000 N   0  3  0  0  0  0           0  0  0
    0.6500    1.8625    0.0000 C   0  0  0  0  0  0           0  0  0
   -0.7833    1.8583    0.0000 C   0  0  0  0  0  0           0  0  0
    4.9417   -2.2417    0.0000 C   0  0  0  0  0  0           0  0  0
    4.2250   -1.8375    0.0000 C   0  0  0  0  0  0           0  0  0
    4.2292   -3.4875    0.0000 O   0  5  0  0  0  0           0  0  0
    4.2250   -1.0125    0.0000 C   0  0  0  0  0  0           0  0  0
   -0.0708    0.6208    0.0000 C   0  0  3  0  0  0           0  0  0
    5.6542   -3.4792    0.0000 O   0  0  0  0  0  0           0  0  0
    3.5042   -0.6000    0.0000 C   0  0  0  0  0  0           0  0  0
   -1.4958    1.4458    0.0000 O   0  0  0  0  0  0           0  0  0
    1.3625    1.4500    0.0000 O   0  0  0  0  0  0           0  0  0
   -3.6375   -0.6292    0.0000 N   0  0  0  0  0  0           0  0  0
    0.6500    0.2125    0.0000 C   0  0  0  0  0  0           0  0  0
    3.5000    0.2333    0.0000 C   0  0  0  0  0  0           0  0  0
    2.7917   -1.0167    0.0000 C   0  0  0  0  0  0           0  0  0
    1.3625    0.6333    0.0000 O   0  0  0  0  0  0           0  0  0
   -0.7833    0.2083    0.0000 C   0  0  0  0  0  0           0  0  0
    2.0792    0.2208    0.0000 C   0  0  0  0  0  0           0  0  0
   -1.4958    0.6208    0.0000 C   0  0  0  0  0  0           0  0  0
    2.0792   -0.6042    0.0000 C   0  0  0  0  0  0           0  0  0
    2.7792    0.6333    0.0000 C   0  0  0  0  0  0           0  0  0
   -0.7833    2.6833    0.0000 C   0  0  0  0  0  0           0  0  0
    0.6417    2.6833    0.0000 C   0  0  0  0  0  0           0  0  0
   -2.2083    0.2000    0.0000 C   0  0  0  0  0  0           0  0  0
    5.6542   -1.8292    0.0000 C   0  0  0  0  0  0           0  0  0
    4.9292   -0.5917    0.0000 C   0  0  0  0  0  0           0  0  0
   -0.0708    3.0958    0.0000 C   0  0  0  0  0  0           0  0  0
    5.6417   -1.0000    0.0000 C   0  0  0  0  0  0           0  0  0
   -2.9250   -1.0417    0.0000 C   0  0  0  0  0  0           0  0  0
   -3.6375    0.2000    0.0000 C   0  0  0  0  0  0           0  0  0
   -2.2083   -0.6292    0.0000 C   0  0  0  0  0  0           0  0  0
   -2.9250    0.6125    0.0000 C   0  0  0  0  0  0           0  0  0
  2  5  1  0     0  0
  3  1  1  0     0  0
  4  1  1  0     0  0
  5  6  1  0     0  0
  6  8  2  0     0  0
  7  2  1  0     0  0
  8 11  1  0     0  0
  9  1  1  0     0  0
 10  2  2  0     0  0
 11 16  1  0     0  0
 12  4  2  0     0  0
 13  3  2  0     0  0
 14 32  2  0     0  0
 15  9  1  0     0  0
 16 23  2  0     0  0
 17 22  1  0     0  0
 18 15  1  0     0  0
 19  9  1  0     0  0
 20 18  1  0     0  0
 21 19  1  0     0  0
 22 20  2  0     0  0
 23 20  1  0     0  0
 24  4  1  0     0  0
 25  3  1  0     0  0
 26 21  1  0     0  0
 27 30  1  0     0  0
 28  8  1  0     0  0
 29 24  1  0     0  0
 30 28  2  0     0  0
 31 33  2  0     0  0
 32 34  1  0     0  0
 33 26  1  0     0  0
 34 26  2  0     0  0
 25 29  1  0     0  0
 14 31  1  0     0  0
 17 11  2  0     0  0
  5 27  2  0     0  0
M  CHG  2   2   1   7  -1
M  END