
  Mrv0541 04051115152D          

 24 26  0  0  0  0            999 V2000
    4.9134   -0.7249    0.0000 C   0  0  0  0  0  0  0  0  0  0  0  0
   -4.5765    0.4021    0.0000 C   0  0  0  0  0  0  0  0  0  0  0  0
   -0.4515   -1.0269    0.0000 O   0  0  0  0  0  0  0  0  0  0  0  0
   -1.2765    1.2271    0.0000 O   0  0  0  0  0  0  0  0  0  0  0  0
   -1.2765   -0.4229    0.0000 O   0  0  0  0  0  0  0  0  0  0  0  0
   -3.3390    1.1165    0.0000 C   0  0  0  0  0  0  0  0  0  0  0  0
   -2.5140    1.1165    0.0000 C   0  0  0  0  0  0  0  0  0  0  0  0
    3.4845    0.1001    0.0000 C   0  0  0  0  0  0  0  0  0  0  0  0
    2.7700    0.5126    0.0000 C   0  0  0  0  0  0  0  0  0  0  0  0
   -3.3390   -0.3124    0.0000 C   0  0  0  0  0  0  0  0  0  0  0  0
    2.7700   -1.1374    0.0000 C   0  0  0  0  0  0  0  0  0  0  0  0
    1.2709   -0.9798    0.0000 C   0  0  0  0  0  0  0  0  0  0  0  0
   -2.5140   -0.3124    0.0000 N   0  0  0  0  0  0  0  0  0  0  0  0
   -0.4515    0.4021    0.0000 N   0  0  0  0  0  0  0  0  0  0  0  0
    1.2709    0.3550    0.0000 N   0  0  0  0  0  0  0  0  0  0  0  0
    4.1989   -1.1374    0.0000 O   0  0  0  0  0  0  0  0  0  0  0  0
   -0.0390   -0.3124    0.0000 C   0  0  0  0  0  0  0  0  0  0  0  0
   -3.7515    0.4021    0.0000 C   0  0  0  0  0  0  0  0  0  0  0  0
    3.4845   -0.7249    0.0000 C   0  0  0  0  0  0  0  0  0  0  0  0
   -2.1015    0.4021    0.0000 C   0  0  0  0  0  0  0  0  0  0  0  0
    0.7860   -0.3124    0.0000 C   0  0  0  0  0  0  0  0  0  0  0  0
    2.0555   -0.7249    0.0000 C   0  0  0  0  0  0  0  0  0  0  0  0
    2.0555    0.1001    0.0000 C   0  0  0  0  0  0  0  0  0  0  0  0
   -1.2765    0.4021    0.0000 S   0  0  0  0  0  0  0  0  0  0  0  0
  1 16  1  0  0  0  0
  2 18  1  0  0  0  0
 17  3  2  0  0  0  0
  4 24  2  0  0  0  0
  5 24  2  0  0  0  0
  6  7  2  0  0  0  0
  6 18  1  0  0  0  0
  7 20  1  0  0  0  0
  8 19  2  0  0  0  0
  8  9  1  0  0  0  0
  9 23  2  0  0  0  0
 10 18  2  0  0  0  0
 10 13  1  0  0  0  0
 11 22  2  0  0  0  0
 11 19  1  0  0  0  0
 12 21  2  0  0  0  0
 12 22  1  0  0  0  0
 20 13  2  0  0  0  0
 14 24  1  0  0  0  0
 17 14  1  0  0  0  0
 21 15  1  0  0  0  0
 23 15  1  0  0  0  0
 19 16  1  0  0  0  0
 17 21  1  0  0  0  0
 20 24  1  0  0  0  0
 22 23  1  0  0  0  0
M  END