
          11280714442D 1   1.00000     0.00000     0

 21 25  0     0  0            999 V2000
    1.0250   -0.0167    0.0000 C   0  0  0  0  0  0           0  0  0
    0.3167    0.3833    0.0000 C   0  0  0  0  0  0           0  0  0
    1.7292    0.3958    0.0000 C   0  0  0  0  0  0           0  0  0
    1.0292   -0.8375    0.0000 C   0  0  0  0  0  0           0  0  0
    2.4417   -0.0042    0.0000 C   0  0  0  0  0  0           0  0  0
   -0.3958   -0.0292    0.0000 C   0  0  0  0  0  0           0  0  0
   -0.3958   -0.8542    0.0000 C   0  0  0  0  0  0           0  0  0
    0.3250   -1.2667    0.0000 C   0  0  0  0  0  0           0  0  0
    0.3042    1.1958    0.0000 C   0  0  0  0  0  0           0  0  0
    2.4417   -0.8292    0.0000 C   0  0  0  0  0  0           0  0  0
    1.7292    1.2083    0.0000 C   0  0  0  0  0  0           0  0  0
    3.1500    0.4000    0.0000 C   0  0  0  0  0  0           0  0  0
    1.7417   -1.2417    0.0000 C   0  0  0  0  0  0           0  0  0
    1.0125    1.6125    0.0000 C   0  0  0  0  0  0           0  0  0
    3.1417    1.2208    0.0000 C   0  0  0  0  0  0           0  0  0
    2.4292    1.6208    0.0000 C   0  0  0  0  0  0           0  0  0
    3.8667   -0.0125    0.0000 O   0  0  0  0  0  0           0  0  0
   -1.1083    0.3833    0.0000 C   0  0  0  0  0  0           0  0  0
   -1.1083   -1.2750    0.0000 C   0  0  0  0  0  0           0  0  0
   -1.8208   -0.0292    0.0000 C   0  0  0  0  0  0           0  0  0
   -1.8208   -0.8625    0.0000 C   0  0  0  0  0  0           0  0  0
  2  1  2  0     0  0
  3  1  1  0     0  0
  4  1  1  0     0  0
  5  3  1  0     0  0
  6  2  1  0     0  0
  7  8  1  0     0  0
  8  4  2  0     0  0
  9  2  1  0     0  0
 10 13  2  0     0  0
 11  3  2  0     0  0
 12  5  2  0     0  0
 13  4  1  0     0  0
 14 11  1  0     0  0
 15 16  2  0     0  0
 16 11  1  0     0  0
 17 12  1  0     0  0
 18  6  2  0     0  0
 19  7  2  0     0  0
 20 18  1  0     0  0
 21 19  1  0     0  0
 10  5  1  0     0  0
  6  7  1  0     0  0
  9 14  2  0     0  0
 12 15  1  0     0  0
 20 21  2  0     0  0
M  END