
  SciTegic03291108512D

 18 20  0  0  0  0            999 V2000
    3.1480   -0.2359    0.0000 S   0  0
   -0.3999   -3.0533    0.0000 O   0  0
   -1.1143   -1.8158    0.0000 O   0  0
    0.3146   -0.9908    0.0000 N   0  0
    1.7890   -0.6774    0.0000 N   0  0
    1.2791    0.8918    0.0000 N   0  0
    2.0861    0.7203    0.0000 N   0  0
    0.9820   -0.5059    0.0000 C   0  0
    0.7271    0.2787    0.0000 C   0  0
   -0.0979    0.2787    0.0000 C   0  0
   -0.3528   -0.5059    0.0000 C   0  0
    0.3146   -1.8158    0.0000 C   0  0
   -0.6499    0.8918    0.0000 C   0  0
   -1.1598   -0.6774    0.0000 C   0  0
    2.3411   -0.0643    0.0000 C   0  0
   -1.4569    0.7203    0.0000 C   0  0
   -1.7118   -0.0643    0.0000 C   0  0
   -0.3999   -2.2283    0.0000 C   0  0
  1 15  1  0
  2 18  2  0
  3 18  1  0
  4  8  1  0
  4 11  1  0
  4 12  1  0
  5  8  2  0
  5 15  1  0
  6  7  1  0
  6  9  2  0
  7 15  2  0
  8  9  1  0
  9 10  1  0
 10 11  1  0
 10 13  2  0
 11 14  2  0
 12 18  1  0
 13 16  1  0
 14 17  1  0
 16 17  2  0
M  END