
  SciTegic11201309402D

 51 53  0  0  0  0            999 V2000
    3.2242   -6.4318    0.0000 N   0  0
    2.3506   -5.2711    0.0000 C   0  0
    6.0199   -3.9856    0.0000 C   0  0
    3.8566   -3.7692    0.0000 C   0  0
    2.4879   -6.0906    0.0000 C   0  0  2  0  0  0
    3.0703   -4.8717    0.0000 N   0  0
    4.5971   -4.1187    0.0000 N   0  0
    6.6939   -3.5113    0.0000 N   0  0
    9.5645   -3.3948    0.0000 C   0  0
    5.2711   -3.6444    0.0000 C   0  0  1  0  0  0
    4.0480   -6.4318    0.0000 C   0  0
    8.8531   -3.8108    0.0000 C   0  0
    3.0703   -4.0480    0.0000 C   0  0  1  0  0  0
    7.0434   -1.6225    0.0000 N   0  0
   10.2759   -3.7984    0.0000 N   0  0
   11.5240   -4.5098    0.0000 C   0  0
   11.1079   -3.7942    0.0000 C   0  0  2  0  0  0
    7.4303   -3.8857    0.0000 C   0  0  2  0  0  0
    5.8535   -2.2258    0.0000 C   0  0
    5.2711   -2.8124    0.0000 C   0  0
    5.7204   -1.4145    0.0000 N   0  0
    6.4568   -1.0401    0.0000 C   0  0
    8.1167   -3.4364    0.0000 C   0  0  1  0  0  0
    6.6689   -2.3589    0.0000 C   0  0
    1.5227   -5.1088    0.0000 O   0  0
    3.8608   -3.0203    0.0000 O   0  0
    6.0948   -4.8093    0.0000 O   0  0
    2.4379   -3.5071    0.0000 C   0  0
    4.4598   -7.1432    0.0000 O   0  0
    9.5520   -2.5710    0.0000 O   0  0
   12.3435   -4.5098    0.0000 O   0  0
    7.4677   -4.7094    0.0000 C   0  0
   11.1121   -5.2294    0.0000 N   0  0
   11.5198   -3.0745    0.0000 C   0  0  2  0  0  0
    3.1119   -7.2430    0.0000 C   0  0
    2.5877   -2.6958    0.0000 C   0  0
    8.0751   -2.6127    0.0000 O   0  0
    1.9138   -6.6814    0.0000 C   0  0
    4.4598   -5.7204    0.0000 C   0  0
    2.2965   -7.3886    0.0000 C   0  0
    8.2041   -5.0839    0.0000 C   0  0
   11.0996   -2.3631    0.0000 C   0  0
   12.3435   -3.0745    0.0000 C   0  0
    3.3615   -2.4255    0.0000 C   0  0
    1.9637   -2.1634    0.0000 C   0  0
    8.8988   -4.6346    0.0000 C   0  0
    8.2498   -5.9076    0.0000 C   0  0
   11.4366   -1.6142    0.0000 C   0  0
    2.1134   -1.3604    0.0000 C   0  0
    3.5196   -1.6142    0.0000 C   0  0
    2.8873   -1.0775    0.0000 C   0  0
  5  2  1  1
  3 10  1  0
  4 13  1  0
  5  1  1  0
  6  2  1  0
  7  4  1  0
  8  3  1  0
  9 12  1  0
 10  7  1  1
 11  1  1  0
 12 23  1  0
 13  6  1  1
 14 24  1  0
 15  9  1  0
 16 17  1  0
 17 15  1  1
 18  8  1  6
 19 20  1  0
 10 20  1  0
 21 19  1  0
 22 21  2  0
 23 18  1  0
 24 19  2  0
 25  2  2  0
 26  4  2  0
 27  3  2  0
 13 28  1  0
 29 11  2  0
 30  9  2  0
 31 16  2  0
 18 32  1  0
 33 16  1  0
 17 34  1  0
 35  1  1  0
 36 28  1  0
 23 37  1  1
 38  5  1  0
 39 11  1  0
 40 35  1  0
 41 32  1  0
 42 34  1  0
 34 43  1  6
 44 36  2  0
 45 36  1  0
 46 41  1  0
 47 41  1  0
 48 42  1  0
 49 45  2  0
 50 44  1  0
 51 49  1  0
 38 40  1  0
 50 51  2  0
 14 22  1  0
M  END