
  SciTegic02011310442D

 33 37  0  0  0  0            999 V2000
   16.0496   -5.3777    0.0000 N   0  0
   16.7660   -4.9643    0.0000 C   0  0
   16.7631   -4.1338    0.0000 N   0  0
   16.0478   -3.7246    0.0000 C   0  0
   15.3348   -4.9647    0.0000 N   0  0
   15.3360   -4.1359    0.0000 C   0  0
   14.5481   -3.8785    0.0000 C   0  0
   14.0598   -4.5484    0.0000 C   0  0
   14.5461   -5.2197    0.0000 C   0  0
   17.4811   -5.3756    0.0000 S   0  0
   18.1950   -4.9620    0.0000 C   0  0
   16.0459   -2.8996    0.0000 N   0  0
   16.7595   -2.4856    0.0000 C   0  0
   18.9067   -5.3739    0.0000 C   0  0
   19.6200   -4.9609    0.0000 C   0  0
   19.6192   -4.1351    0.0000 C   0  0
   18.8990   -3.7239    0.0000 C   0  0
   18.1887   -4.1391    0.0000 C   0  0
   17.5117   -2.8208    0.0000 C   0  0
   18.0624   -2.2065    0.0000 C   0  0
   17.6483   -1.4928    0.0000 N   0  0
   16.8418   -1.6663    0.0000 N   0  0
   18.8831   -2.2909    0.0000 C   0  0
   20.3325   -3.7205    0.0000 N   0  0
   21.0481   -4.1310    0.0000 C   0  0
   21.7614   -3.7163    0.0000 C   0  0
   22.4771   -4.1268    0.0000 N   0  0
   21.0505   -4.9560    0.0000 O   0  0
   22.5628   -4.9448    0.0000 C   0  0
   23.3703   -5.1140    0.0000 C   0  0  2  0  0  0
   23.7807   -4.3983    0.0000 C   0  0
   23.2268   -3.7869    0.0000 C   0  0
   23.7080   -5.8667    0.0000 O   0  0
  5  1  1  0
  1  2  2  0
  2  3  1  0
  3  4  2  0
  4  6  1  0
  5  6  1  0
  6  7  2  0
  7  8  1  0
  8  9  2  0
  9  5  1  0
  2 10  1  0
 10 11  1  0
  4 12  1  0
 12 13  1  0
 11 14  2  0
 14 15  1  0
 15 16  2  0
 16 17  1  0
 17 18  2  0
 18 11  1  0
 13 19  1  0
 19 20  2  0
 20 21  1  0
 21 22  1  0
 22 13  2  0
 20 23  1  0
 16 24  1  0
 24 25  1  0
 25 26  1  0
 26 27  1  0
 25 28  2  0
 27 29  1  0
 29 30  1  0
 30 31  1  0
 31 32  1  0
 32 27  1  0
 30 33  1  6
M  END