
  SciTegic06051313522D

 30 33  0  0  0  0            999 V2000
    2.7330  -21.1668    0.0000 C   0  0
    2.0245  -21.5883    0.0000 N   0  0
    2.7231  -23.6633    0.0000 C   0  0
    2.7336  -22.8356    0.0000 C   0  0
    2.0237  -22.4154    0.0000 C   0  0
    1.3031  -22.8228    0.0000 C   0  0
    1.2947  -23.6469    0.0000 C   0  0
    2.0047  -24.0671    0.0000 N   0  0
    3.5039  -23.9253    0.0000 N   0  0
    3.5187  -22.5870    0.0000 C   0  0
    3.9965  -23.2628    0.0000 C   0  0
    0.5878  -22.4049    0.0000 C   0  0
    4.8188  -23.2722    0.0000 C   0  0
    5.2222  -23.9931    0.0000 C   0  0
    6.0463  -24.0034    0.0000 C   0  0
    6.4681  -23.2934    0.0000 C   0  0
    6.0599  -22.5715    0.0000 N   0  0
    5.2370  -22.5649    0.0000 C   0  0
    0.5920  -21.5799    0.0000 F   0  0
   -0.1295  -22.8137    0.0000 F   0  0
   -0.1291  -21.9917    0.0000 F   0  0
    3.4520  -21.5722    0.0000 C   0  0
    4.1600  -21.1514    0.0000 C   0  0
    4.1496  -20.3262    0.0000 C   0  0
    3.4253  -19.9237    0.0000 C   0  0
    2.7203  -20.3468    0.0000 C   0  0
    1.9992  -19.9459    0.0000 C   0  0
    1.9859  -19.1210    0.0000 O   0  0
    1.2915  -20.3699    0.0000 N   0  0
    0.5705  -19.9690    0.0000 C   0  0
  3  4  1  0
  4  5  2  0
  5  6  1  0
  6  7  2  0
  7  8  1  0
  3  8  2  0
 10 11  2  0
  9 11  1  0
  3  9  1  0
  4 10  1  0
  2  5  1  0
  1  2  1  0
  6 12  1  0
 13 14  2  0
 14 15  1  0
 15 16  2  0
 16 17  1  0
 17 18  2  0
 18 13  1  0
 11 13  1  0
 12 19  1  0
 12 20  1  0
 12 21  1  0
  1 22  2  0
 22 23  1  0
 23 24  2  0
 24 25  1  0
 25 26  2  0
 26  1  1  0
 26 27  1  0
 27 28  2  0
 27 29  1  0
 29 30  1  0
M  END