
  SciTegic12231509382D

 29 33  0  0  0  0            999 V2000
    8.0027  -21.3643    0.0000 C   0  0
    7.9309  -22.1825    0.0000 C   0  0
    8.6026  -22.6518    0.0000 C   0  0
    8.7418  -21.0169    0.0000 C   0  0
    9.4145  -21.4825    0.0000 C   0  0
    9.3439  -22.3045    0.0000 C   0  0
   10.1037  -22.6256    0.0000 N   0  0
   10.2181  -21.2958    0.0000 C   0  0
   10.6440  -22.0036    0.0000 C   0  0
   11.4412  -20.5596    0.0000 C   0  0
   10.6135  -20.5730    0.0000 C   0  0
   11.8671  -21.2674    0.0000 N   0  0
   11.4596  -21.9902    0.0000 C   0  0  1  0  0  0
   11.8794  -22.7006    0.0000 C   0  0
   12.6945  -21.2550    0.0000 C   0  0
   13.1161  -21.9716    0.0000 C   0  0  2  0  0  0
   12.7060  -22.6945    0.0000 C   0  0  1  0  0  0
   13.1246  -23.4071    0.0000 C   0  0  1  0  0  0
   13.9551  -23.4031    0.0000 C   0  0  2  0  0  0
   14.3652  -22.6802    0.0000 C   0  0
   13.9448  -21.9614    0.0000 C   0  0
   12.7196  -24.1188    0.0000 C   0  0
   11.9006  -24.1239    0.0000 O   0  0
   13.1334  -24.8255    0.0000 O   0  0
   11.4955  -24.8358    0.0000 C   0  0
   14.3689  -24.1098    0.0000 O   0  0
   11.0438  -22.6956    0.0000 H   0  0
   13.5173  -21.2562    0.0000 H   0  0
   12.1192  -23.2706    0.0000 H   0  0
  2  3  2  0
 12 15  1  0
 13 14  1  0
 14 17  1  0
 16 15  1  0
 16 17  1  0
  6  7  1  0
  7  9  1  0
  8  5  1  0
  8  9  2  0
  3  6  1  0
 16 21  1  0
 17 18  1  0
 18 19  1  0
 19 20  1  0
 20 21  1  0
  5  4  1  0
 18 22  1  1
  4  1  2  0
 22 23  1  0
  8 11  1  0
 22 24  2  0
  9 13  1  0
 23 25  1  0
 12 10  1  0
 19 26  1  6
 10 11  1  0
 13 27  1  6
 12 13  1  0
 16 28  1  6
  5  6  2  0
 17 29  1  6
  1  2  1  0
M  END