
  SciTegic04151115542D

 23 26  0  0  0  0            999 V2000
   -4.3473  -17.1375    0.0000 C   0  0
   -4.3484  -17.9648    0.0000 C   0  0
   -3.6336  -18.3777    0.0000 C   0  0
   -3.6354  -16.7247    0.0000 C   0  0
   -2.9200  -17.1338    0.0000 C   0  0
   -2.9193  -17.9607    0.0000 C   0  0
   -2.2040  -18.3716    0.0000 N   0  0
   -2.2096  -16.7197    0.0000 C   0  0
   -1.4937  -17.1269    0.0000 C   0  0
   -1.4860  -17.9538    0.0000 C   0  0
   -0.6972  -18.2020    0.0000 S   0  0
   -0.2173  -17.5285    0.0000 C   0  0
   -0.7096  -16.8641    0.0000 C   0  0
   -0.4620  -16.0771    0.0000 N   0  0
    0.6077  -17.5208    0.0000 C   0  0
    1.0268  -18.2314    0.0000 N   0  0
    1.0135  -16.8025    0.0000 O   0  0
   -3.6317  -19.2027    0.0000 C   0  0
    1.8518  -18.2236    0.0000 C   0  0
    2.3442  -18.8831    0.0000 C   0  0
    3.1264  -18.6208    0.0000 C   0  0
    3.1187  -17.7958    0.0000 C   0  0
    2.3317  -17.5483    0.0000 C   0  0
  2  3  1  0
  5  6  1  0
 10 11  1  0
 11 12  1  0
 12 13  2  0
 13  9  1  0
  3  6  2  0
 13 14  1  0
  6  7  1  0
 12 15  1  0
  7 10  2  0
 15 16  1  0
  1  2  2  0
 15 17  2  0
  9  8  2  0
  3 18  1  0
  8  5  1  0
 16 19  1  0
 19 20  1  0
  9 10  1  0
  5  4  2  0
  4  1  1  0
 20 21  1  0
 21 22  1  0
 22 23  1  0
 23 19  1  0
M  END