
  SciTegic09081514192D

 49 54  0  0  0  0            999 V2000
   -4.3426    1.7370    0.0000 C   0  0
    0.0891   -0.4677    0.0000 C   0  0
    2.4942    0.2895    0.0000 N   0  0
    2.0934    1.7370    0.0000 C   0  0
   -4.8103    0.2672    0.0000 C   0  0
    0.9230   -1.5323    0.0000 H   0  0
   13.6361   -8.8261    0.0000 C   0  0
    9.5034    0.1151    0.0000 C   0  0
    7.2164   -6.1133    0.0000 C   0  0
    7.7812   -7.4891    0.0000 N   0  0
    4.5431   -1.4253    0.0000 C   0  0  1  0  0  0
    8.3586   -4.9581    0.0000 C   0  0
    7.9143   -3.5245    0.0000 C   0  0  1  0  0  0
    9.5971   -8.9707    0.0000 O   0  0
   12.1739   -8.4912    0.0000 C   0  0
    4.9348   -5.3384    0.0000 N   0  0
    6.6705   -8.4781    0.0000 C   0  0  1  0  0  0
    6.4509   -3.1915    0.0000 N   0  0
    9.8220   -5.2911    0.0000 N   0  0
   11.5940  -11.0238    0.0000 C   0  0
    5.8308  -10.6643    0.0000 O   0  0
    1.5812   -0.7794    0.0000 C   0  0  1  0  0  0
   -2.2938   -0.4677    0.0000 C   0  0
    6.8220   -0.8775    0.0000 O   0  0
   -1.0690   -1.3585    0.0000 N   0  0
   10.2663   -6.7246    0.0000 C   0  0  2  0  0  0
   13.4090  -12.5056    0.0000 F   0  0
    3.5632   -2.4942    0.0000 C   0  0
   13.0561  -11.3586    0.0000 C   0  0
    9.1469    1.2610    0.0000 C   0  0
    9.2443   -7.8237    0.0000 C   0  0
    4.0754    0.0000    0.0000 C   0  0
    0.6236    2.0488    0.0000 C   0  0
   -0.3340    0.9353    0.0000 C   0  0
   14.0772  -10.2598    0.0000 C   0  0
    5.7221   -6.2440    0.0000 C   0  0  1  0  0  0
    6.0066   -1.7580    0.0000 C   0  0
   11.1529   -9.5901    0.0000 C   0  0
    8.4859   -0.9881    0.0000 C   0  0
    7.9000  -10.4705    0.0000 N   0  0
   -2.8728    2.0488    0.0000 C   0  0
   -3.7636   -0.8240    0.0000 C   0  0
    7.6791   -5.6918    0.0000 O   0  0
    5.3847   -7.7056    0.0000 C   0  0
   -1.8484    0.9353    0.0000 C   0  0
    8.9318   -2.4212    0.0000 C   0  0
    6.8094   -9.9699    0.0000 C   0  0
    2.0934   -2.2270    0.0000 C   0  0
   11.7297   -7.0576    0.0000 C   0  0
 12 43  2  0
 17 47  1  6
 26 49  1  1
 39  8  1  0
 26 31  1  0
  1  5  1  0
 18 13  1  0
 47 21  2  0
 13 46  1  1
 35 29  2  0
 22 48  1  0
 41  1  2  0
 37 24  2  0
 36 44  1  0
 22  2  1  0
 29 20  1  0
 45 41  1  0
  9 36  1  0
 33 34  1  0
  3  4  1  0
 31 14  2  0
  4 33  1  0
  7 35  1  0
 23 45  2  0
 11 32  1  0
 29 27  1  0
  2 34  2  0
  3 32  1  0
 31 10  1  0
 49 15  1  0
 34 45  1  0
 12 19  1  0
 46 39  1  0
 10  9  1  0
 15  7  2  0
 47 40  1  0
 17 44  1  0
 23 25  1  0
 25  2  1  0
 22  3  1  0
 28 11  1  0
  5 42  2  0
 13 12  1  0
 19 26  1  0
 38 15  1  0
 20 38  2  0
 36 16  1  6
 48 28  1  0
 11 37  1  1
 42 23  1  0
 10 17  1  0
  8 30  1  0
 22  6  1  6
 37 18  1  0
M  END