
          03140815512D 1   1.00000     0.00000     0

 27 29  0     0  0            999 V2000
    0.5569  -15.3583    0.0000 C   0  0  0  0  0  0           0  0  0
    0.5557  -16.1857    0.0000 C   0  0  0  0  0  0           0  0  0
    1.2706  -16.5985    0.0000 C   0  0  0  0  0  0           0  0  0
    1.9870  -16.1852    0.0000 C   0  0  0  0  0  0           0  0  0
    1.9841  -15.3547    0.0000 C   0  0  0  0  0  0           0  0  0
    1.2688  -14.9455    0.0000 C   0  0  0  0  0  0           0  0  0
    2.6971  -14.9395    0.0000 O   0  0  0  0  0  0           0  0  0
    2.6939  -14.1145    0.0000 C   0  0  0  0  0  0           0  0  0
    3.4086  -13.7041    0.0000 C   0  0  0  0  0  0           0  0  0
    3.4059  -12.8799    0.0000 C   0  0  0  0  0  0           0  0  0
    2.6893  -12.4693    0.0000 C   0  0  0  0  0  0           0  0  0
    1.9740  -12.8889    0.0000 C   0  0  0  0  0  0           0  0  0
    1.9803  -13.7117    0.0000 C   0  0  0  0  0  0           0  0  0
    2.7021  -16.5966    0.0000 C   0  0  0  0  0  0           0  0  0
    2.7034  -17.4216    0.0000 N   0  0  0  0  0  0           0  0  0
    3.4185  -17.8329    0.0000 C   0  0  0  0  0  0           0  0  0
   -0.1591  -16.5976    0.0000 C   0  0  0  0  0  0           0  0  0
   -0.8792  -17.0042    0.0000 C   0  0  0  0  0  0           0  0  0
   -1.5958  -17.4125    0.0000 C   0  0  0  0  0  0           0  0  0
   -2.3079  -16.9959    0.0000 C   0  0  0  0  0  0           0  0  0
   -3.0248  -17.4043    0.0000 N   0  0  3  0  0  0           0  0  0
   -3.7387  -16.9894    0.0000 C   0  0  0  0  0  0           0  0  0
   -4.4533  -17.3943    0.0000 C   0  0  0  0  0  0           0  0  0
   -4.4623  -18.2196    0.0000 O   0  0  0  0  0  0           0  0  0
   -3.7504  -18.6384    0.0000 C   0  0  0  0  0  0           0  0  0
   -3.0295  -18.2318    0.0000 C   0  0  0  0  0  0           0  0  0
    2.6851  -11.6443    0.0000 Cl  0  0  0  0  0  0           0  0  0
 13  8  1  0     0  0
  1  2  2  0     0  0
  4 14  1  0     0  0
  5  7  1  0     0  0
 14 15  1  0     0  0
  3  4  2  0     0  0
 15 16  1  0     0  0
  7  8  1  0     0  0
  2 17  1  0     0  0
 17 18  3  0     0  0
  8  9  2  0     0  0
 18 19  1  0     0  0
  4  5  1  0     0  0
 19 20  1  0     0  0
  9 10  1  0     0  0
 20 21  1  0     0  0
 21 22  1  0     0  0
  2  3  1  0     0  0
 10 11  2  0     0  0
  5  6  2  0     0  0
 11 12  1  0     0  0
  6  1  1  0     0  0
 21 26  1  0     0  0
 22 23  1  0     0  0
 23 24  1  0     0  0
 24 25  1  0     0  0
 25 26  1  0     0  0
 12 13  2  0     0  0
 11 27  1  0     0  0
M  END