
          11280715282D 1   1.00000     0.00000     0

 14 15  0     0  0            999 V2000
    3.1542   -0.2042    0.0000 C   0  0  0  0  0  0           0  0  0
    3.1500   -1.0292    0.0000 C   0  0  0  0  0  0           0  0  0
    2.4417   -1.4417    0.0000 N   0  0  0  0  0  0           0  0  0
    2.4417    0.2083    0.0000 C   0  0  0  0  0  0           0  0  0
    1.7292   -0.2042    0.0000 N   0  0  0  0  0  0           0  0  0
    3.8625   -1.4417    0.0000 N   0  0  3  0  0  0           0  0  0
    1.7292   -1.0292    0.0000 C   0  0  3  0  0  0           0  0  0
    3.8667    0.2083    0.0000 C   0  0  0  0  0  0           0  0  0
    4.5792   -1.0375    0.0000 C   0  0  0  0  0  0           0  0  0
    4.5792   -0.2125    0.0000 C   0  0  0  0  0  0           0  0  0
    2.4417    1.0333    0.0000 O   0  0  0  0  0  0           0  0  0
    1.0167   -1.4417    0.0000 N   0  0  0  0  0  0           0  0  0
    3.8542   -2.2667    0.0000 C   0  0  0  0  0  0           0  0  0
    5.2917    0.1958    0.0000 C   0  0  0  0  0  0           0  0  0
  2  1  1  0     0  0
  3  2  2  0     0  0
  4  1  1  0     0  0
  5  4  1  0     0  0
  6  2  1  0     0  0
  7  5  1  0     0  0
  8  1  2  0     0  0
  9 10  2  0     0  0
 10  8  1  0     0  0
 11  4  2  0     0  0
 12  7  1  0     0  0
 13  6  1  0     0  0
 14 10  1  0     0  0
  9  6  1  0     0  0
  3  7  1  0     0  0
M  END