
  SciTegic07291412072D

 56 60  0  0  0  0            999 V2000
   10.9302   -5.7943    0.0000 N   0  0
    9.8388   -7.6846    0.0000 N   0  0
   10.3066   -6.3344    0.0000 C   0  0
   10.4625   -7.1445    0.0000 C   0  0  2  0  0  0
   11.7337   -5.9814    0.0000 C   0  0  2  0  0  0
    9.0593   -7.4145    0.0000 C   0  0
   12.0547   -6.7414    0.0000 C   0  0
    8.4356   -7.9546    0.0000 C   0  0  1  0  0  0
    9.9948   -8.4947    0.0000 C   0  0
   10.8598   -4.9723    0.0000 C   0  0
   12.1599   -5.2750    0.0000 C   0  0
   11.2420   -7.4145    0.0000 C   0  0
   12.8733   -6.8434    0.0000 N   0  0
   11.6199   -4.6513    0.0000 C   0  0
   16.2921   -9.4297    0.0000 C   0  0
    2.0433   -8.7648    0.0000 C   0  0
    7.6561   -7.6846    0.0000 N   0  0
    8.5916   -8.7648    0.0000 C   0  0
   12.6965   -8.2614    0.0000 C   0  0
   10.7743   -8.7648    0.0000 C   0  0
    7.9679   -9.3049    0.0000 C   0  0
   11.3979   -8.2247    0.0000 C   0  0
    7.1644   -9.1178    0.0000 S   0  0
    9.5270   -6.0643    0.0000 O   0  0
    7.0325   -8.2247    0.0000 C   0  0
   13.1943   -7.6034    0.0000 C   0  0  2  0  0  0
   16.6131  -10.1897    0.0000 N   0  0
    1.4197   -9.3049    0.0000 N   0  0
    8.9034   -6.6044    0.0000 O   0  0
   11.5569   -7.3993    0.0000 O   0  0
    6.7382   -9.8241    0.0000 C   0  0
    8.0383  -10.1268    0.0000 C   0  0
   11.8779   -8.1593    0.0000 O   0  0
    7.2783  -10.4478    0.0000 C   0  0
    6.6824   -8.9717    0.0000 O   0  0
    2.8229   -9.0348    0.0000 N   0  0
   15.4735   -9.3276    0.0000 N   0  0
   16.7899   -8.7717    0.0000 N   0  0
    1.8874   -7.9546    0.0000 N   0  0
   13.0175   -9.0214    0.0000 O   0  0
   10.2019   -4.4746    0.0000 C   0  0
   11.7219   -3.8327    0.0000 C   0  0
   10.9302   -9.5749    0.0000 C   0  0
   12.1775   -8.4947    0.0000 C   0  0
    6.2529   -7.9546    0.0000 C   0  0
   14.0129   -7.7055    0.0000 C   0  0
    3.4465   -8.4947    0.0000 C   0  0
   15.1525   -8.5676    0.0000 C   0  0
   14.3339   -8.4655    0.0000 C   0  0
    5.6293   -8.4947    0.0000 C   0  0
    4.2261   -8.7648    0.0000 C   0  0
    4.8497   -8.2247    0.0000 C   0  0
   10.3040   -3.6559    0.0000 C   0  0
   11.0640   -3.3350    0.0000 C   0  0
   12.3334   -9.3049    0.0000 C   0  0
   11.7098   -9.8449    0.0000 C   0  0
  2  4  1  0
  3  1  1  0
  4  3  1  6
  5  1  1  0
  6  2  1  0
  5  7  1  1
  8  6  1  0
  9  2  1  0
 10  1  1  0
 11  5  1  0
 12  4  1  0
 13  7  1  0
 14 10  1  0
 15 37  1  0
 16 36  1  0
 17  8  1  0
  8 18  1  6
 19 26  1  0
 20 22  2  0
 21 18  1  0
 22 12  1  0
 23 21  1  0
 24  3  2  0
 25 17  1  0
 26 13  1  0
 27 15  2  0
 28 16  2  0
 29  6  2  0
 30  7  2  0
 31 23  1  0
 32 21  2  0
 33 19  2  0
 34 32  1  0
 35 25  2  0
 36 47  1  0
 37 48  1  0
 38 15  1  0
 39 16  1  0
 40 19  1  0
 41 10  1  0
 42 14  1  0
 43 20  1  0
 44 22  1  0
 45 25  1  0
 26 46  1  1
 47 51  1  0
 48 49  1  0
 49 46  1  0
 50 45  1  0
 51 52  1  0
 52 50  1  0
 53 41  1  0
 54 53  1  0
 55 44  2  0
 56 55  1  0
 14 11  1  0
 54 42  1  0
 20  9  1  0
 56 43  2  0
 34 31  2  0
M  END