
  SciTegic11201309402D

 38 42  0  0  0  0            999 V2000
   -5.8634    3.6536    0.0000 C   0  0
   -6.5779    3.2411    0.0000 C   0  0
   -6.5779    2.4161    0.0000 C   0  0
   -5.8634    2.0036    0.0000 C   0  0
   -5.1489    2.4161    0.0000 C   0  0
   -5.1489    3.2411    0.0000 C   0  0
   -4.4344    3.6536    0.0000 C   0  0
   -7.2924    3.6536    0.0000 O   0  0
   -4.4344    2.0036    0.0000 C   0  0
   -4.4344    1.1786    0.0000 C   0  0  1  0  0  0
   -5.8634    1.1786    0.0000 C   0  0
   -3.7200    0.7661    0.0000 C   0  0
   -5.1489    0.7661    0.0000 N   0  0
   -3.7200   -0.0589    0.0000 O   0  0
   -3.0055    1.1786    0.0000 N   0  0
   -2.2910    0.7661    0.0000 C   0  0  1  0  0  0
   -1.5765    1.1786    0.0000 C   0  0
   -1.5765    2.0036    0.0000 C   0  0
   -2.2910    2.4161    0.0000 C   0  0
   -3.0055    2.0036    0.0000 C   0  0
   -2.2910    3.2411    0.0000 C   0  0
   -1.5766    3.6536    0.0000 C   0  0
   -0.8621    3.2411    0.0000 C   0  0
   -0.8621    2.4161    0.0000 C   0  0
   -2.2910   -0.0589    0.0000 C   0  0
   -1.5765   -0.4714    0.0000 N   0  0
   -3.0055   -0.4714    0.0000 O   0  0
   -0.8621   -0.0589    0.0000 C   0  0
   -0.8621    0.7661    0.0000 C   0  0
   -0.1476    1.1786    0.0000 C   0  0
    0.6061    0.8430    0.0000 N   0  0
    1.1581    1.4561    0.0000 C   0  0
    0.7456    2.1706    0.0000 C   0  0
   -0.0613    1.9991    0.0000 N   0  0
    1.1581    2.8851    0.0000 C   0  0
    1.9831    2.8851    0.0000 C   0  0
    2.3956    2.1706    0.0000 C   0  0
    1.9831    1.4561    0.0000 C   0  0
  1  2  1  0
  1  6  2  0
  2  3  2  0
  3  4  1  0
  4  5  2  0
  5  6  1  0
  6  7  1  0
  2  8  1  0
  5  9  1  0
 10  9  1  0
  4 11  1  0
 10 12  1  0
 10 13  1  1
 12 14  2  0
 12 15  1  0
 16 15  1  0
 20 15  1  0
 16 17  1  0
 17 18  1  0
 19 20  1  0
 24 18  2  0
 18 19  1  0
 19 21  2  0
 21 22  1  0
 22 23  2  0
 23 24  1  0
 16 25  1  1
 25 26  1  0
 25 27  2  0
 26 28  1  0
 28 29  1  0
 29 30  1  0
 30 31  1  0
 30 34  2  0
 31 32  1  0
 33 34  1  0
 38 32  1  0
 32 33  2  0
 33 35  1  0
 35 36  2  0
 36 37  1  0
 37 38  2  0
M  END