
  SciTegic06271217572D

 24 25  0  0  0  0            999 V2000
   14.9054  -19.1561    0.0000 C   0  0
   15.6214  -19.5659    0.0000 C   0  0
   14.9023  -18.3311    0.0000 O   0  0
   16.3343  -19.1508    0.0000 S   0  0
   17.0503  -19.5606    0.0000 C   0  0
   17.0503  -20.3844    0.0000 N   0  0
   17.7655  -20.7941    0.0000 C   0  0
   18.4794  -20.3789    0.0000 C   0  0
   18.4736  -19.5496    0.0000 C   0  0
   17.7579  -19.1437    0.0000 N   0  0
   19.1960  -20.7878    0.0000 C   0  0
   19.2002  -21.6127    0.0000 C   0  0
   19.9167  -22.0216    0.0000 C   0  0
   19.9209  -22.8466    0.0000 C   0  0
   12.0472  -20.8158    0.0000 S   0  0
   11.6210  -21.5223    0.0000 O   0  0
   12.4459  -21.5381    0.0000 O   0  0
   11.3407  -20.3897    0.0000 N   0  0
   12.7652  -19.5750    0.0000 C   0  0
   12.7641  -20.4023    0.0000 C   0  0
   13.4789  -20.8152    0.0000 C   0  0
   14.1953  -20.4019    0.0000 C   0  0
   14.1925  -19.5713    0.0000 C   0  0
   13.4771  -19.1622    0.0000 C   0  0
 23  1  1  0
 11 12  1  0
  5  6  2  0
 12 13  1  0
  1  3  2  0
 13 14  1  0
 16 15  2  0
 15 17  2  0
  6  7  1  0
  7  8  2  0
  2  4  1  0
 15 18  1  0
  8  9  1  0
  1  2  1  0
 19 20  2  0
  9 10  2  0
 20 21  1  0
 10  5  1  0
 21 22  2  0
  4  5  1  0
 22 23  1  0
  8 11  1  0
 23 24  2  0
 24 19  1  0
 20 15  1  0
M  END