
  SciTegic10111218072D

 25 28  0  0  1  0            999 V2000
    3.0042   -6.7875    0.0000 C   0  0  2  0  0  0
    6.1292   -5.0000    0.0000 C   0  0  2  0  0  0
    4.0417   -6.1875    0.0000 C   0  0  2  0  0  0
    6.1292   -6.2000    0.0000 C   0  0  2  0  0  0
    5.0792   -6.8000    0.0000 C   0  0  2  0  0  0
    2.9958   -7.9875    0.0000 C   0  0  1  0  0  0
    5.0958   -4.3875    0.0000 C   0  0
    4.0458   -4.9875    0.0000 C   0  0
    1.9583   -6.1875    0.0000 C   0  0
    5.0833   -8.0000    0.0000 C   0  0
    7.2583   -6.5750    0.0000 C   0  0
    7.2792   -4.6375    0.0000 C   0  0  2  0  0  0
    4.0417   -8.6000    0.0000 C   0  0
    1.9583   -8.6000    0.0000 C   0  0
    7.9792   -5.6125    0.0000 C   0  0
    0.9208   -6.7917    0.0000 C   0  0
    0.9208   -8.0000    0.0000 C   0  0  1  0  0  0
    2.9958   -5.5875    0.0000 C   0  0
    6.1292   -3.8000    0.0000 C   0  0
    7.6583   -3.5000    0.0000 O   0  0
   -0.1208   -8.6000    0.0000 O   0  0
    6.1208   -7.4000    0.0000 H   0  0
    5.0708   -5.5917    0.0000 H   0  0
    4.0333   -7.3875    0.0000 H   0  0
    2.9917   -9.1875    0.0000 H   0  0
  2  7  1  0
  3  1  1  0
  4  5  1  0
  5  3  1  0
  6  1  1  0
  7  8  1  0
  8  3  1  0
  9  1  1  0
 10 13  1  0
 11  4  1  0
 12  2  1  0
 13  6  1  0
 14  6  1  0
 15 11  1  0
 16  9  1  0
 17 16  1  0
  1 18  1  1
  2 19  1  1
 12 20  1  1
 17 21  1  6
  4 22  1  6
  5 23  1  1
  3 24  1  6
  6 25  1  6
 14 17  1  0
  5 10  1  0
  2  4  1  0
 12 15  1  0
M  END