
  SciTegic12011114592D

 28 30  0  0  0  0            999 V2000
   19.3944  -15.6375    0.0000 C   0  0
   19.3932  -16.4648    0.0000 C   0  0
   20.1081  -16.8777    0.0000 C   0  0
   20.1063  -15.2247    0.0000 C   0  0
   20.8216  -15.6338    0.0000 C   0  0
   20.8204  -16.4669    0.0000 C   0  0
   21.5373  -16.8822    0.0000 C   0  0
   22.2600  -16.4690    0.0000 C   0  0
   22.2612  -15.6359    0.0000 C   0  0
   21.5397  -15.2160    0.0000 O   0  0
   21.5350  -17.7072    0.0000 O   0  0
   22.9750  -15.2277    0.0000 C   0  0
   23.6887  -15.6437    0.0000 C   0  0
   24.4037  -15.2337    0.0000 C   0  0
   24.4062  -14.4078    0.0000 C   0  0
   23.6877  -13.9937    0.0000 C   0  0
   22.9756  -14.4061    0.0000 C   0  0
   20.1078  -17.7027    0.0000 O   0  0
   18.6798  -15.2251    0.0000 O   0  0
   18.6784  -16.8768    0.0000 C   0  0
   17.9643  -16.4637    0.0000 C   0  0
   17.2495  -16.8756    0.0000 C   0  0
   17.9650  -15.6387    0.0000 C   0  0
   16.5354  -16.4626    0.0000 C   0  0
   15.8206  -16.8745    0.0000 C   0  0
   15.1064  -16.4614    0.0000 C   0  0
   14.3916  -16.8734    0.0000 C   0  0
   15.1071  -15.6364    0.0000 C   0  0
 13 14  1  0
  1  2  2  0
 14 15  2  0
  5  4  2  0
 15 16  1  0
  4  1  1  0
 16 17  2  0
 17 12  1  0
  9 12  1  0
  5 10  1  0
  3 18  1  0
  6  7  1  0
  1 19  1  0
  7  8  1  0
  2 20  1  0
  8  9  2  0
 20 21  2  0
  9 10  1  0
 21 22  1  0
  5  6  1  0
 21 23  1  0
  7 11  2  0
 22 24  1  0
 24 25  1  0
  2  3  1  0
 25 26  2  0
 12 13  2  0
 26 27  1  0
  3  6  2  0
 26 28  1  0
M  END