
  SciTegic05201615352D

 37 41  0  0  0  0            999 V2000
   -0.4397    0.5811    0.0000 P   0  0
    0.3449    0.3261    0.0000 O   0  0
   -1.2244    0.8360    0.0000 O   0  0
   -0.6947   -0.2036    0.0000 O   0  0
   -1.5016   -0.3751    0.0000 C   0  0
   -1.7566   -1.1597    0.0000 C   0  0  1  0  0  0
   -1.2717   -1.8271    0.0000 O   0  0
   -2.5412   -1.4146    0.0000 C   0  0  1  0  0  0
   -3.2086   -0.9297    0.0000 O   0  0
   -2.5412   -2.2396    0.0000 C   0  0  1  0  0  0
   -3.2086   -2.7246    0.0000 O   0  0
   -1.7566   -2.4946    0.0000 C   0  0  2  0  0  0
   -1.5016   -3.2792    0.0000 N   0  0
   -0.7170   -3.5341    0.0000 C   0  0
   -0.7170   -4.3591    0.0000 N   0  0
   -1.5016   -4.6141    0.0000 C   0  0
   -1.8372   -5.3678    0.0000 C   0  0
   -1.3523   -6.0352    0.0000 N   0  0
   -2.6577   -5.4540    0.0000 N   0  0
   -3.1426   -4.7866    0.0000 C   0  0
   -2.8070   -4.0329    0.0000 N   0  0
   -1.9866   -3.9466    0.0000 C   0  0
    0.6222    1.5372    0.0000 C   0  0
   -0.1848    1.3657    0.0000 O   0  0
    0.8771    2.3218    0.0000 C   0  0
    1.6841    2.4934    0.0000 C   0  0
    1.9390    3.2780    0.0000 C   0  0
    2.7460    3.4495    0.0000 C   0  0
    3.0009    4.2341    0.0000 C   0  0  2  0  0  0
    2.5160    4.9016    0.0000 S   0  0
    3.0009    5.5690    0.0000 C   0  0
    3.7856    5.3141    0.0000 C   0  0  2  0  0  0
    4.5702    5.5690    0.0000 N   0  0
    5.0551    4.9016    0.0000 C   0  0
    5.8801    4.9016    0.0000 O   0  0
    4.5702    4.2341    0.0000 N   0  0
    3.7856    4.4891    0.0000 C   0  0  2  0  0  0
  2  1  2  0
  1  3  1  0
  1  4  1  0
 24  1  1  0
  5  4  1  0
  6  5  1  1
  6  7  1  0
  8  6  1  0
 12  7  1  0
  8  9  1  6
 10  8  1  0
 10 11  1  6
 12 10  1  0
 12 13  1  1
 14 13  1  0
 22 13  1  0
 14 15  2  0
 16 15  1  0
 16 17  1  0
 22 16  2  0
 17 18  1  0
 17 19  2  0
 20 19  1  0
 20 21  2  0
 22 21  1  0
 23 24  1  0
 25 23  1  0
 26 25  1  0
 27 26  1  0
 28 27  1  0
 29 28  1  6
 29 30  1  0
 29 37  1  0
 31 30  1  0
 32 31  1  0
 32 33  1  6
 37 32  1  0
 34 33  1  0
 34 35  2  0
 34 36  1  0
 37 36  1  6
M  END