
  SciTegic05061116452D

 33 35  0  0  0  0            999 V2000
   19.0600  -19.8192    0.0000 N   0  0
   19.7717  -19.4106    0.0000 C   0  0
   19.7717  -18.5856    0.0000 N   0  0
   19.0600  -18.1693    0.0000 C   0  0
   18.3482  -19.4106    0.0000 C   0  0
   18.3483  -18.5811    0.0000 C   0  0
   17.5593  -18.3246    0.0000 N   0  0
   17.0716  -18.9958    0.0000 C   0  0
   17.5593  -19.6669    0.0000 N   0  0
   17.3044  -20.4515    0.0000 C   0  0
   16.4973  -20.6230    0.0000 C   0  0
   16.2424  -21.4076    0.0000 O   0  0
   15.9454  -20.0099    0.0000 O   0  0
   19.0620  -17.3442    0.0000 N   0  0
   20.4856  -19.8240    0.0000 N   0  0
   21.2005  -19.4124    0.0000 C   0  0
   21.9145  -19.8257    0.0000 C   0  0
   22.6295  -19.4141    0.0000 C   0  0
   23.3435  -19.8274    0.0000 C   0  0
   24.0584  -19.4158    0.0000 C   0  0
   20.4846  -20.6490    0.0000 C   0  0
   19.7696  -21.0606    0.0000 O   0  0
   21.1986  -21.0623    0.0000 O   0  0
   21.1975  -21.8874    0.0000 C   0  0
   21.9115  -22.3007    0.0000 C   0  0
   20.4826  -22.2989    0.0000 C   0  0
   21.1930  -22.7106    0.0000 C   0  0
   19.7774  -16.9335    0.0000 C   0  0
   20.4883  -17.3506    0.0000 C   0  0
   21.2032  -16.9405    0.0000 C   0  0
   21.2057  -16.1146    0.0000 C   0  0
   20.4872  -15.7006    0.0000 C   0  0
   19.7751  -16.1130    0.0000 C   0  0
 15 16  1  0
  6  7  1  0
 16 17  1  0
  7  8  2  0
 17 18  1  0
  8  9  1  0
 18 19  1  0
  9  5  1  0
 19 20  1  0
  3  4  2  0
 15 21  1  0
  9 10  1  0
 21 22  2  0
  5  6  2  0
 21 23  1  0
 10 11  1  0
 23 24  1  0
 24 25  1  0
 11 12  1  0
 24 26  1  0
  6  4  1  0
 24 27  1  0
 11 13  2  0
 14 28  1  0
  5  1  1  0
 28 29  2  0
  4 14  1  0
 29 30  1  0
  1  2  2  0
 30 31  2  0
  2 15  1  0
 31 32  1  0
  2  3  1  0
 32 33  2  0
 33 28  1  0
M  END