
  SciTegic02101214292D

 56 63  0  0  0  0            999 V2000
   10.8069   -7.9958    0.0000 C   0  0
   10.8057   -8.8232    0.0000 C   0  0
   11.5206   -9.2360    0.0000 C   0  0
   11.5188   -7.5830    0.0000 C   0  0
   12.2341   -7.9922    0.0000 C   0  0
   12.2330   -8.8206    0.0000 C   0  0
   12.9459   -9.2336    0.0000 O   0  0
   12.9483   -7.5766    0.0000 C   0  0
   13.6658   -7.9942    0.0000 C   0  0
   13.6641   -8.8190    0.0000 C   0  0
   14.3764   -9.2311    0.0000 C   0  0
   15.0909   -8.8195    0.0000 C   0  0
   15.0886   -7.9915    0.0000 C   0  0
   15.8058   -9.2313    0.0000 O   0  0
   10.0909   -9.2351    0.0000 O   0  0
   12.9488   -6.7558    0.0000 C   0  0
   13.6649   -6.3439    0.0000 C   0  0
   13.6652   -5.5197    0.0000 C   0  0
   12.9502   -5.1064    0.0000 C   0  0
   12.2334   -5.5233    0.0000 C   0  0
   12.2365   -6.3462    0.0000 C   0  0
   14.3780   -7.5822    0.0000 C   0  0
   12.9492   -4.2814    0.0000 N   0  0
   12.2342   -3.8698    0.0000 C   0  0
   12.2331   -3.0448    0.0000 N   0  0
   11.5202   -4.2832    0.0000 S   0  0
   12.9470   -2.6314    0.0000 C   0  0
   12.9459   -1.8064    0.0000 C   0  0
   13.6620   -3.0429    0.0000 C   0  0
   11.5181   -2.6332    0.0000 C   0  0
   11.5170   -1.8082    0.0000 C   0  0
   10.8020   -1.3967    0.0000 C   0  0
   10.8011   -0.5714    0.0000 N   0  0
   11.2905    0.0915    0.0000 C   0  0
   10.8077    0.7605    0.0000 N   0  0
   10.0197   -0.3169    0.0000 C   0  0
   10.0253    0.5083    0.0000 C   0  0
    9.3216    0.9198    0.0000 C   0  0
    8.6118    0.5154    0.0000 N   0  0
    8.6103   -0.3057    0.0000 C   0  0
    9.3146   -0.7202    0.0000 N   0  0
    9.3262    1.7448    0.0000 N   0  0
   12.1155    0.0870    0.0000 S   0  0
   12.5319    0.7993    0.0000 C   0  0
   13.3572    0.7893    0.0000 C   0  0
   12.5355    2.2202    0.0000 C   0  0
   12.1230    1.5082    0.0000 C   0  0
   13.3648    2.2184    0.0000 C   0  0
   13.7713    1.5028    0.0000 C   0  0
   14.5775    1.6683    0.0000 O   0  0
   14.6692    2.4862    0.0000 C   0  0
   13.9197    2.8261    0.0000 O   0  0
   11.2980    1.5091    0.0000 I   0  0
   14.4875   -6.3417    0.0000 C   0  0
   14.9020   -7.0550    0.0000 O   0  0
   14.8980   -5.6261    0.0000 O   0  0
  2  3  1  0
 25 27  1  0
 12 13  1  0
 27 28  1  0
 13 22  2  0
 27 29  1  0
 22  9  1  0
 25 30  1  0
  3  6  2  0
 30 31  1  0
 12 14  2  0
 31 32  1  0
  1  2  2  0
 32 33  1  0
 33 34  1  0
  2 15  1  0
  5  8  1  0
 34 35  2  0
 35 37  1  0
 36 33  1  0
  6  7  1  0
 16 17  2  0
 36 37  2  0
  7 10  1  0
 37 38  1  0
 17 18  1  0
 38 39  2  0
  9  8  2  0
 39 40  1  0
 18 19  2  0
 40 41  2  0
 41 36  1  0
  5  4  2  0
 38 42  1  0
 19 20  1  0
 34 43  1  0
  4  1  1  0
 43 44  1  0
 20 21  2  0
 44 45  2  0
 45 49  1  0
 21 16  1  0
 48 46  1  0
  8 16  1  0
 46 47  2  0
 47 44  1  0
 48 49  2  0
  9 10  1  0
  5  6  1  0
 19 23  1  0
 10 11  2  0
 23 24  1  0
 49 50  1  0
 50 51  1  0
 51 52  1  0
 52 48  1  0
 47 53  1  0
 24 25  1  0
 17 54  1  0
 11 12  1  0
 54 55  1  0
 24 26  2  0
 54 56  2  0
M  END