
          11280715212D 1   1.00000     0.00000     0

 15 16  0     0  0            999 V2000
   -3.6583   -1.5917    0.0000 N   0  0  0  0  0  0           0  0  0
   -3.0583   -1.5875    0.0000 C   0  0  0  0  0  0           0  0  0
   -1.2583   -1.5917    0.0000 C   0  0  0  0  0  0           0  0  0
   -0.6583   -1.5917    0.0000 C   0  0  0  0  0  0           0  0  0
   -1.5583   -1.0667    0.0000 C   0  0  0  0  0  0           0  0  0
   -1.5583   -2.1042    0.0000 C   0  0  0  0  0  0           0  0  0
   -0.3583   -2.1125    0.0000 C   0  0  0  0  0  0           0  0  0
   -0.3583   -1.0667    0.0000 C   0  0  0  0  0  0           0  0  0
   -2.4583   -1.5875    0.0000 C   0  0  0  0  0  0           0  0  0
    0.5417   -1.5917    0.0000 C   0  0  0  0  0  0           0  0  0
   -2.1500   -2.1042    0.0000 C   0  0  0  0  0  0           0  0  0
   -2.1583   -1.0667    0.0000 C   0  0  0  0  0  0           0  0  0
    0.2417   -2.1125    0.0000 C   0  0  0  0  0  0           0  0  0
    0.2375   -1.0667    0.0000 C   0  0  0  0  0  0           0  0  0
    1.1417   -1.5917    0.0000 O   0  0  0  0  0  0           0  0  0
  2  1  3  0     0  0
  3  5  2  0     0  0
  4  3  1  0     0  0
  5 12  1  0     0  0
  6 11  2  0     0  0
  7  4  2  0     0  0
  8  4  1  0     0  0
  9  2  1  0     0  0
 10 14  1  0     0  0
 11  9  1  0     0  0
 12  9  2  0     0  0
 13  7  1  0     0  0
 14  8  2  0     0  0
 15 10  1  0     0  0
  6  3  1  0     0  0
 13 10  2  0     0  0
M  END