
  SciTegic11201309402D

 75 77  0  0  1  0            999 V2000
    9.1792   -9.4750    0.0000 N   0  0
    8.4375   -9.9167    0.0000 C   0  0
   10.6250   -8.4667    0.0000 C   0  0
    3.9417   -9.9500    0.0000 C   0  0
    2.4417   -9.9500    0.0000 N   0  0
    1.6917   -9.5167    0.0000 C   0  0
    9.9042   -9.0167    0.0000 C   0  0  1  0  0  0
    6.1917   -9.5167    0.0000 C   0  0
   -0.5583   -9.9500    0.0000 C   0  0
    4.6917   -9.5167    0.0000 N   0  0
    0.1917   -9.5167    0.0000 N   0  0
    3.1917   -9.5167    0.0000 C   0  0  1  0  0  0
    6.9417   -9.9500    0.0000 N   0  0
   10.4500   -7.5292    0.0000 N   0  0
    5.4417   -9.9500    0.0000 C   0  0  1  0  0  0
    5.4417  -10.8167    0.0000 C   0  0
    0.9417   -9.9500    0.0000 C   0  0  1  0  0  0
    7.6792   -9.5042    0.0000 C   0  0  1  0  0  0
   -1.3000   -9.5167    0.0000 C   0  0  2  0  0  0
   14.9292   -7.9042    0.0000 C   0  0
   -2.0500  -10.8167    0.0000 C   0  0
   -2.0500   -9.9500    0.0000 N   0  0
   11.3000   -6.3042    0.0000 C   0  0
    5.2250  -11.6125    0.0000 C   0  0
   11.2292   -7.1625    0.0000 C   0  0  2  0  0  0
   15.7125   -7.5375    0.0000 N   0  0
    8.4542  -10.7875    0.0000 O   0  0
   11.4375   -8.8042    0.0000 O   0  0
    3.9417  -10.8167    0.0000 O   0  0
    1.6917   -8.6542    0.0000 O   0  0
   -0.5583  -10.8167    0.0000 O   0  0
    6.1917   -8.6542    0.0000 O   0  0
   -1.3000   -8.6542    0.0000 C   0  0
    0.9417  -10.8167    0.0000 C   0  0
   10.5917   -5.8042    0.0000 O   0  0
   -1.3000  -11.2500    0.0000 O   0  0
    4.4250  -11.8167    0.0000 O   0  0
   -2.7708  -11.2292    0.0000 C   0  0
   14.2167   -7.4125    0.0000 N   0  0
   -2.7708  -12.0542    0.0000 C   0  0
   14.8542   -8.7667    0.0000 N   0  0
   12.0875   -5.9292    0.0000 N   0  0
    9.3917  -10.3125    0.0000 C   0  0
    3.1917   -8.6542    0.0000 C   0  0
    5.8000  -12.2000    0.0000 N   0  0
   -0.5583   -8.2167    0.0000 C   0  0
    0.9417   -7.3542    0.0000 C   0  0
    1.6917  -11.2500    0.0000 C   0  0
   -0.5583   -7.3542    0.0000 C   0  0
    0.1917   -8.6542    0.0000 C   0  0
    6.1875   -6.2292    0.0000 N   0  0
    0.9417   -8.2167    0.0000 C   0  0
    0.1917   -6.9250    0.0000 C   0  0
   10.5750   -9.5667    0.0000 C   0  0
    1.6917   -6.9250    0.0000 O   0  0
   10.2542  -10.3667    0.0000 C   0  0
    7.6625   -8.6792    0.0000 C   0  0
   11.9417   -7.6625    0.0000 C   0  0
   -3.4833  -12.4667    0.0000 C   0  0
   -2.0583  -12.4667    0.0000 C   0  0
   -3.5708  -11.8417    0.0000 C   0  0
   13.4292   -7.7792    0.0000 C   0  0
    6.2042   -7.0542    0.0000 C   0  0
    2.4417   -8.2167    0.0000 C   0  0
    3.9417   -8.2167    0.0000 C   0  0
    1.6917   -6.0542    0.0000 C   0  0
    2.4417  -10.8167    0.0000 C   0  0
    1.6917  -12.1125    0.0000 C   0  0
   12.7167   -7.2917    0.0000 C   0  0
    6.9417   -8.2792    0.0000 C   0  0
    6.9250   -7.4542    0.0000 C   0  0
    2.4417   -5.6250    0.0000 C   0  0
    2.4417  -12.5417    0.0000 C   0  0
    3.1917  -11.2500    0.0000 C   0  0
    3.1917  -12.1125    0.0000 C   0  0
  2  1  1  0
  7  3  1  1
  4 10  1  0
 12  5  1  1
  6  5  1  0
  7  1  1  0
  8 13  1  0
  9 11  1  0
 15 10  1  6
 17 11  1  6
 12  4  1  0
 18 13  1  1
 14  3  1  0
 15  8  1  0
 15 16  1  0
 17  6  1  0
 18  2  1  0
 19  9  1  0
 20 39  2  0
 21 22  1  0
 19 22  1  6
 23 25  1  0
 24 16  1  0
 25 14  1  6
 26 20  1  0
 27  2  2  0
 28  3  2  0
 29  4  2  0
 30  6  2  0
 31  9  2  0
 32  8  2  0
 19 33  1  0
 17 34  1  0
 35 23  2  0
 36 21  2  0
 37 24  2  0
 38 21  1  0
 39 62  1  0
 40 38  1  0
 41 20  1  0
 42 23  1  0
 43  1  1  0
 12 44  1  0
 45 24  1  0
 46 33  1  0
 47 52  2  0
 48 34  1  0
 49 46  1  0
 50 46  2  0
 51 63  1  0
 52 50  1  0
 53 49  2  0
  7 54  1  0
 55 47  1  0
 56 43  1  0
 18 57  1  0
 25 58  1  0
 59 40  1  0
 60 40  1  0
 61 40  1  0
 62 69  1  0
 63 71  1  0
 64 44  1  0
 65 44  1  0
 66 55  1  0
 67 48  1  0
 68 48  2  0
 69 58  1  0
 70 57  1  0
 71 70  1  0
 72 66  1  0
 73 68  1  0
 74 67  2  0
 75 73  2  0
 56 54  1  0
 74 75  1  0
 53 47  1  0
M  END