
  Mrv0541 05211314572D          

 22 23  0  0  0  0            999 V2000
   -2.7129   -0.9220    0.0000 C   0  0  0  0  0  0  0  0  0  0  0  0
   -3.4975   -0.6670    0.0000 C   0  0  0  0  0  0  0  0  0  0  0  0
   -3.6691    0.1399    0.0000 C   0  0  0  0  0  0  0  0  0  0  0  0
   -3.0560    0.6920    0.0000 C   0  0  0  0  0  0  0  0  0  0  0  0
   -2.2713    0.4370    0.0000 C   0  0  0  0  0  0  0  0  0  0  0  0
   -2.0998   -0.3700    0.0000 C   0  0  0  0  0  0  0  0  0  0  0  0
   -1.6582    0.9891    0.0000 C   0  0  0  0  0  0  0  0  0  0  0  0
   -0.8736    0.7341    0.0000 C   0  0  0  0  0  0  0  0  0  0  0  0
   -0.6187   -0.0505    0.0000 S   0  0  0  0  0  0  0  0  0  0  0  0
    0.2063   -0.0505    0.0000 C   0  0  0  0  0  0  0  0  0  0  0  0
    0.4613    0.7341    0.0000 N   0  0  0  0  0  0  0  0  0  0  0  0
   -0.2062    1.2190    0.0000 C   0  0  0  0  0  0  0  0  0  0  0  0
   -0.2062    2.0440    0.0000 O   0  0  0  0  0  0  0  0  0  0  0  0
    0.6912   -0.7179    0.0000 S   0  0  0  0  0  0  0  0  0  0  0  0
    1.2459    0.9891    0.0000 C   0  0  0  0  0  0  0  0  0  0  0  0
    1.4174    1.7960    0.0000 C   0  0  0  0  0  0  0  0  0  0  0  0
    1.8590    0.4370    0.0000 C   0  0  0  0  0  0  0  0  0  0  0  0
    2.6436    0.6920    0.0000 C   0  0  0  0  0  0  0  0  0  0  0  0
    1.6874   -0.3700    0.0000 C   0  0  0  0  0  0  0  0  0  0  0  0
    2.2020    2.0510    0.0000 O   0  0  0  0  0  0  0  0  0  0  0  0
    0.8043    2.3481    0.0000 O   0  0  0  0  0  0  0  0  0  0  0  0
   -4.1106   -1.2191    0.0000 Br  0  0  0  0  0  0  0  0  0  0  0  0
  9 10  1  0  0  0  0
 10 11  1  0  0  0  0
 11 12  1  0  0  0  0
 12  8  1  0  0  0  0
  6  1  1  0  0  0  0
 12 13  2  0  0  0  0
  1  2  2  0  0  0  0
 10 14  2  0  0  0  0
  5  7  1  0  0  0  0
 11 15  1  0  0  0  0
  3  4  2  0  0  0  0
 15 16  1  0  0  0  0
  7  8  2  0  0  0  0
 15 17  1  0  0  0  0
  8  9  1  0  0  0  0
 17 18  1  0  0  0  0
 17 19  1  0  0  0  0
  4  5  1  0  0  0  0
 16 20  2  0  0  0  0
  2  3  1  0  0  0  0
 16 21  1  0  0  0  0
  5  6  2  0  0  0  0
  2 22  1  0  0  0  0
M  END