
  SciTegic04091415032D

 39 42  0  0  0  0            999 V2000
    8.3239  -11.5504    0.0000 C   0  0
    8.3227  -12.3779    0.0000 C   0  0
    9.0376  -12.7907    0.0000 C   0  0
    9.0358  -11.1377    0.0000 C   0  0
    9.7512  -11.5468    0.0000 C   0  0
    9.7520  -12.3737    0.0000 C   0  0
   10.4673  -12.7846    0.0000 N   0  0
   11.1824  -12.3699    0.0000 C   0  0
   11.1776  -11.5399    0.0000 C   0  0
   10.4617  -11.1326    0.0000 C   0  0
    7.6134  -11.1339    0.0000 C   0  0
   10.4573  -10.3076    0.0000 C   0  0
   11.1696   -9.8913    0.0000 O   0  0
    9.7406   -9.8989    0.0000 O   0  0
   11.8985  -12.7796    0.0000 C   0  0
   11.9017  -13.6046    0.0000 N   0  0
   12.6114  -12.3643    0.0000 O   0  0
   12.6178  -14.0144    0.0000 C   0  0  2  0  0  0
   12.6210  -14.8395    0.0000 C   0  0
   13.3306  -13.5991    0.0000 C   0  0
   14.0467  -14.0089    0.0000 C   0  0
   14.0468  -14.8309    0.0000 C   0  0
   14.7621  -15.2406    0.0000 C   0  0
   15.4760  -14.8252    0.0000 C   0  0
   15.4701  -13.9959    0.0000 C   0  0
   14.7543  -13.5900    0.0000 C   0  0
    6.9028  -11.5405    0.0000 C   0  0
   16.1926  -15.2339    0.0000 O   0  0
    6.1899  -11.1253    0.0000 C   0  0
    6.1980  -10.3032    0.0000 C   0  0
    5.4859   -9.8880    0.0000 C   0  0
    4.7688  -10.2979    0.0000 C   0  0
    4.7683  -11.1272    0.0000 C   0  0
    5.4811  -11.5386    0.0000 C   0  0
    4.0604   -9.8844    0.0000 Cl  0  0
   11.9081  -15.2547    0.0000 N   0  0
   13.3371  -15.2492    0.0000 O   0  0
   11.1920  -14.8450    0.0000 C   0  0
   11.9113  -16.0798    0.0000 C   0  0
  1  2  2  0
  2  3  1  0
  3  6  2  0
  5  4  2  0
  4  1  1  0
  5  6  1  0
  6  7  1  0
  7  8  2  0
  8  9  1  0
  9 10  2  0
 10  5  1  0
  1 11  1  0
 10 12  1  0
 12 13  2  0
 12 14  1  0
  8 15  1  0
 15 16  1  0
 15 17  2  0
 16 18  1  0
 18 19  1  1
 18 20  1  0
 20 21  1  0
 21 22  2  0
 22 23  1  0
 23 24  2  0
 24 25  1  0
 25 26  2  0
 26 21  1  0
 27 11  2  0
 24 28  1  0
 27 29  1  0
 29 30  2  0
 30 31  1  0
 31 32  2  0
 32 33  1  0
 33 34  2  0
 34 29  1  0
 32 35  1  0
 19 36  1  0
 19 37  2  0
 36 38  1  0
 36 39  1  0
M  END