
          11280715392D 1   1.00000     0.00000     0

 42 43  0     0  0            999 V2000
    0.8917   -2.3875    0.0000 C   0  0  0  0  0  0           0  0  0
   13.1917   -9.1417    0.0000 C   0  0  0  0  0  0           0  0  0
    0.5917   -1.8625    0.0000 C   0  0  0  0  0  0           0  0  0
   13.4875   -9.6625    0.0000 C   0  0  0  0  0  0           0  0  0
    0.8917   -1.3417    0.0000 S   0  0  0  0  0  0           0  0  0
   13.1875  -10.1792    0.0000 S   0  0  0  0  0  0           0  0  0
    1.7917   -2.9042    0.0000 N   0  0  0  0  0  0           0  0  0
   12.2917   -8.6167    0.0000 N   0  0  0  0  0  0           0  0  0
    8.9917   -7.0625    0.0000 N   0  0  0  0  0  0           0  0  0
    5.0917   -4.4625    0.0000 N   0  0  0  0  0  0           0  0  0
    1.4917   -2.3875    0.0000 C   0  0  0  0  0  0           0  0  0
   12.5917   -9.1417    0.0000 C   0  0  0  0  0  0           0  0  0
    0.5917   -2.9042    0.0000 C   0  0  0  0  0  0           0  0  0
   13.4875   -8.6167    0.0000 C   0  0  0  0  0  0           0  0  0
   14.0875   -9.6625    0.0000 C   0  0  0  0  0  0           0  0  0
   -0.0083   -1.8625    0.0000 C   0  0  0  0  0  0           0  0  0
    8.6917   -6.5417    0.0000 C   0  0  0  0  0  0           0  0  0
    4.4917   -4.4625    0.0000 C   0  0  0  0  0  0           0  0  0
    9.5917   -7.0625    0.0000 C   0  0  0  0  0  0           0  0  0
   11.6917   -8.6167    0.0000 C   0  0  0  0  0  0           0  0  0
    2.3917   -2.9042    0.0000 C   0  0  0  0  0  0           0  0  0
    5.3917   -4.9792    0.0000 C   0  0  0  0  0  0           0  0  0
    0.5917   -0.8250    0.0000 C   0  0  0  0  0  0           0  0  0
   13.4875  -10.7000    0.0000 C   0  0  0  0  0  0           0  0  0
   11.3917   -8.1000    0.0000 C   0  0  0  0  0  0           0  0  0
    8.0917   -6.5417    0.0000 C   0  0  0  0  0  0           0  0  0
    4.1917   -3.9417    0.0000 C   0  0  0  0  0  0           0  0  0
    2.6917   -3.4250    0.0000 C   0  0  0  0  0  0           0  0  0
    5.9917   -4.9792    0.0000 C   0  0  0  0  0  0           0  0  0
    9.8917   -7.5792    0.0000 C   0  0  0  0  0  0           0  0  0
    6.8917   -5.5042    0.0000 C   0  0  0  0  0  0           0  0  0
    7.1917   -6.0167    0.0000 C   0  0  0  0  0  0           0  0  0
   10.4917   -7.5792    0.0000 C   0  0  0  0  0  0           0  0  0
   10.7917   -8.1000    0.0000 C   0  0  0  0  0  0           0  0  0
    7.7917   -6.0167    0.0000 C   0  0  0  0  0  0           0  0  0
    3.5917   -3.9417    0.0000 C   0  0  0  0  0  0           0  0  0
    3.2917   -3.4250    0.0000 C   0  0  0  0  0  0           0  0  0
    6.2917   -5.5042    0.0000 C   0  0  0  0  0  0           0  0  0
   14.0792   -8.6167    0.0000 C   0  0  0  0  0  0           0  0  0
   -0.0083   -2.9042    0.0000 C   0  0  0  0  0  0           0  0  0
   -0.3083   -2.3792    0.0000 C   0  0  0  0  0  0           0  0  0
   14.3875   -9.1417    0.0000 C   0  0  0  0  0  0           0  0  0
  2 12  1  0     0  0
  3  1  2  0     0  0
  4  2  2  0     0  0
  5  3  1  0     0  0
  6  4  1  0     0  0
  7 11  1  0     0  0
  8 20  1  0     0  0
  9 17  1  0     0  0
 10 18  1  0     0  0
 11  1  1  0     0  0
 12  8  1  0     0  0
 13  1  1  0     0  0
 14  2  1  0     0  0
 15  4  1  0     0  0
 16  3  1  0     0  0
 17 26  1  0     0  0
 18 27  1  0     0  0
 19  9  1  0     0  0
 20 25  1  0     0  0
 21  7  1  0     0  0
 22 10  1  0     0  0
 23  5  1  0     0  0
 24  6  1  0     0  0
 25 34  1  0     0  0
 26 35  1  0     0  0
 27 36  1  0     0  0
 28 21  1  0     0  0
 29 22  1  0     0  0
 30 19  1  0     0  0
 31 38  1  0     0  0
 32 31  1  0     0  0
 33 30  1  0     0  0
 34 33  1  0     0  0
 35 32  1  0     0  0
 36 37  1  0     0  0
 37 28  1  0     0  0
 38 29  1  0     0  0
 39 14  2  0     0  0
 40 13  2  0     0  0
 41 40  1  0     0  0
 42 39  1  0     0  0
 16 41  2  0     0  0
 15 42  2  0     0  0
M  END