
          11280714522D 1   1.00000     0.00000     0

 37 41  0     0  0            999 V2000
    0.5292   -2.3542    0.0000 C   0  0  0  0  0  0           0  0  0
    1.1917   -1.8792    0.0000 N   0  0  0  0  0  0           0  0  0
    0.2625   -1.6792    0.0000 C   0  0  3  0  0  0           0  0  0
    1.8625   -2.3542    0.0000 C   0  0  0  0  0  0           0  0  0
    0.4125   -0.9917    0.0000 C   0  0  3  0  0  0           0  0  0
   -1.0458   -1.7667    0.0000 C   0  0  3  0  0  0           0  0  0
   -0.7083   -2.5542    0.0000 O   0  0  0  0  0  0           0  0  0
    0.7792   -3.1417    0.0000 O   0  0  0  0  0  0           0  0  0
   -0.3708   -1.2167    0.0000 C   0  0  3  0  0  0           0  0  0
    1.6042   -3.1417    0.0000 C   0  0  0  0  0  0           0  0  0
    0.8917   -1.4667    0.0000 C   0  0  0  0  0  0           0  0  0
    2.5292   -2.0792    0.0000 C   0  0  0  0  0  0           0  0  0
    1.3625   -0.9917    0.0000 C   0  0  0  0  0  0           0  0  0
   -0.9708    0.4833    0.0000 C   0  0  0  0  0  0           0  0  0
   -1.3208   -1.2292    0.0000 C   0  0  0  0  0  0           0  0  0
   -0.8458   -0.7417    0.0000 C   0  0  0  0  0  0           0  0  0
    0.9292   -0.2917    0.0000 C   0  0  0  0  0  0           0  0  0
    2.6167   -1.3292    0.0000 O   0  0  0  0  0  0           0  0  0
   -1.7708    0.2708    0.0000 O   0  0  0  0  0  0           0  0  0
    3.1792   -2.4917    0.0000 N   0  0  0  0  0  0           0  0  0
    0.3417    0.2958    0.0000 C   0  0  0  0  0  0           0  0  0
   -0.3750   -0.1125    0.0000 C   0  0  0  0  0  0           0  0  0
   -0.7500    1.2833    0.0000 O   0  0  0  0  0  0           0  0  0
    6.7667   -2.1167    0.0000 C   0  0  0  0  0  0           0  0  0
    2.1917   -0.9667    0.0000 C   0  0  0  0  0  0           0  0  0
    1.3292    0.4458    0.0000 C   0  0  0  0  0  0           0  0  0
    3.9167   -2.1250    0.0000 C   0  0  0  0  0  0           0  0  0
    6.0542   -2.5292    0.0000 C   0  0  0  0  0  0           0  0  0
    7.4792   -2.5250    0.0000 C   0  0  0  0  0  0           0  0  0
    6.7542   -1.2917    0.0000 C   0  0  0  0  0  0           0  0  0
    4.6292   -2.5375    0.0000 C   0  0  0  0  0  0           0  0  0
    5.3417   -2.1167    0.0000 C   0  0  0  0  0  0           0  0  0
    2.5875   -0.2417    0.0000 C   0  0  0  0  0  0           0  0  0
    2.1542    0.4583    0.0000 C   0  0  0  0  0  0           0  0  0
    7.4667   -0.8750    0.0000 C   0  0  0  0  0  0           0  0  0
    8.1917   -2.1042    0.0000 C   0  0  0  0  0  0           0  0  0
    8.1875   -1.2792    0.0000 C   0  0  0  0  0  0           0  0  0
  2  1  2  0     0  0
  3  1  1  0     0  0
  4  2  1  0     0  0
  5  3  1  0     0  0
  6  3  1  0     0  0
  7  6  1  0     0  0
  8  1  1  0     0  0
  9  5  1  0     0  0
 10  8  1  0     0  0
 11  5  1  0     0  0
 12  4  1  0     0  0
 13 11  1  0     0  0
 14 22  1  0     0  0
 15  6  1  0     0  0
 16 15  1  0     0  0
 17 13  2  0     0  0
 18 12  2  0     0  0
 19 14  2  0     0  0
 20 12  1  0     0  0
 21 17  1  0     0  0
 22 21  1  0     0  0
 23 14  1  0     0  0
 24 28  1  0     0  0
 25 13  1  0     0  0
 26 17  1  0     0  0
 27 20  1  0     0  0
 28 32  1  0     0  0
 29 24  2  0     0  0
 30 24  1  0     0  0
 31 27  1  0     0  0
 32 31  1  0     0  0
 33 25  2  0     0  0
 34 33  1  0     0  0
 35 30  2  0     0  0
 36 29  1  0     0  0
 37 35  1  0     0  0
 10  4  2  0     0  0
  9  7  1  0     0  0
  9 16  1  0     0  0
 34 26  2  0     0  0
 37 36  2  0     0  0
M  END