
  SciTegic06051313522D

 38 41  0  0  0  0            999 V2000
   28.3874  -26.4259    0.0000 O   0  0
   28.8041  -27.1426    0.0000 S   0  0
   29.2164  -26.4234    0.0000 O   0  0
   22.3860  -27.5926    0.0000 C   0  0
   22.3848  -28.4199    0.0000 C   0  0
   23.0996  -28.8328    0.0000 C   0  0
   23.8161  -28.4195    0.0000 C   0  0
   23.8132  -27.5889    0.0000 C   0  0
   23.0978  -27.1798    0.0000 C   0  0
   24.5261  -27.1737    0.0000 C   0  0
   25.2422  -27.5836    0.0000 C   0  0
   25.2419  -28.4062    0.0000 C   0  0
   25.9571  -28.8159    0.0000 C   0  0
   26.6710  -28.4007    0.0000 C   0  0
   26.6652  -27.5714    0.0000 C   0  0
   25.9495  -27.1654    0.0000 N   0  0
   24.5312  -28.8308    0.0000 O   0  0
   24.5325  -29.6558    0.0000 C   0  0
   25.2476  -30.0672    0.0000 C   0  0
   25.2443  -30.8895    0.0000 C   0  0
   25.9585  -31.3008    0.0000 C   0  0
   26.6734  -30.8872    0.0000 C   0  0
   26.6694  -30.0579    0.0000 C   0  0
   25.9545  -29.6503    0.0000 C   0  0
   24.5292  -31.3010    0.0000 F   0  0
   27.3890  -31.2976    0.0000 Cl  0  0
   21.6714  -27.1802    0.0000 Cl  0  0
   27.3788  -27.1531    0.0000 C   0  0
   28.0963  -27.5603    0.0000 N   0  0
   27.3728  -26.3281    0.0000 O   0  0
   29.5252  -27.5499    0.0000 C   0  0
   29.5281  -28.3729    0.0000 C   0  0
   30.2448  -28.7801    0.0000 C   0  0
   30.9572  -28.3623    0.0000 C   0  0
   30.9485  -27.5331    0.0000 C   0  0
   30.2313  -27.1296    0.0000 C   0  0
   31.6752  -28.7686    0.0000 Cl  0  0
   31.6585  -27.1129    0.0000 Cl  0  0
  2  1  2  0
  3  2  2  0
  4  5  2  0
  5  6  1  0
  6  7  2  0
  7  8  1  0
  8  9  2  0
  9  4  1  0
  8 10  1  0
 10 11  1  0
 11 12  2  0
 12 13  1  0
 13 14  2  0
 14 15  1  0
 15 16  2  0
 16 11  1  0
  7 17  1  0
 17 18  1  0
 18 19  1  0
 19 20  2  0
 20 21  1  0
 21 22  2  0
 22 23  1  0
 23 24  2  0
 24 19  1  0
 20 25  1  0
 22 26  1  0
  4 27  1  0
 28 29  1  0
 28 30  2  0
 15 28  1  0
 29  2  1  0
  2 31  1  0
 31 32  2  0
 32 33  1  0
 33 34  2  0
 34 35  1  0
 35 36  2  0
 36 31  1  0
 34 37  1  0
 35 38  1  0
M  END