
          11280715032D 1   1.00000     0.00000     0

 33 35  0     0  0            999 V2000
    0.1500   -0.7500    0.0000 S   0  0  3  0  0  0           0  0  0
   -0.3708   -0.4500    0.0000 C   0  0  0  0  0  0           0  0  0
   -0.3458   -1.3750    0.0000 O   0  0  0  0  0  0           0  0  0
    0.5000   -1.3417    0.0000 O   0  0  0  0  0  0           0  0  0
    3.2625   -0.7167    0.0000 C   0  0  0  0  0  0           0  0  0
    0.6667   -0.4417    0.0000 N   0  0  0  0  0  0           0  0  0
    3.2792   -3.1250    0.0000 C   0  0  0  0  0  0           0  0  0
    2.7625   -3.4292    0.0000 O   0  0  0  0  0  0           0  0  0
    2.7500   -1.6292    0.0000 C   0  0  0  0  0  0           0  0  0
    2.2250   -0.7292    0.0000 C   0  0  0  0  0  0           0  0  0
   -0.3708    0.1583    0.0000 C   0  0  0  0  0  0           0  0  0
   -0.8875   -0.7500    0.0000 C   0  0  0  0  0  0           0  0  0
    3.2667   -1.3250    0.0000 C   0  0  0  0  0  0           0  0  0
    2.7417   -0.4292    0.0000 C   0  0  0  0  0  0           0  0  0
    3.7792   -0.4167    0.0000 C   0  0  0  0  0  0           0  0  0
    2.2292   -1.3292    0.0000 C   0  0  0  0  0  0           0  0  0
    3.2750   -2.5250    0.0000 C   0  0  0  0  0  0           0  0  0
    4.3000   -0.7042    0.0000 C   0  0  0  0  0  0           0  0  0
   -1.4083    0.1500    0.0000 C   0  0  0  0  0  0           0  0  0
    5.3417   -1.2917    0.0000 C   0  0  0  0  0  0           0  0  0
    2.7542   -2.2292    0.0000 C   0  0  0  0  0  0           0  0  0
    3.8042   -3.4167    0.0000 O   0  0  0  0  0  0           0  0  0
   -1.4083   -0.4500    0.0000 C   0  0  0  0  0  0           0  0  0
   -0.8875    0.4583    0.0000 C   0  0  0  0  0  0           0  0  0
   -1.9250    0.4583    0.0000 Cl  0  0  0  0  0  0           0  0  0
    1.1875   -0.7417    0.0000 C   0  0  0  0  0  0           0  0  0
    4.3042   -1.3042    0.0000 C   0  0  0  0  0  0           0  0  0
    4.8125   -0.4000    0.0000 C   0  0  0  0  0  0           0  0  0
    5.3375   -0.6917    0.0000 C   0  0  0  0  0  0           0  0  0
    4.8292   -1.6000    0.0000 C   0  0  0  0  0  0           0  0  0
    5.8667   -1.5875    0.0000 O   0  0  0  0  0  0           0  0  0
    1.7042   -0.4375    0.0000 C   0  0  0  0  0  0           0  0  0
    5.8750   -2.1875    0.0000 C   0  0  0  0  0  0           0  0  0
  2  1  1  0     0  0
  3  1  2  0     0  0
  4  1  2  0     0  0
  5 14  2  0     0  0
  6  1  1  0     0  0
  7 17  1  0     0  0
  8  7  2  0     0  0
  9 16  1  0     0  0
 10 32  1  0     0  0
 11  2  1  0     0  0
 12  2  2  0     0  0
 13  9  2  0     0  0
 14 10  1  0     0  0
 15  5  1  0     0  0
 16 10  2  0     0  0
 17 21  1  0     0  0
 18 15  1  0     0  0
 19 23  2  0     0  0
 20 29  1  0     0  0
 21  9  1  0     0  0
 22  7  1  0     0  0
 23 12  1  0     0  0
 24 11  2  0     0  0
 25 19  1  0     0  0
 26  6  1  0     0  0
 27 18  2  0     0  0
 28 18  1  0     0  0
 29 28  2  0     0  0
 30 27  1  0     0  0
 31 20  1  0     0  0
 32 26  1  0     0  0
 33 31  1  0     0  0
 19 24  1  0     0  0
  5 13  1  0     0  0
 20 30  2  0     0  0
M  END