
          11280715092D 1   1.00000     0.00000     0

 29 31  0     1  0            999 V2000
    7.2500   -3.4167    0.0000 C   0  0  0  0  0  0           0  0  0
    6.5292   -3.0042    0.0000 N   0  0  0  0  0  0           0  0  0
    5.8167   -3.4167    0.0000 C   0  0  2  0  0  0           0  0  0
    5.1042   -3.0042    0.0000 C   0  0  0  0  0  0           0  0  0
    7.9625   -3.0042    0.0000 C   0  0  0  0  0  0           0  0  0
    4.3875   -3.4167    0.0000 N   0  0  0  0  0  0           0  0  0
    7.2500   -4.2417    0.0000 O   0  0  0  0  0  0           0  0  0
    5.1042   -2.1792    0.0000 C   0  0  0  0  0  0           0  0  0
    5.8167   -4.2417    0.0000 C   0  0  0  0  0  0           0  0  0
    8.6792   -3.4167    0.0000 C   0  0  0  0  0  0           0  0  0
    7.9542   -2.1792    0.0000 C   0  0  0  0  0  0           0  0  0
    4.3875   -1.7667    0.0000 C   0  0  0  0  0  0           0  0  0
    3.6750   -3.0042    0.0000 C   0  0  0  0  0  0           0  0  0
    8.6667   -1.7667    0.0000 C   0  0  0  0  0  0           0  0  0
    9.3917   -3.0042    0.0000 C   0  0  0  0  0  0           0  0  0
    9.3917   -2.1792    0.0000 C   0  0  0  0  0  0           0  0  0
   10.8167   -2.1750    0.0000 N   0  0  0  0  0  0           0  0  0
    5.1042   -4.6542    0.0000 C   0  0  3  0  0  0           0  0  0
   10.1042   -1.7625    0.0000 C   0  0  0  0  0  0           0  0  0
    3.6750   -2.1792    0.0000 C   0  0  0  0  0  0           0  0  0
    4.3792   -0.9417    0.0000 C   0  0  0  0  0  0           0  0  0
    5.1125   -5.4792    0.0000 C   0  0  0  0  0  0           0  0  0
    4.3917   -4.2417    0.0000 C   0  0  0  0  0  0           0  0  0
    5.1000   -0.5292    0.0000 C   0  0  0  0  0  0           0  0  0
    5.8125   -0.9375    0.0000 C   0  0  0  0  0  0           0  0  0
    6.5292   -0.5250    0.0000 C   0  0  0  0  0  0           0  0  0
    4.3917   -5.8917    0.0000 C   0  0  0  0  0  0           0  0  0
    3.6792   -4.6542    0.0000 C   0  0  0  0  0  0           0  0  0
    3.6792   -5.4792    0.0000 C   0  0  0  0  0  0           0  0  0
  2  1  1  0     0  0
  3  2  1  0     0  0
  4  3  1  0     0  0
  5  1  1  0     0  0
  6  4  2  0     0  0
  7  1  2  0     0  0
  8  4  1  0     0  0
  3  9  1  1     0  0
 10  5  2  0     0  0
 11  5  1  0     0  0
 12  8  2  0     0  0
 13  6  1  0     0  0
 14 11  2  0     0  0
 15 10  1  0     0  0
 16 14  1  0     0  0
 17 19  1  0     0  0
 18  9  1  0     0  0
 19 16  1  0     0  0
 20 12  1  0     0  0
 21 12  1  0     0  0
 22 18  1  0     0  0
 23 18  1  0     0  0
 24 21  1  0     0  0
 25 24  1  0     0  0
 26 25  1  0     0  0
 27 22  1  0     0  0
 28 23  1  0     0  0
 29 28  1  0     0  0
 16 15  2  0     0  0
 13 20  2  0     0  0
 29 27  1  0     0  0
M  END