
  CDK    9/16/09,10:6

 42 43  0  0  0  0  0  0  0  0999 V2000
   -2.8204  -25.1928    0.0000 C   0  0  0  0  0  0  0  0  0  0  0  0
   -2.8204  -26.0212    0.0000 C   0  0  0  0  0  0  0  0  0  0  0  0
   -2.1042  -26.4355    0.0000 C   0  0  0  0  0  0  0  0  0  0  0  0
   -1.3880  -26.0212    0.0000 C   0  0  0  0  0  0  0  0  0  0  0  0
   -1.3880  -25.1928    0.0000 C   0  0  0  0  0  0  0  0  0  0  0  0
   -2.1042  -24.7785    0.0000 C   0  0  0  0  0  0  0  0  0  0  0  0
   -2.1054  -23.9548    0.0000 O   0  0  0  0  0  0  0  0  0  0  0  0
   -2.1054  -27.2593    0.0000 O   0  0  0  0  0  0  0  0  0  0  0  0
   -3.5329  -24.7850    0.0000 C   0  0  0  0  0  0  0  0  0  0  0  0
   -3.5349  -23.9612    0.0000 C   0  0  0  0  0  0  0  0  0  0  0  0
   -4.2522  -23.5487    0.0000 C   0  0  0  0  0  0  0  0  0  0  0  0
   -2.8244  -23.5453    0.0000 C   0  0  0  0  0  0  0  0  0  0  0  0
   -2.8264  -22.7215    0.0000 C   0  0  0  0  0  0  0  0  0  0  0  0
   -2.1112  -22.3101    0.0000 C   0  0  0  0  0  0  0  0  0  0  0  0
   -3.5390  -22.3137    0.0000 O   0  0  0  0  0  0  0  0  0  0  0  0
   -3.5410  -21.4899    0.0000 C   0  0  0  0  0  0  0  0  0  0  0  0
   -2.1132  -21.4864    0.0000 C   0  0  0  0  0  0  0  0  0  0  0  0
   -1.3987  -22.7180    0.0000 O   0  0  0  0  0  0  0  0  0  0  0  0
   -1.4027  -21.0705    0.0000 C   0  0  0  0  0  0  0  0  0  0  0  0
   -2.8305  -21.0739    0.0000 C   0  0  0  0  0  0  0  0  0  0  0  0
   -0.6855  -21.4829    0.0000 C   0  0  0  0  0  0  0  0  0  0  0  0
    0.0250  -21.0669    0.0000 C   0  0  0  0  0  0  0  0  0  0  0  0
   -0.6835  -22.3066    0.0000 C   0  0  0  0  0  0  0  0  0  0  0  0
    0.8470  -21.0645    0.0000 C   0  0  0  0  0  0  0  0  0  0  0  0
    1.5591  -21.4788    0.0000 C   0  0  0  0  0  0  0  0  0  0  0  0
    1.0591  -20.2694    0.0000 O   0  0  0  0  0  0  0  0  0  0  0  0
   -0.1892  -20.2723    0.0000 O   0  0  0  0  0  0  0  0  0  0  0  0
   -0.9851  -20.0623    0.0000 C   0  0  0  0  0  0  0  0  0  0  0  0
   -1.2040  -19.2628    0.0000 O   0  0  0  0  0  0  0  0  0  0  0  0
   -1.5666  -20.6468    0.0000 N   0  0  0  0  0  0  0  0  0  0  0  0
    1.8589  -20.0570    0.0000 C   0  0  0  0  0  0  0  0  0  0  0  0
    1.5571  -22.3026    0.0000 C   0  0  0  0  0  0  0  0  0  0  0  0
    0.8399  -22.7103    0.0000 C   0  0  0  0  0  0  0  0  0  0  0  0
    0.8377  -23.5341    0.0000 C   0  0  0  0  0  0  0  0  0  0  0  0
    1.5530  -23.9502    0.0000 C   0  0  0  0  0  0  0  0  0  0  0  0
   -0.6714  -24.7840    0.0000 N   0  0  0  0  0  0  0  0  0  0  0  0
   -0.6705  -23.9602    0.0000 C   0  0  0  0  0  0  0  0  0  0  0  0
   -1.3863  -23.5453    0.0000 O   0  0  0  0  0  0  0  0  0  0  0  0
   -3.5461  -26.4398    0.0000 N   0  0  0  0  0  0  0  0  0  0  0  0
   -4.2714  -26.0206    0.0000 C   0  0  0  0  0  0  0  0  0  0  0  0
   -4.9971  -26.4393    0.0000 C   0  0  0  0  0  0  0  0  0  0  0  0
   -5.7225  -26.0202    0.0000 F   0  0  0  0  0  0  0  0  0  0  0  0
 19 21  2  0  0  0  0 
  3  4  1  0  0  0  0 
 21 22  1  0  0  0  0 
 10 11  1  1  0  0  0 
 21 23  1  0  0  0  0 
  4  5  2  0  0  0  0 
 22 24  1  0  0  0  0 
 10 12  1  0  0  0  0 
 24 25  1  0  0  0  0 
  5  6  1  0  0  0  0 
 24 26  1  1  0  0  0 
 12 13  1  0  0  0  0 
 22 27  1  6  0  0  0 
 27 28  1  0  0  0  0 
 13 14  1  0  0  0  0 
 28 29  2  0  0  0  0 
  6  7  2  0  0  0  0 
 28 30  1  0  0  0  0 
 13 15  1  6  0  0  0 
 26 31  1  0  0  0  0 
  1  2  2  0  0  0  0 
 25 32  2  0  0  0  0 
 15 16  1  0  0  0  0 
 32 33  1  0  0  0  0 
  3  8  2  0  0  0  0 
 33 34  2  0  0  0  0 
 14 17  1  0  0  0  0 
 34 35  1  0  0  0  0 
  1  6  1  0  0  0  0 
  5 36  1  0  0  0  0 
 14 18  1  1  0  0  0 
 36 37  1  0  0  0  0 
  1  9  1  0  0  0  0 
 37 38  2  0  0  0  0 
 37 34  1  0  0  0  0 
 17 19  1  0  0  0  0 
  2 39  1  0  0  0  0 
  2  3  1  0  0  0  0 
 39 40  1  0  0  0  0 
 17 20  1  1  0  0  0 
 40 41  1  0  0  0  0 
  9 10  1  0  0  0  0 
 41 42  1  0  0  0  0 
M  END