
  SciTegic06061310022D

 24 26  0  0  0  0            999 V2000
    3.2815   -1.3404    0.0000 C   0  0
    3.2815   -0.5154    0.0000 C   0  0
    2.5671   -0.1029    0.0000 C   0  0
    1.8526   -0.5154    0.0000 C   0  0
    3.9266   -1.8547    0.0000 C   0  0  2  0  0  0
    5.0888   -0.9279    0.0000 N   0  0
    2.5671   -1.7529    0.0000 C   0  0
    1.8526   -1.3404    0.0000 C   0  0
    4.7309   -1.6712    0.0000 C   0  0
    3.9266   -0.0010    0.0000 C   0  0
    3.7430   -2.6591    0.0000 C   0  0
    4.7309   -0.1846    0.0000 C   0  0
    2.5671    0.7221    0.0000 Cl  0  0
    6.3263   -0.2134    0.0000 C   0  0
    1.1381   -0.1029    0.0000 O   0  0
    7.1513   -0.2134    0.0000 C   0  0
    5.9138   -0.9279    0.0000 C   0  0
    1.1381   -1.7529    0.0000 O   0  0
    4.3477   -3.2202    0.0000 C   0  0
    2.9546   -2.9022    0.0000 C   0  0
    2.7710   -3.7065    0.0000 C   0  0
    4.1642   -4.0245    0.0000 C   0  0
    3.3758   -4.2677    0.0000 C   0  0
    4.5099   -2.4381    0.0000 H   0  0
  2  1  1  0
  3  2  2  0
  4  8  2  0
  5  1  1  0
  6  9  1  0
  7  1  2  0
  8  7  1  0
  9  5  1  0
 10  2  1  0
  5 11  1  0
 12 10  1  0
 13  3  1  0
 14 17  1  0
 15  4  1  0
 16 14  2  0
  6 17  1  0
 18  8  1  0
 19 11  1  0
 20 11  2  0
 21 20  1  0
 22 19  2  0
 23 21  2  0
  3  4  1  0
  6 12  1  0
 22 23  1  0
  5 24  1  1
M  END