
          11280714452D 1   1.00000     0.00000     0

 34 38  0     0  0            999 V2000
   10.1417   -0.3750    0.0000 N   0  0  0  0  0  0           0  0  0
    9.7417   -1.6417    0.0000 C   0  0  0  0  0  0           0  0  0
    9.3250   -0.3792    0.0000 N   0  0  0  0  0  0           0  0  0
   10.4042   -1.1542    0.0000 N   0  0  0  0  0  0           0  0  0
    9.0292   -3.7042    0.0000 C   0  0  0  0  0  0           0  0  0
    9.0667   -1.1625    0.0000 N   0  0  0  0  0  0           0  0  0
    9.0292   -2.8792    0.0000 C   0  0  0  0  0  0           0  0  0
    9.7417   -2.4667    0.0000 C   0  0  0  0  0  0           0  0  0
    8.3167   -4.1167    0.0000 C   0  0  0  0  0  0           0  0  0
    7.6042   -3.7042    0.0000 C   0  0  0  0  0  0           0  0  0
    9.7417   -4.1167    0.0000 C   0  0  0  0  0  0           0  0  0
    6.8875   -4.1167    0.0000 C   0  0  0  0  0  0           0  0  0
    1.1875   -4.1250    0.0000 C   0  0  0  0  0  0           0  0  0
   10.4542   -2.8792    0.0000 C   0  0  0  0  0  0           0  0  0
    1.8917   -3.7125    0.0000 C   0  0  0  0  0  0           0  0  0
    8.3167   -4.9417    0.0000 O   0  0  0  0  0  0           0  0  0
   10.4542   -3.7042    0.0000 C   0  0  0  0  0  0           0  0  0
    1.1792   -4.9500    0.0000 C   0  0  0  0  0  0           0  0  0
    1.9042   -5.3625    0.0000 C   0  0  0  0  0  0           0  0  0
    4.0375   -4.1167    0.0000 O   0  0  0  0  0  0           0  0  0
    6.1750   -3.7042    0.0000 C   0  0  0  0  0  0           0  0  0
    2.6125   -4.1250    0.0000 C   0  0  0  0  0  0           0  0  0
    4.7542   -3.7042    0.0000 C   0  0  0  0  0  0           0  0  0
    5.4667   -4.1167    0.0000 C   0  0  0  0  0  0           0  0  0
    3.3250   -3.7125    0.0000 C   0  0  0  0  0  0           0  0  0
    2.6167   -4.9417    0.0000 C   0  0  0  0  0  0           0  0  0
    9.7417   -4.9417    0.0000 O   0  0  0  0  0  0           0  0  0
    5.4667   -2.4667    0.0000 C   0  0  0  0  0  0           0  0  0
    0.4750   -3.7167    0.0000 C   0  0  0  0  0  0           0  0  0
    6.1792   -2.8792    0.0000 C   0  0  0  0  0  0           0  0  0
    4.7542   -2.8792    0.0000 C   0  0  0  0  0  0           0  0  0
    0.4792   -5.3625    0.0000 C   0  0  0  0  0  0           0  0  0
   -0.2375   -4.1292    0.0000 C   0  0  0  0  0  0           0  0  0
   -0.2333   -4.9542    0.0000 C   0  0  0  0  0  0           0  0  0
  2  4  1  0     0  0
  3  1  1  0     0  0
  4  1  2  0     0  0
  5  7  2  0     0  0
  6  3  1  0     0  0
  7  8  1  0     0  0
  8  2  1  0     0  0
  9  5  1  0     0  0
 10  9  1  0     0  0
 11 17  2  0     0  0
 12 10  2  0     0  0
 13 15  1  0     0  0
 14  8  2  0     0  0
 15 22  2  0     0  0
 16  9  2  0     0  0
 17 14  1  0     0  0
 18 19  1  0     0  0
 19 26  2  0     0  0
 20 23  1  0     0  0
 21 12  1  0     0  0
 22 25  1  0     0  0
 23 24  1  0     0  0
 24 21  2  0     0  0
 25 20  1  0     0  0
 26 22  1  0     0  0
 27 11  1  0     0  0
 28 30  2  0     0  0
 29 13  2  0     0  0
 30 21  1  0     0  0
 31 28  1  0     0  0
 32 18  2  0     0  0
 33 29  1  0     0  0
 34 32  1  0     0  0
  2  6  2  0     0  0
 11  5  1  0     0  0
 31 23  2  0     0  0
 13 18  1  0     0  0
 34 33  2  0     0  0
M  END