
          11280715212D 1   1.00000     0.00000     0

 30 31  0     0  0            999 V2000
    5.3542   -2.0042    0.0000 C   0  0  0  0  0  0           0  0  0
    5.9667   -2.5625    0.0000 N   0  0  3  0  0  0           0  0  0
   -1.2458   -1.9375    0.0000 N   0  0  0  0  0  0           0  0  0
   -1.6583   -3.2125    0.0000 N   0  0  0  0  0  0           0  0  0
   -1.9083   -2.4250    0.0000 C   0  0  0  0  0  0           0  0  0
   -0.5750   -2.4250    0.0000 C   0  0  0  0  0  0           0  0  0
   10.3792   -2.0542    0.0000 C   0  0  0  0  0  0           0  0  0
   10.3750   -3.7042    0.0000 C   0  0  0  0  0  0           0  0  0
    9.6667   -2.4667    0.0000 C   0  0  0  0  0  0           0  0  0
    9.6667   -3.2917    0.0000 C   0  0  0  0  0  0           0  0  0
    4.5750   -2.2625    0.0000 C   0  0  0  0  0  0           0  0  0
   -0.8333   -3.2125    0.0000 C   0  0  0  0  0  0           0  0  0
    5.5292   -1.2000    0.0000 O   0  0  0  0  0  0           0  0  0
   10.3667   -4.5292    0.0000 O   0  0  0  0  0  0           0  0  0
   10.3875   -1.2292    0.0000 O   0  0  0  0  0  0           0  0  0
    3.9542   -1.7042    0.0000 C   0  0  0  0  0  0           0  0  0
    4.4000   -3.0667    0.0000 C   0  0  0  0  0  0           0  0  0
    3.0042   -2.7667    0.0000 C   0  0  0  0  0  0           0  0  0
   11.0917   -2.4750    0.0000 O   0  0  0  0  0  0           0  0  0
   11.0917   -3.3000    0.0000 O   0  0  0  0  0  0           0  0  0
    3.1750   -1.9667    0.0000 C   0  0  0  0  0  0           0  0  0
    3.6167   -3.3250    0.0000 C   0  0  0  0  0  0           0  0  0
    5.8792   -3.3792    0.0000 C   0  0  0  0  0  0           0  0  0
    6.7750   -2.3875    0.0000 C   0  0  0  0  0  0           0  0  0
    2.2167   -3.0250    0.0000 O   0  0  0  0  0  0           0  0  0
    0.2125   -2.1667    0.0000 C   0  0  0  0  0  0           0  0  0
    1.6042   -2.4667    0.0000 C   0  0  0  0  0  0           0  0  0
    0.8167   -2.7250    0.0000 C   0  0  0  0  0  0           0  0  0
    7.1875   -3.1000    0.0000 C   0  0  0  0  0  0           0  0  0
    6.6292   -3.7125    0.0000 C   0  0  0  0  0  0           0  0  0
  2  1  1  0     0  0
  3  6  1  0     0  0
  4 12  1  0     0  0
  5  3  2  0     0  0
  6 26  1  0     0  0
  8 10  1  0     0  0
  9  7  1  0     0  0
 10  9  2  0     0  0
 11  1  1  0     0  0
 12  6  2  0     0  0
 13  1  2  0     0  0
 14  8  2  0     0  0
 15  7  2  0     0  0
 16 11  1  0     0  0
 17 11  2  0     0  0
 18 22  2  0     0  0
 19  7  1  0     0  0
 20  8  1  0     0  0
 21 16  2  0     0  0
 22 17  1  0     0  0
 23  2  1  0     0  0
 24  2  1  0     0  0
 25 18  1  0     0  0
 26 28  1  0     0  0
 27 25  1  0     0  0
 28 27  1  0     0  0
 29 24  1  0     0  0
 30 23  1  0     0  0
 18 21  1  0     0  0
 29 30  1  0     0  0
  4  5  1  0     0  0
M  END