
  SciTegic05071317032D

 35 34  0  0  0  0            999 V2000
    0.6360  -10.8749    0.0000 C   0  0
    0.6349  -11.7024    0.0000 C   0  0
    1.3497  -12.1152    0.0000 C   0  0
    2.0662  -11.7019    0.0000 C   0  0
    2.0633  -10.8713    0.0000 C   0  0
    1.3480  -10.4622    0.0000 C   0  0
    2.7762  -10.4562    0.0000 O   0  0
    3.4923  -10.8660    0.0000 C   0  0
    4.2052  -10.4507    0.0000 C   0  0
    4.9212  -10.8606    0.0000 C   0  0
    5.6341  -10.4454    0.0000 C   0  0
    6.3501  -10.8552    0.0000 C   0  0
    7.0631  -10.4400    0.0000 C   0  0
    7.7790  -10.8498    0.0000 C   0  0
    8.4920  -10.4346    0.0000 C   0  0
    9.2080  -10.8445    0.0000 C   0  0
    9.9209  -10.4292    0.0000 N   0  0
   10.6367  -10.8412    0.0000 C   0  0
   11.3475  -10.4295    0.0000 C   0  0
   11.3486   -9.6042    0.0000 N   0  0
   10.6327   -9.1922    0.0000 C   0  0
    9.9158   -9.6055    0.0000 C   0  0
   12.0631   -9.1917    0.0000 C   0  0
   12.7775   -9.6042    0.0000 C   0  0
   13.4920   -9.1917    0.0000 C   0  0
   14.2065   -9.6042    0.0000 C   0  0
   14.9209   -9.1918    0.0000 N   0  0
   15.6351   -9.6065    0.0000 C   0  0
   16.3474   -9.1976    0.0000 C   0  0
   16.3518   -8.3723    0.0000 O   0  0
   15.6374   -7.9575    0.0000 C   0  0
   14.9188   -8.3681    0.0000 C   0  0
   10.3611  -12.5053    0.0000 Cl  0  0
   12.1982  -11.8152    0.0000 Cl  0  0
   11.7562  -13.2000    0.0000 Cl  0  0
  1  2  2  0
  2  3  1  0
  3  4  2  0
  4  5  1  0
  5  6  2  0
  6  1  1  0
  5  7  1  0
  7  8  1  0
  8  9  1  0
  9 10  1  0
 10 11  1  0
 11 12  1  0
 12 13  1  0
 13 14  1  0
 14 15  1  0
 15 16  1  0
 16 17  1  0
 17 18  1  0
 17 22  1  0
 18 19  1  0
 19 20  1  0
 20 21  1  0
 21 22  1  0
 20 23  1  0
 23 24  1  0
 24 25  1  0
 25 26  1  0
 26 27  1  0
 27 28  1  0
 27 32  1  0
 28 29  1  0
 29 30  1  0
 30 31  1  0
 31 32  1  0
M  END