
          11280714442D 1   1.00000     0.00000     0

 21 21  0     0  0            999 V2000
    5.2167   -0.2375    0.0000 C   0  0  0  0  0  0           0  0  0
    8.8042   -0.4875    0.0000 N   0  0  0  0  0  0           0  0  0
    5.1792    0.5833    0.0000 O   0  0  0  0  0  0           0  0  0
    9.4917   -0.0417    0.0000 C   0  0  3  0  0  0           0  0  0
    5.9500   -0.6167    0.0000 O   0  0  0  0  0  0           0  0  0
    7.3750   -0.5542    0.0000 C   0  0  3  0  0  0           0  0  0
    8.0667   -0.1042    0.0000 C   0  0  0  0  0  0           0  0  0
    6.6417   -0.1750    0.0000 C   0  0  0  0  0  0           0  0  0
    7.4125   -1.3792    0.0000 O   0  0  0  0  0  0           0  0  0
    3.0917   -1.5667    0.0000 C   0  0  0  0  0  0           0  0  0
    4.5167   -0.6792    0.0000 C   0  0  0  0  0  0           0  0  0
    3.7875   -0.3042    0.0000 C   0  0  0  0  0  0           0  0  0
    9.4625    0.7833    0.0000 C   0  0  0  0  0  0           0  0  0
    9.7417   -0.8292    0.0000 C   0  0  0  0  0  0           0  0  0
   10.2292   -0.4250    0.0000 C   0  0  0  0  0  0           0  0  0
    3.0875   -0.7500    0.0000 C   0  0  0  0  0  0           0  0  0
    2.3792   -1.9792    0.0000 C   0  0  0  0  0  0           0  0  0
    3.8000   -1.9667    0.0000 C   0  0  0  0  0  0           0  0  0
    3.8042   -2.7917    0.0000 C   0  0  0  0  0  0           0  0  0
    2.3792   -2.7917    0.0000 C   0  0  0  0  0  0           0  0  0
    3.0917   -3.2042    0.0000 C   0  0  0  0  0  0           0  0  0
  2  7  1  0     0  0
  3  1  2  0     0  0
  4  2  1  0     0  0
  5  1  1  0     0  0
  6  8  1  0     0  0
  7  6  1  0     0  0
  8  5  1  0     0  0
  9  6  1  0     0  0
 10 16  1  0     0  0
 11  1  1  0     0  0
 12 11  1  0     0  0
 13  4  1  0     0  0
 14  4  1  0     0  0
 15  4  1  0     0  0
 16 12  1  0     0  0
 17 10  2  0     0  0
 18 10  1  0     0  0
 19 18  2  0     0  0
 20 17  1  0     0  0
 21 19  1  0     0  0
 21 20  2  0     0  0
M  END