
  SciTegic11201309402D

 27 29  0  0  0  0            999 V2000
    0.3391    1.1335    0.0000 C   0  0
    0.8380    0.4765    0.0000 C   0  0
    1.4559    1.0230    0.0000 C   0  0
    2.2383    0.7612    0.0000 C   0  0
    2.4027   -0.0473    0.0000 C   0  0
    1.7847   -0.5939    0.0000 C   0  0
    1.0024   -0.3320    0.0000 C   0  0
    0.7997   -1.1317    0.0000 C   0  0
    0.2701   -1.7643    0.0000 C   0  0
   -0.5546   -1.7447    0.0000 C   0  0
   -1.3063   -2.0848    0.0000 C   0  0
   -2.0408   -1.7093    0.0000 C   0  0
   -2.5397   -1.0522    0.0000 C   0  0
   -2.7041   -0.2438    0.0000 C   0  0  2  0  0  0
   -2.5014    0.5559    0.0000 C   0  0  1  0  0  0
   -1.9718    1.1885    0.0000 C   0  0
   -1.2202    1.5287    0.0000 C   0  0  1  0  0  0
   -1.3846    2.3372    0.0000 C   0  0
   -0.3955    1.5091    0.0000 O   0  0
    0.8687    1.7661    0.0000 O   0  0
    1.2915    1.8315    0.0000 O   0  0
    3.1850   -0.3091    0.0000 O   0  0
    1.9491   -1.4023    0.0000 Cl  0  0
    0.6103   -2.5159    0.0000 O   0  0
   -3.2953    0.3316    0.0000 O   0  0
   -3.0449    1.3953    0.0000 H   0  0
   -3.5818   -0.7230    0.0000 H   0  0
  1  2  1  0
  1 19  1  0
  1 20  2  0
  2  3  2  0
  2  7  1  0
  3  4  1  0
  3 21  1  0
  4  5  2  0
  5  6  1  0
  5 22  1  0
  6  7  2  0
  6 23  1  0
  7  8  1  0
  8  9  1  0
 10  9  1  0
  9 24  2  0
 10 11  2  0
 11 12  1  0
 12 13  2  0
 13 14  1  0
 14 15  1  0
 14 25  1  0
 15 16  1  0
 15 25  1  0
 16 17  1  0
 17 18  1  1
 17 19  1  0
 15 26  1  1
 14 27  1  6
M  END