
  SciTegic12231509382D

 10  9  0  0  0  0            999 V2000
    0.1433    0.0826    0.0000 N   0  0
    0.7146    0.4123    0.0000 C   0  0
    1.4292    0.0000    0.0000 S   0  0
    0.7146    1.0719    0.0000 N   0  0
    2.1438    0.4123    0.0000 C   0  0
    2.8584    0.0000    0.0000 C   0  0
    3.5730    0.4123    0.0000 C   0  0
    4.2876    0.0000    0.0000 N   0  0
    4.8590    0.3297    0.0000 C   0  0
    4.2876   -0.6596    0.0000 C   0  0
  1  2  2  0
  2  3  1  0
  2  4  1  0
  3  5  1  0
  5  6  1  0
  6  7  1  0
  7  8  1  0
  8  9  1  0
  8 10  1  0
M  END