
          11280715372D 1   1.00000     0.00000     0

 37 40  0     1  0            999 V2000
    3.6667   -4.9167    0.0000 C   0  0  1  0  0  0           0  0  0
    3.7042   -4.0917    0.0000 C   0  0  2  0  0  0           0  0  0
    4.3042   -5.4375    0.0000 N   0  0  3  0  0  0           0  0  0
    2.8667   -5.1292    0.0000 C   0  0  0  0  0  0           0  0  0
    6.6167   -2.4042    0.0000 C   0  0  0  0  0  0           0  0  0
    2.9417   -3.8000    0.0000 C   0  0  2  0  0  0           0  0  0
    5.8000   -2.4167    0.0000 C   0  0  0  0  0  0           0  0  0
    7.8542   -4.8042    0.0000 C   0  0  0  0  0  0           0  0  0
    2.7292   -3.0000    0.0000 O   0  0  0  0  0  0           0  0  0
    8.2667   -2.3917    0.0000 N   0  0  0  0  0  0           0  0  0
    2.4167   -4.4417    0.0000 C   0  0  0  0  0  0           0  0  0
    7.0167   -1.6917    0.0000 C   0  0  0  0  0  0           0  0  0
    8.5750   -4.8042    0.0000 O   0  0  0  0  0  0           0  0  0
    5.3750   -1.7000    0.0000 C   0  0  0  0  0  0           0  0  0
    5.3875   -3.1292    0.0000 C   0  0  0  0  0  0           0  0  0
    5.5167   -3.7750    0.0000 C   0  0  0  0  0  0           0  0  0
    6.3542   -4.0167    0.0000 C   0  0  0  0  0  0           0  0  0
    4.4042   -3.6500    0.0000 O   0  0  0  0  0  0           0  0  0
    3.3167   -2.4167    0.0000 C   0  0  0  0  0  0           0  0  0
    4.1417   -2.4250    0.0000 C   0  0  0  0  0  0           0  0  0
    7.7625   -5.6167    0.0000 O   0  0  0  0  0  0           0  0  0
    4.5625   -3.1417    0.0000 C   0  0  0  0  0  0           0  0  0
    4.5500   -1.7042    0.0000 C   0  0  0  0  0  0           0  0  0
    5.0500   -5.0917    0.0000 C   0  0  0  0  0  0           0  0  0
    4.1167   -6.2417    0.0000 C   0  0  0  0  0  0           0  0  0
    7.8417   -1.6792    0.0000 C   0  0  0  0  0  0           0  0  0
    7.0375   -3.1167    0.0000 C   0  0  0  0  0  0           0  0  0
    4.9542   -4.0667    0.0000 C   0  0  0  0  0  0           0  0  0
    7.4167   -4.3292    0.0000 C   0  0  0  0  0  0           0  0  0
    7.8625   -3.1167    0.0000 C   0  0  0  0  0  0           0  0  0
    6.7292   -4.5542    0.0000 C   0  0  0  0  0  0           0  0  0
    6.6917   -0.9375    0.0000 C   0  0  0  0  0  0           0  0  0
    4.6292   -6.8917    0.0000 C   0  0  0  0  0  0           0  0  0
    5.7917   -5.4542    0.0000 C   0  0  0  0  0  0           0  0  0
    7.1792   -0.2750    0.0000 C   0  0  0  0  0  0           0  0  0
    5.9750   -6.2542    0.0000 C   0  0  0  0  0  0           0  0  0
    5.4542   -6.9000    0.0000 C   0  0  0  0  0  0           0  0  0
  2  1  1  0     0  0
  1  3  1  1     0  0
  4  1  1  0     0  0
  5  7  1  0     0  0
  6  2  1  0     0  0
  7 14  1  0     0  0
  8 29  1  0     0  0
  6  9  1  1     0  0
 10 30  2  0     0  0
 11  4  1  0     0  0
 12  5  1  0     0  0
 13  8  2  0     0  0
 14 23  2  0     0  0
 15 22  1  0     0  0
 16 28  1  0     0  0
 17 16  2  0     0  0
  2 18  1  6     0  0
 19  9  1  0     0  0
 20 19  1  0     0  0
 21  8  1  0     0  0
 22 20  2  0     0  0
 23 20  1  0     0  0
 24  3  1  0     0  0
 25  3  1  0     0  0
 26 12  2  0     0  0
 27  5  2  0     0  0
 28 18  1  0     0  0
 29 31  1  0     0  0
 30 27  1  0     0  0
 31 17  1  0     0  0
 32 12  1  0     0  0
 33 25  1  0     0  0
 34 24  1  0     0  0
 35 32  1  0     0  0
 36 34  1  0     0  0
 37 33  1  0     0  0
 11  6  1  0     0  0
 37 36  1  0     0  0
  7 15  2  0     0  0
 26 10  1  0     0  0
M  END