
          11280715362D 1   1.00000     0.00000     0

 40 43  0     1  0            999 V2000
    0.0000   -3.7167    0.0000 C   0  0  1  0  0  0           0  0  0
   -0.1833   -2.9167    0.0000 C   0  0  2  0  0  0           0  0  0
    0.5792   -4.3042    0.0000 N   0  0  3  0  0  0           0  0  0
   -0.7083   -4.1417    0.0000 C   0  0  0  0  0  0           0  0  0
    2.2417   -1.3375    0.0000 C   0  0  0  0  0  0           0  0  0
   -1.0083   -2.8417    0.0000 C   0  0  3  0  0  0           0  0  0
    2.1917    1.5125    0.0000 C   0  0  0  0  0  0           0  0  0
    1.4292   -1.3625    0.0000 C   0  0  0  0  0  0           0  0  0
    2.6167    0.8083    0.0000 N   0  0  0  0  0  0           0  0  0
    4.7750   -3.7042    0.0000 C   0  0  0  0  0  0           0  0  0
    2.6417   -0.6250    0.0000 C   0  0  0  0  0  0           0  0  0
   -1.4333   -2.1292    0.0000 O   0  0  0  0  0  0           0  0  0
   -1.3333   -3.6000    0.0000 C   0  0  0  0  0  0           0  0  0
    2.2167    0.0833    0.0000 C   0  0  0  0  0  0           0  0  0
    1.3667    1.4958    0.0000 O   0  0  0  0  0  0           0  0  0
    5.4292   -3.4375    0.0000 O   0  0  0  0  0  0           0  0  0
    1.0167   -0.6542    0.0000 C   0  0  0  0  0  0           0  0  0
    1.0292   -2.0792    0.0000 C   0  0  0  0  0  0           0  0  0
    1.9042   -2.8667    0.0000 C   0  0  0  0  0  0           0  0  0
    2.7750   -2.9292    0.0000 C   0  0  0  0  0  0           0  0  0
    0.6125   -2.7000    0.0000 O   0  0  0  0  0  0           0  0  0
   -1.0250   -1.4167    0.0000 C   0  0  0  0  0  0           0  0  0
   -0.2000   -1.4042    0.0000 C   0  0  0  0  0  0           0  0  0
    4.6750   -4.4125    0.0000 O   0  0  0  0  0  0           0  0  0
    0.2000   -0.6792    0.0000 C   0  0  0  0  0  0           0  0  0
    0.2125   -2.1000    0.0000 C   0  0  0  0  0  0           0  0  0
    1.3542   -4.0292    0.0000 C   0  0  0  0  0  0           0  0  0
    0.3167   -5.0792    0.0000 C   0  0  0  0  0  0           0  0  0
    1.2792   -3.2292    0.0000 C   0  0  0  0  0  0           0  0  0
    2.6542   -2.0417    0.0000 C   0  0  0  0  0  0           0  0  0
    4.2125   -3.2667    0.0000 C   0  0  0  0  0  0           0  0  0
    2.5875    2.2333    0.0000 C   0  0  0  0  0  0           0  0  0
    3.2750   -3.5167    0.0000 C   0  0  0  0  0  0           0  0  0
    3.4542   -0.6042    0.0000 C   0  0  0  0  0  0           0  0  0
    0.7542   -5.7750    0.0000 C   0  0  0  0  0  0           0  0  0
    2.0542   -4.4667    0.0000 C   0  0  0  0  0  0           0  0  0
    3.4750   -2.0292    0.0000 C   0  0  0  0  0  0           0  0  0
    3.8750   -1.3042    0.0000 C   0  0  0  0  0  0           0  0  0
    1.5750   -5.8542    0.0000 C   0  0  0  0  0  0           0  0  0
    2.1542   -5.2792    0.0000 C   0  0  0  0  0  0           0  0  0
  2  1  1  0     0  0
  1  3  1  1     0  0
  4  1  1  0     0  0
  5  8  1  0     0  0
  6  2  1  0     0  0
  7  9  1  0     0  0
  8 18  1  0     0  0
  9 14  1  0     0  0
 10 31  1  0     0  0
 11  5  1  0     0  0
 12  6  1  0     0  0
 13  4  1  0     0  0
 14 11  1  0     0  0
 15  7  2  0     0  0
 16 10  2  0     0  0
 17 25  1  0     0  0
 18 26  2  0     0  0
 19 29  1  0     0  0
 20 19  2  0     0  0
  2 21  1  6     0  0
 22 12  1  0     0  0
 23 22  1  0     0  0
 24 10  1  0     0  0
 25 23  2  0     0  0
 26 23  1  0     0  0
 27  3  1  0     0  0
 28  3  1  0     0  0
 29 21  1  0     0  0
 30  5  2  0     0  0
 31 33  1  0     0  0
 32  7  1  0     0  0
 33 20  1  0     0  0
 34 11  2  0     0  0
 35 28  1  0     0  0
 36 27  1  0     0  0
 37 30  1  0     0  0
 38 37  2  0     0  0
 39 35  1  0     0  0
 40 36  1  0     0  0
  6 13  1  0     0  0
 40 39  1  0     0  0
  8 17  2  0     0  0
 38 34  1  0     0  0
M  END