
  SciTegic01111613442D

 26 29  0  0  0  0            999 V2000
   -4.1792   -0.4015    0.0000 C   0  0
   -4.1792   -1.8432    0.0000 C   0  0
   -2.9382   -2.5732    0.0000 C   0  0
   -2.9565    0.3102    0.0000 C   0  0
   -1.6790   -0.3832    0.0000 C   0  0  1  0  0  0
   -1.6790   -1.8250    0.0000 C   0  0  1  0  0  0
   -0.4197   -2.5550    0.0000 C   0  0
    0.8212   -1.8067    0.0000 C   0  0
   -0.4380    0.3285    0.0000 C   0  0  2  0  0  0
    0.8030   -0.3650    0.0000 C   0  0  2  0  0  0
    0.8030    2.5185    0.0000 C   0  0
   -0.4562    1.7885    0.0000 C   0  0
    2.0440    1.7885    0.0000 C   0  0  1  0  0  0
    2.0440    0.3467    0.0000 C   0  0  1  0  0  0
    4.5625    0.3285    0.0000 C   0  0
    4.5625    1.8067    0.0000 C   0  0
    3.3032    2.5367    0.0000 C   0  0  2  0  0  0
   -5.2209   -2.4390    0.0000 O   0  0
   -1.6930    0.8167    0.0000 C   0  0
   -0.4332   -0.6715    0.0000 H   0  0
    1.6715   -0.8608    0.0000 H   0  0
    2.2979   -0.6205    0.0000 H   0  0
    2.0413    2.9885    0.0000 C   0  0
    3.3373    1.3372    0.0000 O   0  0
   -1.6736   -2.8250    0.0000 H   0  0
    4.3528    3.1185    0.0000 C   0  0
 13 11  1  0
 11 12  1  0
 13 14  1  0
  1  2  1  0
  1  4  1  0
  2  3  1  0
  5  9  1  0
  6  7  1  0
 14 15  1  0
 15 16  1  0
 16 17  1  0
 17 13  1  0
  7  8  1  0
  2 18  2  0
  8 10  1  0
  5 19  1  1
  9 10  1  0
  9 20  1  6
  3  6  1  0
 10 21  1  1
  5  4  1  0
 14 22  1  6
  5  6  1  0
 13 23  1  1
 17 24  1  1
  9 12  1  0
  6 25  1  6
 10 14  1  0
 17 26  1  0
M  END