
  SciTegic01311317052D

 25 28  0  0  1  0            999 V2000
   -3.5400  -26.5010    0.0000 C   0  0
   -3.5400  -25.6760    0.0000 C   0  0
   -2.8253  -25.2612    0.0000 C   0  0
   -2.8253  -26.9112    0.0000 C   0  0
   -2.1060  -26.5010    0.0000 C   0  0
   -1.3913  -26.9112    0.0000 C   0  0
   -0.6767  -26.5010    0.0000 C   0  0
   -0.6767  -25.6760    0.0000 C   0  0  1  0  0  0
    0.0381  -25.2612    0.0000 C   0  0  2  0  0  0
    0.8235  -25.5151    0.0000 C   0  0
    1.3036  -24.8510    0.0000 C   0  0
    0.8235  -24.1869    0.0000 C   0  0
    0.0381  -24.4363    0.0000 C   0  0  2  0  0  0
    0.0381  -23.6113    0.0000 C   0  0
   -0.6767  -24.0261    0.0000 C   0  0
   -1.3913  -24.4363    0.0000 C   0  0
   -1.3913  -25.2612    0.0000 C   0  0  2  0  0  0
   -2.1060  -25.6760    0.0000 C   0  0  1  0  0  0
   -2.1060  -24.8510    0.0000 C   0  0
    1.0774  -23.4015    0.0000 C   0  0
   -1.3913  -26.0862    0.0000 H   0  0
   -0.6767  -24.8510    0.0000 H   0  0
    0.0381  -26.0862    0.0000 H   0  0
   -4.2551  -26.9111    0.0000 O   0  0
    1.6454  -24.1837    0.0000 O   0  0
  2  3  1  0
  1  4  1  0
  4  5  1  0
  5  6  2  0
  6  7  1  0
  7  8  1  0
  8  9  1  0
  9 10  1  0
 10 11  1  0
 11 12  1  0
 12 13  1  0
  9 13  1  0
 13 14  1  1
 13 15  1  0
 15 16  1  0
 16 17  1  0
  8 17  1  0
 17 18  1  0
  3 18  1  0
  5 18  1  0
 18 19  1  1
 12 20  1  0
 17 21  1  6
  8 22  1  1
  9 23  1  6
  1 24  1  0
  1  2  1  0
 12 25  1  0
M  END