
  CDK    9/16/09,9:56

 67 69  0  0  0  0  0  0  0  0999 V2000
   20.1046   -3.6917    0.0000 N   0  0  0  0  0  0  0  0  0  0  0  0
   19.3901   -4.1042    0.0000 C   0  0  0  0  0  0  0  0  0  0  0  0
   17.9572   -4.1042    0.0000 N   0  0  0  0  0  0  0  0  0  0  0  0
   18.6717   -3.6917    0.0000 C   0  0  0  0  0  0  0  0  0  0  0  0
   18.6717   -2.8667    0.0000 C   0  0  0  0  0  0  0  0  0  0  0  0
   19.3862   -2.4542    0.0000 C   0  0  0  0  0  0  0  0  0  0  0  0
   19.3862   -1.6292    0.0000 C   0  0  0  0  0  0  0  0  0  0  0  0
   20.1006   -1.2167    0.0000 N   0  0  0  0  0  0  0  0  0  0  0  0
   20.1006   -0.3917    0.0000 C   0  0  0  0  0  0  0  0  0  0  0  0
   20.8151    0.0208    0.0000 N   0  0  0  0  0  0  0  0  0  0  0  0
   19.3861    0.0208    0.0000 N   0  0  0  0  0  0  0  0  0  0  0  0
   19.3862   -4.9292    0.0000 O   0  0  0  0  0  0  0  0  0  0  0  0
   17.2423   -3.6958    0.0000 C   0  0  0  0  0  0  0  0  0  0  0  0
   17.2423   -2.8708    0.0000 O   0  0  0  0  0  0  0  0  0  0  0  0
    3.7012   -4.1040    0.0000 O   0  0  0  0  0  0  0  0  0  0  0  0
    3.6977   -4.9265    0.0000 C   0  0  0  0  0  0  0  0  0  0  0  0
    2.9625   -5.3008    0.0000 C   0  0  0  0  0  0  0  0  0  0  0  0
    2.2293   -4.9243    0.0000 C   0  0  0  0  0  0  0  0  0  0  0  0
    2.1000   -4.1080    0.0000 O   0  0  0  0  0  0  0  0  0  0  0  0
    1.6444   -5.5079    0.0000 C   0  0  0  0  0  0  0  0  0  0  0  0
    0.8284   -5.3755    0.0000 O   0  0  0  0  0  0  0  0  0  0  0  0
    2.0188   -6.2432    0.0000 C   0  0  0  0  0  0  0  0  0  0  0  0
    2.8300   -6.1168    0.0000 O   0  0  0  0  0  0  0  0  0  0  0  0
    1.6423   -6.9764    0.0000 N   0  0  0  0  0  0  0  0  0  0  0  0
    0.8259   -7.1057    0.0000 C   0  0  0  0  0  0  0  0  0  0  0  0
    0.6935   -7.9217    0.0000 N   0  0  0  0  0  0  0  0  0  0  0  0
    1.4318   -8.2953    0.0000 C   0  0  0  0  0  0  0  0  0  0  0  0
    1.6435   -9.0939    0.0000 C   0  0  0  0  0  0  0  0  0  0  0  0
    1.0586   -9.6775    0.0000 N   0  0  0  0  0  0  0  0  0  0  0  0
    2.4399   -9.3089    0.0000 N   0  0  0  0  0  0  0  0  0  0  0  0
    3.0248   -8.7253    0.0000 C   0  0  0  0  0  0  0  0  0  0  0  0
    2.8120   -7.9307    0.0000 N   0  0  0  0  0  0  0  0  0  0  0  0
    2.0156   -7.7157    0.0000 C   0  0  0  0  0  0  0  0  0  0  0  0
    4.4002   -5.3591    0.0000 N   0  0  0  0  0  0  0  0  0  0  0  0
    7.9542   -4.1083    0.0000 C   0  0  0  0  0  0  0  0  0  0  0  0
    8.6686   -3.6958    0.0000 N   0  0  0  0  0  0  0  0  0  0  0  0
    7.2355   -3.6958    0.0000 C   0  0  0  0  0  0  0  0  0  0  0  0
    7.9542   -4.9375    0.0000 O   0  0  0  0  0  0  0  0  0  0  0  0
    6.5169   -4.1083    0.0000 C   0  0  0  0  0  0  0  0  0  0  0  0
    5.7983   -3.6958    0.0000 C   0  0  0  0  0  0  0  0  0  0  0  0
    5.0825   -4.1016    0.0000 C   0  0  0  0  0  0  0  0  0  0  0  0
    5.1035   -4.9300    0.0000 C   0  0  0  0  0  0  0  0  0  0  0  0
    9.3831   -4.1083    0.0000 C   0  0  0  0  0  0  0  0  0  0  0  0
   10.0976   -3.6958    0.0000 C   0  0  0  0  0  0  0  0  0  0  0  0
   10.8121   -4.1083    0.0000 N   0  0  0  0  0  0  0  0  0  0  0  0
   11.5265   -3.6958    0.0000 C   0  0  0  0  0  0  0  0  0  0  0  0
   12.2410   -4.1083    0.0000 C   0  0  0  0  0  0  0  0  0  0  0  0
   12.9555   -3.6958    0.0000 C   0  0  0  0  0  0  0  0  0  0  0  0
   13.6699   -4.1083    0.0000 C   0  0  0  0  0  0  0  0  0  0  0  0
    9.3831   -4.9333    0.0000 C   0  0  0  0  0  0  0  0  0  0  0  0
   10.0976   -5.3458    0.0000 C   0  0  0  0  0  0  0  0  0  0  0  0
   10.0976   -6.1708    0.0000 C   0  0  0  0  0  0  0  0  0  0  0  0
   10.8121   -6.5833    0.0000 C   0  0  0  0  0  0  0  0  0  0  0  0
   10.8121   -7.4083    0.0000 N   0  0  0  0  0  0  0  0  0  0  0  0
   10.0976   -2.8708    0.0000 O   0  0  0  0  0  0  0  0  0  0  0  0
   14.3844   -3.6958    0.0000 C   0  0  0  0  0  0  0  0  0  0  0  0
   15.0989   -4.1083    0.0000 C   0  0  0  0  0  0  0  0  0  0  0  0
   15.0989   -4.9333    0.0000 O   0  0  0  0  0  0  0  0  0  0  0  0
   15.8133   -3.6958    0.0000 N   0  0  0  0  0  0  0  0  0  0  0  0
   16.5278   -4.1083    0.0000 C   0  0  0  0  0  0  0  0  0  0  0  0
   16.5278   -4.9333    0.0000 C   0  0  0  0  0  0  0  0  0  0  0  0
   17.2423   -5.3458    0.0000 C   0  0  0  0  0  0  0  0  0  0  0  0
   17.2423   -6.1708    0.0000 C   0  0  0  0  0  0  0  0  0  0  0  0
   17.9568   -6.5833    0.0000 N   0  0  0  0  0  0  0  0  0  0  0  0
   17.9568   -7.4083    0.0000 C   0  0  0  0  0  0  0  0  0  0  0  0
   17.2423   -7.8208    0.0000 N   0  0  0  0  0  0  0  0  0  0  0  0
   18.6712   -7.8208    0.0000 N   0  0  0  0  0  0  0  0  0  0  0  0
 24 33  1  0  0  0  0 
  9 10  2  0  0  0  0 
 16 34  1  0  0  0  0 
  2  1  1  0  0  0  0 
  9 11  1  0  0  0  0 
 35 36  1  0  0  0  0 
  5  6  1  0  0  0  0 
 35 37  1  0  0  0  0 
  2 12  2  0  0  0  0 
 35 38  2  0  0  0  0 
  3  4  1  0  0  0  0 
 37 39  1  0  0  0  0 
 13  3  1  0  0  0  0 
 39 40  1  0  0  0  0 
  6  7  1  0  0  0  0 
 40 41  1  0  0  0  0 
 13 14  2  0  0  0  0 
 41 42  1  0  0  0  0 
 42 34  1  0  0  0  0 
  4  2  1  0  0  0  0 
 36 43  1  0  0  0  0 
  7  8  1  0  0  0  0 
 43 44  1  0  0  0  0 
 44 45  1  0  0  0  0 
  8  9  1  0  0  0  0 
 45 46  1  0  0  0  0 
  4  5  1  6  0  0  0 
 46 47  1  0  0  0  0 
 15 16  2  0  0  0  0 
 47 48  1  0  0  0  0 
 17 16  1  1  0  0  0 
 48 49  1  0  0  0  0 
 17 18  1  0  0  0  0 
 43 50  1  6  0  0  0 
 18 19  1  6  0  0  0 
 50 51  1  0  0  0  0 
 18 20  1  0  0  0  0 
 51 52  1  0  0  0  0 
 20 21  1  6  0  0  0 
 52 53  1  0  0  0  0 
 20 22  1  0  0  0  0 
 53 54  1  0  0  0  0 
 22 23  1  0  0  0  0 
 44 55  2  0  0  0  0 
 17 23  1  0  0  0  0 
 49 56  1  0  0  0  0 
 22 24  1  1  0  0  0 
 56 57  1  0  0  0  0 
 24 25  1  0  0  0  0 
 57 58  2  0  0  0  0 
 25 26  2  0  0  0  0 
 57 59  1  0  0  0  0 
 26 27  1  0  0  0  0 
 59 60  1  0  0  0  0 
 60 13  1  0  0  0  0 
 27 28  1  0  0  0  0 
 60 61  1  1  0  0  0 
 28 29  1  0  0  0  0 
 61 62  1  0  0  0  0 
 28 30  2  0  0  0  0 
 62 63  1  0  0  0  0 
 30 31  1  0  0  0  0 
 63 64  1  0  0  0  0 
 31 32  2  0  0  0  0 
 64 65  1  0  0  0  0 
 32 33  1  0  0  0  0 
 65 66  1  0  0  0  0 
 27 33  2  0  0  0  0 
 65 67  2  0  0  0  0 
M  END