
          11280715512D 1   1.00000     0.00000     0

 40 44  0     0  0            999 V2000
   -5.8389  -16.5958    0.0000 C   0  0  0  0  0  0           0  0  0
   -5.8401  -17.4232    0.0000 C   0  0  0  0  0  0           0  0  0
   -5.1253  -17.8360    0.0000 C   0  0  0  0  0  0           0  0  0
   -5.1271  -16.1830    0.0000 C   0  0  0  0  0  0           0  0  0
   -4.4069  -17.4203    0.0000 C   0  0  0  0  0  0           0  0  0
   -4.4117  -16.5922    0.0000 C   0  0  0  0  0  0           0  0  0
   -3.7646  -16.0663    0.0000 N   0  0  3  0  0  0           0  0  0
   -3.7506  -17.9347    0.0000 C   0  0  0  0  0  0           0  0  0
   -2.9524  -16.2405    0.0000 C   0  0  0  0  0  0           0  0  0
   -2.9400  -17.7417    0.0000 N   0  0  0  0  0  0           0  0  0
   -2.5876  -16.9869    0.0000 N   0  0  3  0  0  0           0  0  0
   -2.4441  -15.5907    0.0000 O   0  0  0  0  0  0           0  0  0
   -3.9271  -18.7407    0.0000 C   0  0  3  0  0  0           0  0  0
   -1.7627  -16.9796    0.0000 C   0  0  0  0  0  0           0  0  0
   -1.3438  -17.6903    0.0000 C   0  0  0  0  0  0           0  0  0
   -0.5188  -17.6830    0.0000 N   0  0  0  0  0  0           0  0  0
   -1.7499  -18.4085    0.0000 O   0  0  0  0  0  0           0  0  0
   -3.9571  -15.2640    0.0000 C   0  0  0  0  0  0           0  0  0
   -3.3586  -14.6962    0.0000 C   0  0  0  0  0  0           0  0  0
   -3.5511  -13.8940    0.0000 C   0  0  3  0  0  0           0  0  0
   -2.5676  -14.9306    0.0000 O   0  0  0  0  0  0           0  0  0
   -3.7708  -13.0917    0.0000 C   0  0  0  0  0  0           0  0  0
   -2.7521  -13.6887    0.0000 C   0  0  0  0  0  0           0  0  0
   -4.3484  -14.1060    0.0000 C   0  0  0  0  0  0           0  0  0
   -0.1000  -18.3938    0.0000 C   0  0  0  0  0  0           0  0  0
   -0.5080  -19.1096    0.0000 C   0  0  0  0  0  0           0  0  0
   -0.0899  -19.8199    0.0000 C   0  0  0  0  0  0           0  0  0
    0.7360  -19.8130    0.0000 C   0  0  0  0  0  0           0  0  0
    1.1419  -19.0898    0.0000 C   0  0  0  0  0  0           0  0  0
    0.7214  -18.3825    0.0000 C   0  0  0  0  0  0           0  0  0
    1.9668  -19.0796    0.0000 N   0  0  3  0  0  0           0  0  0
   -4.7108  -18.9903    0.0000 C   0  0  0  0  0  0           0  0  0
   -4.8884  -19.7923    0.0000 C   0  0  0  0  0  0           0  0  0
   -4.2813  -20.3515    0.0000 C   0  0  0  0  0  0           0  0  0
   -3.4937  -20.1029    0.0000 C   0  0  0  0  0  0           0  0  0
   -3.3131  -19.2952    0.0000 C   0  0  0  0  0  0           0  0  0
    2.4564  -19.7403    0.0000 C   0  0  0  0  0  0           0  0  0
    3.2486  -19.4677    0.0000 N   0  0  0  0  0  0           0  0  0
    3.2299  -18.6536    0.0000 C   0  0  0  0  0  0           0  0  0
    2.4425  -18.4100    0.0000 C   0  0  0  0  0  0           0  0  0
  4  1  1  0     0  0
 19 20  1  0     0  0
  8 10  2  0     0  0
 19 21  2  0     0  0
 20 22  1  0     0  0
  9 11  1  0     0  0
 20 23  1  0     0  0
 10 11  1  0     0  0
 20 24  1  0     0  0
  2  3  1  0     0  0
 16 25  1  0     0  0
  9 12  2  0     0  0
 25 26  2  0     0  0
  5  6  1  0     0  0
 26 27  1  0     0  0
  8 13  1  0     0  0
 27 28  2  0     0  0
  3  5  2  0     0  0
 28 29  1  0     0  0
 11 14  1  0     0  0
 29 30  2  0     0  0
 30 25  1  0     0  0
  6  7  1  0     0  0
 29 31  1  0     0  0
 13 32  1  0     0  0
 14 15  1  0     0  0
  1  2  2  0     0  0
 15 16  1  0     0  0
  5  8  1  0     0  0
 15 17  2  0     0  0
 13 36  1  0     0  0
 32 33  1  0     0  0
 33 34  1  0     0  0
 34 35  1  0     0  0
 35 36  1  0     0  0
  6  4  2  0     0  0
  7 18  1  0     0  0
  7  9  1  0     0  0
 18 19  1  0     0  0
 31 37  1  0     0  0
 37 38  2  0     0  0
 38 39  1  0     0  0
 39 40  2  0     0  0
 40 31  1  0     0  0
M  END