
          11280715332D 1   1.00000     0.00000     0

 31 34  0     0  0            999 V2000
    1.1250    1.1208    0.0000 N   0  0  0  0  0  0           0  0  0
    0.4625    0.6375    0.0000 C   0  0  0  0  0  0           0  0  0
    0.7125   -0.1500    0.0000 N   0  0  0  0  0  0           0  0  0
    1.7917    0.6375    0.0000 C   0  0  0  0  0  0           0  0  0
    1.5375   -0.1500    0.0000 C   0  0  0  0  0  0           0  0  0
   -1.7208    0.5958    0.0000 C   0  0  3  0  0  0           0  0  0
   -0.9375    0.3375    0.0000 C   0  0  0  0  0  0           0  0  0
    5.1875   -2.9542    0.0000 N   0  0  0  0  0  0           0  0  0
   -0.3208    0.8958    0.0000 C   0  0  0  0  0  0           0  0  0
   -2.3333    0.0458    0.0000 C   0  0  0  0  0  0           0  0  0
   -1.8958    1.4000    0.0000 C   0  0  0  0  0  0           0  0  0
    2.5792    0.8958    0.0000 C   0  0  0  0  0  0           0  0  0
    3.9792    0.5958    0.0000 N   0  0  0  0  0  0           0  0  0
    5.0292   -1.3167    0.0000 C   0  0  0  0  0  0           0  0  0
    4.4375   -2.6167    0.0000 C   0  0  0  0  0  0           0  0  0
    5.8625   -2.4750    0.0000 C   0  0  0  0  0  0           0  0  0
    3.1917    0.3375    0.0000 C   0  0  0  0  0  0           0  0  0
   -1.2833    1.9583    0.0000 C   0  0  0  0  0  0           0  0  0
   -2.6750    1.6500    0.0000 C   0  0  0  0  0  0           0  0  0
   -3.1208    0.2958    0.0000 C   0  0  0  0  0  0           0  0  0
   -2.1583   -0.7625    0.0000 C   0  0  0  0  0  0           0  0  0
    4.5917    0.0375    0.0000 C   0  0  0  0  0  0           0  0  0
    4.4167   -0.7667    0.0000 C   0  0  0  0  0  0           0  0  0
    5.7792   -1.6542    0.0000 C   0  0  0  0  0  0           0  0  0
    4.3542   -1.7917    0.0000 C   0  0  0  0  0  0           0  0  0
   -2.7708   -1.3167    0.0000 C   0  0  0  0  0  0           0  0  0
   -1.4500    2.7583    0.0000 C   0  0  0  0  0  0           0  0  0
   -2.8500    2.4583    0.0000 C   0  0  0  0  0  0           0  0  0
   -3.7250   -0.2542    0.0000 C   0  0  0  0  0  0           0  0  0
   -2.2375    3.0208    0.0000 C   0  0  0  0  0  0           0  0  0
   -3.5583   -1.0625    0.0000 C   0  0  0  0  0  0           0  0  0
  2  1  2  0     0  0
  3  2  1  0     0  0
  4  1  1  0     0  0
  5  4  2  0     0  0
  6  7  1  0     0  0
  7  9  1  0     0  0
  8 15  2  0     0  0
  9  2  1  0     0  0
 10  6  1  0     0  0
 11  6  1  0     0  0
 12  4  1  0     0  0
 13 17  1  0     0  0
 14 23  1  0     0  0
 15 25  1  0     0  0
 16 24  2  0     0  0
 17 12  1  0     0  0
 18 11  2  0     0  0
 19 11  1  0     0  0
 20 10  2  0     0  0
 21 10  1  0     0  0
 22 13  1  0     0  0
 23 22  1  0     0  0
 24 14  1  0     0  0
 25 14  2  0     0  0
 26 21  2  0     0  0
 27 18  1  0     0  0
 28 19  2  0     0  0
 29 20  1  0     0  0
 30 28  1  0     0  0
 31 26  1  0     0  0
  3  5  1  0     0  0
 27 30  2  0     0  0
 29 31  2  0     0  0
  8 16  1  0     0  0
M  END