
          11280715202D 1   1.00000     0.00000     0

 43 48  0     0  0            999 V2000
    2.4917   -4.6667    0.0000 N   0  0  3  0  0  0           0  0  0
   -0.3375   -2.2417    0.0000 N   0  0  3  0  0  0           0  0  0
    1.7375   -4.9875    0.0000 C   0  0  0  0  0  0           0  0  0
   -0.3208   -1.4167    0.0000 C   0  0  0  0  0  0           0  0  0
    2.5417   -3.8500    0.0000 C   0  0  0  0  0  0           0  0  0
    0.3917   -2.6167    0.0000 C   0  0  0  0  0  0           0  0  0
   -1.7583   -1.0417    0.0000 C   0  0  0  0  0  0           0  0  0
    1.9750   -6.4500    0.0000 C   0  0  0  0  0  0           0  0  0
   -1.0000   -2.7417    0.0000 C   0  0  0  0  0  0           0  0  0
    3.2167   -5.0750    0.0000 C   0  0  0  0  0  0           0  0  0
   -0.9500   -0.8917    0.0000 C   0  0  0  0  0  0           0  0  0
    1.5042   -5.7792    0.0000 C   0  0  0  0  0  0           0  0  0
    2.8042   -6.5000    0.0000 N   0  0  0  0  0  0           0  0  0
   -2.1375   -1.7792    0.0000 N   0  0  0  0  0  0           0  0  0
   -1.8000   -2.5292    0.0000 C   0  0  0  0  0  0           0  0  0
    3.3542   -5.8875    0.0000 C   0  0  0  0  0  0           0  0  0
    1.1042   -2.2042    0.0000 C   0  0  0  0  0  0           0  0  0
    1.8250   -3.4375    0.0000 C   0  0  0  0  0  0           0  0  0
   -0.7750   -3.5292    0.0000 N   0  0  0  0  0  0           0  0  0
    3.8500   -4.5500    0.0000 N   0  0  0  0  0  0           0  0  0
    3.2792   -3.4792    0.0000 O   0  0  0  0  0  0           0  0  0
    0.4292   -3.4417    0.0000 O   0  0  0  0  0  0           0  0  0
    1.8250   -2.6125    0.0000 N   0  0  3  0  0  0           0  0  0
   -2.2500   -0.3875    0.0000 O   0  0  0  0  0  0           0  0  0
    1.5667   -7.1667    0.0000 O   0  0  0  0  0  0           0  0  0
   -0.8083   -0.0792    0.0000 C   0  0  0  0  0  0           0  0  0
    0.7125   -5.9750    0.0000 C   0  0  0  0  0  0           0  0  0
    1.1667   -4.3917    0.0000 C   0  0  0  0  0  0           0  0  0
    0.4542   -1.1417    0.0000 C   0  0  0  0  0  0           0  0  0
   -2.3750   -3.1250    0.0000 C   0  0  0  0  0  0           0  0  0
    4.1250   -6.1750    0.0000 C   0  0  0  0  0  0           0  0  0
   -1.3458   -4.1167    0.0000 C   0  0  0  0  0  0           0  0  0
    4.6167   -4.8292    0.0000 C   0  0  0  0  0  0           0  0  0
    2.5375   -2.2000    0.0000 C   0  0  0  0  0  0           0  0  0
    3.2542   -2.6042    0.0000 C   0  0  0  0  0  0           0  0  0
    4.7625   -5.6500    0.0000 C   0  0  0  0  0  0           0  0  0
   -2.1500   -3.9167    0.0000 C   0  0  0  0  0  0           0  0  0
   -0.0375    0.2000    0.0000 C   0  0  0  0  0  0           0  0  0
    0.1417   -5.3875    0.0000 C   0  0  0  0  0  0           0  0  0
    3.9667   -2.1917    0.0000 C   0  0  0  0  0  0           0  0  0
    0.5917   -0.3292    0.0000 C   0  0  0  0  0  0           0  0  0
    0.3667   -4.5917    0.0000 C   0  0  0  0  0  0           0  0  0
    4.6792   -2.6042    0.0000 C   0  0  0  0  0  0           0  0  0
  2  6  1  0     0  0
  3  1  1  0     0  0
  4  2  1  0     0  0
  5  1  1  0     0  0
  6 17  1  0     0  0
  7 11  1  0     0  0
  8 12  1  0     0  0
  9  2  1  0     0  0
 10  1  1  0     0  0
 11  4  2  0     0  0
 12  3  2  0     0  0
 13 16  1  0     0  0
 14 15  1  0     0  0
 15  9  2  0     0  0
 16 10  2  0     0  0
 17 23  1  0     0  0
 18  5  1  0     0  0
 19  9  1  0     0  0
 20 10  1  0     0  0
 21  5  2  0     0  0
 22  6  2  0     0  0
 23 18  1  0     0  0
 24  7  2  0     0  0
 25  8  2  0     0  0
 26 11  1  0     0  0
 27 12  1  0     0  0
 28  3  1  0     0  0
 29  4  1  0     0  0
 30 15  1  0     0  0
 31 16  1  0     0  0
 32 19  2  0     0  0
 33 20  2  0     0  0
 34 23  1  0     0  0
 35 34  1  0     0  0
 36 33  1  0     0  0
 37 32  1  0     0  0
 38 41  1  0     0  0
 39 42  1  0     0  0
 40 35  1  0     0  0
 41 29  2  0     0  0
 42 28  2  0     0  0
 43 40  1  0     0  0
 13  8  1  0     0  0
 36 31  2  0     0  0
 27 39  2  0     0  0
 14  7  1  0     0  0
 37 30  2  0     0  0
 26 38  2  0     0  0
M  END