
          11280715382D 1   1.00000     0.00000     0

 32 34  0     1  0            999 V2000
    4.0875   -7.3667    0.0000 N   0  0  3  0  0  0           0  0  0
    4.8875   -7.2375    0.0000 C   0  0  0  0  0  0           0  0  0
    3.5875   -6.0542    0.0000 C   0  0  0  0  0  0           0  0  0
    3.5917   -6.8792    0.0000 C   0  0  0  0  0  0           0  0  0
    4.9042   -5.7042    0.0000 C   0  0  1  0  0  0           0  0  0
    2.8625   -4.8125    0.0000 C   0  0  3  0  0  0           0  0  0
    5.2667   -6.4792    0.0000 C   0  0  1  0  0  0           0  0  0
    2.8667   -5.6417    0.0000 C   0  0  0  0  0  0           0  0  0
    4.1042   -5.5542    0.0000 C   0  0  0  0  0  0           0  0  0
    5.4042   -5.0500    0.0000 C   0  0  0  0  0  0           0  0  0
    3.8375   -8.1542    0.0000 C   0  0  0  0  0  0           0  0  0
    6.2250   -5.1667    0.0000 C   0  0  0  0  0  0           0  0  0
    6.7292   -4.5042    0.0000 C   0  0  0  0  0  0           0  0  0
    5.3750   -7.9000    0.0000 O   0  0  0  0  0  0           0  0  0
    6.4167   -3.7500    0.0000 C   0  0  0  0  0  0           0  0  0
    5.0917   -4.2917    0.0000 C   0  0  0  0  0  0           0  0  0
    2.8625   -4.0625    0.0000 F   0  0  0  0  0  0           0  0  0
    3.5292   -4.2667    0.0000 F   0  0  0  0  0  0           0  0  0
    2.1917   -4.2667    0.0000 F   0  0  0  0  0  0           0  0  0
    5.5917   -3.6417    0.0000 C   0  0  0  0  0  0           0  0  0
    3.0292   -8.3375    0.0000 C   0  0  0  0  0  0           0  0  0
    2.7792   -9.1167    0.0000 N   0  0  3  0  0  0           0  0  0
    2.8667   -7.2917    0.0000 C   0  0  0  0  0  0           0  0  0
    7.5417   -4.6250    0.0000 O   0  0  0  0  0  0           0  0  0
    6.9167   -3.0917    0.0000 O   0  0  0  0  0  0           0  0  0
    2.1542   -6.0542    0.0000 C   0  0  0  0  0  0           0  0  0
    6.0917   -6.4917    0.0000 C   0  0  0  0  0  0           0  0  0
    2.1542   -6.8792    0.0000 C   0  0  0  0  0  0           0  0  0
    1.9792   -9.3000    0.0000 C   0  0  0  0  0  0           0  0  0
    3.3417   -9.7292    0.0000 C   0  0  0  0  0  0           0  0  0
    7.8542   -5.3875    0.0000 C   0  0  0  0  0  0           0  0  0
    7.7375   -3.2042    0.0000 C   0  0  0  0  0  0           0  0  0
  2  1  1  0     0  0
  3  4  1  0     0  0
  4  1  1  0     0  0
  5  7  1  0     0  0
  6  8  1  0     0  0
  7  2  1  0     0  0
  8  3  2  0     0  0
  9  3  1  0     0  0
  5 10  1  1     0  0
 11  1  1  0     0  0
 12 10  2  0     0  0
 13 12  1  0     0  0
 14  2  2  0     0  0
 15 20  1  0     0  0
 16 10  1  0     0  0
 17  6  1  0     0  0
 18  6  1  0     0  0
 19  6  1  0     0  0
 20 16  2  0     0  0
 21 11  1  0     0  0
 22 21  1  0     0  0
 23  4  2  0     0  0
 24 13  1  0     0  0
 25 15  1  0     0  0
 26 28  2  0     0  0
  7 27  1  1     0  0
 28 23  1  0     0  0
 29 22  1  0     0  0
 30 22  1  0     0  0
 31 24  1  0     0  0
 32 25  1  0     0  0
  5  9  1  0     0  0
  8 26  1  0     0  0
 13 15  2  0     0  0
M  END