
  SciTegic12171313022D

 33 36  0  0  0  0            999 V2000
   21.6573   -9.5124    0.0000 C   0  0
   21.6561  -10.3397    0.0000 C   0  0
   22.3709  -10.7526    0.0000 C   0  0
   23.0874  -10.3393    0.0000 C   0  0
   23.0845   -9.5087    0.0000 C   0  0
   22.3691   -9.0996    0.0000 C   0  0
   20.9413  -10.7517    0.0000 N   0  0
   20.9407  -11.5767    0.0000 C   0  0
   20.2259  -11.9886    0.0000 N   0  0
   21.6548  -11.9897    0.0000 O   0  0
   20.2252  -12.8136    0.0000 C   0  0
   19.5618  -13.2964    0.0000 N   0  0
   19.8161  -14.0813    0.0000 N   0  0
   20.6412  -14.0819    0.0000 C   0  0
   20.8966  -13.2975    0.0000 C   0  0
   21.1256  -14.7497    0.0000 C   0  0
   20.7895  -15.5031    0.0000 C   0  0
   21.9462  -14.6641    0.0000 C   0  0
   21.5337  -15.4582    0.0000 C   0  0
   18.7659  -13.0792    0.0000 C   0  0
   18.5611  -12.2831    0.0000 C   0  0
   17.7660  -12.0659    0.0000 C   0  0
   17.1791  -12.6470    0.0000 C   0  0
   17.3927  -13.4482    0.0000 C   0  0
   18.1874  -13.6617    0.0000 C   0  0
   16.3829  -12.4309    0.0000 C   0  0
   23.7584   -9.0327    0.0000 C   0  0
   24.5390   -9.2957    0.0000 N   0  0
   25.0328   -8.6348    0.0000 N   0  0
   24.5568   -7.9609    0.0000 C   0  0
   23.7689   -8.2054    0.0000 N   0  0
   23.1078   -7.7118    0.0000 C   0  0
   24.8222   -7.1797    0.0000 S   0  0
  1  2  2  0
  2  3  1  0
  3  4  2  0
  4  5  1  0
  5  6  2  0
  6  1  1  0
  2  7  1  0
  7  8  1  0
  8  9  1  0
  8 10  2  0
  9 11  1  0
 11 12  1  0
 12 13  1  0
 13 14  2  0
 14 15  1  0
 15 11  2  0
 14 16  1  0
 16 17  1  0
 16 18  1  0
 16 19  1  0
 12 20  1  0
 20 21  2  0
 21 22  1  0
 22 23  2  0
 23 24  1  0
 24 25  2  0
 25 20  1  0
 23 26  1  0
  5 27  1  0
 27 28  2  0
 28 29  1  0
 29 30  2  0
 30 31  1  0
 31 27  1  0
 31 32  1  0
 30 33  1  0
M  END