
  SciTegic01161211242D

 46 51  0  0  0  0            999 V2000
   15.7584  -26.4043    0.0000 C   0  0
   15.0875  -26.8819    0.0000 N   0  0
   15.5195  -25.6176    0.0000 C   0  0
   14.6920  -25.6057    0.0000 N   0  0
   14.4291  -26.3868    0.0000 C   0  0
   15.9251  -24.9002    0.0000 C   0  0
   16.7501  -24.8928    0.0000 N   0  0
   15.5062  -24.1894    0.0000 O   0  0
   16.4709  -26.8168    0.0000 C   0  0
   17.1859  -26.4052    0.0000 C   0  0
   15.0767  -27.7069    0.0000 C   0  0
   14.3560  -28.1054    0.0000 C   0  0
   14.3449  -28.9296    0.0000 C   0  0
   15.0544  -29.3522    0.0000 C   0  0
   15.7767  -28.9447    0.0000 C   0  0
   15.7843  -28.1219    0.0000 C   0  0
   15.0447  -30.1772    0.0000 Cl  0  0
   13.7084  -26.7918    0.0000 C   0  0
   12.9978  -26.3673    0.0000 C   0  0
   12.2775  -26.7716    0.0000 C   0  0
   12.2675  -27.5992    0.0000 C   0  0
   12.9837  -28.0207    0.0000 C   0  0
   13.7010  -27.6140    0.0000 C   0  0
   13.0089  -25.5423    0.0000 Cl  0  0
   24.5990  -26.1316    0.0000 C   0  0
   25.3137  -25.7195    0.0000 C   0  0
   25.3118  -24.8987    0.0000 C   0  0
   23.8824  -25.7229    0.0000 C   0  0
   23.8877  -24.8979    0.0000 C   0  0
   24.6016  -24.4881    0.0000 C   0  0
   24.6027  -23.6668    0.0000 N   0  0
   23.1784  -24.4891    0.0000 C   0  0
   23.1759  -23.6692    0.0000 C   0  0
   23.8919  -23.2573    0.0000 C   0  0
   23.8922  -22.4332    0.0000 C   0  0
   23.1772  -22.0200    0.0000 C   0  0
   22.4605  -22.4369    0.0000 C   0  0
   22.4638  -23.2596    0.0000 C   0  0
   22.4647  -24.9029    0.0000 N   0  0
   17.4652  -24.4813    0.0000 C   0  0
   18.1790  -24.8949    0.0000 C   0  0
   18.8941  -24.4835    0.0000 C   0  0
   19.6079  -24.8971    0.0000 C   0  0
   20.3230  -24.4857    0.0000 C   0  0
   21.0369  -24.8993    0.0000 C   0  0
   21.7520  -24.4879    0.0000 C   0  0
  2 11  1  0
 22 23  2  0
 23 18  1  0
 19 24  1  0
 25 26  1  0
 11 12  2  0
  3  6  1  0
 12 13  1  0
  2  1  1  0
 25 28  1  0
 26 27  1  0
 27 30  1  0
 29 28  1  0
 13 14  2  0
  6  7  1  0
 29 30  2  0
 14 15  1  0
 30 31  1  0
 31 34  2  0
  1  3  2  0
 33 32  2  0
 32 29  1  0
 15 16  2  0
 16 11  1  0
 33 34  1  0
  6  8  2  0
 34 35  1  0
 14 17  1  0
 35 36  2  0
  3  4  1  0
 36 37  1  0
  5 18  1  0
 37 38  2  0
 38 33  1  0
  1  9  1  0
 32 39  1  0
 18 19  2  0
  4  5  2  0
 40 41  1  0
 19 20  1  0
 41 42  1  0
  9 10  1  0
 42 43  1  0
 20 21  2  0
 43 44  1  0
  5  2  1  0
 44 45  1  0
 21 22  1  0
 45 46  1  0
 46 39  1  0
 40  7  1  0
M  END