
  Mrv0541 04051115152D          

 23 26  0  0  0  0            999 V2000
    4.3544    0.2732    0.0000 C   0  0  0  0  0  0  0  0  0  0  0  0
    3.9419   -0.4413    0.0000 C   0  0  0  0  0  0  0  0  0  0  0  0
    3.5294    0.2732    0.0000 C   0  0  0  0  0  0  0  0  0  0  0  0
    2.8149    0.6857    0.0000 C   0  0  0  0  0  0  0  0  0  0  0  0
    2.1004    0.2732    0.0000 N   0  0  0  0  0  0  0  0  0  0  0  0
    1.3860    0.6857    0.0000 C   0  0  0  0  0  0  0  0  0  0  0  0
    1.3860    1.5107    0.0000 C   0  0  0  0  0  0  0  0  0  0  0  0
    0.6715    1.9232    0.0000 C   0  0  0  0  0  0  0  0  0  0  0  0
    0.6715    0.2732    0.0000 N   0  0  0  0  0  0  0  0  0  0  0  0
   -0.0430    0.6857    0.0000 N   0  0  0  0  0  0  0  0  0  0  0  0
   -0.0430    1.5107    0.0000 C   0  0  0  0  0  0  0  0  0  0  0  0
   -0.8276    1.7656    0.0000 N   0  0  0  0  0  0  0  0  0  0  0  0
   -1.3125    1.0982    0.0000 C   0  0  0  0  0  0  0  0  0  0  0  0
   -0.8276    0.4308    0.0000 C   0  0  0  0  0  0  0  0  0  0  0  0
   -1.0825   -0.3539    0.0000 C   0  0  0  0  0  0  0  0  0  0  0  0
   -1.8895   -0.5254    0.0000 C   0  0  0  0  0  0  0  0  0  0  0  0
   -0.5305   -0.9670    0.0000 C   0  0  0  0  0  0  0  0  0  0  0  0
   -0.7854   -1.7516    0.0000 C   0  0  0  0  0  0  0  0  0  0  0  0
   -1.5924   -1.9231    0.0000 C   0  0  0  0  0  0  0  0  0  0  0  0
   -2.1444   -1.3100    0.0000 C   0  0  0  0  0  0  0  0  0  0  0  0
   -2.9514   -1.4815    0.0000 C   0  0  0  0  0  0  0  0  0  0  0  0
   -3.2064   -2.2662    0.0000 C   0  0  0  0  0  0  0  0  0  0  0  0
   -3.5034   -0.8684    0.0000 O   0  0  0  0  0  0  0  0  0  0  0  0
  1  2  1  0  0  0  0
  1  3  1  0  0  0  0
  2  3  1  0  0  0  0
  4  3  1  0  0  0  0
  4  5  1  0  0  0  0
  6  5  1  0  0  0  0
  7  6  1  0  0  0  0
  6  9  2  0  0  0  0
  7  8  2  0  0  0  0
  8 11  1  0  0  0  0
  9 10  1  0  0  0  0
 11 10  1  0  0  0  0
 14 10  1  0  0  0  0
 11 12  2  0  0  0  0
 13 12  1  0  0  0  0
 13 14  2  0  0  0  0
 15 14  1  0  0  0  0
 16 15  2  0  0  0  0
 17 15  1  0  0  0  0
 16 20  1  0  0  0  0
 18 17  2  0  0  0  0
 18 19  1  0  0  0  0
 19 20  2  0  0  0  0
 21 20  1  0  0  0  0
 22 21  1  0  0  0  0
 21 23  2  0  0  0  0
M  END