
          11280714532D 1   1.00000     0.00000     0

 32 34  0     0  0            999 V2000
    8.8125   -2.3542    0.0000 N   0  0  3  0  0  0           0  0  0
   10.0792   -1.9042    0.0000 N   0  0  0  0  0  0           0  0  0
   13.2542   -2.9375    0.0000 C   0  0  0  0  0  0           0  0  0
   12.8417   -3.6542    0.0000 C   0  0  0  0  0  0           0  0  0
    9.5917   -2.5917    0.0000 C   0  0  0  0  0  0           0  0  0
    1.6667   -4.8250    0.0000 N   0  0  3  0  0  0           0  0  0
    8.1000   -2.7667    0.0000 C   0  0  0  0  0  0           0  0  0
    8.8042   -1.5250    0.0000 C   0  0  0  0  0  0           0  0  0
    9.5917   -1.2542    0.0000 C   0  0  0  0  0  0           0  0  0
   13.2542   -4.3792    0.0000 O   0  0  0  0  0  0           0  0  0
   12.8417   -2.2167    0.0000 O   0  0  0  0  0  0           0  0  0
    2.3792   -5.2375    0.0000 C   0  0  0  0  0  0           0  0  0
    8.1000   -3.5917    0.0000 C   0  0  0  0  0  0           0  0  0
    7.3792   -2.3542    0.0000 C   0  0  0  0  0  0           0  0  0
    5.9542   -4.0042    0.0000 O   0  0  0  0  0  0           0  0  0
    6.6667   -3.5917    0.0000 C   0  0  0  0  0  0           0  0  0
   14.0875   -2.9375    0.0000 O   0  0  0  0  0  0           0  0  0
   12.0125   -3.6542    0.0000 O   0  0  0  0  0  0           0  0  0
    3.1000   -4.8250    0.0000 C   0  0  0  0  0  0           0  0  0
    4.5292   -4.0042    0.0000 C   0  0  0  0  0  0           0  0  0
    5.2417   -3.5917    0.0000 C   0  0  0  0  0  0           0  0  0
    7.3875   -4.0042    0.0000 C   0  0  0  0  0  0           0  0  0
    6.6667   -2.7667    0.0000 C   0  0  0  0  0  0           0  0  0
    3.8125   -5.2375    0.0000 C   0  0  0  0  0  0           0  0  0
    3.1000   -4.0042    0.0000 C   0  0  0  0  0  0           0  0  0
    3.8125   -3.5875    0.0000 C   0  0  0  0  0  0           0  0  0
    4.5292   -4.8292    0.0000 C   0  0  0  0  0  0           0  0  0
    1.6667   -4.0000    0.0000 C   0  0  0  0  0  0           0  0  0
    0.9542   -5.2292    0.0000 C   0  0  0  0  0  0           0  0  0
    0.9542   -3.5792    0.0000 C   0  0  0  0  0  0           0  0  0
    0.2500   -4.8250    0.0000 C   0  0  0  0  0  0           0  0  0
    0.2500   -4.0000    0.0000 C   0  0  0  0  0  0           0  0  0
  2  5  2  0     0  0
  4  3  1  0     0  0
  5  1  1  0     0  0
  6 12  1  0     0  0
  7  1  1  0     0  0
  8  1  1  0     0  0
  9  8  2  0     0  0
 10  4  2  0     0  0
 11  3  2  0     0  0
 12 19  1  0     0  0
 13  7  2  0     0  0
 14  7  1  0     0  0
 15 16  1  0     0  0
 16 23  1  0     0  0
 17  3  1  0     0  0
 18  4  1  0     0  0
 19 24  2  0     0  0
 20 21  1  0     0  0
 21 15  1  0     0  0
 22 13  1  0     0  0
 23 14  2  0     0  0
 24 27  1  0     0  0
 25 26  2  0     0  0
 26 20  1  0     0  0
 27 20  2  0     0  0
 28  6  1  0     0  0
 29  6  1  0     0  0
 30 28  1  0     0  0
 31 29  1  0     0  0
 32 31  1  0     0  0
  9  2  1  0     0  0
 22 16  2  0     0  0
 19 25  1  0     0  0
 32 30  1  0     0  0
M  END