
          11280714442D 1   1.00000     0.00000     0

 27 28  0     0  0            999 V2000
    2.7375   -2.4167    0.0000 C   0  0  0  0  0  0           0  0  0
    2.0417   -2.8625    0.0000 C   0  0  0  0  0  0           0  0  0
    9.0917   -0.8917    0.0000 C   0  0  0  0  0  0           0  0  0
    3.4667   -2.8000    0.0000 O   0  0  0  0  0  0           0  0  0
    9.8292   -1.2750    0.0000 C   0  0  0  0  0  0           0  0  0
    2.7000   -1.5917    0.0000 O   0  0  0  0  0  0           0  0  0
    8.4042   -1.3417    0.0000 C   0  0  0  0  0  0           0  0  0
    1.3042   -2.4792    0.0000 C   0  0  0  0  0  0           0  0  0
    9.8667   -2.1000    0.0000 C   0  0  0  0  0  0           0  0  0
    4.1625   -2.3542    0.0000 C   0  0  0  0  0  0           0  0  0
    8.4417   -2.1542    0.0000 C   0  0  0  0  0  0           0  0  0
    4.8917   -2.7292    0.0000 C   0  0  3  0  0  0           0  0  0
    9.1750   -2.5417    0.0000 C   0  0  0  0  0  0           0  0  0
    9.0542   -0.0667    0.0000 O   0  0  0  0  0  0           0  0  0
    6.3250   -2.6667    0.0000 N   0  0  0  0  0  0           0  0  0
   10.5167   -0.8292    0.0000 O   0  0  0  0  0  0           0  0  0
    4.9292   -3.5542    0.0000 O   0  0  0  0  0  0           0  0  0
    2.0792   -3.6792    0.0000 C   0  0  0  0  0  0           0  0  0
    5.5917   -2.2875    0.0000 C   0  0  0  0  0  0           0  0  0
    1.2667   -1.6542    0.0000 C   0  0  0  0  0  0           0  0  0
    0.6167   -2.9292    0.0000 C   0  0  0  0  0  0           0  0  0
    7.0167   -2.2250    0.0000 C   0  0  0  0  0  0           0  0  0
    7.7500   -2.6042    0.0000 C   0  0  0  0  0  0           0  0  0
    9.7417    0.3750    0.0000 C   0  0  0  0  0  0           0  0  0
   11.2542   -1.2042    0.0000 C   0  0  0  0  0  0           0  0  0
    1.3917   -4.1292    0.0000 C   0  0  0  0  0  0           0  0  0
    0.6542   -3.7500    0.0000 C   0  0  0  0  0  0           0  0  0
  2  1  1  0     0  0
  3  7  2  0     0  0
  4  1  1  0     0  0
  5  9  2  0     0  0
  6  1  2  0     0  0
  7 11  1  0     0  0
  8  2  2  0     0  0
  9 13  1  0     0  0
 10  4  1  0     0  0
 11 23  1  0     0  0
 12 10  1  0     0  0
 13 11  2  0     0  0
 14  3  1  0     0  0
 15 19  1  0     0  0
 16  5  1  0     0  0
 17 12  1  0     0  0
 18  2  1  0     0  0
 19 12  1  0     0  0
 20  8  1  0     0  0
 21  8  1  0     0  0
 22 15  1  0     0  0
 23 22  1  0     0  0
 24 14  1  0     0  0
 25 16  1  0     0  0
 26 18  2  0     0  0
 27 26  1  0     0  0
 27 21  2  0     0  0
  5  3  1  0     0  0
M  END