
  Mrv0541 04051115152D          

  6  5  0  0  0  0            999 V2000
    0.3564   -0.1191    0.0000 C   0  0  0  0  0  0  0  0  0  0  0  0
   -0.0561    0.5954    0.0000 C   0  0  0  0  0  0  0  0  0  0  0  0
    0.3564    1.3099    0.0000 O   0  0  0  0  0  0  0  0  0  0  0  0
   -0.0561   -0.8335    0.0000 C   0  0  0  0  0  0  0  0  0  0  0  0
    0.3564   -1.5480    0.0000 S   0  0  0  0  0  0  0  0  0  0  0  0
   -0.8811    0.5954    0.0000 O   0  0  0  0  0  0  0  0  0  0  0  0
  2  1  1  0  0  0  0
  1  4  1  0  0  0  0
  2  3  2  0  0  0  0
  2  6  1  0  0  0  0
  4  5  1  0  0  0  0
M  END