
  CDK    9/16/09,10:7

 29 32  0  0  0  0  0  0  0  0999 V2000
   -5.1378   -7.6815    0.0000 C   0  0  0  0  0  0  0  0  0  0  0  0
   -5.1391   -8.5098    0.0000 N   0  0  0  0  0  0  0  0  0  0  0  0
   -4.4249   -8.9207    0.0000 C   0  0  0  0  0  0  0  0  0  0  0  0
   -3.7045   -8.5092    0.0000 C   0  0  0  0  0  0  0  0  0  0  0  0
   -3.7076   -7.6776    0.0000 C   0  0  0  0  0  0  0  0  0  0  0  0
   -4.4269   -7.2661    0.0000 C   0  0  0  0  0  0  0  0  0  0  0  0
   -2.9941   -7.2589    0.0000 N   0  0  0  0  0  0  0  0  0  0  0  0
   -2.2763   -7.6705    0.0000 C   0  0  0  0  0  0  0  0  0  0  0  0
   -1.5674   -7.2519    0.0000 C   0  0  0  0  0  0  0  0  0  0  0  0
   -2.2723   -8.4961    0.0000 O   0  0  0  0  0  0  0  0  0  0  0  0
   -0.8496   -7.6634    0.0000 C   0  0  0  0  0  0  0  0  0  0  0  0
   -1.5714   -6.4262    0.0000 N   0  0  0  0  0  0  0  0  0  0  0  0
   -0.8579   -6.0122    0.0000 S   0  0  0  0  0  0  0  0  0  0  0  0
   -0.1505   -5.5924    0.0000 C   0  0  0  0  0  0  0  0  0  0  0  0
   -0.4374   -6.7248    0.0000 O   0  0  0  0  0  0  0  0  0  0  0  0
   -1.2695   -5.2972    0.0000 O   0  0  0  0  0  0  0  0  0  0  0  0
    0.5646   -6.0008    0.0000 C   0  0  0  0  0  0  0  0  0  0  0  0
    1.2715   -5.5817    0.0000 C   0  0  0  0  0  0  0  0  0  0  0  0
    1.2636   -4.7600    0.0000 C   0  0  0  0  0  0  0  0  0  0  0  0
   -0.1608   -4.7762    0.0000 C   0  0  0  0  0  0  0  0  0  0  0  0
    0.5412   -4.3569    0.0000 C   0  0  0  0  0  0  0  0  0  0  0  0
    0.3581   -3.5593    0.0000 N   0  0  0  0  0  0  0  0  0  0  0  0
   -0.4574   -3.4886    0.0000 S   0  0  0  0  0  0  0  0  0  0  0  0
   -0.7797   -4.2423    0.0000 N   0  0  0  0  0  0  0  0  0  0  0  0
   -0.8472   -8.4901    0.0000 C   0  0  0  0  0  0  0  0  0  0  0  0
   -0.1304   -8.8970    0.0000 C   0  0  0  0  0  0  0  0  0  0  0  0
    0.5842   -8.4829    0.0000 C   0  0  0  0  0  0  0  0  0  0  0  0
    0.5774   -7.6530    0.0000 C   0  0  0  0  0  0  0  0  0  0  0  0
   -0.1400   -7.2452    0.0000 C   0  0  0  0  0  0  0  0  0  0  0  0
  5  7  1  0  0  0  0 
 13 15  2  0  0  0  0 
  3  4  2  0  0  0  0 
 13 16  2  0  0  0  0 
  7  8  1  0  0  0  0 
 14 17  2  0  0  0  0 
 17 18  1  0  0  0  0 
  8  9  1  0  0  0  0 
 18 19  2  0  0  0  0 
 19 21  1  0  0  0  0 
 20 14  1  0  0  0  0 
 20 21  1  0  0  0  0 
  4  5  1  0  0  0  0 
  8 10  2  0  0  0  0 
  2  3  1  0  0  0  0 
  9 11  1  0  0  0  0 
  5  6  2  0  0  0  0 
 21 22  2  0  0  0  0 
 22 23  1  0  0  0  0 
 23 24  1  0  0  0  0 
 24 20  2  0  0  0  0 
  9 12  1  0  0  0  0 
 11 25  2  0  0  0  0 
  6  1  1  0  0  0  0 
 25 26  1  0  0  0  0 
 12 13  1  0  0  0  0 
 26 27  2  0  0  0  0 
  1  2  2  0  0  0  0 
 27 28  1  0  0  0  0 
 13 14  1  0  0  0  0 
 28 29  2  0  0  0  0 
 29 11  1  0  0  0  0 
M  END