
  SciTegic01161211242D

 24 25  0  0  0  0            999 V2000
   -3.9122    1.4966    0.0000 C   0  0  1  0  0  0
   -2.6111    0.7486    0.0000 C   0  0
   -5.2109    0.7445    0.0000 C   0  0  2  0  0  0
   -1.2964    1.4973    0.0000 C   0  0
   -3.9115    2.9974    0.0000 C   0  0
    0.0000    0.7486    0.0000 C   0  0
   -2.6111   -0.7486    0.0000 C   0  0
   -6.5121    1.4924    0.0000 C   0  0
    0.0000   -0.7486    0.0000 C   0  0
   -1.2964   -1.4973    0.0000 C   0  0
   -2.6119    3.7481    0.0000 N   0  0
   -5.2090   -0.4555    0.0000 O   0  0
    5.0929    1.8758    0.0000 Cl  0  0
    1.2964    1.4973    0.0000 C   0  0
   -7.8113    0.7426    0.0000 C   0  0
   -6.5121    2.9924    0.0000 C   0  0
   -2.6114    4.9481    0.0000 C   0  0
   -1.5727    3.1479    0.0000 C   0  0
    1.2964   -1.4973    0.0000 C   0  0
    2.5929    0.7486    0.0000 C   0  0
   -7.8110    3.7426    0.0000 C   0  0
   -9.1103    1.4927    0.0000 C   0  0
    2.5929   -0.7486    0.0000 C   0  0
   -9.1101    2.9927    0.0000 C   0  0
  1  2  1  1
  1  3  1  0
  2  4  1  0
  1  5  1  0
  4  6  2  0
  2  7  2  0
  3  8  1  0
  6  9  1  0
  7 10  1  0
  9 10  2  0
  5 11  1  0
  3 12  1  1
  6 14  1  0
  8 15  2  0
  8 16  1  0
 11 17  1  0
 11 18  1  0
  9 19  1  0
 14 20  2  0
 16 21  2  0
 15 22  1  0
 19 23  2  0
 20 23  1  0
 21 24  1  0
 22 24  2  0
M  END