
          11280715452D 1   1.00000     0.00000     0

 37 40  0     1  0            999 V2000
    0.2167    0.2500    0.0000 N   0  0  3  0  0  0           0  0  0
   -0.0125    0.9875    0.0000 C   0  0  0  0  0  0           0  0  0
    0.5917    1.4500    0.0000 N   0  0  3  0  0  0           0  0  0
   -0.3875   -0.2042    0.0000 C   0  0  0  0  0  0           0  0  0
    1.2000    0.9958    0.0000 C   0  0  0  0  0  0           0  0  0
    0.9667    0.2500    0.0000 C   0  0  1  0  0  0           0  0  0
   -0.7583    0.9958    0.0000 N   0  0  0  0  0  0           0  0  0
   -0.3875   -0.9792    0.0000 S   0  0  3  0  0  0           0  0  0
   -0.9875    0.2583    0.0000 C   0  0  0  0  0  0           0  0  0
    0.5917    2.2333    0.0000 C   0  0  0  0  0  0           0  0  0
    1.2417    2.6208    0.0000 C   0  0  0  0  0  0           0  0  0
   -0.0500    2.6208    0.0000 C   0  0  0  0  0  0           0  0  0
    1.6792    0.0500    0.0000 C   0  0  0  0  0  0           0  0  0
    1.9125    1.2333    0.0000 O   0  0  0  0  0  0           0  0  0
    0.3500   -0.9875    0.0000 O   0  0  0  0  0  0           0  0  0
   -1.1375   -0.9792    0.0000 O   0  0  0  0  0  0           0  0  0
    1.2417    3.3958    0.0000 C   0  0  0  0  0  0           0  0  0
   -0.0500    3.3958    0.0000 C   0  0  0  0  0  0           0  0  0
   -3.7708   -2.1167    0.0000 C   0  0  0  0  0  0           0  0  0
    0.5917    3.7833    0.0000 C   0  0  0  0  0  0           0  0  0
   -3.7750   -2.9000    0.0000 O   0  0  0  0  0  0           0  0  0
    0.9625   -0.5292    0.0000 C   0  0  0  0  0  0           0  0  0
    1.6792   -0.7292    0.0000 C   0  0  0  0  0  0           0  0  0
   -0.3958   -1.7625    0.0000 C   0  0  0  0  0  0           0  0  0
    1.6667   -2.2792    0.0000 C   0  0  0  0  0  0           0  0  0
   -0.7000    3.7833    0.0000 Cl  0  0  0  0  0  0           0  0  0
    1.8875    3.7833    0.0000 Cl  0  0  0  0  0  0           0  0  0
   -3.0958   -1.7375    0.0000 O   0  0  0  0  0  0           0  0  0
    1.6625   -3.0542    0.0000 Br  0  0  0  0  0  0           0  0  0
    2.3167   -1.1125    0.0000 C   0  0  0  0  0  0           0  0  0
    1.0250   -1.1042    0.0000 C   0  0  0  0  0  0           0  0  0
    2.3167   -1.8917    0.0000 C   0  0  0  0  0  0           0  0  0
    1.0250   -1.8875    0.0000 C   0  0  0  0  0  0           0  0  0
   -4.4458   -1.7250    0.0000 C   0  0  0  0  0  0           0  0  0
   -2.4250   -2.1292    0.0000 C   0  0  0  0  0  0           0  0  0
   -1.0750   -2.1417    0.0000 C   0  0  0  0  0  0           0  0  0
   -1.7458   -1.7500    0.0000 C   0  0  0  0  0  0           0  0  0
  2  1  1  0     0  0
  3  2  1  0     0  0
  4  1  1  0     0  0
  5  6  1  0     0  0
  6  1  1  0     0  0
  7  2  2  0     0  0
  8  4  1  0     0  0
  9  4  2  0     0  0
 10  3  1  0     0  0
 11 10  2  0     0  0
 12 10  1  0     0  0
  6 13  1  1     0  0
 14  5  2  0     0  0
 15  8  2  0     0  0
 16  8  2  0     0  0
 17 11  1  0     0  0
 18 12  2  0     0  0
 19 28  1  0     0  0
 20 18  1  0     0  0
 21 19  2  0     0  0
  6 22  1  6     0  0
 23 13  1  0     0  0
 24  8  1  0     0  0
 25 33  2  0     0  0
 26 18  1  0     0  0
 27 17  1  0     0  0
 28 35  1  0     0  0
 29 25  1  0     0  0
 30 23  1  0     0  0
 31 23  2  0     0  0
 32 30  2  0     0  0
 33 31  1  0     0  0
 34 19  1  0     0  0
 35 37  1  0     0  0
 36 24  1  0     0  0
 37 36  1  0     0  0
  3  5  1  0     0  0
  7  9  1  0     0  0
 32 25  1  0     0  0
 17 20  2  0     0  0
M  END