
  SciTegic01061414252D

 38 42  0  0  0  0            999 V2000
    8.1639   -7.9029    0.0000 O   0  0
    7.9061   -8.6857    0.0000 N   0  0
    7.0799   -8.6805    0.0000 C   0  0
    6.8305   -7.8941    0.0000 C   0  0
    7.4989   -7.4111    0.0000 C   0  0
    6.5881   -9.3456    0.0000 C   0  0
    5.7722   -9.2548    0.0000 O   0  0
    6.9216  -10.1019    0.0000 N   0  0
    7.5020   -6.5886    0.0000 C   0  0
    6.7898   -6.1723    0.0000 C   0  0
    6.7949   -5.3462    0.0000 C   0  0
    7.5101   -4.9399    0.0000 C   0  0
    8.2223   -5.3562    0.0000 C   0  0
    8.2193   -6.1787    0.0000 C   0  0
    8.9315   -6.5950    0.0000 O   0  0
    9.6467   -6.1888    0.0000 C   0  0
    9.6519   -5.3627    0.0000 C   0  0
   10.3691   -4.9528    0.0000 C   0  0
   11.0814   -5.3691    0.0000 C   0  0
   11.0762   -6.1953    0.0000 C   0  0
   10.3589   -6.6051    0.0000 C   0  0
   11.7986   -4.9593    0.0000 N   0  3
   12.5108   -5.3756    0.0000 O   0  0
   11.8016   -4.1368    0.0000 O   0  5
    7.5152   -4.1138    0.0000 O   0  0
    6.0746   -6.5786    0.0000 O   0  0
    5.4577  -12.0938    0.0000 N   0  0
    5.1242  -11.3375    0.0000 C   0  0
    5.6139  -10.6761    0.0000 C   0  0
    6.4355  -10.7653    0.0000 C   0  0
    6.7653  -11.5196    0.0000 C   0  0
    6.2772  -12.1867    0.0000 C   0  0
    4.9695  -12.7609    0.0000 C   0  0
    5.2994  -13.5151    0.0000 C   0  0
    4.8112  -14.1822    0.0000 C   0  0
    3.9917  -14.0893    0.0000 C   0  0
    3.6583  -13.3330    0.0000 C   0  0
    4.1500  -12.6681    0.0000 C   0  0
  1  2  1  0
  2  3  2  0
  3  4  1  0
  4  5  2  0
  1  5  1  0
  6  7  2  0
  6  8  1  0
  3  6  1  0
  9 10  1  0
 10 11  2  0
 11 12  1  0
 12 13  2  0
 13 14  1  0
  9 14  2  0
 16 17  1  0
 17 18  2  0
 18 19  1  0
 19 20  2  0
 20 21  1  0
 16 21  2  0
 15 16  1  0
 22 23  2  0
 22 24  1  0
 19 22  1  0
 14 15  1  0
 12 25  1  0
 10 26  1  0
  5  9  1  0
 27 28  1  0
 28 29  1  0
 29 30  1  0
 30 31  1  0
 31 32  1  0
 27 32  1  0
 33 34  1  0
 34 35  1  0
 35 36  1  0
 36 37  1  0
 37 38  1  0
 33 38  1  0
 27 33  1  0
  8 30  1  0
M  CHG  2  22   1  24  -1
M  END