
  CDK    9/16/09,10:4

 34 37  0  0  0  0  0  0  0  0999 V2000
    0.3931  -18.6348    0.0000 C   0  0  0  0  0  0  0  0  0  0  0  0
    1.2225  -18.6159    0.0000 C   0  0  0  0  0  0  0  0  0  0  0  0
    1.6185  -17.8922    0.0000 C   0  0  0  0  0  0  0  0  0  0  0  0
    1.1897  -17.1828    0.0000 C   0  0  0  0  0  0  0  0  0  0  0  0
    0.3605  -17.2017    0.0000 C   0  0  0  0  0  0  0  0  0  0  0  0
   -0.0401  -17.9300    0.0000 N   0  0  0  0  0  0  0  0  0  0  0  0
    0.5953  -18.2543    0.0000 C   0  0  0  0  0  0  0  0  0  0  0  0
    0.9187  -17.5592    0.0000 C   0  0  0  0  0  0  0  0  0  0  0  0
   -0.8647  -17.9575    0.0000 C   0  0  0  0  0  0  0  0  0  0  0  0
    2.4435  -17.8821    0.0000 C   0  0  0  0  0  0  0  0  0  0  0  0
    3.2684  -17.8678    0.0000 C   0  0  0  0  0  0  0  0  0  0  0  0
    2.4557  -18.7069    0.0000 O   0  0  0  0  0  0  0  0  0  0  0  0
    2.4314  -17.0571    0.0000 C   0  0  0  0  0  0  0  0  0  0  0  0
    3.1403  -16.6369    0.0000 C   0  0  0  0  0  0  0  0  0  0  0  0
    3.1286  -15.8128    0.0000 C   0  0  0  0  0  0  0  0  0  0  0  0
    2.4075  -15.4101    0.0000 C   0  0  0  0  0  0  0  0  0  0  0  0
    1.6969  -15.8375    0.0000 C   0  0  0  0  0  0  0  0  0  0  0  0
    1.7122  -16.6602    0.0000 C   0  0  0  0  0  0  0  0  0  0  0  0
    3.6913  -18.5774    0.0000 C   0  0  0  0  0  0  0  0  0  0  0  0
    4.5154  -18.5635    0.0000 C   0  0  0  0  0  0  0  0  0  0  0  0
    4.9164  -17.8415    0.0000 C   0  0  0  0  0  0  0  0  0  0  0  0
    4.4872  -17.1319    0.0000 C   0  0  0  0  0  0  0  0  0  0  0  0
    3.6645  -17.1493    0.0000 C   0  0  0  0  0  0  0  0  0  0  0  0
   -1.3007  -17.2572    0.0000 C   0  0  0  0  0  0  0  0  0  0  0  0
   -2.1253  -17.2847    0.0000 O   0  0  0  0  0  0  0  0  0  0  0  0
   -2.5613  -16.5843    0.0000 C   0  0  0  0  0  0  0  0  0  0  0  0
   -3.3859  -16.6117    0.0000 C   0  0  0  0  0  0  0  0  0  0  0  0
   -3.8183  -15.9100    0.0000 C   0  0  0  0  0  0  0  0  0  0  0  0
   -4.6420  -15.9371    0.0000 C   0  0  0  0  0  0  0  0  0  0  0  0
   -5.0313  -16.6655    0.0000 C   0  0  0  0  0  0  0  0  0  0  0  0
   -4.5908  -17.3680    0.0000 C   0  0  0  0  0  0  0  0  0  0  0  0
   -3.7684  -17.3375    0.0000 C   0  0  0  0  0  0  0  0  0  0  0  0
   -3.3293  -18.0358    0.0000 F   0  0  0  0  0  0  0  0  0  0  0  0
    0.1284  -14.8039    0.0000 Br  0  0  0  0  0  0  0  0  0  0  0  0
 15 16  2  0  0  0  0 
 16 17  1  0  0  0  0 
  7  8  1  0  0  0  0 
 17 18  2  0  0  0  0 
 18 13  1  0  0  0  0 
  3  8  1  0  0  0  0 
 11 19  2  0  0  0  0 
  1  2  1  0  0  0  0 
 19 20  1  0  0  0  0 
  6  9  1  0  0  0  0 
 20 21  2  0  0  0  0 
  1  6  1  0  0  0  0 
 21 22  1  0  0  0  0 
  3 10  1  0  0  0  0 
 22 23  2  0  0  0  0 
 23 11  1  0  0  0  0 
  2  3  1  0  0  0  0 
  9 24  1  0  0  0  0 
 10 11  1  0  0  0  0 
 24 25  1  0  0  0  0 
  3  4  1  0  0  0  0 
 25 26  1  0  0  0  0 
 10 12  1  0  0  0  0 
 26 27  1  0  0  0  0 
  4  5  1  0  0  0  0 
 27 28  2  0  0  0  0 
 10 13  1  0  0  0  0 
 28 29  1  0  0  0  0 
  5  6  1  0  0  0  0 
 29 30  2  0  0  0  0 
 13 14  2  0  0  0  0 
 30 31  1  0  0  0  0 
 31 32  2  0  0  0  0 
 32 27  1  0  0  0  0 
 14 15  1  0  0  0  0 
 32 33  1  0  0  0  0 
  6  7  1  0  0  0  0 
M  CHG  1   6   1
M  CHG  1  34  -1
M  END