
          11280714502D 1   1.00000     0.00000     0

 22 25  0     0  0            999 V2000
    5.4417   -3.4792    0.0000 C   0  0  0  0  0  0           0  0  0
    7.8542   -6.0375    0.0000 N   0  0  0  0  0  0           0  0  0
    7.1417   -7.2792    0.0000 C   0  0  0  0  0  0           0  0  0
    7.1417   -6.4542    0.0000 C   0  0  0  0  0  0           0  0  0
    5.1125   -4.2375    0.0000 O   0  0  0  0  0  0           0  0  0
    6.2625   -3.5625    0.0000 N   0  0  0  0  0  0           0  0  0
    5.7250   -4.7875    0.0000 C   0  0  3  0  0  0           0  0  0
    8.5667   -7.2750    0.0000 C   0  0  0  0  0  0           0  0  0
    5.7250   -6.4417    0.0000 N   0  0  3  0  0  0           0  0  0
    8.5667   -6.4542    0.0000 C   0  0  0  0  0  0           0  0  0
    5.0250   -2.7667    0.0000 O   0  0  0  0  0  0           0  0  0
    6.4292   -7.6792    0.0000 C   0  0  0  0  0  0           0  0  0
    5.0167   -5.2042    0.0000 C   0  0  0  0  0  0           0  0  0
    6.4375   -5.2042    0.0000 C   0  0  0  0  0  0           0  0  0
    6.4375   -4.3667    0.0000 C   0  0  0  0  0  0           0  0  0
    5.7167   -7.2667    0.0000 C   0  0  0  0  0  0           0  0  0
    5.0167   -6.0292    0.0000 C   0  0  0  0  0  0           0  0  0
    6.4375   -6.0292    0.0000 C   0  0  0  0  0  0           0  0  0
    9.2792   -7.6875    0.0000 C   0  0  0  0  0  0           0  0  0
    9.2792   -6.0417    0.0000 C   0  0  0  0  0  0           0  0  0
    9.9917   -7.2750    0.0000 C   0  0  0  0  0  0           0  0  0
    9.9917   -6.4500    0.0000 C   0  0  0  0  0  0           0  0  0
  2  4  1  0     0  0
  3 12  1  0     0  0
  4  3  2  0     0  0
  5  1  1  0     0  0
  6  1  1  0     0  0
  7  5  1  0     0  0
  8  3  1  0     0  0
  9 18  1  0     0  0
 10  8  2  0     0  0
 11  1  2  0     0  0
 12 16  1  0     0  0
 13  7  1  0     0  0
 14  7  1  0     0  0
 15  6  1  0     0  0
 16  9  1  0     0  0
 17 13  1  0     0  0
 18 14  1  0     0  0
 19  8  1  0     0  0
 20 10  1  0     0  0
 21 19  2  0     0  0
 22 21  1  0     0  0
  7 15  1  0     0  0
 17  9  1  0     0  0
 10  2  1  0     0  0
 22 20  2  0     0  0
M  END