
  Mrv0541 05211314572D          

 26 27  0  0  0  0            999 V2000
    0.0019   -3.0019    0.0000 N   0  0  0  0  0  0  0  0  0  0  0  0
    0.0019    4.4231    0.0000 C   0  0  0  0  0  0  0  0  0  0  0  0
    0.0019    3.5981    0.0000 C   0  0  0  0  0  0  0  0  0  0  0  0
   -0.7126    4.8356    0.0000 O   0  0  0  0  0  0  0  0  0  0  0  0
    0.7164   -2.5894    0.0000 C   0  0  0  0  0  0  0  0  0  0  0  0
    0.7164    3.1856    0.0000 C   0  0  0  0  0  0  0  0  0  0  0  0
   -0.7126    3.1856    0.0000 C   0  0  0  0  0  0  0  0  0  0  0  0
    0.0019    1.1231    0.0000 O   0  0  0  0  0  0  0  0  0  0  0  0
    0.0019    1.9481    0.0000 C   0  0  0  0  0  0  0  0  0  0  0  0
    0.7164   -1.7644    0.0000 C   0  0  0  0  0  0  0  0  0  0  0  0
    0.7164   -0.1144    0.0000 C   0  0  0  0  0  0  0  0  0  0  0  0
    0.7164    0.7106    0.0000 C   0  0  0  0  0  0  0  0  0  0  0  0
    0.7164    2.3606    0.0000 C   0  0  0  0  0  0  0  0  0  0  0  0
   -0.7126    2.3606    0.0000 C   0  0  0  0  0  0  0  0  0  0  0  0
    3.6701    0.0000    0.0000 Cl  0  0  0  0  0  0  0  0  0  0  0  0
    0.0019   -1.3519    0.0000 C   0  0  0  0  0  0  0  0  0  0  0  0
    1.4308   -1.3519    0.0000 C   0  0  0  0  0  0  0  0  0  0  0  0
    1.4308   -0.5269    0.0000 C   0  0  0  0  0  0  0  0  0  0  0  0
    0.0019   -0.5269    0.0000 C   0  0  0  0  0  0  0  0  0  0  0  0
    0.0636   -3.8246    0.0000 C   0  0  0  0  0  0  0  0  0  0  0  0
   -0.6797   -2.5372    0.0000 C   0  0  0  0  0  0  0  0  0  0  0  0
    0.7164    4.8356    0.0000 C   0  0  0  0  0  0  0  0  0  0  0  0
   -1.4681   -2.7803    0.0000 C   0  0  0  0  0  0  0  0  0  0  0  0
   -0.5412   -4.3857    0.0000 C   0  0  0  0  0  0  0  0  0  0  0  0
   -1.3570   -4.2628    0.0000 C   0  0  0  0  0  0  0  0  0  0  0  0
   -1.7695   -3.5483    0.0000 C   0  0  0  0  0  0  0  0  0  0  0  0
  2  3  1  0  0  0  0
  2  4  2  0  0  0  0
  1  5  1  0  0  0  0
  3  6  1  0  0  0  0
  3  7  2  0  0  0  0
  8  9  1  0  0  0  0
  5 10  1  0  0  0  0
  8 12  1  0  0  0  0
 11 12  1  0  0  0  0
  6 13  2  0  0  0  0
  9 13  1  0  0  0  0
  7 14  1  0  0  0  0
  9 14  2  0  0  0  0
 10 16  2  0  0  0  0
 10 17  1  0  0  0  0
 11 18  1  0  0  0  0
 17 18  2  0  0  0  0
 11 19  2  0  0  0  0
 16 19  1  0  0  0  0
  1 20  1  0  0  0  0
  1 21  1  0  0  0  0
  2 22  1  0  0  0  0
 21 23  1  0  0  0  0
 20 24  1  0  0  0  0
 24 25  1  0  0  0  0
 23 26  1  0  0  0  0
 25 26  1  0  0  0  0
M  END