
          11280715012D 1   1.00000     0.00000     0

 37 40  0     1  0            999 V2000
    6.1292   -3.0542    0.0000 N   0  0  0  0  0  0           0  0  0
    5.5750   -2.8375    0.0000 C   0  0  0  0  0  0           0  0  0
    6.0917   -3.6542    0.0000 C   0  0  2  0  0  0           0  0  0
    6.6125   -3.9542    0.0000 C   0  0  0  0  0  0           0  0  0
    5.1875   -3.3042    0.0000 O   0  0  0  0  0  0           0  0  0
    5.5750   -0.4375    0.0000 C   0  0  0  0  0  0           0  0  0
    7.1292   -3.6542    0.0000 N   0  0  0  0  0  0           0  0  0
    5.5792   -2.2375    0.0000 C   0  0  0  0  0  0           0  0  0
    5.5167   -3.8042    0.0000 C   0  0  0  0  0  0           0  0  0
    5.5750   -1.0375    0.0000 C   0  0  0  0  0  0           0  0  0
    8.6875   -0.4292    0.0000 C   0  0  0  0  0  0           0  0  0
    6.6042   -4.5542    0.0000 O   0  0  0  0  0  0           0  0  0
    5.0542   -0.1375    0.0000 C   0  0  0  0  0  0           0  0  0
    6.0917   -0.1375    0.0000 C   0  0  0  0  0  0           0  0  0
    4.5292    0.7625    0.0000 N   0  0  0  0  0  0           0  0  0
    8.6875   -1.0292    0.0000 O   0  0  0  0  0  0           0  0  0
    5.0542   -1.9375    0.0000 C   0  0  0  0  0  0           0  0  0
    6.1000   -1.9292    0.0000 C   0  0  0  0  0  0           0  0  0
    5.0542   -1.3375    0.0000 C   0  0  0  0  0  0           0  0  0
    6.0917   -1.3375    0.0000 C   0  0  0  0  0  0           0  0  0
    7.6500   -3.9542    0.0000 C   0  0  0  0  0  0           0  0  0
    9.2042   -0.1292    0.0000 O   0  0  0  0  0  0           0  0  0
    8.1667   -3.6542    0.0000 C   0  0  0  0  0  0           0  0  0
    5.0542    0.4625    0.0000 C   0  0  0  0  0  0           0  0  0
    8.1667   -0.1292    0.0000 C   0  0  0  0  0  0           0  0  0
    4.0125    0.4625    0.0000 C   0  0  0  0  0  0           0  0  0
    6.6125   -0.4375    0.0000 C   0  0  0  0  0  0           0  0  0
    4.5292   -0.4375    0.0000 C   0  0  0  0  0  0           0  0  0
    8.6792   -3.9542    0.0000 C   0  0  0  0  0  0           0  0  0
    8.1625   -3.0542    0.0000 C   0  0  0  0  0  0           0  0  0
    7.6500   -0.4292    0.0000 C   0  0  0  0  0  0           0  0  0
    7.1292   -0.1292    0.0000 C   0  0  0  0  0  0           0  0  0
    4.0125   -0.1375    0.0000 C   0  0  0  0  0  0           0  0  0
    8.6792   -2.7542    0.0000 C   0  0  0  0  0  0           0  0  0
    9.2042   -3.6542    0.0000 C   0  0  0  0  0  0           0  0  0
    9.2042   -3.0542    0.0000 C   0  0  0  0  0  0           0  0  0
    5.7917   -4.1750    0.0000 H   0  0  0  0  0  0           0  0  0
  2  1  2  0     0  0
  3  1  1  0     0  0
  4  3  1  0     0  0
  5  2  1  0     0  0
  6 10  1  0     0  0
  7  4  1  0     0  0
  8  2  1  0     0  0
  9  3  1  0     0  0
 10 20  1  0     0  0
 11 25  1  0     0  0
 12  4  2  0     0  0
 13  6  1  0     0  0
 14  6  2  0     0  0
 15 24  2  0     0  0
 16 11  2  0     0  0
 17  8  2  0     0  0
 18  8  1  0     0  0
 19 17  1  0     0  0
 20 18  2  0     0  0
 21  7  1  0     0  0
 22 11  1  0     0  0
 23 21  1  0     0  0
 24 13  1  0     0  0
 25 31  1  0     0  0
 26 33  2  0     0  0
 27 14  1  0     0  0
 28 13  2  0     0  0
 29 23  2  0     0  0
 30 23  1  0     0  0
 31 32  1  0     0  0
 32 27  1  0     0  0
 33 28  1  0     0  0
 34 30  2  0     0  0
 35 29  1  0     0  0
 36 34  1  0     0  0
  3 37  1  1     0  0
  9  5  1  0     0  0
 19 10  2  0     0  0
 36 35  2  0     0  0
 26 15  1  0     0  0
M  END