
          11280715052D 1   1.00000     0.00000     0

 32 35  0     1  0            999 V2000
    1.7667    0.0708    0.0000 N   0  0  3  0  0  0           0  0  0
    1.2000    0.2500    0.0000 C   0  0  0  0  0  0           0  0  0
    1.7667    1.0375    0.0000 N   0  0  0  0  0  0           0  0  0
    2.1167    0.5625    0.0000 C   0  0  0  0  0  0           0  0  0
    1.2000    0.8500    0.0000 C   0  0  0  0  0  0           0  0  0
    0.6792   -0.0500    0.0000 N   0  0  0  0  0  0           0  0  0
    0.6750    1.1583    0.0000 C   0  0  0  0  0  0           0  0  0
    4.3125   -0.9875    0.0000 C   0  0  0  0  0  0           0  0  0
    3.7417   -1.8500    0.0000 C   0  0  2  0  0  0           0  0  0
    4.2750   -1.5875    0.0000 C   0  0  2  0  0  0           0  0  0
    1.7375   -0.5292    0.0000 C   0  0  0  0  0  0           0  0  0
    0.1542    0.2500    0.0000 C   0  0  0  0  0  0           0  0  0
    3.2292   -1.5250    0.0000 C   0  0  0  0  0  0           0  0  0
    0.1542    0.8583    0.0000 C   0  0  0  0  0  0           0  0  0
    3.8042   -0.6542    0.0000 O   0  0  0  0  0  0           0  0  0
    3.7042   -2.4500    0.0000 C   0  0  0  0  0  0           0  0  0
    2.7042   -1.7875    0.0000 C   0  0  0  0  0  0           0  0  0
    3.2750   -0.9250    0.0000 C   0  0  0  0  0  0           0  0  0
    2.2375   -0.8625    0.0000 C   0  0  0  0  0  0           0  0  0
    4.8417   -0.7125    0.0000 O   0  0  0  0  0  0           0  0  0
    2.7167    0.5625    0.0000 C   0  0  0  0  0  0           0  0  0
    2.7750   -0.5875    0.0000 C   0  0  0  0  0  0           0  0  0
    2.2042   -1.4625    0.0000 C   0  0  0  0  0  0           0  0  0
    0.6750    1.7583    0.0000 C   0  0  0  0  0  0           0  0  0
    4.7792   -1.9125    0.0000 C   0  0  0  0  0  0           0  0  0
   -0.3625   -0.0500    0.0000 C   0  0  0  0  0  0           0  0  0
    4.2042   -2.7750    0.0000 C   0  0  0  0  0  0           0  0  0
    3.1667   -2.7167    0.0000 C   0  0  0  0  0  0           0  0  0
    3.0167    1.0875    0.0000 C   0  0  0  0  0  0           0  0  0
    3.1292   -3.3125    0.0000 C   0  0  0  0  0  0           0  0  0
    4.1667   -3.3750    0.0000 C   0  0  0  0  0  0           0  0  0
    3.6292   -3.6500    0.0000 C   0  0  0  0  0  0           0  0  0
  2  1  1  0     0  0
  3  4  2  0     0  0
  4  1  1  0     0  0
  5  2  2  0     0  0
  6  2  1  0     0  0
  7  5  1  0     0  0
  8 10  1  0     0  0
  9 13  1  0     0  0
 10  9  1  0     0  0
 11  1  1  0     0  0
 12  6  2  0     0  0
 13 17  1  0     0  0
 14 12  1  0     0  0
 15  8  2  0     0  0
  9 16  1  1     0  0
 17 23  2  0     0  0
 18 22  1  0     0  0
 19 11  1  0     0  0
 20  8  1  0     0  0
 21  4  1  0     0  0
 22 19  2  0     0  0
 23 19  1  0     0  0
 24  7  1  0     0  0
 10 25  1  1     0  0
 26 12  1  0     0  0
 27 16  1  0     0  0
 28 16  2  0     0  0
 29 21  1  0     0  0
 30 28  1  0     0  0
 31 27  2  0     0  0
 32 30  2  0     0  0
  3  5  1  0     0  0
 18 13  2  0     0  0
 14  7  2  0     0  0
 32 31  1  0     0  0
M  END