
          11280715582D 1   1.00000     0.00000     0

 87 92  0     1  0            999 V2000
   11.7500  -14.2958    0.0000 N   0  0  3  0  0  0           0  0  0
   10.6250  -15.2833    0.0000 C   0  0  0  0  0  0           0  0  0
   10.3333  -12.0500    0.0000 C   0  0  0  0  0  0           0  0  0
    2.6583    1.5292    0.0000 C   0  0  0  0  0  0           0  0  0
    1.3917    5.2917    0.0000 C   0  0  0  0  0  0           0  0  0
    2.6708    3.0333    0.0000 N   0  0  0  0  0  0           0  0  0
   10.9167  -16.7542    0.0000 C   0  0  1  0  0  0           0  0  0
   11.6250  -12.8125    0.0000 C   0  0  2  0  0  0           0  0  0
    1.4167    8.2958    0.0000 C   0  0  0  0  0  0           0  0  0
    9.0667   -8.2875    0.0000 C   0  0  0  0  0  0           0  0  0
    6.4958   -5.2583    0.0000 C   0  0  0  0  0  0           0  0  0
   12.3375  -17.2333    0.0000 N   0  0  0  0  0  0           0  0  0
   13.4667  -16.2417    0.0000 C   0  0  0  0  0  0           0  0  0
    0.1000    6.0542    0.0000 N   0  0  0  0  0  0           0  0  0
   10.3458  -10.5500    0.0000 N   0  0  0  0  0  0           0  0  0
    7.7750   -7.5250    0.0000 N   0  0  0  0  0  0           0  0  0
    1.3792    3.7958    0.0000 C   0  0  1  0  0  0           0  0  0
    1.4292    9.7958    0.0000 N   0  0  0  0  0  0           0  0  0
    0.1125    7.5542    0.0000 C   0  0  1  0  0  0           0  0  0
    7.7875   -6.0208    0.0000 C   0  0  1  0  0  0           0  0  0
    9.0542   -9.7875    0.0000 C   0  0  1  0  0  0           0  0  0
   -1.8917   12.1125    0.0000 N   0  0  0  0  0  0           0  0  0
    5.9625  -17.2417    0.0000 N   0  0  0  0  0  0           0  0  0
   11.9750   -7.8583    0.0000 N   0  0  0  0  0  0           0  0  0
    3.9375   -0.7333    0.0000 N   0  0  0  0  0  0           0  0  0
    3.9500    0.7667    0.0000 C   0  0  1  0  0  0           0  0  0
    6.5083   -3.7583    0.0000 N   0  0  0  0  0  0           0  0  0
    9.7917  -17.7458    0.0000 C   0  0  0  0  0  0           0  0  0
    4.0292    9.7792    0.0000 C   0  0  0  0  0  0           0  0  0
    8.3667  -17.2667    0.0000 C   0  0  0  0  0  0           0  0  0
   10.3875   -6.0500    0.0000 C   0  0  0  0  0  0           0  0  0
   -1.1667    9.8167    0.0000 C   0  0  0  0  0  0           0  0  0
   -1.1792    8.3167    0.0000 C   0  0  0  0  0  0           0  0  0
    9.0958   -5.2875    0.0000 C   0  0  0  0  0  0           0  0  0
   11.7417   -5.4417    0.0000 N   0  0  0  0  0  0           0  0  0
    7.9458  -15.8417    0.0000 N   0  0  0  0  0  0           0  0  0
    0.0542   10.6625    0.0000 N   0  0  0  0  0  0           0  0  0
   12.7375   -6.5625    0.0000 C   0  0  0  0  0  0           0  0  0
   -0.3917   12.0958    0.0000 C   0  0  0  0  0  0           0  0  0
    6.4458  -15.8208    0.0000 C   0  0  0  0  0  0           0  0  0
    2.7333   10.5375    0.0000 C   0  0  2  0  0  0           0  0  0
    7.1625  -18.1375    0.0000 C   0  0  0  0  0  0           0  0  0
   -2.3708   10.6917    0.0000 C   0  0  0  0  0  0           0  0  0
   10.5125   -7.5333    0.0000 C   0  0  0  0  0  0           0  0  0
    9.4875  -14.8958    0.0000 O   0  0  0  0  0  0           0  0  0
   15.3125  -18.1500    0.0000 N   0  0  0  0  0  0           0  0  0
   14.8875  -16.7250    0.0000 C   0  0  1  0  0  0           0  0  0
    9.4625  -12.5417    0.0000 O   0  0  0  0  0  0           0  0  0
    1.6125    0.9417    0.0000 O   0  0  0  0  0  0           0  0  0
    2.4333    5.8833    0.0000 O   0  0  0  0  0  0           0  0  0
    2.4500    7.6875    0.0000 O   0  0  0  0  0  0           0  0  0
    9.9375   -7.7917    0.0000 O   0  0  0  0  0  0           0  0  0
    5.4500   -5.8500    0.0000 O   0  0  0  0  0  0           0  0  0
   13.2708  -15.2625    0.0000 O   0  0  0  0  0  0           0  0  0
    7.7458  -10.5292    0.0000 C   0  0  0  0  0  0           0  0  0
    5.0708   10.3750    0.0000 O   0  0  0  0  0  0           0  0  0
    5.2167   -2.9958    0.0000 C   0  0  2  0  0  0           0  0  0
    5.2292   -1.4958    0.0000 C   0  0  0  0  0  0           0  0  0
   13.2167  -14.6167    0.0000 C   0  0  0  0  0  0           0  0  0
    0.0708    3.0542    0.0000 C   0  0  2  0  0  0           0  0  0
    4.0208    8.5792    0.0000 O   0  0  0  0  0  0           0  0  0
    5.2583    1.5042    0.0000 C   0  0  3  0  0  0           0  0  0
    3.9083   -3.7375    0.0000 C   0  0  0  0  0  0           0  0  0
    7.7375  -12.0292    0.0000 C   0  0  0  0  0  0           0  0  0
    5.3750   16.2208    0.0000 N   0  0  0  0  0  0           0  0  0
   12.9792  -12.2000    0.0000 C   0  0  0  0  0  0           0  0  0
   13.9750  -13.3250    0.0000 C   0  0  0  0  0  0           0  0  0
   16.8125  -18.1708    0.0000 C   0  0  0  0  0  0           0  0  0
    2.7458   12.0375    0.0000 C   0  0  0  0  0  0           0  0  0
    3.9000   -5.2375    0.0000 C   0  0  3  0  0  0           0  0  0
   16.0917  -15.8500    0.0000 C   0  0  0  0  0  0           0  0  0
    5.3667   15.0208    0.0000 C   0  0  0  0  0  0           0  0  0
    0.0625    1.5542    0.0000 C   0  0  0  0  0  0           0  0  0
   -0.9625    3.6625    0.0000 C   0  0  0  0  0  0           0  0  0
    6.2917    0.8917    0.0000 C   0  0  0  0  0  0           0  0  0
    5.2708    2.7042    0.0000 C   0  0  0  0  0  0           0  0  0
    6.4292  -12.7667    0.0000 C   0  0  0  0  0  0           0  0  0
    9.0292  -12.7917    0.0000 C   0  0  0  0  0  0           0  0  0
    4.0500   12.7792    0.0000 C   0  0  0  0  0  0           0  0  0
    4.0625   14.2792    0.0000 C   0  0  0  0  0  0           0  0  0
    4.9333   -5.8458    0.0000 C   0  0  0  0  0  0           0  0  0
    2.8542   -5.8292    0.0000 C   0  0  0  0  0  0           0  0  0
   17.2958  -16.7500    0.0000 C   0  0  0  0  0  0           0  0  0
   -0.9833    0.9583    0.0000 C   0  0  0  0  0  0           0  0  0
    6.4167  -14.2667    0.0000 C   0  0  0  0  0  0           0  0  0
    9.0125  -14.2917    0.0000 C   0  0  0  0  0  0           0  0  0
    7.7083  -15.0292    0.0000 C   0  0  0  0  0  0           0  0  0
  2  1  1  0     0  0
  8  3  1  6     0  0
  4 26  1  0     0  0
  5 17  1  0     0  0
  6  4  1  0     0  0
  7  2  1  0     0  0
  8  1  1  0     0  0
  9 19  1  0     0  0
 10 21  1  0     0  0
 11 20  1  0     0  0
 12  7  1  0     0  0
 13 12  1  0     0  0
 14  5  1  0     0  0
 15  3  1  0     0  0
 16 10  1  0     0  0
 17  6  1  1     0  0
 18  9  1  0     0  0
 19 14  1  1     0  0
 20 16  1  0     0  0
 21 15  1  0     0  0
 22 43  1  0     0  0
 23 42  1  0     0  0
 24 44  1  0     0  0
 25 58  1  0     0  0
 26 25  1  6     0  0
 27 11  1  0     0  0
  7 28  1  1     0  0
 29 41  1  0     0  0
 30 28  1  0     0  0
 31 34  1  0     0  0
 32 33  1  0     0  0
 33 19  1  0     0  0
 20 34  1  6     0  0
 35 31  1  0     0  0
 36 30  1  0     0  0
 37 32  1  0     0  0
 38 35  2  0     0  0
 39 37  2  0     0  0
 40 36  2  0     0  0
 41 18  1  1     0  0
 42 30  2  0     0  0
 43 32  2  0     0  0
 44 31  2  0     0  0
 45  2  2  0     0  0
 46 47  1  0     0  0
 47 13  1  6     0  0
 48  3  2  0     0  0
 49  4  2  0     0  0
 50  5  2  0     0  0
 51  9  2  0     0  0
 52 10  2  0     0  0
 53 11  2  0     0  0
 54 13  2  0     0  0
 21 55  1  1     0  0
 56 29  2  0     0  0
 57 27  1  0     0  0
 57 58  1  1     0  0
 59  1  1  0     0  0
 60 17  1  0     0  0
 61 29  1  0     0  0
 62 26  1  0     0  0
 63 57  1  0     0  0
 64 55  1  0     0  0
 65 72  1  0     0  0
 66  8  1  0     0  0
 67 59  1  0     0  0
 68 46  1  0     0  0
 69 41  1  0     0  0
 70 63  1  0     0  0
 71 47  1  0     0  0
 72 80  1  0     0  0
 73 60  1  0     0  0
 60 74  1  6     0  0
 75 62  1  0     0  0
 76 62  1  0     0  0
 77 64  1  0     0  0
 78 64  2  0     0  0
 79 69  1  0     0  0
 80 79  1  0     0  0
 81 70  1  0     0  0
 82 70  1  0     0  0
 83 71  1  0     0  0
 84 73  1  0     0  0
 85 77  2  0     0  0
 86 78  1  0     0  0
 87 85  1  0     0  0
 67 66  1  0     0  0
 40 23  1  0     0  0
 68 83  1  0     0  0
 87 86  2  0     0  0
 38 24  1  0     0  0
 39 22  1  0     0  0
M  END