
          11280715132D 1   1.00000     0.00000     0

 34 37  0     1  0            999 V2000
    2.6167   -1.7625    0.0000 C   0  0  2  0  0  0           0  0  0
    3.0250   -2.4750    0.0000 C   0  0  1  0  0  0           0  0  0
    1.9542   -1.2500    0.0000 C   0  0  0  0  0  0           0  0  0
    2.6000    0.1083    0.0000 N   0  0  3  0  0  0           0  0  0
    1.9542   -0.4167    0.0000 C   0  0  0  0  0  0           0  0  0
    2.8167   -3.9792    0.0000 C   0  0  0  0  0  0           0  0  0
    3.4250   -1.5667    0.0000 N   0  0  0  0  0  0           0  0  0
    3.4042   -0.0750    0.0000 C   0  0  0  0  0  0           0  0  0
    3.8167   -2.6875    0.0000 C   0  0  0  0  0  0           0  0  0
    2.6042   -3.1875    0.0000 O   0  0  0  0  0  0           0  0  0
    2.2292   -4.5625    0.0000 N   0  0  0  0  0  0           0  0  0
    3.6042   -4.1917    0.0000 N   0  0  0  0  0  0           0  0  0
    3.7792   -0.8167    0.0000 C   0  0  0  0  0  0           0  0  0
    2.0292   -2.3417    0.0000 C   0  0  0  0  0  0           0  0  0
    3.8250   -4.9792    0.0000 C   0  0  0  0  0  0           0  0  0
    2.4417   -5.3542    0.0000 C   0  0  0  0  0  0           0  0  0
    3.2417   -5.5667    0.0000 C   0  0  0  0  0  0           0  0  0
    3.9167    0.5750    0.0000 O   0  0  0  0  0  0           0  0  0
    4.0292   -3.4792    0.0000 O   0  0  0  0  0  0           0  0  0
    4.6167   -2.4667    0.0000 O   0  0  0  0  0  0           0  0  0
    2.3417    0.8958    0.0000 C   0  0  0  0  0  0           0  0  0
    1.2417   -1.6625    0.0000 C   0  0  0  0  0  0           0  0  0
    1.2417   -0.0042    0.0000 C   0  0  0  0  0  0           0  0  0
    1.2875    1.8500    0.0000 O   0  0  0  0  0  0           0  0  0
    2.2375   -3.1417    0.0000 C   0  0  0  0  0  0           0  0  0
    1.2292   -2.1167    0.0000 C   0  0  0  0  0  0           0  0  0
    1.8625   -5.9417    0.0000 C   0  0  0  0  0  0           0  0  0
    4.6167   -5.1917    0.0000 C   0  0  0  0  0  0           0  0  0
    1.5375    1.0625    0.0000 C   0  0  0  0  0  0           0  0  0
    0.5292   -1.2500    0.0000 C   0  0  0  0  0  0           0  0  0
    0.5292   -0.4250    0.0000 C   0  0  0  0  0  0           0  0  0
    1.6417   -3.7167    0.0000 C   0  0  0  0  0  0           0  0  0
    0.6417   -2.6917    0.0000 C   0  0  0  0  0  0           0  0  0
    0.8417   -3.4917    0.0000 C   0  0  0  0  0  0           0  0  0
  2  1  1  0     0  0
  3  1  1  0     0  0
  4  5  1  0     0  0
  5  3  1  0     0  0
  6 10  1  0     0  0
  7  1  1  0     0  0
  8 13  1  0     0  0
  9  2  1  0     0  0
  2 10  1  1     0  0
 11  6  2  0     0  0
 12  6  1  0     0  0
 13  7  1  0     0  0
  1 14  1  1     0  0
 15 12  2  0     0  0
 16 11  1  0     0  0
 17 15  1  0     0  0
 18  8  2  0     0  0
 19  9  2  0     0  0
 20  9  1  0     0  0
 21  4  1  0     0  0
 22  3  2  0     0  0
 23  5  2  0     0  0
 24 29  1  0     0  0
 25 14  1  0     0  0
 26 14  2  0     0  0
 27 16  1  0     0  0
 28 15  1  0     0  0
 29 21  1  0     0  0
 30 22  1  0     0  0
 31 30  2  0     0  0
 32 25  2  0     0  0
 33 26  1  0     0  0
 34 33  2  0     0  0
  4  8  1  0     0  0
 34 32  1  0     0  0
 23 31  1  0     0  0
 16 17  2  0     0  0
M  END