
          11280715092D 1   1.00000     0.00000     0

 19 20  0     0  0            999 V2000
   -0.8250    0.6958    0.0000 C   0  0  0  0  0  0           0  0  0
   -1.3458    0.3958    0.0000 C   0  0  0  0  0  0           0  0  0
   -0.3083    0.3958    0.0000 C   0  0  0  0  0  0           0  0  0
   -1.3458   -0.2042    0.0000 C   0  0  0  0  0  0           0  0  0
   -0.3083   -0.2042    0.0000 C   0  0  0  0  0  0           0  0  0
   -0.8250   -0.5042    0.0000 C   0  0  0  0  0  0           0  0  0
   -0.8333    1.2958    0.0000 C   0  0  0  0  0  0           0  0  0
    0.2125    0.7000    0.0000 C   0  0  0  0  0  0           0  0  0
    0.2167   -0.5042    0.0000 C   0  0  0  0  0  0           0  0  0
   -1.3500    1.5958    0.0000 O   0  0  0  0  0  0           0  0  0
   -1.8625    0.6958    0.0000 O   0  0  0  0  0  0           0  0  0
   -1.8625   -0.5042    0.0000 O   0  0  0  0  0  0           0  0  0
   -0.8208   -1.1042    0.0000 C   0  0  3  0  0  0           0  0  0
   -0.3083    1.5958    0.0000 O   0  0  0  0  0  0           0  0  0
    0.7292    0.4083    0.0000 C   0  0  0  0  0  0           0  0  0
    0.7375   -0.2000    0.0000 C   0  0  0  0  0  0           0  0  0
   -1.3458   -1.4042    0.0000 C   0  0  0  0  0  0           0  0  0
   -0.3000   -1.4042    0.0000 C   0  0  0  0  0  0           0  0  0
    1.2542   -0.5000    0.0000 C   0  0  0  0  0  0           0  0  0
  2  1  1  0     0  0
  3  1  2  0     0  0
  4  2  2  0     0  0
  5  3  1  0     0  0
  6  5  2  0     0  0
  7  1  1  0     0  0
  8  3  1  0     0  0
  9  5  1  0     0  0
 10  7  2  0     0  0
 11  2  1  0     0  0
 12  4  1  0     0  0
 13  6  1  0     0  0
 14  7  1  0     0  0
 15  8  2  0     0  0
 16 15  1  0     0  0
 17 13  1  0     0  0
 18 13  1  0     0  0
 19 16  1  0     0  0
  6  4  1  0     0  0
 16  9  2  0     0  0
M  END