
  CDK    9/16/09,10:4

 35 38  0  0  0  0  0  0  0  0999 V2000
   14.4683  -27.4439    0.0000 C   0  0  0  0  0  0  0  0  0  0  0  0
   15.2977  -27.4250    0.0000 C   0  0  0  0  0  0  0  0  0  0  0  0
   15.6938  -26.7012    0.0000 C   0  0  0  0  0  0  0  0  0  0  0  0
   15.2650  -25.9918    0.0000 C   0  0  0  0  0  0  0  0  0  0  0  0
   14.4356  -26.0107    0.0000 C   0  0  0  0  0  0  0  0  0  0  0  0
   14.0350  -26.7391    0.0000 N   0  0  0  0  0  0  0  0  0  0  0  0
   14.6705  -27.0633    0.0000 C   0  0  0  0  0  0  0  0  0  0  0  0
   14.9938  -26.3682    0.0000 C   0  0  0  0  0  0  0  0  0  0  0  0
   13.2104  -26.7665    0.0000 C   0  0  0  0  0  0  0  0  0  0  0  0
   16.5188  -26.6910    0.0000 C   0  0  0  0  0  0  0  0  0  0  0  0
   17.3436  -26.6767    0.0000 C   0  0  0  0  0  0  0  0  0  0  0  0
   16.5310  -27.5159    0.0000 O   0  0  0  0  0  0  0  0  0  0  0  0
   16.5065  -25.8662    0.0000 C   0  0  0  0  0  0  0  0  0  0  0  0
   17.2156  -25.4459    0.0000 C   0  0  0  0  0  0  0  0  0  0  0  0
   17.2037  -24.6218    0.0000 C   0  0  0  0  0  0  0  0  0  0  0  0
   16.4827  -24.2191    0.0000 C   0  0  0  0  0  0  0  0  0  0  0  0
   15.7721  -24.6465    0.0000 C   0  0  0  0  0  0  0  0  0  0  0  0
   15.7875  -25.4692    0.0000 C   0  0  0  0  0  0  0  0  0  0  0  0
   17.7666  -27.3863    0.0000 C   0  0  0  0  0  0  0  0  0  0  0  0
   18.5907  -27.3725    0.0000 C   0  0  0  0  0  0  0  0  0  0  0  0
   18.9915  -26.6505    0.0000 C   0  0  0  0  0  0  0  0  0  0  0  0
   18.5623  -25.9410    0.0000 C   0  0  0  0  0  0  0  0  0  0  0  0
   17.7396  -25.9584    0.0000 C   0  0  0  0  0  0  0  0  0  0  0  0
   12.7744  -26.0661    0.0000 C   0  0  0  0  0  0  0  0  0  0  0  0
   11.9499  -26.0936    0.0000 O   0  0  0  0  0  0  0  0  0  0  0  0
   11.5138  -25.3933    0.0000 C   0  0  0  0  0  0  0  0  0  0  0  0
   10.6893  -25.4208    0.0000 C   0  0  0  0  0  0  0  0  0  0  0  0
   10.2569  -24.7191    0.0000 C   0  0  0  0  0  0  0  0  0  0  0  0
    9.4331  -24.7462    0.0000 C   0  0  0  0  0  0  0  0  0  0  0  0
    9.0438  -25.4745    0.0000 C   0  0  0  0  0  0  0  0  0  0  0  0
    9.4844  -26.1770    0.0000 C   0  0  0  0  0  0  0  0  0  0  0  0
   10.3067  -26.1464    0.0000 C   0  0  0  0  0  0  0  0  0  0  0  0
   19.0150  -28.0800    0.0000 F   0  0  0  0  0  0  0  0  0  0  0  0
   17.9122  -24.1992    0.0000 F   0  0  0  0  0  0  0  0  0  0  0  0
   13.8964  -23.0446    0.0000 Br  0  0  0  0  0  0  0  0  0  0  0  0
 16 17  1  0  0  0  0 
  7  8  1  0  0  0  0 
 17 18  2  0  0  0  0 
 18 13  1  0  0  0  0 
  3  8  1  0  0  0  0 
 11 19  2  0  0  0  0 
  1  2  1  0  0  0  0 
 19 20  1  0  0  0  0 
  6  9  1  0  0  0  0 
 20 21  2  0  0  0  0 
  1  6  1  0  0  0  0 
 21 22  1  0  0  0  0 
  3 10  1  0  0  0  0 
 22 23  2  0  0  0  0 
 23 11  1  0  0  0  0 
  2  3  1  0  0  0  0 
  9 24  1  0  0  0  0 
 10 11  1  0  0  0  0 
 24 25  1  0  0  0  0 
  3  4  1  0  0  0  0 
 25 26  1  0  0  0  0 
 10 12  1  0  0  0  0 
 26 27  1  0  0  0  0 
  4  5  1  0  0  0  0 
 27 28  2  0  0  0  0 
 10 13  1  0  0  0  0 
 28 29  1  0  0  0  0 
  5  6  1  0  0  0  0 
 29 30  2  0  0  0  0 
 13 14  2  0  0  0  0 
 30 31  1  0  0  0  0 
 31 32  2  0  0  0  0 
 32 27  1  0  0  0  0 
 14 15  1  0  0  0  0 
 20 33  1  0  0  0  0 
  6  7  1  0  0  0  0 
 15 34  1  0  0  0  0 
 15 16  2  0  0  0  0 
M  CHG  1   6   1
M  CHG  1  35  -1
M  END