
          05080814032D 1   1.00000     0.00000     0

 29 33  0     1  0            999 V2000
    3.5545  -16.9804    0.0000 C   0  0  0  0  0  0           0  0  0
    3.5545  -17.8095    0.0000 C   0  0  0  0  0  0           0  0  0
    4.2687  -18.2218    0.0000 N   0  0  3  0  0  0           0  0  0
    4.9872  -17.8095    0.0000 C   0  0  0  0  0  0           0  0  0
    4.9872  -16.9804    0.0000 C   0  0  0  0  0  0           0  0  0
    4.2687  -16.5636    0.0000 C   0  0  0  0  0  0           0  0  0
    4.2675  -19.0463    0.0000 C   0  0  0  0  0  0           0  0  0
    4.9810  -19.4596    0.0000 C   0  0  0  0  0  0           0  0  0
    4.9799  -20.2841    0.0000 C   0  0  0  0  0  0           0  0  0
    5.6933  -20.6973    0.0000 O   0  0  0  0  0  0           0  0  0
    6.4079  -20.2860    0.0000 C   0  0  0  0  0  0           0  0  0
    7.1188  -20.7006    0.0000 C   0  0  0  0  0  0           0  0  0
    7.1160  -19.0515    0.0000 C   0  0  0  0  0  0           0  0  0
    6.4048  -19.4645    0.0000 C   0  0  0  0  0  0           0  0  0
    7.8345  -19.4646    0.0000 C   0  0  0  0  0  0           0  0  0
    7.8329  -20.2922    0.0000 C   0  0  0  0  0  0           0  0  0
    9.2647  -19.4674    0.0000 C   0  0  0  0  0  0           0  0  0
    8.5481  -19.0499    0.0000 C   0  0  1  0  0  0           0  0  0
    9.2630  -20.2951    0.0000 N   0  0  3  0  0  0           0  0  0
    8.5447  -20.7007    0.0000 C   0  0  2  0  0  0           0  0  0
    8.7085  -21.5093    0.0000 C   0  0  0  0  0  0           0  0  0
    9.5282  -21.6034    0.0000 C   0  0  0  0  0  0           0  0  0
    9.8708  -20.8529    0.0000 C   0  0  0  0  0  0           0  0  0
    8.5486  -18.2254    0.0000 C   0  0  0  0  0  0           0  0  0
    7.8283  -21.1076    0.0000 H   0  0  0  0  0  0           0  0  0
    9.2129  -17.7390    0.0000 C   0  0  0  0  0  0           0  0  0
    8.9585  -16.9546    0.0000 C   0  0  0  0  0  0           0  0  0
    8.1340  -16.9541    0.0000 S   0  0  0  0  0  0           0  0  0
    7.8789  -17.7382    0.0000 C   0  0  0  0  0  0           0  0  0
 13 14  2  0     0  0
 14 11  1  0     0  0
 15 16  2  0     0  0
  3  7  1  0     0  0
  1  2  1  0     0  0
  7  8  1  0     0  0
  1  6  1  0     0  0
 15 18  1  0     0  0
 16 20  1  0     0  0
 19 17  1  0     0  0
 17 18  1  0     0  0
 19 20  1  0     0  0
  8  9  1  0     0  0
  2  3  1  0     0  0
  9 10  1  0     0  0
  3  4  1  0     0  0
 10 11  1  0     0  0
 20 21  1  0     0  0
 21 22  1  0     0  0
 22 23  1  0     0  0
 23 19  1  0     0  0
  4  5  1  0     0  0
 18 24  1  6     0  0
 11 12  2  0     0  0
 20 25  1  1     0  0
 24 26  1  0     0  0
 12 16  1  0     0  0
  5  6  1  0     0  0
 15 13  1  0     0  0
 26 27  2  0     0  0
 27 28  1  0     0  0
 28 29  1  0     0  0
 29 24  2  0     0  0
M  END