
          11280714572D 1   1.00000     0.00000     0

 42 45  0     0  0            999 V2000
    9.1625    0.8250    0.0000 C   0  0  0  0  0  0           0  0  0
    9.9917    0.7958    0.0000 C   0  0  0  0  0  0           0  0  0
    8.7250    0.1250    0.0000 C   0  0  0  0  0  0           0  0  0
   10.4292    1.5000    0.0000 N   0  3  0  0  0  0           0  0  0
    8.6292    1.4583    0.0000 N   0  0  0  0  0  0           0  0  0
   10.3792    0.0625    0.0000 C   0  0  0  0  0  0           0  0  0
    7.9250    0.3208    0.0000 N   0  0  0  0  0  0           0  0  0
    7.8667    1.1458    0.0000 O   0  0  0  0  0  0           0  0  0
    2.9542   -0.5000    0.0000 N   0  0  0  0  0  0           0  0  0
    9.1167   -0.6042    0.0000 C   0  0  0  0  0  0           0  0  0
    3.6667   -0.0792    0.0000 C   0  0  0  0  0  0           0  0  0
    2.9542   -1.3250    0.0000 C   0  0  0  0  0  0           0  0  0
    9.9417   -0.6375    0.0000 C   0  0  0  0  0  0           0  0  0
    4.3792    0.3250    0.0000 N   0  0  0  0  0  0           0  0  0
   -4.1875   -1.3292    0.0000 N   0  0  3  0  0  0           0  0  0
   11.2542    1.4708    0.0000 O   0  5  0  0  0  0           0  0  0
   10.0417    2.2333    0.0000 O   0  0  0  0  0  0           0  0  0
   -3.4750   -1.7417    0.0000 C   0  0  0  0  0  0           0  0  0
    2.2417   -1.7375    0.0000 N   0  0  0  0  0  0           0  0  0
    3.6667   -1.7292    0.0000 N   0  0  0  0  0  0           0  0  0
    8.6750   -1.3042    0.0000 N   0  0  0  0  0  0           0  0  0
   -2.7583   -1.3292    0.0000 C   0  0  0  0  0  0           0  0  0
   -2.0458   -1.7417    0.0000 C   0  0  0  0  0  0           0  0  0
   -1.3333   -1.3292    0.0000 C   0  0  0  0  0  0           0  0  0
    0.8125   -1.7417    0.0000 C   0  0  0  0  0  0           0  0  0
   -0.6208   -1.7417    0.0000 O   0  0  0  0  0  0           0  0  0
   -4.9083   -1.7375    0.0000 C   0  0  0  0  0  0           0  0  0
   -4.1875   -0.5000    0.0000 C   0  0  0  0  0  0           0  0  0
   -2.0458   -0.0917    0.0000 C   0  0  0  0  0  0           0  0  0
    1.5292   -1.3250    0.0000 C   0  0  0  0  0  0           0  0  0
   -2.7583   -0.5042    0.0000 C   0  0  0  0  0  0           0  0  0
    0.1000   -1.3292    0.0000 C   0  0  0  0  0  0           0  0  0
    4.3875   -1.3167    0.0000 C   0  0  0  0  0  0           0  0  0
    7.9625   -1.7167    0.0000 C   0  0  0  0  0  0           0  0  0
   -1.3333   -0.5000    0.0000 C   0  0  0  0  0  0           0  0  0
    5.1042   -1.7292    0.0000 C   0  0  0  0  0  0           0  0  0
    7.2417   -1.3042    0.0000 C   0  0  0  0  0  0           0  0  0
    6.5292   -1.7250    0.0000 C   0  0  0  0  0  0           0  0  0
    5.8167   -1.3125    0.0000 C   0  0  0  0  0  0           0  0  0
   -4.8958   -0.0875    0.0000 C   0  0  0  0  0  0           0  0  0
   -5.6208   -1.3167    0.0000 C   0  0  0  0  0  0           0  0  0
   -5.6083   -0.4917    0.0000 C   0  0  0  0  0  0           0  0  0
  2  1  1  0     0  0
  3  1  1  0     0  0
  4  2  1  0     0  0
  5  1  2  0     0  0
  6  2  2  0     0  0
  7  3  2  0     0  0
  8  5  1  0     0  0
  9 12  1  0     0  0
 10  3  1  0     0  0
 11  9  1  0     0  0
 12 20  2  0     0  0
 13 10  2  0     0  0
 14 11  3  0     0  0
 15 18  1  0     0  0
 16  4  1  0     0  0
 17  4  2  0     0  0
 18 22  1  0     0  0
 19 12  1  0     0  0
 20 33  1  0     0  0
 21 10  1  0     0  0
 22 23  1  0     0  0
 23 24  2  0     0  0
 24 26  1  0     0  0
 25 30  1  0     0  0
 26 32  1  0     0  0
 27 15  1  0     0  0
 28 15  1  0     0  0
 29 35  2  0     0  0
 30 19  1  0     0  0
 31 29  1  0     0  0
 32 25  1  0     0  0
 33 36  1  0     0  0
 34 21  1  0     0  0
 35 24  1  0     0  0
 36 39  1  0     0  0
 37 34  1  0     0  0
 38 37  1  0     0  0
 39 38  1  0     0  0
 40 28  1  0     0  0
 41 27  1  0     0  0
 42 40  1  0     0  0
  7  8  1  0     0  0
  6 13  1  0     0  0
 22 31  2  0     0  0
 42 41  1  0     0  0
M  CHG  2   4   1  16  -1
M  END