
  SciTegic12171313022D

 31 34  0  0  0  0            999 V2000
   46.3530   -8.8892    0.0000 C   0  0
   46.3518   -9.7165    0.0000 C   0  0
   47.0666  -10.1294    0.0000 C   0  0
   47.7831   -9.7161    0.0000 C   0  0
   47.7802   -8.8855    0.0000 C   0  0
   47.0648   -8.4764    0.0000 C   0  0
   45.6370  -10.1285    0.0000 N   0  0
   45.6364  -10.9535    0.0000 C   0  0
   44.9216  -11.3654    0.0000 N   0  0
   46.3505  -11.3665    0.0000 O   0  0
   44.9209  -12.1904    0.0000 C   0  0
   44.2575  -12.6732    0.0000 N   0  0
   44.5118  -13.4581    0.0000 N   0  0
   45.3368  -13.4587    0.0000 C   0  0
   45.5923  -12.6743    0.0000 C   0  0
   45.8213  -14.1265    0.0000 C   0  0
   45.4852  -14.8799    0.0000 C   0  0
   46.6418  -14.0409    0.0000 C   0  0
   46.2294  -14.8350    0.0000 C   0  0
   43.4616  -12.4560    0.0000 C   0  0
   43.2568  -11.6599    0.0000 C   0  0
   42.4617  -11.4427    0.0000 C   0  0
   41.8748  -12.0238    0.0000 C   0  0
   42.0884  -12.8250    0.0000 C   0  0
   42.8831  -13.0385    0.0000 C   0  0
   41.0786  -11.8077    0.0000 C   0  0
   48.4541   -8.4095    0.0000 C   0  0
   49.2346   -8.6725    0.0000 C   0  0
   49.7285   -8.0116    0.0000 N   0  0
   49.2525   -7.3377    0.0000 C   0  0
   48.4646   -7.5822    0.0000 O   0  0
  1  2  2  0
  2  3  1  0
  3  4  2  0
  4  5  1  0
  5  6  2  0
  6  1  1  0
  2  7  1  0
  7  8  1  0
  8  9  1  0
  8 10  2  0
  9 11  1  0
 11 12  1  0
 12 13  1  0
 13 14  2  0
 14 15  1  0
 15 11  2  0
 14 16  1  0
 16 17  1  0
 16 18  1  0
 16 19  1  0
 12 20  1  0
 20 21  2  0
 21 22  1  0
 22 23  2  0
 23 24  1  0
 24 25  2  0
 25 20  1  0
 23 26  1  0
  5 27  1  0
 27 28  2  0
 28 29  1  0
 29 30  2  0
 30 31  1  0
 31 27  1  0
M  END