
  CDK    9/16/09,9:56

 44 47  0  0  0  0  0  0  0  0999 V2000
   -3.8431  -21.4333    0.0000 C   0  0  0  0  0  0  0  0  0  0  0  0
   -3.8443  -22.2607    0.0000 C   0  0  0  0  0  0  0  0  0  0  0  0
   -3.1294  -22.6735    0.0000 C   0  0  0  0  0  0  0  0  0  0  0  0
   -2.4130  -22.2602    0.0000 C   0  0  0  0  0  0  0  0  0  0  0  0
   -2.4159  -21.4297    0.0000 C   0  0  0  0  0  0  0  0  0  0  0  0
   -3.1312  -21.0205    0.0000 C   0  0  0  0  0  0  0  0  0  0  0  0
   -1.6979  -22.6716    0.0000 C   0  0  0  0  0  0  0  0  0  0  0  0
   -1.6966  -23.4966    0.0000 O   0  0  0  0  0  0  0  0  0  0  0  0
   -0.9841  -22.2579    0.0000 C   0  0  0  0  0  0  0  0  0  0  0  0
   -0.2746  -22.6727    0.0000 C   0  0  0  0  0  0  0  0  0  0  0  0
    0.4371  -22.2626    0.0000 C   0  0  0  0  0  0  0  0  0  0  0  0
    0.4401  -21.4373    0.0000 C   0  0  0  0  0  0  0  0  0  0  0  0
   -0.2749  -21.0237    0.0000 C   0  0  0  0  0  0  0  0  0  0  0  0
   -0.9928  -21.4355    0.0000 C   0  0  0  0  0  0  0  0  0  0  0  0
   -1.7089  -21.0257    0.0000 O   0  0  0  0  0  0  0  0  0  0  0  0
   -0.2733  -20.1987    0.0000 C   0  0  0  0  0  0  0  0  0  0  0  0
   -0.9871  -19.7849    0.0000 C   0  0  0  0  0  0  0  0  0  0  0  0
   -0.9855  -18.9599    0.0000 C   0  0  0  0  0  0  0  0  0  0  0  0
   -1.6993  -18.5461    0.0000 C   0  0  0  0  0  0  0  0  0  0  0  0
   -0.2703  -18.5487    0.0000 C   0  0  0  0  0  0  0  0  0  0  0  0
    0.4375  -20.6042    0.0000 C   0  0  0  0  0  0  0  0  0  0  0  0
    1.1555  -21.0105    0.0000 C   0  0  0  0  0  0  0  0  0  0  0  0
    1.1626  -21.8355    0.0000 C   0  0  0  0  0  0  0  0  0  0  0  0
    0.8458  -19.8875    0.0000 C   0  0  0  0  0  0  0  0  0  0  0  0
    0.0208  -19.8875    0.0000 C   0  0  0  0  0  0  0  0  0  0  0  0
    1.8664  -20.5919    0.0000 C   0  0  0  0  0  0  0  0  0  0  0  0
    2.5844  -20.9982    0.0000 C   0  0  0  0  0  0  0  0  0  0  0  0
    3.2953  -20.5795    0.0000 C   0  0  0  0  0  0  0  0  0  0  0  0
    4.0133  -20.9859    0.0000 C   0  0  0  0  0  0  0  0  0  0  0  0
    3.2882  -19.7546    0.0000 C   0  0  0  0  0  0  0  0  0  0  0  0
    1.1458  -22.6750    0.0000 C   0  0  0  0  0  0  0  0  0  0  0  0
    1.1430  -23.5000    0.0000 C   0  0  0  0  0  0  0  0  0  0  0  0
    1.8561  -23.9149    0.0000 C   0  0  0  0  0  0  0  0  0  0  0  0
    0.4271  -23.9101    0.0000 C   0  0  0  0  0  0  0  0  0  0  0  0
    1.8533  -24.7399    0.0000 C   0  0  0  0  0  0  0  0  0  0  0  0
    2.5663  -25.1549    0.0000 C   0  0  0  0  0  0  0  0  0  0  0  0
    2.5635  -25.9799    0.0000 C   0  0  0  0  0  0  0  0  0  0  0  0
    3.2822  -24.7448    0.0000 C   0  0  0  0  0  0  0  0  0  0  0  0
   -3.1337  -20.1955    0.0000 O   0  0  0  0  0  0  0  0  0  0  0  0
   -4.5577  -21.0210    0.0000 O   0  0  0  0  0  0  0  0  0  0  0  0
   -0.2859  -23.4951    0.0000 O   0  0  0  0  0  0  0  0  0  0  0  0
    0.0083  -24.6208    0.0000 C   0  0  0  0  0  0  0  0  0  0  0  0
    0.8333  -24.6208    0.0000 C   0  0  0  0  0  0  0  0  0  0  0  0
   -4.5579  -20.1960    0.0000 C   0  0  0  0  0  0  0  0  0  0  0  0
 13 21  1  0  0  0  0 
 11 23  1  0  0  0  0 
  2  3  1  0  0  0  0 
 21 22  1  0  0  0  0 
  5  6  2  0  0  0  0 
 22 23  1  0  0  0  0 
  6  1  1  0  0  0  0 
 21 24  1  0  0  0  0 
  1  2  2  0  0  0  0 
 21 25  1  0  0  0  0 
  9 14  1  0  0  0  0 
 22 26  1  6  0  0  0 
 10 11  1  0  0  0  0 
 26 27  1  0  0  0  0 
 11 12  1  0  0  0  0 
 27 28  2  0  0  0  0 
 12 13  1  0  0  0  0 
 28 29  1  0  0  0  0 
 13 14  1  0  0  0  0 
 28 30  1  0  0  0  0 
 10 41  1  0  0  0  0 
 11 31  1  1  0  0  0 
  4  7  1  0  0  0  0 
 31 32  1  0  0  0  0 
 14 15  2  0  0  0  0 
 32 33  1  6  0  0  0 
  3  4  2  0  0  0  0 
 32 34  1  0  0  0  0 
 13 16  1  1  0  0  0 
 33 35  1  0  0  0  0 
  7  8  2  0  0  0  0 
 35 36  2  0  0  0  0 
 16 17  1  0  0  0  0 
 36 37  1  0  0  0  0 
 36 38  1  0  0  0  0 
 17 18  2  0  0  0  0 
  6 39  1  0  0  0  0 
  7  9  1  0  0  0  0 
  1 40  1  0  0  0  0 
 18 19  1  0  0  0  0 
 34 41  1  0  0  0  0 
  9 10  2  0  0  0  0 
 34 42  1  0  0  0  0 
 18 20  1  0  0  0  0 
 34 43  1  0  0  0  0 
  4  5  1  0  0  0  0 
 40 44  1  0  0  0  0 
M  END