
  SciTegic12171313022D

 32 35  0  0  0  0            999 V2000
   41.0739   -9.5790    0.0000 C   0  0
   41.0728  -10.4064    0.0000 C   0  0
   41.7876  -10.8193    0.0000 C   0  0
   42.5040  -10.4059    0.0000 C   0  0
   42.5012   -9.5754    0.0000 C   0  0
   41.7858   -9.1663    0.0000 C   0  0
   40.3580  -10.8183    0.0000 N   0  0
   40.3573  -11.6433    0.0000 C   0  0
   39.6425  -12.0553    0.0000 N   0  0
   41.0715  -12.0564    0.0000 O   0  0
   39.6419  -12.8803    0.0000 C   0  0
   38.9785  -13.3631    0.0000 N   0  0
   39.2328  -14.1479    0.0000 N   0  0
   40.0578  -14.1486    0.0000 C   0  0
   40.3133  -13.3642    0.0000 C   0  0
   40.5423  -14.8164    0.0000 C   0  0
   40.2062  -15.5698    0.0000 C   0  0
   41.3628  -14.7307    0.0000 C   0  0
   40.9504  -15.5249    0.0000 C   0  0
   38.1826  -13.1459    0.0000 C   0  0
   37.9778  -12.3498    0.0000 C   0  0
   37.1827  -12.1326    0.0000 C   0  0
   36.5958  -12.7136    0.0000 C   0  0
   36.8094  -13.5149    0.0000 C   0  0
   37.6041  -13.7284    0.0000 C   0  0
   35.7996  -12.4976    0.0000 C   0  0
   43.1751   -9.0994    0.0000 N   0  0
   43.9556   -9.3623    0.0000 C   0  0
   44.4495   -8.7015    0.0000 N   0  0
   43.9735   -8.0275    0.0000 C   0  0
   43.1856   -8.2720    0.0000 C   0  0
   42.5245   -7.7785    0.0000 C   0  0
  1  2  2  0
  2  3  1  0
  3  4  2  0
  4  5  1  0
  5  6  2  0
  6  1  1  0
  2  7  1  0
  7  8  1  0
  8  9  1  0
  8 10  2  0
  9 11  1  0
 11 12  1  0
 12 13  1  0
 13 14  2  0
 14 15  1  0
 15 11  2  0
 14 16  1  0
 16 17  1  0
 16 18  1  0
 16 19  1  0
 12 20  1  0
 20 21  2  0
 21 22  1  0
 22 23  2  0
 23 24  1  0
 24 25  2  0
 25 20  1  0
 23 26  1  0
  5 27  1  0
 27 28  1  0
 28 29  2  0
 29 30  1  0
 30 31  2  0
 31 27  1  0
 31 32  1  0
M  END