
          05080814042D 1   1.00000     0.00000     0

 37 42  0     1  0            999 V2000
    7.9227   -1.2940    0.0000 C   0  0  0  0  0  0           0  0  0
    7.2122   -1.7086    0.0000 C   0  0  0  0  0  0           0  0  0
    7.2192   -2.5346    0.0000 C   0  0  0  0  0  0           0  0  0
    7.9328   -2.9378    0.0000 C   0  0  0  0  0  0           0  0  0
    8.6356   -1.7010    0.0000 C   0  0  0  0  0  0           0  0  0
    8.6416   -2.5282    0.0000 C   0  0  0  0  0  0           0  0  0
    9.3571   -2.9344    0.0000 C   0  0  0  0  0  0           0  0  0
    9.3450   -1.2798    0.0000 C   0  0  0  0  0  0           0  0  0
   10.0650   -1.6905    0.0000 C   0  0  2  0  0  0           0  0  0
   10.0696   -2.5197    0.0000 C   0  0  2  0  0  0           0  0  0
   10.7860   -2.9281    0.0000 N   0  0  3  0  0  0           0  0  0
   11.5025   -2.5119    0.0000 C   0  0  0  0  0  0           0  0  0
   11.4979   -1.6827    0.0000 C   0  0  1  0  0  0           0  0  0
   10.7769   -1.2697    0.0000 C   0  0  0  0  0  0           0  0  0
   10.0573   -0.8621    0.0000 H   0  0  0  0  0  0           0  0  0
   10.0615   -3.3441    0.0000 H   0  0  0  0  0  0           0  0  0
   12.2101   -1.2672    0.0000 C   0  0  0  0  0  0           0  0  0
   12.9261   -1.6763    0.0000 N   0  0  3  0  0  0           0  0  0
   12.2064   -0.4427    0.0000 O   0  0  0  0  0  0           0  0  0
   12.9238   -2.5040    0.0000 C   0  0  0  0  0  0           0  0  0
   13.6356   -2.9131    0.0000 C   0  0  0  0  0  0           0  0  0
   14.3503   -2.5011    0.0000 N   0  0  3  0  0  0           0  0  0
   14.3486   -1.6755    0.0000 C   0  0  0  0  0  0           0  0  0
   13.6322   -1.2619    0.0000 C   0  0  0  0  0  0           0  0  0
    7.9187   -0.4695    0.0000 O   0  0  0  0  0  0           0  0  0
    7.2026   -0.0606    0.0000 C   0  0  0  0  0  0           0  0  0
   10.7894   -3.7526    0.0000 C   0  0  0  0  0  0           0  0  0
   15.0646   -2.9129    0.0000 C   0  0  0  0  0  0           0  0  0
   15.0607   -3.7367    0.0000 C   0  0  0  0  0  0           0  0  0
   15.7743   -4.1483    0.0000 C   0  0  0  0  0  0           0  0  0
   15.7718   -2.4987    0.0000 N   0  0  0  0  0  0           0  0  0
   16.4859   -2.9067    0.0000 C   0  0  0  0  0  0           0  0  0
   16.4888   -3.7338    0.0000 C   0  0  0  0  0  0           0  0  0
   17.2053   -4.1429    0.0000 N   0  0  0  0  0  0           0  0  0
   17.9195   -3.7262    0.0000 C   0  0  0  0  0  0           0  0  0
   17.9126   -2.8960    0.0000 C   0  0  0  0  0  0           0  0  0
   17.1954   -2.4906    0.0000 N   0  0  0  0  0  0           0  0  0
  7 10  1  0     0  0
 17 18  1  0     0  0
  9  8  1  0     0  0
 17 19  2  0     0  0
 18 20  1  0     0  0
  9 10  1  0     0  0
  3  4  2  0     0  0
  4  6  1  0     0  0
  5  6  2  0     0  0
  1  2  2  0     0  0
 18 24  1  0     0  0
 20 21  1  0     0  0
 21 22  1  0     0  0
 22 23  1  0     0  0
 23 24  1  0     0  0
  5  1  1  0     0  0
  1 25  1  0     0  0
  2  3  1  0     0  0
 25 26  1  0     0  0
  9 14  1  0     0  0
 11 27  1  0     0  0
 10 11  1  0     0  0
 22 28  1  0     0  0
 11 12  1  0     0  0
 28 29  2  0     0  0
 12 13  1  0     0  0
 29 30  1  0     0  0
 30 33  2  0     0  0
 13 14  1  0     0  0
 32 31  2  0     0  0
 31 28  1  0     0  0
  9 15  1  6     0  0
 32 33  1  0     0  0
  5  8  1  0     0  0
 33 34  1  0     0  0
 10 16  1  1     0  0
 34 35  2  0     0  0
  6  7  1  0     0  0
 35 36  1  0     0  0
 13 17  1  1     0  0
 36 37  2  0     0  0
 37 32  1  0     0  0
M  END