
  SciTegic11201309402D

 54 58  0  0  1  0            999 V2000
    5.3250   -1.7542    0.0000 C   0  0
    2.4875    1.3375    0.0000 N   0  0
    6.0375   -2.1750    0.0000 N   0  0
    6.7750    0.5083    0.0000 N   0  0
    7.3542   -0.0792    0.0000 C   0  0
    4.6042   -2.1625    0.0000 C   0  0  2  0  0  0
    6.7542   -1.7667    0.0000 C   0  0
    6.7750    1.3333    0.0000 C   0  0  2  0  0  0
    0.3167   -2.9417    0.0000 C   0  0
    6.0625    1.7458    0.0000 C   0  0
    1.7375    1.6750    0.0000 C   0  0
    5.3417    1.3333    0.0000 N   0  0
    2.4875    0.5125    0.0000 C   0  0
    1.1792    1.0625    0.0000 C   0  0
    7.4917    1.7458    0.0000 C   0  0
    3.9000   -1.7417    0.0000 C   0  0  1  0  0  0
   -0.4000   -3.3500    0.0000 C   0  0
    1.5917    0.3500    0.0000 C   0  0
    1.0292   -3.3625    0.0000 N   0  0
    8.2042    1.3250    0.0000 C   0  0
    3.2042    1.7500    0.0000 C   0  0
    5.0042   -3.7000    0.0000 C   0  0
    4.6000   -2.9875    0.0000 C   0  0
    1.4792    2.4625    0.0000 C   0  0
    3.1792   -2.1500    0.0000 C   0  0
    5.3292   -0.9292    0.0000 O   0  0
    3.9042   -0.9167    0.0000 C   0  0
    8.1792   -0.0792    0.0000 O   0  0
    0.3750    1.2333    0.0000 C   0  0
    0.3250   -2.1167    0.0000 O   0  0
    6.0625    2.5708    0.0000 O   0  0
    3.5000   -0.2042    0.0000 C   0  0
   -0.4083   -4.1750    0.0000 O   0  0
    8.2000    0.5000    0.0000 O   0  0
    5.8292   -3.7000    0.0000 O   0  0
    3.9167    1.3333    0.0000 C   0  0  1  0  0  0
    4.6292    1.7458    0.0000 C   0  0
    1.7417   -2.9542    0.0000 C   0  0
    2.4667   -1.7250    0.0000 C   0  0
    3.1667   -2.9750    0.0000 C   0  0
    8.9167    1.7375    0.0000 N   0  0
   -1.1125   -2.9292    0.0000 O   0  0
    0.6667    2.6333    0.0000 C   0  0
    0.1167    2.0208    0.0000 C   0  0
    4.5917   -4.4125    0.0000 O   0  0
    2.4625   -3.3750    0.0000 C   0  0
    1.7542   -2.1292    0.0000 C   0  0
    6.7542   -2.5917    0.0000 C   0  0
    7.4625   -1.3542    0.0000 C   0  0
    3.9167    0.5083    0.0000 C   0  0
   -0.6875    2.1875    0.0000 C   0  0
    8.1750   -1.7667    0.0000 C   0  0
    7.4625   -3.0042    0.0000 C   0  0
    8.1750   -2.5917    0.0000 C   0  0
  2 21  1  0
  3  1  1  0
  4  5  1  0
  5  7  1  0
  6  1  1  0
  7  3  1  0
  8  4  1  0
  9 19  1  0
 10  8  1  0
 11  2  1  0
 12 10  1  0
 13  2  1  0
 14 11  2  0
  8 15  1  6
 16  6  1  0
 17  9  1  0
 18 13  2  0
 19 38  1  0
 20 15  1  0
 36 21  1  1
 22 23  1  0
  6 23  1  1
 24 11  1  0
 16 25  1  1
 26  1  2  0
 16 27  1  0
 28  5  2  0
 29 14  1  0
 30  9  2  0
 31 10  2  0
 32 27  2  0
 33 17  2  0
 34 20  2  0
 35 22  2  0
 36 50  1  0
 37 36  1  0
 38 46  1  0
 39 25  2  0
 40 25  1  0
 41 20  1  0
 42 17  1  0
 43 24  2  0
 44 43  1  0
 45 22  1  0
 46 40  2  0
 47 39  1  0
 48  7  1  0
 49  7  1  0
 50 32  1  0
 51 44  1  0
 52 49  1  0
 53 48  1  0
 54 52  1  0
 38 47  2  0
 54 53  1  0
 12 37  1  0
 18 14  1  0
 44 29  2  0
M  END