
          11280715092D 1   1.00000     0.00000     0

 33 35  0     0  0            999 V2000
    1.6292    0.3833    0.0000 C   0  0  3  0  0  0           0  0  0
    0.4667   -0.4917    0.0000 O   0  0  0  0  0  0           0  0  0
    0.9875    0.1583    0.0000 C   0  0  3  0  0  0           0  0  0
    1.0042    0.7583    0.0000 C   0  0  3  0  0  0           0  0  0
    1.6292    0.9750    0.0000 C   0  0  3  0  0  0           0  0  0
    2.0292   -0.0417    0.0000 C   0  0  0  0  0  0           0  0  0
    2.8542   -0.6917    0.0000 C   0  0  0  0  0  0           0  0  0
    4.1667   -1.5792    0.0000 C   0  0  0  0  0  0           0  0  0
    2.7000   -0.1167    0.0000 N   0  0  0  0  0  0           0  0  0
    5.3250    0.8583    0.0000 C   0  0  0  0  0  0           0  0  0
    3.5917   -1.4292    0.0000 N   0  0  0  0  0  0           0  0  0
    0.3417    0.4708    0.0000 C   0  0  0  0  0  0           0  0  0
    0.3417    1.0333    0.0000 C   0  0  0  0  0  0           0  0  0
    2.4292   -1.1250    0.0000 O   0  0  0  0  0  0           0  0  0
    4.5917   -1.1542    0.0000 O   0  0  0  0  0  0           0  0  0
    5.3292    0.2583    0.0000 O   0  0  0  0  0  0           0  0  0
    2.7167    1.1333    0.0000 C   0  0  0  0  0  0           0  0  0
    3.2417    0.8375    0.0000 C   0  0  0  0  0  0           0  0  0
    3.4292   -0.8500    0.0000 C   0  0  0  0  0  0           0  0  0
    5.8417    1.1583    0.0000 O   0  0  0  0  0  0           0  0  0
    2.2042    0.8250    0.0000 C   0  0  0  0  0  0           0  0  0
    4.3292   -2.1625    0.0000 C   0  0  0  0  0  0           0  0  0
    3.9042   -2.5875    0.0000 C   0  0  0  0  0  0           0  0  0
    4.8000    1.1500    0.0000 C   0  0  0  0  0  0           0  0  0
    3.6417   -3.5917    0.0000 C   0  0  3  0  0  0           0  0  0
    3.7625    1.1458    0.0000 C   0  0  0  0  0  0           0  0  0
    4.0625   -3.1667    0.0000 C   0  0  0  0  0  0           0  0  0
    4.2792    0.8458    0.0000 C   0  0  0  0  0  0           0  0  0
    3.0625   -3.4375    0.0000 C   0  0  0  0  0  0           0  0  0
    3.8042   -4.1667    0.0000 C   0  0  0  0  0  0           0  0  0
    3.3750   -4.5917    0.0000 C   0  0  0  0  0  0           0  0  0
    2.6417   -3.8542    0.0000 C   0  0  0  0  0  0           0  0  0
    2.7917   -4.4417    0.0000 C   0  0  0  0  0  0           0  0  0
  2  3  1  0     0  0
  3  1  1  0     0  0
  4  5  1  0     0  0
  5  1  1  0     0  0
  6  1  1  0     0  0
  7  9  1  0     0  0
  8 11  1  0     0  0
  9  6  1  0     0  0
 10 24  1  0     0  0
 11 19  1  0     0  0
 12  3  1  0     0  0
 13  4  1  0     0  0
 14  7  2  0     0  0
 15  8  2  0     0  0
 16 10  2  0     0  0
 17 21  1  0     0  0
 18 17  2  0     0  0
 19  7  1  0     0  0
 20 10  1  0     0  0
 21  5  1  0     0  0
 22  8  1  0     0  0
 23 22  1  0     0  0
 24 28  1  0     0  0
 25 27  1  0     0  0
 26 18  1  0     0  0
 27 23  1  0     0  0
 28 26  1  0     0  0
 29 25  1  0     0  0
 30 25  1  0     0  0
 31 30  1  0     0  0
 32 29  1  0     0  0
 33 31  1  0     0  0
  4  2  1  0     0  0
 13 12  1  0     0  0
 32 33  1  0     0  0
M  END