
          03140815522D 1   1.00000     0.00000     0

 22 23  0     0  0            999 V2000
   -1.8254   -7.3800    0.0000 I   0  5  0  0  0  0           0  0  0
    3.2571   -6.9987    0.0000 N   0  0  0  0  0  0           0  0  0
    4.0585   -6.8187    0.0000 O   0  0  0  0  0  0           0  0  0
    4.1397   -6.0012    0.0000 C   0  0  0  0  0  0           0  0  0
    3.3843   -5.6693    0.0000 C   0  0  0  0  0  0           0  0  0
    2.8376   -6.2871    0.0000 C   0  0  0  0  0  0           0  0  0
   -0.7067   -4.9964    0.0000 C   0  0  0  0  0  0           0  0  0
    0.0020   -5.4189    0.0000 C   0  0  0  0  0  0           0  0  0
    0.7026   -5.8374    0.0000 C   0  0  0  0  0  0           0  0  0
    1.4098   -6.2624    0.0000 C   0  0  0  0  0  0           0  0  0
    2.1304   -5.8622    0.0000 O   0  0  0  0  0  0           0  0  0
   -1.4259   -5.3990    0.0000 O   0  0  0  0  0  0           0  0  0
   -2.1345   -4.9765    0.0000 N   0  0  0  0  0  0           0  0  0
   -2.5753   -6.1928    0.0000 C   0  0  0  0  0  0           0  0  0
   -3.3000   -5.8546    0.0000 N   0  3  3  0  0  0           0  0  0
   -2.7221   -5.4513    0.0000 C   0  0  0  0  0  0           0  0  0
   -4.1129   -6.2035    0.0000 C   0  0  0  0  0  0           0  0  0
   -3.1646   -4.8499    0.0000 C   0  0  0  0  0  0           0  0  0
   -3.4379   -5.1300    0.0000 C   0  0  3  0  0  0           0  0  0
   -4.2154   -5.4727    0.0000 C   0  0  0  0  0  0           0  0  0
   -3.4007   -4.2632    0.0000 C   0  0  0  0  0  0           0  0  0
   -3.4200   -6.6617    0.0000 C   0  0  0  0  0  0           0  0  0
 11  6  1  0     0  0
  5  6  1  0     0  0
  7 12  1  0     0  0
  6  2  2  0     0  0
 12 13  1  0     0  0
  2  3  1  0     0  0
  7  8  1  0     0  0
  8  9  3  0     0  0
  3  4  1  0     0  0
  9 10  1  0     0  0
  4  5  2  0     0  0
 14 15  1  0     0  0
 14 16  1  0     0  0
 15 17  1  0     0  0
 15 18  1  0     0  0
 16 19  1  0     0  0
 17 20  1  0     0  0
 18 21  1  0     0  0
 19 20  1  0     0  0
 19 21  1  0     0  0
 16 13  2  0     0  0
 10 11  1  0     0  0
 15 22  1  0     0  0
M  CHG  2   1  -1  15   1
M  END