
  Mrv0541 04051115152D          

 20 22  0  0  0  0            999 V2000
   -1.6957   -1.4257    0.0000 C   0  0  0  0  0  0  0  0  0  0  0  0
   -2.4102   -1.0132    0.0000 C   0  0  0  0  0  0  0  0  0  0  0  0
   -3.1247   -1.4257    0.0000 O   0  0  0  0  0  0  0  0  0  0  0  0
   -2.4102   -0.1882    0.0000 C   0  0  0  0  0  0  0  0  0  0  0  0
   -1.6957    0.2243    0.0000 C   0  0  0  0  0  0  0  0  0  0  0  0
   -1.6957    1.0493    0.0000 O   0  0  0  0  0  0  0  0  0  0  0  0
   -0.9813   -0.1882    0.0000 C   0  0  0  0  0  0  0  0  0  0  0  0
   -0.2668    0.2243    0.0000 C   0  0  0  0  0  0  0  0  0  0  0  0
   -0.2668    1.0493    0.0000 O   0  0  0  0  0  0  0  0  0  0  0  0
    0.4477   -0.1882    0.0000 C   0  0  0  0  0  0  0  0  0  0  0  0
    0.4477   -1.0132    0.0000 C   0  0  0  0  0  0  0  0  0  0  0  0
   -0.2668   -1.4257    0.0000 O   0  0  0  0  0  0  0  0  0  0  0  0
   -0.9813   -1.0132    0.0000 C   0  0  0  0  0  0  0  0  0  0  0  0
    1.1621    0.2243    0.0000 C   0  0  0  0  0  0  0  0  0  0  0  0
    1.1621    1.0493    0.0000 C   0  0  0  0  0  0  0  0  0  0  0  0
    1.8766    1.4618    0.0000 C   0  0  0  0  0  0  0  0  0  0  0  0
    2.5911    1.0493    0.0000 C   0  0  0  0  0  0  0  0  0  0  0  0
    3.3055    1.4618    0.0000 O   0  0  0  0  0  0  0  0  0  0  0  0
    2.5911    0.2243    0.0000 C   0  0  0  0  0  0  0  0  0  0  0  0
    1.8766   -0.1882    0.0000 C   0  0  0  0  0  0  0  0  0  0  0  0
  1  2  2  0  0  0  0
  1 13  1  0  0  0  0
  2  3  1  0  0  0  0
  2  4  1  0  0  0  0
  4  5  2  0  0  0  0
  5  6  1  0  0  0  0
  5  7  1  0  0  0  0
  7  8  1  0  0  0  0
 13  7  2  0  0  0  0
  8  9  2  0  0  0  0
  8 10  1  0  0  0  0
 10 11  2  0  0  0  0
 14 10  1  0  0  0  0
 11 12  1  0  0  0  0
 13 12  1  0  0  0  0
 14 15  2  0  0  0  0
 14 20  1  0  0  0  0
 15 16  1  0  0  0  0
 16 17  2  0  0  0  0
 17 18  1  0  0  0  0
 17 19  1  0  0  0  0
 19 20  2  0  0  0  0
M  END