
  SciTegic01161211242D

 34 38  0  0  0  0            999 V2000
   12.8550  -10.6880    0.0000 C   0  0
   13.5409  -10.2300    0.0000 C   0  0
   14.3124  -10.5190    0.0000 N   0  0
   13.5713   -9.4088    0.0000 C   0  0
   14.3654   -9.1851    0.0000 N   0  0
   14.8181   -9.8707    0.0000 C   0  0
   15.6101   -9.6520    0.0000 S   0  0
   14.8775   -8.5427    0.0000 C   0  0
   15.6476   -8.8354    0.0000 C   0  0
   16.2840   -8.3152    0.0000 C   0  0
   16.1513   -7.5026    0.0000 C   0  0
   15.3772   -7.2123    0.0000 C   0  0
   14.7440   -7.7343    0.0000 C   0  0
   11.4277  -10.6916    0.0000 C   0  0
   11.4266  -11.5190    0.0000 C   0  0
   12.1414  -11.9319    0.0000 C   0  0
   12.8578  -11.5185    0.0000 C   0  0
   12.1396  -10.2789    0.0000 C   0  0
   10.7118  -11.9309    0.0000 N   0  0
    9.9976  -11.5179    0.0000 C   0  0
    9.2828  -11.9298    0.0000 N   0  0
    9.9983  -10.6929    0.0000 O   0  0
    8.5687  -11.5167    0.0000 C   0  0
    8.4874  -10.6934    0.0000 C   0  0
    7.6805  -10.5213    0.0000 C   0  0
    7.2674  -11.2355    0.0000 O   0  0
    7.8190  -11.8489    0.0000 N   0  0
    7.3456   -9.7673    0.0000 C   0  0
    7.8310   -9.1003    0.0000 C   0  0
    6.5167   -9.7667    0.0000 C   0  0
    6.9250   -9.0500    0.0000 C   0  0
   16.8446   -7.0553    0.0000 C   0  0
   17.5785   -7.4320    0.0000 O   0  0
   16.8038   -6.2313    0.0000 O   0  0
  8  5  1  0
 16 17  2  0
 17  1  1  0
  3  6  2  0
  1 18  2  0
 18 14  1  0
  5  4  1  0
 15 19  1  0
  8  9  2  0
 19 20  1  0
  4  2  2  0
 20 21  1  0
  9 10  1  0
 20 22  2  0
  5  6  1  0
 21 23  1  0
 23 24  1  0
 10 11  2  0
  2  3  1  0
 11 12  1  0
 24 25  2  0
 25 26  1  0
 26 27  1  0
 27 23  2  0
 12 13  2  0
 25 28  1  0
 13  8  1  0
 28 29  1  0
  1  2  1  0
 28 30  1  0
  6  7  1  0
 28 31  1  0
 14 15  2  0
 11 32  1  0
  7  9  1  0
 32 33  2  0
 15 16  1  0
 32 34  1  0
M  END