
          11280715032D 1   1.00000     0.00000     0

  7  7  0     0  0            999 V2000
    3.5792   -3.3417    0.0000 N   0  0  0  0  0  0           0  0  0
    2.8625   -2.9292    0.0000 C   0  0  0  0  0  0           0  0  0
    2.8625   -4.5792    0.0000 N   0  0  0  0  0  0           0  0  0
    3.5792   -4.1667    0.0000 C   0  0  0  0  0  0           0  0  0
    2.1500   -3.3417    0.0000 C   0  0  0  0  0  0           0  0  0
    2.8542   -2.1042    0.0000 N   0  0  0  0  0  0           0  0  0
    2.1542   -4.1750    0.0000 C   0  0  0  0  0  0           0  0  0
  2  1  2  0     0  0
  3  4  2  0     0  0
  4  1  1  0     0  0
  5  2  1  0     0  0
  6  2  1  0     0  0
  7  3  1  0     0  0
  7  5  2  0     0  0
M  END