
          11280715042D 1   1.00000     0.00000     0

 43 47  0     0  0            999 V2000
    4.8417   -2.3917    0.0000 N   0  0  3  0  0  0           0  0  0
    4.5500   -3.3167    0.0000 N   0  0  3  0  0  0           0  0  0
    5.0292   -2.9667    0.0000 C   0  0  0  0  0  0           0  0  0
    4.2417   -2.3917    0.0000 N   0  0  0  0  0  0           0  0  0
    5.2000   -1.9042    0.0000 C   0  0  3  0  0  0           0  0  0
    4.0625   -2.9667    0.0000 C   0  0  0  0  0  0           0  0  0
    7.1375   -4.2167    0.0000 C   0  0  0  0  0  0           0  0  0
    6.6500   -3.8667    0.0000 N   0  0  0  0  0  0           0  0  0
    6.8375   -3.3042    0.0000 N   0  0  0  0  0  0           0  0  0
    7.6250   -3.8667    0.0000 N   0  0  0  0  0  0           0  0  0
    7.4375   -3.2917    0.0000 N   0  0  0  0  0  0           0  0  0
    5.7917   -1.9667    0.0000 C   0  0  0  0  0  0           0  0  0
    4.6750   -1.6042    0.0000 C   0  0  0  0  0  0           0  0  0
    7.1417   -4.8167    0.0000 C   0  0  0  0  0  0           0  0  0
    6.6250   -5.1167    0.0000 C   0  0  0  0  0  0           0  0  0
    4.5500   -3.9167    0.0000 C   0  0  0  0  0  0           0  0  0
    4.6750   -1.0042    0.0000 C   0  0  0  0  0  0           0  0  0
    5.6000   -3.1542    0.0000 O   0  0  0  0  0  0           0  0  0
    6.1042   -4.8167    0.0000 C   0  0  0  0  0  0           0  0  0
    6.0375   -2.5167    0.0000 O   0  0  0  0  0  0           0  0  0
    6.1417   -1.4792    0.0000 C   0  0  0  0  0  0           0  0  0
    5.2000   -0.7042    0.0000 O   0  0  0  0  0  0           0  0  0
    5.5917   -5.1167    0.0000 C   0  0  0  0  0  0           0  0  0
    6.1125   -4.2167    0.0000 C   0  0  0  0  0  0           0  0  0
    5.0667   -4.2167    0.0000 C   0  0  0  0  0  0           0  0  0
    3.4917   -3.1542    0.0000 C   0  0  0  0  0  0           0  0  0
    5.0750   -4.8167    0.0000 C   0  0  0  0  0  0           0  0  0
    5.5875   -3.9167    0.0000 C   0  0  0  0  0  0           0  0  0
    4.1542   -0.7042    0.0000 O   0  0  0  0  0  0           0  0  0
    7.6625   -5.1167    0.0000 C   0  0  0  0  0  0           0  0  0
    6.6250   -5.7167    0.0000 C   0  0  0  0  0  0           0  0  0
    6.7375   -1.5417    0.0000 C   0  0  0  0  0  0           0  0  0
    5.9000   -0.9417    0.0000 C   0  0  0  0  0  0           0  0  0
    4.1625   -0.1042    0.0000 C   0  0  0  0  0  0           0  0  0
    3.0417   -2.7542    0.0000 C   0  0  0  0  0  0           0  0  0
    2.4750   -2.9417    0.0000 C   0  0  0  0  0  0           0  0  0
    7.1417   -6.0167    0.0000 C   0  0  0  0  0  0           0  0  0
    7.6625   -5.7167    0.0000 C   0  0  0  0  0  0           0  0  0
    3.6375    0.1958    0.0000 C   0  0  0  0  0  0           0  0  0
    2.0250   -2.5417    0.0000 C   0  0  0  0  0  0           0  0  0
    6.2500   -0.4542    0.0000 C   0  0  0  0  0  0           0  0  0
    7.0917   -1.0542    0.0000 C   0  0  0  0  0  0           0  0  0
    6.8500   -0.5167    0.0000 C   0  0  0  0  0  0           0  0  0
  2  3  1  0     0  0
  3  1  1  0     0  0
  4  1  1  0     0  0
  5  1  1  0     0  0
  6  4  2  0     0  0
  7 14  1  0     0  0
  8  7  1  0     0  0
  9  8  2  0     0  0
 10  7  2  0     0  0
 11 10  1  0     0  0
 12  5  1  0     0  0
 13  5  1  0     0  0
 14 15  1  0     0  0
 15 19  1  0     0  0
 16  2  1  0     0  0
 17 13  1  0     0  0
 18  3  2  0     0  0
 19 24  2  0     0  0
 20 12  2  0     0  0
 21 12  1  0     0  0
 22 17  2  0     0  0
 23 27  2  0     0  0
 24 28  1  0     0  0
 25 16  1  0     0  0
 26  6  1  0     0  0
 27 25  1  0     0  0
 28 25  2  0     0  0
 29 17  1  0     0  0
 30 14  2  0     0  0
 31 15  2  0     0  0
 32 21  2  0     0  0
 33 21  1  0     0  0
 34 29  1  0     0  0
 35 26  1  0     0  0
 36 35  1  0     0  0
 37 31  1  0     0  0
 38 37  2  0     0  0
 39 34  1  0     0  0
 40 36  1  0     0  0
 41 33  2  0     0  0
 42 32  1  0     0  0
 43 41  1  0     0  0
  6  2  1  0     0  0
 42 43  2  0     0  0
 23 19  1  0     0  0
 38 30  1  0     0  0
 11  9  1  0     0  0
M  END