
  SciTegic11201309402D

 86 89  0  0  1  0            999 V2000
   -2.0833    2.9708    0.0000 N   0  0
   -0.6625    2.1458    0.0000 C   0  0
   -0.3375   -0.9417    0.0000 N   0  0
   -0.2125    1.4583    0.0000 N   0  0
   -4.4083    2.3458    0.0000 N   0  0
   -2.9083    3.0083    0.0000 C   0  0
   -0.0458   -0.1667    0.0000 C   0  0
   -4.9208    1.6958    0.0000 C   0  0
   -0.8625   -1.5792    0.0000 C   0  0  1  0  0  0
   -0.3083   -2.1917    0.0000 C   0  0
   -1.3083    2.6708    0.0000 C   0  0  2  0  0  0
    0.0000    0.6583    0.0000 C   0  0  1  0  0  0
   -5.2583    0.1083    0.0000 N   0  0
   -3.7000    2.7958    0.0000 C   0  0  1  0  0  0
   -5.0458   -0.6917    0.0000 C   0  0
   -5.2208    0.9333    0.0000 C   0  0  2  0  0  0
    0.5000   -2.0167    0.0000 N   0  0
    0.8250    0.7458    0.0000 C   0  0
    1.8667   -2.4542    0.0000 C   0  0
    1.1750   -6.2542    0.0000 C   0  0
    6.0167   -5.7167    0.0000 C   0  0
   -4.5958   -1.3917    0.0000 C   0  0
   -2.3500   -2.2417    0.0000 S   0  0
   -3.1500   -2.2542    0.0000 S   0  0
    6.8250   -1.7167    0.0000 C   0  0
    1.4042    1.3333    0.0000 C   0  0
    2.4250   -3.0667    0.0000 N   0  0
   -3.9583   -1.9042    0.0000 C   0  0
    1.0625   -2.6292    0.0000 C   0  0  1  0  0  0
    3.7250   -3.5417    0.0000 C   0  0
    0.3500   -6.3667    0.0000 N   0  0
    5.2250   -5.5167    0.0000 N   0  0
   -0.0500    2.7083    0.0000 O   0  0
   -3.0583    3.6208    0.0000 O   0  0
   -5.6458    2.1208    0.0000 O   0  0
    0.7625   -0.3417    0.0000 O   0  0
   -1.5500   -2.0292    0.0000 C   0  0
   -6.0250    1.1083    0.0000 C   0  0
   -0.5625   -2.9792    0.0000 O   0  0
   -4.0458    3.5458    0.0000 C   0  0
   -5.8000   -1.0292    0.0000 O   0  0
    2.1125   -1.6667    0.0000 O   0  0
    7.1500   -0.9542    0.0000 O   0  0
    1.2167    1.9583    0.0000 O   0  0
    3.4125   -4.3042    0.0000 O   0  0
    6.6042   -5.1292    0.0000 N   0  0
    1.4917   -5.4917    0.0000 N   0  0
    3.2292   -2.8792    0.0000 C   0  0
    6.0042   -1.8167    0.0000 N   0  0
    7.3250   -2.3667    0.0000 C   0  0  2  0  0  0
    6.2375   -6.5167    0.0000 N   0  0
    1.6750   -6.9167    0.0000 N   0  0
   -0.8958    3.3833    0.0000 C   0  0
    4.5500   -3.4417    0.0000 N   0  0
    2.2250    1.2458    0.0000 N   0  0
   -6.7292    0.6958    0.0000 C   0  0
   -8.1750   -0.1167    0.0000 C   0  0
    8.1250   -2.5667    0.0000 N   0  0
   -3.5583    4.2167    0.0000 C   0  0
   -7.4500    1.1208    0.0000 C   0  0
   -6.7417   -0.1292    0.0000 C   0  0
   -7.4625   -0.5292    0.0000 C   0  0
   -8.1667    0.7083    0.0000 C   0  0
   -8.8917   -0.5292    0.0000 O   0  0
   -3.4833   -2.5292    0.0000 C   0  0
   -4.7250   -1.8042    0.0000 C   0  0
    0.8125   -3.4167    0.0000 C   0  0
    5.6875   -2.5792    0.0000 C   0  0
    4.8667   -2.6667    0.0000 C   0  0
    6.3875   -4.3417    0.0000 C   0  0
    0.9917   -4.8417    0.0000 C   0  0
    6.7417   -2.9542    0.0000 C   0  0
   -0.0625    3.3833    0.0000 C   0  0
   -1.3083    4.1042    0.0000 C   0  0
   -8.9000   -1.3542    0.0000 C   0  0
   -3.8958    4.9667    0.0000 C   0  0
   -2.7333    4.1292    0.0000 C   0  0
    1.3125   -4.0792    0.0000 C   0  0
    6.9625   -3.7542    0.0000 C   0  0
   -8.1875   -1.7667    0.0000 C   0  0
   -5.1458   -2.5292    0.0000 C   0  0
   -3.9000   -3.2417    0.0000 C   0  0
   -3.4083    5.6417    0.0000 C   0  0
   -2.2500    4.8042    0.0000 C   0  0
   -2.5875    5.5542    0.0000 C   0  0
   -4.7250   -3.2417    0.0000 C   0  0
  2 11  1  0
  3  7  1  0
  4  2  1  0
  5 14  1  0
  6  1  1  0
  7 12  1  0
  8  5  1  0
  9  3  1  0
  9 10  1  1
 11  1  1  0
 12  4  1  0
 13 16  1  0
 14  6  1  0
 15 13  1  0
 16  8  1  0
 17 10  1  0
 12 18  1  6
 19 29  1  0
 20 47  2  0
 21 46  2  0
 22 15  1  0
 23 37  1  0
 24 23  1  0
 25 49  1  0
 26 18  1  0
 27 19  1  0
 28 22  1  0
 29 17  1  1
 30 48  1  0
 31 20  1  0
 32 21  1  0
 33  2  2  0
 34  6  2  0
 35  8  2  0
 36  7  2  0
  9 37  1  0
 16 38  1  6
 39 10  2  0
 14 40  1  6
 41 15  2  0
 42 19  2  0
 43 25  2  0
 44 26  2  0
 45 30  2  0
 46 70  1  0
 47 71  1  0
 48 27  1  0
 49 68  1  0
 50 25  1  0
 51 21  1  0
 52 20  1  0
 11 53  1  1
 54 30  1  0
 55 26  1  0
 56 38  1  0
 57 62  1  0
 50 58  1  6
 59 40  1  0
 60 56  2  0
 61 56  1  0
 62 61  2  0
 63 60  1  0
 64 57  1  0
 65 28  1  0
 66 28  1  0
 29 67  1  0
 68 69  1  0
 69 54  1  0
 70 79  1  0
 71 78  1  0
 50 72  1  0
 73 53  1  0
 74 53  1  0
 75 64  1  0
 76 59  2  0
 77 59  1  0
 78 67  1  0
 79 72  1  0
 80 75  1  0
 81 66  1  0
 82 65  1  0
 83 76  1  0
 84 77  2  0
 85 84  1  0
 86 81  1  0
 83 85  2  0
 63 57  2  0
 28 24  1  0
 82 86  1  0
M  END