
          08180812492D 1   1.00000     0.00000     0

 30 32  0     0  0            999 V2000
    0.1152   -0.9458    0.0000 C   0  0  0  0  0  0           0  0  0
    0.1141   -1.7732    0.0000 C   0  0  0  0  0  0           0  0  0
    0.8289   -2.1860    0.0000 C   0  0  0  0  0  0           0  0  0
    1.5453   -1.7727    0.0000 C   0  0  0  0  0  0           0  0  0
    1.5425   -0.9422    0.0000 C   0  0  0  0  0  0           0  0  0
    0.8271   -0.5330    0.0000 C   0  0  0  0  0  0           0  0  0
   -0.6006   -2.1848    0.0000 C   0  0  0  0  0  0           0  0  0
   -1.3431   -1.8252    0.0000 N   0  0  3  0  0  0           0  0  0
   -0.6014   -3.0101    0.0000 O   0  0  0  0  0  0           0  0  0
    2.2554   -0.5270    0.0000 O   0  0  0  0  0  0           0  0  0
    2.2523    0.2980    0.0000 C   0  0  0  0  0  0           0  0  0
    2.9670    0.7084    0.0000 C   0  0  0  0  0  0           0  0  0
    2.9642    1.5326    0.0000 C   0  0  0  0  0  0           0  0  0
    2.2476    1.9432    0.0000 C   0  0  0  0  0  0           0  0  0
    1.5324    1.5236    0.0000 C   0  0  0  0  0  0           0  0  0
    1.5387    0.7008    0.0000 C   0  0  0  0  0  0           0  0  0
    2.2605   -2.1841    0.0000 C   0  0  0  0  0  0           0  0  0
    2.9743   -1.7704    0.0000 N   0  0  0  0  0  0           0  0  0
    3.6894   -2.1818    0.0000 C   0  0  0  0  0  0           0  0  0
   -1.9870   -2.3379    0.0000 C   0  0  0  0  0  0           0  0  0
   -2.7931   -2.1538    0.0000 C   0  0  0  0  0  0           0  0  0
   -1.3423   -1.0011    0.0000 C   0  0  0  0  0  0           0  0  0
   -3.1533   -1.4130    0.0000 C   0  0  0  0  0  0           0  0  0
   -1.9885   -0.4860    0.0000 C   0  0  0  0  0  0           0  0  0
   -2.7932   -0.6720    0.0000 N   0  0  3  0  0  0           0  0  0
   -3.3074   -0.0268    0.0000 C   0  0  3  0  0  0           0  0  0
   -3.0057    0.7411    0.0000 C   0  0  0  0  0  0           0  0  0
   -4.1232   -0.1495    0.0000 C   0  0  0  0  0  0           0  0  0
    2.2434    2.7682    0.0000 S   0  0  0  0  0  0           0  0  0
    2.9558    3.1844    0.0000 C   0  0  0  0  0  0           0  0  0
 14 15  1  0     0  0
  3  4  2  0     0  0
 15 16  2  0     0  0
 16 11  1  0     0  0
  7  8  1  0     0  0
  4 17  1  0     0  0
 17 18  1  0     0  0
  7  9  2  0     0  0
 18 19  1  0     0  0
  4  5  1  0     0  0
  8 20  1  0     0  0
  5 10  1  0     0  0
 20 21  1  0     0  0
  2  3  1  0     0  0
  8 22  1  0     0  0
 10 11  1  0     0  0
 21 23  1  0     0  0
  5  6  2  0     0  0
 22 24  1  0     0  0
 11 12  2  0     0  0
 23 25  1  0     0  0
 24 25  1  0     0  0
  6  1  1  0     0  0
 25 26  1  0     0  0
 12 13  1  0     0  0
 26 27  1  0     0  0
  1  2  2  0     0  0
 26 28  1  0     0  0
 13 14  2  0     0  0
 14 29  1  0     0  0
  2  7  1  0     0  0
 29 30  1  0     0  0
M  END