
          11280715362D 1   1.00000     0.00000     0

 32 34  0     0  0            999 V2000
    8.8792   -3.1917    0.0000 S   0  0  3  0  0  0           0  0  0
    5.3042   -5.2750    0.0000 C   0  0  0  0  0  0           0  0  0
    5.3042   -4.4417    0.0000 C   0  0  0  0  0  0           0  0  0
    8.8792   -2.3667    0.0000 O   0  0  0  0  0  0           0  0  0
    8.8792   -4.0167    0.0000 O   0  0  0  0  0  0           0  0  0
    9.7042   -3.1917    0.0000 C   0  0  0  0  0  0           0  0  0
    8.1667   -2.7875    0.0000 N   0  0  0  0  0  0           0  0  0
    8.8792   -5.6875    0.0000 C   0  0  0  0  0  0           0  0  0
    6.0250   -4.0375    0.0000 C   0  0  0  0  0  0           0  0  0
    4.5917   -5.6875    0.0000 C   0  0  0  0  0  0           0  0  0
    6.0250   -5.6875    0.0000 C   0  0  0  0  0  0           0  0  0
    3.8875   -6.9167    0.0000 N   0  0  0  0  0  0           0  0  0
    8.8792   -6.5125    0.0000 O   0  0  0  0  0  0           0  0  0
    9.5917   -5.2750    0.0000 O   0  0  0  0  0  0           0  0  0
    6.0250   -3.2042    0.0000 C   0  0  0  0  0  0           0  0  0
    7.4542   -3.2000    0.0000 C   0  0  0  0  0  0           0  0  0
    4.6000   -6.5042    0.0000 C   0  0  0  0  0  0           0  0  0
    4.5917   -4.0375    0.0000 C   0  0  0  0  0  0           0  0  0
    4.5917   -3.2125    0.0000 C   0  0  0  0  0  0           0  0  0
    8.1667   -5.2750    0.0000 C   0  0  0  0  0  0           0  0  0
    3.1667   -6.5042    0.0000 C   0  0  0  0  0  0           0  0  0
    6.7375   -5.2750    0.0000 C   0  0  0  0  0  0           0  0  0
   10.1167   -3.9042    0.0000 C   0  0  0  0  0  0           0  0  0
   10.1125   -2.4792    0.0000 C   0  0  0  0  0  0           0  0  0
    6.7375   -2.7917    0.0000 C   0  0  0  0  0  0           0  0  0
    3.8792   -5.2667    0.0000 C   0  0  0  0  0  0           0  0  0
    5.3042   -2.7917    0.0000 C   0  0  0  0  0  0           0  0  0
    7.4542   -5.6875    0.0000 C   0  0  0  0  0  0           0  0  0
    3.1667   -5.6792    0.0000 C   0  0  0  0  0  0           0  0  0
   10.9417   -3.9042    0.0000 C   0  0  0  0  0  0           0  0  0
   10.9292   -2.4750    0.0000 C   0  0  0  0  0  0           0  0  0
   11.3542   -3.1917    0.0000 C   0  0  0  0  0  0           0  0  0
  2  3  1  0     0  0
  3  9  2  0     0  0
  4  1  2  0     0  0
  5  1  2  0     0  0
  6  1  1  0     0  0
  7  1  1  0     0  0
  8 20  1  0     0  0
  9 15  1  0     0  0
 10  2  1  0     0  0
 11  2  2  0     0  0
 12 17  2  0     0  0
 13  8  2  0     0  0
 14  8  1  0     0  0
 15 25  1  0     0  0
 16  7  1  0     0  0
 17 10  1  0     0  0
 18 19  2  0     0  0
 19 27  1  0     0  0
 20 28  1  0     0  0
 21 29  2  0     0  0
 11 22  1  0     0  0
 23  6  2  0     0  0
 24  6  1  0     0  0
 25 16  1  0     0  0
 26 10  2  0     0  0
 27 15  2  0     0  0
 28 22  1  0     0  0
 29 26  1  0     0  0
 30 23  1  0     0  0
 31 24  2  0     0  0
 32 31  1  0     0  0
 32 30  2  0     0  0
  3 18  1  0     0  0
 21 12  1  0     0  0
M  END