
          11280715482D 1   1.00000     0.00000     0

 38 42  0     1  0            999 V2000
    2.6792    1.5458    0.0000 C   0  0  3  0  0  0           0  0  0
    6.0500   -1.2500    0.0000 C   0  0  1  0  0  0           0  0  0
    2.3500    0.7958    0.0000 C   0  0  0  0  0  0           0  0  0
    2.2917    2.2750    0.0000 C   0  0  0  0  0  0           0  0  0
    7.2917   -0.5292    0.0000 C   0  0  0  0  0  0           0  0  0
    6.4625   -0.5292    0.0000 N   0  0  0  0  0  0           0  0  0
    6.4625   -1.9625    0.0000 C   0  0  0  0  0  0           0  0  0
    4.7917   -0.5375    0.0000 N   0  0  3  0  0  0           0  0  0
    3.5042    1.5708    0.0000 O   0  0  0  0  0  0           0  0  0
    5.2167   -1.2542    0.0000 C   0  0  0  0  0  0           0  0  0
    1.5542    0.5833    0.0000 C   0  0  0  0  0  0           0  0  0
    1.4792    2.4333    0.0000 C   0  0  0  0  0  0           0  0  0
    7.7042    0.1833    0.0000 O   0  0  0  0  0  0           0  0  0
    7.2917   -1.9625    0.0000 O   0  0  0  0  0  0           0  0  0
    7.7042   -1.2417    0.0000 O   0  0  0  0  0  0           0  0  0
    0.8917    1.0750    0.0000 C   0  0  0  0  0  0           0  0  0
    0.8667    1.9000    0.0000 C   0  0  0  0  0  0           0  0  0
    3.9417    0.8708    0.0000 C   0  0  3  0  0  0           0  0  0
    3.5417    0.1500    0.0000 C   0  0  0  0  0  0           0  0  0
    4.7667    0.8958    0.0000 C   0  0  0  0  0  0           0  0  0
    5.1917    0.1875    0.0000 C   0  0  0  0  0  0           0  0  0
    3.9667   -0.5625    0.0000 C   0  0  0  0  0  0           0  0  0
    6.0500   -2.6792    0.0000 O   0  0  0  0  0  0           0  0  0
    8.5292   -1.2417    0.0000 C   0  0  0  0  0  0           0  0  0
    8.9417   -1.9542    0.0000 C   0  0  0  0  0  0           0  0  0
    2.8292    2.9000    0.0000 C   0  0  0  0  0  0           0  0  0
    2.9292    0.2083    0.0000 C   0  0  0  0  0  0           0  0  0
    1.3375   -0.2167    0.0000 C   0  0  0  0  0  0           0  0  0
    1.2125    3.2083    0.0000 C   0  0  0  0  0  0           0  0  0
    8.5292   -2.6667    0.0000 C   0  0  0  0  0  0           0  0  0
    9.7750   -1.9542    0.0000 C   0  0  0  0  0  0           0  0  0
    2.7167   -0.5792    0.0000 C   0  0  0  0  0  0           0  0  0
    2.5625    3.6750    0.0000 C   0  0  0  0  0  0           0  0  0
    1.7500    3.8333    0.0000 C   0  0  0  0  0  0           0  0  0
    1.9167   -0.8000    0.0000 C   0  0  0  0  0  0           0  0  0
   10.1875   -2.6667    0.0000 C   0  0  0  0  0  0           0  0  0
    8.9417   -3.3875    0.0000 C   0  0  0  0  0  0           0  0  0
    9.7750   -3.3875    0.0000 C   0  0  0  0  0  0           0  0  0
  2 10  1  0     0  0
  3  1  1  0     0  0
  4  1  1  0     0  0
  5  6  1  0     0  0
  2  6  1  1     0  0
  7  2  1  0     0  0
  8 21  1  0     0  0
  9  1  1  0     0  0
 10  8  1  0     0  0
 11  3  2  0     0  0
 12  4  2  0     0  0
 13  5  2  0     0  0
 14  7  2  0     0  0
 15  5  1  0     0  0
 16 11  1  0     0  0
 17 12  1  0     0  0
 18  9  1  0     0  0
 19 18  1  0     0  0
 20 18  1  0     0  0
 21 20  1  0     0  0
 22 19  1  0     0  0
 23  7  1  0     0  0
 24 15  1  0     0  0
 25 24  1  0     0  0
 26  4  1  0     0  0
 27  3  1  0     0  0
 28 11  1  0     0  0
 29 12  1  0     0  0
 30 25  2  0     0  0
 31 25  1  0     0  0
 32 27  2  0     0  0
 33 26  2  0     0  0
 34 33  1  0     0  0
 35 32  1  0     0  0
 36 31  2  0     0  0
 37 30  1  0     0  0
 38 36  1  0     0  0
 16 17  1  0     0  0
 22  8  1  0     0  0
 34 29  2  0     0  0
 28 35  2  0     0  0
 37 38  2  0     0  0
M  END