
          11290712382D 1   1.00000     0.00000     0

 32 34  0     0  0            999 V2000
    0.2441  -18.1684    0.0000 N   0  0  0  0  0  0           0  0  0
    1.0351  -17.9339    0.0000 C   0  0  0  0  0  0           0  0  0
    1.0584  -17.1091    0.0000 C   0  0  0  0  0  0           0  0  0
    0.2784  -16.8327    0.0000 N   0  0  0  0  0  0           0  0  0
   -0.2209  -17.4884    0.0000 S   0  0  0  0  0  0           0  0  0
    1.7606  -16.6761    0.0000 O   0  0  0  0  0  0           0  0  0
    1.6891  -18.4368    0.0000 C   0  0  3  0  0  0           0  0  0
    1.5812  -19.2565    0.0000 N   0  0  3  0  0  0           0  0  0
    2.2312  -19.7587    0.0000 C   0  0  0  0  0  0           0  0  0
    2.9956  -19.4475    0.0000 C   0  0  0  0  0  0           0  0  0
    3.1062  -18.6290    0.0000 C   0  0  0  0  0  0           0  0  0
    2.4523  -18.1216    0.0000 C   0  0  0  0  0  0           0  0  0
    2.4867  -17.0676    0.0000 C   0  0  0  0  0  0           0  0  0
    3.1889  -16.6346    0.0000 C   0  0  0  0  0  0           0  0  0
    3.9151  -17.0261    0.0000 O   0  0  0  0  0  0           0  0  0
    4.6172  -16.5930    0.0000 C   0  0  0  0  0  0           0  0  0
    5.3434  -16.9846    0.0000 C   0  0  0  0  0  0           0  0  0
    6.0456  -16.5515    0.0000 O   0  0  0  0  0  0           0  0  0
    6.7717  -16.9431    0.0000 C   0  0  0  0  0  0           0  0  0
    7.4739  -16.5100    0.0000 C   0  0  0  0  0  0           0  0  0
    8.2001  -16.9016    0.0000 O   0  0  0  0  0  0           0  0  0
    8.9023  -16.4685    0.0000 C   0  0  0  0  0  0           0  0  0
    9.5955  -16.9157    0.0000 C   0  0  0  0  0  0           0  0  0
   10.3292  -16.5385    0.0000 O   0  0  0  0  0  0           0  0  0
    0.8185  -19.5709    0.0000 C   0  0  0  0  0  0           0  0  0
   11.0226  -16.9855    0.0000 C   0  0  0  0  0  0           0  0  0
   11.0142  -17.8088    0.0000 N   0  0  0  0  0  0           0  0  0
   11.7957  -18.0732    0.0000 C   0  0  0  0  0  0           0  0  0
   12.2886  -17.4116    0.0000 N   0  0  0  0  0  0           0  0  0
   11.8117  -16.7384    0.0000 S   0  0  0  0  0  0           0  0  0
   12.0411  -18.8608    0.0000 O   0  0  0  0  0  0           0  0  0
   11.4818  -19.4672    0.0000 C   0  0  0  0  0  0           0  0  0
  7  8  1  0     0  0
 15 16  1  0     0  0
  2  3  1  0     0  0
 16 17  1  0     0  0
  3  4  2  0     0  0
 17 18  1  0     0  0
  4  5  1  0     0  0
 18 19  1  0     0  0
  5  1  1  0     0  0
 19 20  1  0     0  0
  1  2  2  0     0  0
 20 21  1  0     0  0
  7 12  1  0     0  0
 21 22  1  0     0  0
  8  9  1  0     0  0
 22 23  1  0     0  0
  9 10  1  0     0  0
 23 24  1  0     0  0
 10 11  1  0     0  0
  8 25  1  0     0  0
 11 12  2  0     0  0
 24 26  1  0     0  0
 26 27  2  0     0  0
  3  6  1  0     0  0
  6 13  1  0     0  0
 13 14  1  0     0  0
 27 28  1  0     0  0
 28 29  2  0     0  0
 29 30  1  0     0  0
 30 26  1  0     0  0
  2  7  1  0     0  0
 28 31  1  0     0  0
 14 15  1  0     0  0
 31 32  1  0     0  0
M  END