
  Mrv0541 05211314572D          

 34 37  0  0  0  0            999 V2000
    1.6162   -2.1800    0.0000 C   0  0  0  0  0  0  0  0  0  0  0  0
    1.6162   -1.3550    0.0000 C   0  0  0  0  0  0  0  0  0  0  0  0
    0.9017   -0.9425    0.0000 C   0  0  0  0  0  0  0  0  0  0  0  0
    0.9017   -2.5925    0.0000 C   0  0  0  0  0  0  0  0  0  0  0  0
   -0.5974   -1.1001    0.0000 N   0  0  0  0  0  0  0  0  0  0  0  0
   -1.0823   -1.7675    0.0000 C   0  0  0  0  0  0  0  0  0  0  0  0
   -0.5974   -2.4350    0.0000 N   0  0  0  0  0  0  0  0  0  0  0  0
    0.1872   -2.1800    0.0000 C   0  0  0  0  0  0  0  0  0  0  0  0
    0.1872   -1.3550    0.0000 C   0  0  0  0  0  0  0  0  0  0  0  0
   -1.9073   -1.7675    0.0000 N   0  0  0  0  0  0  0  0  0  0  0  0
   -2.3198   -1.0531    0.0000 C   0  0  0  0  0  0  0  0  0  0  0  0
   -3.1448   -1.0531    0.0000 C   0  0  0  0  0  0  0  0  0  0  0  0
   -3.5573   -0.3386    0.0000 C   0  0  0  0  0  0  0  0  0  0  0  0
   -3.1448    0.3759    0.0000 C   0  0  0  0  0  0  0  0  0  0  0  0
   -2.3198    0.3759    0.0000 C   0  0  0  0  0  0  0  0  0  0  0  0
   -1.9073   -0.3386    0.0000 C   0  0  0  0  0  0  0  0  0  0  0  0
   -3.5573    1.0903    0.0000 S   0  0  0  0  0  0  0  0  0  0  0  0
   -3.9698    1.8048    0.0000 N   0  0  0  0  0  0  0  0  0  0  0  0
   -4.2718    0.6778    0.0000 O   0  0  0  0  0  0  0  0  0  0  0  0
   -2.8428    1.5028    0.0000 O   0  0  0  0  0  0  0  0  0  0  0  0
    2.3307   -2.5925    0.0000 C   0  0  0  0  0  0  0  0  0  0  0  0
    3.0451   -2.1800    0.0000 O   0  0  0  0  0  0  0  0  0  0  0  0
    2.3307   -3.4175    0.0000 N   0  0  0  0  0  0  0  0  0  0  0  0
   -0.8523   -0.3155    0.0000 C   0  0  0  0  0  0  0  0  0  0  0  0
   -0.3003    0.2976    0.0000 C   0  0  0  0  0  0  0  0  0  0  0  0
    0.5067    0.1261    0.0000 C   0  0  0  0  0  0  0  0  0  0  0  0
    1.0587    0.7392    0.0000 C   0  0  0  0  0  0  0  0  0  0  0  0
    0.8038    1.5238    0.0000 C   0  0  0  0  0  0  0  0  0  0  0  0
   -0.0032    1.6953    0.0000 C   0  0  0  0  0  0  0  0  0  0  0  0
   -0.5552    1.0822    0.0000 C   0  0  0  0  0  0  0  0  0  0  0  0
   -1.3622    1.2538    0.0000 C   0  0  0  0  0  0  0  0  0  0  0  0
   -2.1692    1.4253    0.0000 F   0  0  0  0  0  0  0  0  0  0  0  0
   -1.5337    0.4468    0.0000 F   0  0  0  0  0  0  0  0  0  0  0  0
   -1.1907    2.0607    0.0000 F   0  0  0  0  0  0  0  0  0  0  0  0
 16 11  1  0  0  0  0
  8  4  2  0  0  0  0
 14 17  1  0  0  0  0
  5  6  1  0  0  0  0
 17 18  1  0  0  0  0
  7  8  1  0  0  0  0
 17 19  2  0  0  0  0
  9  5  1  0  0  0  0
 17 20  2  0  0  0  0
  4  1  1  0  0  0  0
  1 21  1  0  0  0  0
  6 10  1  0  0  0  0
 21 22  2  0  0  0  0
  8  9  1  0  0  0  0
 21 23  1  0  0  0  0
 10 11  1  0  0  0  0
  5 24  1  0  0  0  0
 24 25  1  0  0  0  0
 11 12  2  0  0  0  0
 25 26  2  0  0  0  0
  2  3  1  0  0  0  0
 26 27  1  0  0  0  0
 12 13  1  0  0  0  0
 27 28  2  0  0  0  0
  6  7  2  0  0  0  0
 28 29  1  0  0  0  0
 13 14  2  0  0  0  0
 29 30  2  0  0  0  0
 30 25  1  0  0  0  0
  3  9  2  0  0  0  0
 30 31  1  0  0  0  0
 14 15  1  0  0  0  0
 31 32  1  0  0  0  0
  1  2  2  0  0  0  0
 31 33  1  0  0  0  0
 15 16  2  0  0  0  0
 31 34  1  0  0  0  0
M  END