
  SciTegic02271217242D

 23 25  0  0  0  0            999 V2000
   11.3375  -11.7125    0.0000 O   0  0
   11.7542  -12.4292    0.0000 S   0  0
   12.1665  -11.7100    0.0000 O   0  0
    9.6152  -12.8500    0.0000 C   0  0
    9.6141  -13.6773    0.0000 C   0  0
   10.3289  -14.0902    0.0000 C   0  0
   11.0453  -13.6769    0.0000 C   0  0
   11.0425  -12.8463    0.0000 C   0  0
   10.3271  -12.4372    0.0000 C   0  0
   12.4714  -12.8409    0.0000 N   0  0
   12.4745  -13.6659    0.0000 C   0  0
   11.7625  -14.0780    0.0000 C   0  0
   11.7652  -14.9022    0.0000 N   0  0
   12.4818  -15.3128    0.0000 C   0  0
   13.1971  -14.8932    0.0000 C   0  0
   13.1908  -14.0703    0.0000 C   0  0
   13.9145  -15.3005    0.0000 C   0  0
   13.9157  -16.1261    0.0000 C   0  0
   14.6324  -16.5333    0.0000 N   0  0
   14.6189  -14.8828    0.0000 C   0  0
   15.3347  -15.2832    0.0000 N   0  0
   15.3432  -16.1148    0.0000 C   0  0
   16.0615  -16.5206    0.0000 N   0  0
 11 12  2  0
  6  7  2  0
 12 13  1  0
  2  1  2  0
 13 14  2  0
  7  8  1  0
 14 15  1  0
  4  5  2  0
 15 16  2  0
 16 11  1  0
  8  9  2  0
 15 17  1  0
  9  4  1  0
 17 18  2  0
  8  2  1  0
 18 19  1  0
 19 22  2  0
  3  2  2  0
 21 20  2  0
 20 17  1  0
 21 22  1  0
  2 10  1  0
  5  6  1  0
 10 11  1  0
 22 23  1  0
M  END