
  SciTegic03161210572D

 34 36  0  0  0  0            999 V2000
   16.6042    1.0542    0.0000 O   0  0
   17.3208    0.6417    0.0000 S   0  0
   17.3197    1.4686    0.0000 O   0  0
   18.5583   -0.0681    0.0000 C   0  0
   19.3815   -0.0693    0.0000 C   0  0
   19.7923    0.6420    0.0000 C   0  0
   19.3810    1.3548    0.0000 C   0  0
   18.5547    1.3520    0.0000 C   0  0
   18.1476    0.6402    0.0000 C   0  0
   16.9122   -0.0780    0.0000 N   0  0
   16.0872   -0.0805    0.0000 C   0  0
   15.6017    0.5812    0.0000 C   0  0
   14.8178    0.3239    0.0000 C   0  0
   14.8203   -0.5011    0.0000 N   0  0
   15.6057   -0.7536    0.0000 N   0  0
   15.8644   -1.5317    0.0000 C   0  0  2  0  0  0
   15.4667   -2.2551    0.0000 C   0  0
   15.8943   -2.9597    0.0000 C   0  0
   16.7200   -2.9417    0.0000 C   0  0  1  0  0  0
   17.1162   -2.2132    0.0000 C   0  0
   16.6863   -1.5116    0.0000 C   0  0
   15.8536    1.3668    0.0000 C   0  0
   16.6599    1.5414    0.0000 O   0  0
   15.2992    1.9778    0.0000 N   0  0
   15.5512    2.7633    0.0000 C   0  0  1  0  0  0
   14.9968    3.3743    0.0000 C   0  0
   16.3575    2.9380    0.0000 C   0  0
   16.9118    2.3270    0.0000 C   0  0
   16.6094    3.7236    0.0000 C   0  0
   17.1500    3.1583    0.0000 C   0  0
   14.1490    0.8068    0.0000 C   0  0
   20.6173    0.6418    0.0000 C   0  0
   17.1493   -3.6463    0.0000 O   0  0
   16.7538   -4.3703    0.0000 C   0  0
 16 17  1  0
  9  4  1  0
 17 18  1  0
  9  2  1  0
 18 19  1  0
  3  2  2  0
 19 20  1  0
  2 10  1  0
 20 21  1  0
 21 16  1  0
 16 15  1  1
  5  6  1  0
 12 22  1  0
 10 11  1  0
 22 23  2  0
 11 12  2  0
 22 24  1  0
 24 25  1  0
  6  7  2  0
 25 26  1  1
  2  1  2  0
 25 27  1  0
  7  8  1  0
 27 28  1  0
 12 13  1  0
 27 29  1  0
 13 14  2  0
 27 30  1  0
 14 15  1  0
 13 31  1  0
 15 11  1  0
  6 32  1  0
  4  5  2  0
 19 33  1  1
  8  9  2  0
 33 34  1  0
M  END