
  SciTegic01091216402D

 91 93  0  0  0  0            999 V2000
   21.4392    0.8396    0.0000 Na  0  3
   15.6633   -5.3476    0.0000 C   0  0  1  0  0  0
   15.6594   -6.1748    0.0000 C   0  0  1  0  0  0
   16.3719   -6.5855    0.0000 C   0  0  2  0  0  0
   17.0883   -6.1815    0.0000 C   0  0
   17.0912   -5.3521    0.0000 C   0  0  1  0  0  0
   16.3796   -4.9312    0.0000 O   0  0
   17.0931   -4.5242    0.0000 C   0  0
   16.3771   -4.1069    0.0000 O   0  0
   16.3680   -7.4126    0.0000 O   0  0
   14.9453   -6.5840    0.0000 N   0  0
   14.9513   -4.9307    0.0000 C   0  0  1  0  0  0
   14.9527   -4.1037    0.0000 C   0  0  1  0  0  0
   14.9427   -7.4112    0.0000 C   0  0
   14.2245   -7.8244    0.0000 C   0  0
   15.6541   -7.8290    0.0000 O   0  0
   14.2337   -5.3452    0.0000 O   0  0
   15.6630   -4.5205    0.0000 H   0  0
   14.2366   -3.6909    0.0000 C   0  0
   15.6662   -3.6934    0.0000 O   0  0
   17.7977   -5.7650    0.0000 O   0  0
   14.2359   -2.8679    0.0000 N   0  0
   22.0799   -0.8996    0.0000 C   0  0  1  0  0  0
   21.3723   -1.3279    0.0000 C   0  0  1  0  0  0
   21.3938   -2.1500    0.0000 C   0  0  2  0  0  0
   22.1124   -2.5503    0.0000 C   0  0
   22.8213   -2.1199    0.0000 C   0  0  1  0  0  0
   22.8090   -1.2933    0.0000 O   0  0
   23.5284   -1.6896    0.0000 C   0  0
   23.5108   -0.8611    0.0000 O   0  0
   20.6863   -2.5785    0.0000 O   0  0
   20.6507   -0.9324    0.0000 N   0  0
   22.0639   -0.0747    0.0000 C   0  0  1  0  0  0
   22.7703    0.3557    0.0000 C   0  0  1  0  0  0
   19.9437   -1.3619    0.0000 C   0  0
   19.2163   -0.9649    0.0000 C   0  0
   19.9585   -2.1867    0.0000 O   0  0
   21.3359    0.3212    0.0000 O   0  0
   22.7853   -0.4677    0.0000 H   0  0
   22.7485    1.1821    0.0000 C   0  0
   23.4925   -0.0387    0.0000 O   0  0
   22.8379   -2.9381    0.0000 O   0  0
   18.5180   -5.3592    0.0000 C   0  0  2  0  0  0
   19.2273   -5.7763    0.0000 C   0  0  2  0  0  0
   19.9414   -5.3763    0.0000 C   0  0  1  0  0  0
   19.9522   -4.5536    0.0000 O   0  0
   19.2428   -4.1323    0.0000 C   0  0  1  0  0  0
   18.5226   -4.5380    0.0000 C   0  0  2  0  0  0
   17.8095   -4.1159    0.0000 O   0  0
   19.2523   -3.3052    0.0000 C   0  0
   18.5401   -2.8855    0.0000 O   0  0
   20.6492   -5.7962    0.0000 O   0  0
   19.2187   -6.6034    0.0000 O   0  0
   21.3709   -5.3932    0.0000 C   0  0  2  0  0  0
   22.0792   -5.8163    0.0000 C   0  0  2  0  0  0
   22.7987   -5.4167    0.0000 C   0  0  2  0  0  0
   22.8128   -4.5894    0.0000 O   0  0
   22.1010   -4.1631    0.0000 C   0  0  1  0  0  0
   21.3752   -4.5683    0.0000 C   0  0  2  0  0  0
   21.3644   -6.2181    0.0000 H   0  0
   20.6628   -4.1451    0.0000 O   0  0
   22.1136   -3.3360    0.0000 C   0  0
   23.5091   -5.8393    0.0000 O   0  0
   22.0662   -6.6433    0.0000 N   0  0
   22.7724   -7.0659    0.0000 C   0  0
   22.7594   -7.8888    0.0000 C   0  0
   23.4915   -6.6657    0.0000 O   0  0
   24.2271   -5.4372    0.0000 C   0  0  1  0  0  0
   24.9345   -5.8580    0.0000 C   0  0  2  0  0  0
   24.2379   -4.6142    0.0000 C   0  0
   24.9237   -6.6808    0.0000 N   0  0
   25.6525   -5.4557    0.0000 C   0  0
   26.3598   -5.8765    0.0000 O   0  0
   25.6632   -4.6329    0.0000 O   0  0
   27.0778   -5.4744    0.0000 C   0  0
   25.6310   -7.1016    0.0000 C   0  0
   25.6202   -7.9245    0.0000 C   0  0
   26.3490   -6.6995    0.0000 O   0  0
   24.2501   -2.0851    0.0000 O   0  5
   23.4502    1.6122    0.0000 O   0  0
   17.0874   -3.6992    0.0000 O   0  5
   13.5229   -2.4570    0.0000 C   0  0
   13.5222   -1.6340    0.0000 O   0  0
   12.8104   -2.8690    0.0000 C   0  0
   12.0967   -2.4591    0.0000 C   0  0
   11.3848   -2.8705    0.0000 C   0  0
   11.3850   -3.6944    0.0000 C   0  0
   12.1031   -4.1052    0.0000 C   0  0
   12.8120   -3.6914    0.0000 C   0  0
   10.6746   -4.1073    0.0000 F   0  0
   13.0971   -0.1579    0.0000 Na  0  3
 23 24  1  0
 43 48  1  0
 44 45  1  0
 45 46  1  0
 46 47  1  0
 47 48  1  0
  3 11  1  1
 48 49  1  1
  2  7  1  0
 47 50  1  1
  2 12  1  0
 50 51  1  0
  3  4  1  0
 45 52  1  1
 43 21  1  1
 12 13  1  0
 44 53  1  6
 23 28  1  0
 54 52  1  0
 54 55  1  0
 24 25  1  0
 25 26  1  0
 26 27  1  0
 27 28  1  0
  4  5  1  0
 54 59  1  0
 55 56  1  0
 56 57  1  0
 57 58  1  0
 58 59  1  0
 27 29  1  1
 54 60  1  6
 11 14  1  0
 59 61  1  1
 29 30  2  0
 58 62  1  1
 62 42  1  0
  5  6  1  0
 56 63  1  6
 25 31  1  6
 55 64  1  6
 14 15  1  0
 64 65  1  0
 24 32  1  1
 65 66  1  0
  6  7  1  0
 65 67  2  0
 23 33  1  0
 63 68  1  0
 14 16  2  0
 68 69  1  0
 33 34  1  0
 68 70  1  6
 69 71  1  1
 32 35  1  0
 69 72  1  0
 12 17  1  6
 72 73  1  0
 35 36  1  0
 72 74  2  0
  6  8  1  1
 73 75  1  0
 35 37  2  0
 71 76  1  0
  2 18  1  1
 76 77  1  0
 33 38  1  6
 76 78  2  0
  2  3  1  0
 29 79  1  0
 23 39  1  1
 40 80  1  0
 13 19  1  0
  8 81  1  0
 34 40  1  0
 22 82  1  0
  8  9  2  0
 82 83  2  0
 34 41  1  1
 82 84  1  0
 13 20  1  1
 84 85  2  0
 27 42  1  0
 85 86  1  0
 86 87  2  0
 43 44  1  0
 87 88  1  0
  6 21  1  0
 88 89  2  0
 89 84  1  0
  4 10  1  6
 87 90  1  0
 19 22  1  0
M  CHG  4   1   1  79  -1  81  -1  91   1
M  END