
          11280715502D 1   1.00000     0.00000     0

 28 30  0     0  0            999 V2000
    1.1553  -22.2799    0.0000 C   0  0  0  0  0  0           0  0  0
   -0.9882  -23.5174    0.0000 C   0  0  3  0  0  0           0  0  0
   -0.2723  -23.9299    0.0000 C   0  0  0  0  0  0           0  0  0
    0.4394  -23.5174    0.0000 C   0  0  0  0  0  0           0  0  0
    0.4394  -22.6924    0.0000 N   0  0  3  0  0  0           0  0  0
   -0.2723  -22.2799    0.0000 C   0  0  0  0  0  0           0  0  0
   -0.9882  -22.6924    0.0000 C   0  0  0  0  0  0           0  0  0
   -1.7040  -23.9299    0.0000 C   0  0  0  0  0  0           0  0  0
   -2.4157  -23.5174    0.0000 C   0  0  0  0  0  0           0  0  0
   -2.5047  -22.6993    0.0000 C   0  0  0  0  0  0           0  0  0
   -3.3107  -22.5269    0.0000 N   0  0  0  0  0  0           0  0  0
   -3.7232  -23.2386    0.0000 C   0  0  0  0  0  0           0  0  0
   -3.1702  -23.8550    0.0000 N   0  0  0  0  0  0           0  0  0
    1.8694  -22.6930    0.0000 C   0  0  0  0  0  0           0  0  0
    2.5792  -22.2750    0.0000 C   0  0  0  0  0  0           0  0  0
    3.2972  -22.6813    0.0000 O   0  0  0  0  0  0           0  0  0
    3.3043  -23.5063    0.0000 C   0  0  0  0  0  0           0  0  0
    2.5928  -23.9219    0.0000 C   0  0  0  0  0  0           0  0  0
    2.5996  -24.7461    0.0000 C   0  0  0  0  0  0           0  0  0
    3.3182  -25.1532    0.0000 C   0  0  0  0  0  0           0  0  0
    4.0314  -24.7301    0.0000 C   0  0  0  0  0  0           0  0  0
    4.0211  -23.9073    0.0000 C   0  0  0  0  0  0           0  0  0
    3.3264  -25.9782    0.0000 C   0  0  0  0  0  0           0  0  0
    4.0449  -26.3835    0.0000 N   0  0  3  0  0  0           0  0  0
    4.0531  -27.2085    0.0000 C   0  0  0  0  0  0           0  0  0
    4.7552  -25.9639    0.0000 C   0  0  0  0  0  0           0  0  0
    5.4738  -26.3693    0.0000 C   0  0  0  0  0  0           0  0  0
    4.7717  -27.6139    0.0000 C   0  0  0  0  0  0           0  0  0
  1 14  1  0     0  0
  4  5  1  0     0  0
 14 15  1  0     0  0
  5  6  1  0     0  0
 15 16  1  0     0  0
  6  7  1  0     0  0
 16 17  1  0     0  0
  2  8  1  0     0  0
 17 18  2  0     0  0
  8  9  1  0     0  0
 18 19  1  0     0  0
  9 10  2  0     0  0
 19 20  2  0     0  0
  2  3  1  0     0  0
 20 21  1  0     0  0
 10 11  1  0     0  0
 21 22  2  0     0  0
 22 17  1  0     0  0
 11 12  1  0     0  0
 20 23  1  0     0  0
 12 13  2  0     0  0
 23 24  1  0     0  0
 13  9  1  0     0  0
 24 25  1  0     0  0
  5  1  1  0     0  0
 24 26  1  0     0  0
  2  7  1  0     0  0
 26 27  1  0     0  0
  3  4  1  0     0  0
 25 28  1  0     0  0
M  END