
  SciTegic04091414152D

 33 37  0  0  0  0            999 V2000
   10.3666  -18.1873    0.0000 C   0  0
    9.6501  -18.5849    0.0000 C   0  0  2  0  0  0
    9.6412  -19.4026    0.0000 C   0  0
   10.3662  -19.8030    0.0000 N   0  3
   11.0648  -19.4239    0.0000 C   0  0
   11.0754  -18.5959    0.0000 C   0  0
    9.8357  -18.8135    0.0000 C   0  0
   10.5830  -19.1529    0.0000 C   0  0
    8.9435  -18.1674    0.0000 O   0  0
    7.5903  -17.7149    0.0000 C   0  0
    7.0501  -18.3369    0.0000 C   0  0
    8.1416  -18.3338    0.0000 C   0  0
    6.8326  -17.3935    0.0000 C   0  0
    6.6061  -16.6029    0.0000 C   0  0
    7.0874  -15.9321    0.0000 C   0  0
    7.9055  -15.8981    0.0000 C   0  0
    8.4479  -16.5134    0.0000 C   0  0
    8.3087  -17.3252    0.0000 C   0  0
    6.2323  -18.2669    0.0000 C   0  0
    5.9056  -19.0255    0.0000 C   0  0
    6.5275  -19.5696    0.0000 C   0  0
    7.2360  -19.1447    0.0000 C   0  0
    7.8846  -19.1137    0.0000 O   0  0
   10.2576  -20.6171    0.0000 C   0  0
   10.9048  -21.1202    0.0000 C   0  0
   10.7962  -21.9342    0.0000 C   0  0
   11.4475  -22.4332    0.0000 C   0  0
   11.3377  -23.2465    0.0000 C   0  0
   11.9882  -23.7494    0.0000 C   0  0
   12.7490  -23.4344    0.0000 N   0  0
   12.8555  -22.6157    0.0000 C   0  0
   12.2040  -22.1205    0.0000 C   0  0
   13.6143  -22.3021    0.0000 C   0  0
  1  2  1  0
  1  6  1  0
  2  3  1  0
  3  4  1  0
  4  5  1  0
  5  6  1  0
  1  7  1  0
  4  8  1  0
  7  8  1  0
  2  9  1  6
 11 10  1  0
 10 12  1  0
 13 14  1  0
 14 15  1  0
 15 16  1  0
 13 10  1  0
 16 17  1  0
 10 18  1  0
 17 18  1  0
 11 19  2  0
 19 20  1  0
 20 21  2  0
 21 22  1  0
 22 11  1  0
 12 23  2  0
 12  9  1  0
  4 24  1  0
 24 25  1  0
 25 26  1  0
 26 27  1  0
 27 28  2  0
 28 29  1  0
 29 30  2  0
 30 31  1  0
 31 32  2  0
 32 27  1  0
 31 33  1  0
M  CHG  1   4   1
M  END