
  SciTegic02271515152D

 45 49  0  0  0  0            999 V2000
   14.4356  -20.4958    0.0000 C   0  0
   14.4345  -21.3153    0.0000 C   0  0
   15.1425  -21.7243    0.0000 C   0  0
   15.8522  -21.3148    0.0000 C   0  0
   15.8494  -20.4922    0.0000 C   0  0
   15.1407  -20.0869    0.0000 C   0  0
   13.7278  -20.0874    0.0000 C   0  0
   13.0202  -20.4961    0.0000 N   0  0
   16.5565  -21.7204    0.0000 C   0  0
   16.6433  -22.5330    0.0000 C   0  0
   17.4429  -22.7016    0.0000 N   0  0
   17.8504  -21.9932    0.0000 C   0  0
   17.3025  -21.3869    0.0000 S   0  0
   12.3124  -20.0877    0.0000 C   0  0
   11.6048  -20.4965    0.0000 O   0  0
   12.3122  -19.2705    0.0000 C   0  0  2  0  0  0
   12.9786  -18.7911    0.0000 C   0  0
   12.7259  -18.0139    0.0000 C   0  0  2  0  0  0
   11.9086  -18.0141    0.0000 C   0  0
   11.6564  -18.7914    0.0000 N   0  0
   10.8790  -19.0430    0.0000 C   0  0
   10.7082  -19.8422    0.0000 O   0  0
   13.2061  -17.3527    0.0000 O   0  0
   16.0368  -23.0807    0.0000 C   0  0
   10.2723  -18.4956    0.0000 C   0  0  2  0  0  0
   10.4431  -17.6964    0.0000 C   0  0
    9.4948  -18.7472    0.0000 N   0  0
   11.2206  -17.4448    0.0000 C   0  0
    9.8364  -17.1489    0.0000 C   0  0
   10.6524  -16.9010    0.0000 C   0  0
    8.8881  -18.1997    0.0000 C   0  0
    9.0589  -17.4006    0.0000 O   0  0
    7.6748  -17.1047    0.0000 C   0  0
    7.0681  -16.5572    0.0000 C   0  0
    8.4523  -16.8531    0.0000 O   0  0
    8.1127  -18.4521    0.0000 C   0  0  1  0  0  0
    7.5040  -17.9039    0.0000 N   0  0
    6.7292  -18.1555    0.0000 C   0  0
    7.9466  -19.2520    0.0000 C   0  0
    7.1654  -19.5039    0.0000 C   0  0
    6.5582  -18.9557    0.0000 C   0  0
    5.7820  -19.2078    0.0000 C   0  0
    5.6117  -20.0076    0.0000 C   0  0
    6.2238  -20.5550    0.0000 C   0  0
    6.9977  -20.3000    0.0000 C   0  0
  1  2  2  0
  2  3  1  0
  3  4  2  0
  4  5  1  0
  5  6  2  0
  6  1  1  0
  1  7  1  0
  7  8  1  0
  9 10  2  0
 10 11  1  0
 11 12  2  0
 12 13  1  0
 13  9  1  0
  4  9  1  0
  8 14  1  0
 14 15  2  0
 16 14  1  1
 16 17  1  0
 17 18  1  0
 18 19  1  0
 19 20  1  0
 20 16  1  0
 20 21  1  0
 21 22  2  0
 18 23  1  6
 10 24  1  0
 21 25  1  0
 25 26  1  1
 25 27  1  0
 26 28  1  0
 26 29  1  0
 26 30  1  0
 27 31  1  0
 36 31  1  6
 31 32  2  0
 37 33  1  0
 33 34  1  0
 33 35  2  0
 36 37  1  0
 36 39  1  0
 37 38  1  0
 38 41  1  0
 40 39  1  0
 40 41  2  0
 41 42  1  0
 42 43  2  0
 43 44  1  0
 44 45  2  0
 45 40  1  0
M  END