
          11280715312D 1   1.00000     0.00000     0

 23 26  0     0  0            999 V2000
    5.7375   -5.5875    0.0000 N   0  0  3  0  0  0           0  0  0
    5.7375   -4.7625    0.0000 C   0  0  0  0  0  0           0  0  0
    8.1792   -7.7667    0.0000 N   0  0  3  0  0  0           0  0  0
    7.5125   -7.2917    0.0000 C   0  0  0  0  0  0           0  0  0
    6.4125   -6.0667    0.0000 C   0  0  0  0  0  0           0  0  0
    7.7625   -6.5042    0.0000 C   0  0  0  0  0  0           0  0  0
    8.5875   -6.5000    0.0000 C   0  0  0  0  0  0           0  0  0
    8.8417   -7.2792    0.0000 C   0  0  0  0  0  0           0  0  0
    7.2125   -5.9000    0.0000 C   0  0  0  0  0  0           0  0  0
    6.1542   -6.8542    0.0000 C   0  0  0  0  0  0           0  0  0
    6.7042   -7.4625    0.0000 C   0  0  0  0  0  0           0  0  0
    5.0167   -4.3542    0.0000 N   0  0  0  0  0  0           0  0  0
    5.0792   -6.0750    0.0000 C   0  0  0  0  0  0           0  0  0
    6.4500   -4.3500    0.0000 O   0  0  0  0  0  0           0  0  0
    5.3375   -6.8625    0.0000 C   0  0  0  0  0  0           0  0  0
    4.3042   -4.7667    0.0000 C   0  0  0  0  0  0           0  0  0
    8.1875   -8.5917    0.0000 C   0  0  0  0  0  0           0  0  0
    9.0667   -5.8292    0.0000 C   0  0  0  0  0  0           0  0  0
    3.5917   -4.3542    0.0000 C   0  0  0  0  0  0           0  0  0
    4.3042   -5.6000    0.0000 C   0  0  0  0  0  0           0  0  0
    2.8792   -4.7750    0.0000 C   0  0  0  0  0  0           0  0  0
    3.5917   -6.0125    0.0000 C   0  0  0  0  0  0           0  0  0
    2.8792   -5.6000    0.0000 C   0  0  0  0  0  0           0  0  0
  2  1  1  0     0  0
  3  4  1  0     0  0
  4 11  2  0     0  0
  5  1  1  0     0  0
  6  9  2  0     0  0
  7  6  1  0     0  0
  8  7  2  0     0  0
  9  5  1  0     0  0
 10  5  2  0     0  0
 11 10  1  0     0  0
 12  2  1  0     0  0
 13  1  1  0     0  0
 14  2  2  0     0  0
 15 13  1  0     0  0
 16 12  1  0     0  0
 17  3  1  0     0  0
 18  7  1  0     0  0
 19 16  1  0     0  0
 20 16  2  0     0  0
 21 19  2  0     0  0
 22 20  1  0     0  0
 23 22  2  0     0  0
 15 10  1  0     0  0
  6  4  1  0     0  0
  3  8  1  0     0  0
 21 23  1  0     0  0
M  END