
  SciTegic04191613082D

180190  0  0  1  0            999 V2000
   -4.1940   -8.8289    0.0000 C   0  0
   -4.0277   -7.3373    0.0000 C   0  0
   -2.9337   -6.2928    0.0000 C   0  0  2  0  0  0
   -4.2055   -5.4974    0.0000 N   0  0
   -5.2911   -4.4623    0.0000 C   0  0
   -6.0508   -5.1125    0.0000 O   0  0
   -6.1461   -3.2298    0.0000 C   0  0  2  0  0  0
   -7.1373   -4.3723    0.0000 C   0  0
   -8.4250   -3.6013    0.0000 C   0  0
   -9.9071   -3.8375    0.0000 C   0  0
  -10.8535   -2.6726    0.0000 N   0  0
  -12.3356   -2.9088    0.0000 C   0  0
  -12.7642   -4.0297    0.0000 N   0  0
  -13.0922   -1.9774    0.0000 N   0  0
   -6.7355   -1.8505    0.0000 N   0  0
   -7.0352   -0.3807    0.0000 C   0  0
   -8.2292   -0.5003    0.0000 O   0  0
   -7.0329    1.1193    0.0000 C   0  0  1  0  0  0
   -6.7287    2.5881    0.0000 N   0  0
   -6.1350    3.9657    0.0000 C   0  0
   -7.1833    4.5496    0.0000 O   0  0
   -5.2762    5.1955    0.0000 C   0  0  1  0  0  0
   -4.1875    6.2273    0.0000 N   0  0
   -2.9133    7.0188    0.0000 C   0  0
   -1.5058    7.5375    0.0000 C   0  0  1  0  0  0
   -0.0228    7.7624    0.0000 N   0  0
    1.4752    7.6841    0.0000 C   0  0
    1.6509    8.8712    0.0000 O   0  0
    2.9324    7.3249    0.0000 C   0  0  1  0  0  0
    1.4932    7.7475    0.0000 N   0  0
    0.0000    7.8901    0.0000 C   0  0
    0.0000    9.0901    0.0000 O   0  0
   -1.4932    7.7475    0.0000 C   0  0  1  0  0  0
   -1.6825    8.7294    0.0000 C   0  0
   -2.9325    7.3249    0.0000 N   0  0
   -4.2657    6.6375    0.0000 C   0  0
   -4.9145    7.6470    0.0000 O   0  0
   -5.4448    5.7103    0.0000 C   0  0
   -6.4271    4.5767    0.0000 N   0  0
   -7.1771    3.2776    0.0000 C   0  0
   -7.6677    1.8601    0.0000 C   0  0  2  0  0  0
   -9.1371    2.2196    0.0000 C   0  0
  -10.1755    1.1360    0.0000 C   0  0
  -11.6334    1.4927    0.0000 C   0  0
  -12.6718    0.4091    0.0000 N   0  0
  -14.1297    0.7657    0.0000 C   0  0
  -14.8216    0.0437    0.0000 N   0  0
  -14.4652    1.9178    0.0000 N   0  0
   -7.8812    0.3754    0.0000 N   0  0
   -7.8098   -1.1229    0.0000 C   0  0
   -7.4561   -2.5806    0.0000 C   0  0  1  0  0  0
   -6.8330   -3.9451    0.0000 N   0  0
   -5.9629   -5.1669    0.0000 C   0  0
   -4.8773   -6.2020    0.0000 C   0  0  2  0  0  0
   -3.6154   -7.0130    0.0000 N   0  0
   -3.6922   -8.5198    0.0000 C   0  0
   -5.0255   -9.2071    0.0000 C   0  0
   -6.2874   -8.3961    0.0000 C   0  0
   -6.2160   -6.8978    0.0000 C   0  0
   -2.2229   -7.5705    0.0000 C   0  0
   -0.7500   -7.8544    0.0000 C   0  0  2  0  0  0
    0.7500   -7.8544    0.0000 N   0  0
    2.2229   -7.5705    0.0000 C   0  0
    3.6155   -7.0130    0.0000 C   0  0  1  0  0  0
    4.8773   -6.2020    0.0000 N   0  0
    5.9629   -5.1669    0.0000 C   0  0
    6.8330   -3.9450    0.0000 C   0  0  1  0  0  0
    8.1416   -4.7039    0.0000 C   0  0
    9.4433   -3.9568    0.0000 C   0  0
   10.7420   -4.7074    0.0000 C   0  0
   12.0414   -3.9581    0.0000 C   0  0
   12.0422   -2.4581    0.0000 C   0  0
   10.7436   -1.7074    0.0000 C   0  0
    9.4441   -2.4568    0.0000 C   0  0
    7.4561   -2.5806    0.0000 N   0  0
    7.8098   -1.1229    0.0000 C   0  0
    8.7996   -1.2652    0.0000 O   0  0
    7.8812    0.3754    0.0000 C   0  0
    7.9635   -0.2266    0.0000 C   0  0
    7.7547    0.3466    0.0000 C   0  0
    7.6052    1.8391    0.0000 C   0  0
    7.1771    3.2777    0.0000 C   0  0
    6.4271    4.5767    0.0000 C   0  0
    7.4046    5.2728    0.0000 O   0  0
    5.4448    5.7103    0.0000 N   0  0
    4.2657    6.6376    0.0000 C   0  0
    7.6677    1.8602    0.0000 C   0  0
    7.6007   -1.1455    0.0000 C   0  0
    7.1494   -2.5760    0.0000 N   0  0
    6.4195   -3.8864    0.0000 C   0  0
    5.4407   -5.0230    0.0000 C   0  0  1  0  0  0
    6.0402   -6.4117    0.0000 C   0  0
    5.3235   -7.3743    0.0000 O   0  0
    7.5308   -6.5865    0.0000 N   0  0
    8.1256   -7.9644    0.0000 C   0  0  2  0  0  0
    7.2319   -9.1700    0.0000 C   0  0
    6.0397   -9.0328    0.0000 O   0  0
    7.7087  -10.2712    0.0000 O   0  0
    9.6163   -8.1391    0.0000 C   0  0
   10.2111   -9.5170    0.0000 C   0  0
   11.7017   -9.6917    0.0000 C   0  0
   12.2966  -11.0696    0.0000 C   0  0
   13.4884  -11.2093    0.0000 N   0  0
    4.2531   -5.9394    0.0000 N   0  0
    2.9054   -6.5979    0.0000 C   0  0
    3.3204   -7.7238    0.0000 O   0  0
    1.4527   -6.9717    0.0000 C   0  0  2  0  0  0
    1.6823   -8.4667    0.0000 C   0  0
    0.5121   -9.4065    0.0000 C   0  0
    0.7400  -10.8899    0.0000 C   0  0
   -0.4302  -11.8296    0.0000 N   0  0
   -0.2024  -13.3131    0.0000 C   0  0
    0.9160  -13.7480    0.0000 N   0  0
   -1.1380  -14.0645    0.0000 N   0  0
   -0.0455   -7.0453    0.0000 N   0  0
   -1.5279   -6.8159    0.0000 C   0  0
   -1.8304   -7.9771    0.0000 O   0  0
    8.5799   -1.3483    0.0000 O   0  0
    6.7187   -5.8218    0.0000 O   0  0
    4.7247   -8.0415    0.0000 C   0  0
    4.3922   -9.5050    0.0000 C   0  0
    5.4906  -10.5266    0.0000 C   0  0
    5.1553  -11.9886    0.0000 C   0  0
    3.7214  -12.4292    0.0000 C   0  0
    3.4531  -13.5988    0.0000 F   0  0
    2.6229  -11.4078    0.0000 C   0  0
    2.9583   -9.9457    0.0000 C   0  0
    2.5610   -8.7219    0.0000 O   0  0
   -0.8967   -9.3600    0.0000 C   0  0  1  0  0  0
   -1.9889   -9.8570    0.0000 O   0  0
    0.0797  -10.0576    0.0000 C   0  0
   -2.5609   -8.7219    0.0000 O   0  0
   -6.8698   -5.9528    0.0000 O   0  0
   -8.8866   -3.0726    0.0000 C   0  0
   -9.1744   -4.5456    0.0000 C   0  0
  -10.5897   -5.0350    0.0000 C   0  0
  -10.8663   -6.5224    0.0000 C   0  0
   -9.7343   -7.5020    0.0000 C   0  0
   -8.3196   -7.0115    0.0000 C   0  0
   -7.1876   -7.9911    0.0000 C   0  0
   -7.4702   -9.4613    0.0000 C   0  0
   -8.8849   -9.9518    0.0000 C   0  0
  -10.0169   -8.9722    0.0000 C   0  0
   -8.0370   -5.5414    0.0000 C   0  0
   -8.9976   -1.2937    0.0000 O   0  0
   -8.0867    3.6930    0.0000 O   0  0
   -0.8556    8.9032    0.0000 C   0  0
   -1.7057   10.1400    0.0000 C   0  0
   -1.0629   11.4953    0.0000 C   0  0
   -1.9151   12.7297    0.0000 C   0  0
   -3.4102   12.6089    0.0000 C   0  0
   -4.0531   11.2537    0.0000 C   0  0
   -3.2009   10.0193    0.0000 C   0  0
   -3.4401    8.0969    0.0000 O   0  0
   -6.4243    6.1803    0.0000 C   0  0
   -7.8404    5.6832    0.0000 C   0  0
   -8.9937    6.6604    0.0000 C   0  0
  -10.4057    6.1631    0.0000 C   0  0
  -10.6812    4.6914    0.0000 C   0  0
   -9.5447    3.7170    0.0000 C   0  0
   -8.1147    4.2109    0.0000 C   0  0
  -12.0933    4.1941    0.0000 C   0  0
  -13.2298    5.1686    0.0000 C   0  0
  -12.9543    6.6403    0.0000 C   0  0
  -11.5422    7.1376    0.0000 C   0  0
   -8.5377    1.2717    0.0000 C   0  0
   -9.4161    0.0548    0.0000 C   0  0
  -10.9093    0.2060    0.0000 C   0  0
  -11.7876   -1.0110    0.0000 N   0  0
  -13.2808   -0.8598    0.0000 C   0  0
  -13.7727    0.2348    0.0000 N   0  0
  -13.9830   -1.8328    0.0000 N   0  0
   -5.5685   -9.4315    0.0000 C   0  0
   -5.7348  -10.9231    0.0000 N   0  0
   -7.1094  -11.5257    0.0000 C   0  0
   -7.2423  -12.7183    0.0000 N   0  0
   -8.0759  -10.8146    0.0000 N   0  0
   -0.0780   -8.5950    0.0000 H   0  0
   -5.8674   -6.0614    0.0000 H   0  0
    1.9670    7.5855    0.0000 H   0  0
  2  1  1  0
  3  2  1  6
  3  4  1  0
  5  4  1  0
  5  6  2  0
  7  5  1  0
  7  8  1  6
  8  9  1  0
  9 10  1  0
 10 11  1  0
 11 12  1  0
 12 13  1  0
 12 14  2  0
 15  7  1  0
 16 15  1  0
 16 17  2  0
 18 16  1  0
 19 18  1  0
 20 19  1  0
 20 21  2  0
 22 20  1  0
 23 22  1  0
 24 23  1  0
 25 24  1  0
 26 25  1  0
 27 26  1  0
 27 28  2  0
 29 27  1  0
 30 29  1  0
 31 30  1  0
 31 32  2  0
 33 31  1  0
 33 34  1  6
 35 33  1  0
 36 35  1  0
 36 37  2  0
 38 36  1  0
 39 38  1  0
 40 39  1  0
 41 40  1  0
 41 42  1  1
 42 43  1  0
 43 44  1  0
 44 45  1  0
 45 46  1  0
 46 47  2  0
 46 48  1  0
 49 41  1  0
 50 49  1  0
 51 50  1  0
 51 52  1  0
 52 53  1  0
 54 53  1  0
 54 55  1  0
 56 55  1  0
 57 56  1  0
 58 57  1  0
 59 58  1  0
 54 59  1  0
 55 60  1  0
 60 61  1  0
 61 62  1  0
 62 63  1  0
 63 64  1  0
 64 65  1  0
 65 66  1  0
 67 66  1  0
 67 68  1  6
 68 69  1  0
 70 69  1  0
 71 70  2  0
 72 71  1  0
 73 72  2  0
 74 73  1  0
 69 74  2  0
 75 67  1  0
 75 76  1  0
 76 77  2  0
 76 78  1  0
 78 79  2  0
 79 80  1  0
 80 81  2  0
 81 82  1  0
 82 83  1  0
 83 84  2  0
 83 85  1  0
 86 85  1  0
 29 86  1  0
 82 87  2  0
 87 78  1  0
 80 88  1  0
 88 89  1  0
 89 90  1  0
 91 90  1  0
 91 92  1  1
 92 93  2  0
 92 94  1  0
 95 94  1  1
 95 96  1  0
 96 97  1  0
 96 98  2  0
 95 99  1  0
 99100  1  0
100101  1  0
101102  1  0
102103  1  0
 91104  1  0
104105  1  0
105106  2  0
105107  1  0
107108  1  6
108109  1  0
109110  1  0
110111  1  0
111112  1  0
112113  1  0
112114  2  0
107115  1  0
115116  1  0
116117  2  0
116  3  1  0
 88118  2  0
 66119  2  0
 64120  1  1
120121  1  0
121122  2  0
122123  1  0
123124  2  0
124125  1  0
124126  1  0
126127  2  0
127121  1  0
 63128  2  0
 61129  1  0
129130  1  6
129131  1  0
 60132  2  0
 53133  2  0
 51134  1  1
134135  1  0
136135  1  0
137136  2  0
138137  1  0
138139  1  0
139140  2  0
140141  1  0
141142  2  0
142143  1  0
143138  2  0
144139  1  0
135144  2  0
 50145  2  0
 40146  2  0
 25147  1  6
147148  1  0
149148  1  0
150149  2  0
151150  1  0
152151  2  0
153152  1  0
148153  2  0
 24154  2  0
 22155  1  6
155156  1  0
156157  2  0
157158  1  0
159158  1  0
159160  1  0
160161  2  0
161156  1  0
162159  2  0
163162  1  0
164163  2  0
165164  1  0
158165  2  0
 18166  1  6
166167  1  0
167168  1  0
168169  1  0
169170  1  0
170171  1  0
170172  2  0
  1173  1  0
173174  1  0
174175  1  0
175176  2  0
175177  1  0
 61178  1  1
 54179  1  1
 29180  1  6
M  END