
  Mrv0541 05211314572D          

 30 31  0  0  0  0            999 V2000
    0.0000    0.0000    0.0000 Br  0  0  0  0  0  0  0  0  0  0  0  0
    3.5815    1.0781    0.0000 C   0  0  0  0  0  0  0  0  0  0  0  0
    4.4020    0.9919    0.0000 N   0  0  0  0  0  0  0  0  0  0  0  0
    4.8869    1.6593    0.0000 C   0  0  0  0  0  0  0  0  0  0  0  0
    4.5514    2.4130    0.0000 C   0  0  0  0  0  0  0  0  0  0  0  0
    3.7309    2.4993    0.0000 N   0  0  0  0  0  0  0  0  0  0  0  0
    3.2460    1.8318    0.0000 C   0  0  0  0  0  0  0  0  0  0  0  0
    4.7376    0.2382    0.0000 C   0  0  0  0  0  0  0  0  0  0  0  0
    5.5445    0.0667    0.0000 S   0  0  0  0  0  0  0  0  0  0  0  0
    5.6308   -0.7538    0.0000 C   0  0  0  0  0  0  0  0  0  0  0  0
    4.8771   -1.0893    0.0000 C   0  0  0  0  0  0  0  0  0  0  0  0
    4.3251   -0.4762    0.0000 N   0  0  0  0  0  0  0  0  0  0  0  0
    6.3452   -1.1663    0.0000 C   0  0  0  0  0  0  0  0  0  0  0  0
    7.0597   -0.7538    0.0000 C   0  0  0  0  0  0  0  0  0  0  0  0
    7.7742   -1.1663    0.0000 N   0  0  0  0  0  0  0  0  0  0  0  0
    3.3953    3.2529    0.0000 C   0  0  0  0  0  0  0  0  0  0  0  0
    2.5748    3.3392    0.0000 C   0  0  0  0  0  0  0  0  0  0  0  0
    2.2393    4.0928    0.0000 C   0  0  0  0  0  0  0  0  0  0  0  0
    7.7742   -1.9913    0.0000 C   0  0  0  0  0  0  0  0  0  0  0  0
    8.4886   -0.7538    0.0000 C   0  0  0  0  0  0  0  0  0  0  0  0
    9.2031   -1.1663    0.0000 C   0  0  0  0  0  0  0  0  0  0  0  0
    9.9176   -0.7538    0.0000 C   0  0  0  0  0  0  0  0  0  0  0  0
   10.6321   -1.1663    0.0000 C   0  0  0  0  0  0  0  0  0  0  0  0
   11.3465   -0.7538    0.0000 C   0  0  0  0  0  0  0  0  0  0  0  0
   12.0610   -1.1663    0.0000 C   0  0  0  0  0  0  0  0  0  0  0  0
   12.7755   -0.7538    0.0000 C   0  0  0  0  0  0  0  0  0  0  0  0
   13.4899   -1.1663    0.0000 C   0  0  0  0  0  0  0  0  0  0  0  0
   13.4899   -1.9913    0.0000 C   0  0  0  0  0  0  0  0  0  0  0  0
   12.7755   -2.4038    0.0000 C   0  0  0  0  0  0  0  0  0  0  0  0
   12.0610   -1.9913    0.0000 C   0  0  0  0  0  0  0  0  0  0  0  0
 10 13  1  0  0  0  0
 13 14  1  0  0  0  0
 14 15  1  0  0  0  0
  2  7  1  0  0  0  0
  6 16  1  0  0  0  0
  3  4  1  0  0  0  0
 16 17  1  0  0  0  0
  4  5  1  0  0  0  0
 17 18  1  0  0  0  0
  5  6  1  0  0  0  0
 15 19  1  0  0  0  0
  6  7  1  0  0  0  0
 15 20  1  0  0  0  0
 20 21  1  0  0  0  0
  3  8  1  0  0  0  0
 21 22  1  0  0  0  0
  8  9  1  0  0  0  0
 22 23  1  0  0  0  0
 23 24  1  0  0  0  0
 24 25  1  0  0  0  0
  2  3  1  0  0  0  0
 25 26  2  0  0  0  0
  9 10  1  0  0  0  0
 26 27  1  0  0  0  0
 10 11  2  0  0  0  0
 27 28  2  0  0  0  0
 11 12  1  0  0  0  0
 28 29  1  0  0  0  0
 12  8  2  0  0  0  0
 29 30  2  0  0  0  0
 30 25  1  0  0  0  0
M  END