
  CDK    9/16/09,10:4

 26 28  0  0  0  0  0  0  0  0999 V2000
    9.9375    2.2292    0.0000 C   0  0  0  0  0  0  0  0  0  0  0  0
   10.6520    2.6417    0.0000 N   0  0  0  0  0  0  0  0  0  0  0  0
    9.2230    2.6417    0.0000 N   0  0  0  0  0  0  0  0  0  0  0  0
    9.9375    1.4042    0.0000 S   0  0  0  0  0  0  0  0  0  0  0  0
    8.5086    2.2292    0.0000 C   0  0  0  0  0  0  0  0  0  0  0  0
    7.7947    2.6448    0.0000 C   0  0  0  0  0  0  0  0  0  0  0  0
    7.0807    2.2330    0.0000 C   0  0  0  0  0  0  0  0  0  0  0  0
    7.0802    1.4071    0.0000 C   0  0  0  0  0  0  0  0  0  0  0  0
    7.7997    0.9948    0.0000 C   0  0  0  0  0  0  0  0  0  0  0  0
    8.5108    1.4090    0.0000 C   0  0  0  0  0  0  0  0  0  0  0  0
   11.3664    2.2292    0.0000 C   0  0  0  0  0  0  0  0  0  0  0  0
   11.3639    1.4031    0.0000 C   0  0  0  0  0  0  0  0  0  0  0  0
   12.0775    0.9907    0.0000 C   0  0  0  0  0  0  0  0  0  0  0  0
   12.0761    2.6412    0.0000 C   0  0  0  0  0  0  0  0  0  0  0  0
   12.7903    2.2325    0.0000 C   0  0  0  0  0  0  0  0  0  0  0  0
   12.7940    1.4047    0.0000 C   0  0  0  0  0  0  0  0  0  0  0  0
   13.5094    0.9939    0.0000 S   0  0  0  0  0  0  0  0  0  0  0  0
   14.2208    0.5833    0.0000 N   0  0  0  0  0  0  0  0  0  0  0  0
   13.9210    1.7089    0.0000 O   0  0  0  0  0  0  0  0  0  0  0  0
   13.1010    0.2771    0.0000 O   0  0  0  0  0  0  0  0  0  0  0  0
   14.2209   -0.2417    0.0000 C   0  0  0  0  0  0  0  0  0  0  0  0
   13.5537   -0.7266    0.0000 N   0  0  0  0  0  0  0  0  0  0  0  0
   13.8087   -1.5112    0.0000 C   0  0  0  0  0  0  0  0  0  0  0  0
   14.6338   -1.5111    0.0000 C   0  0  0  0  0  0  0  0  0  0  0  0
   14.8885   -0.7264    0.0000 S   0  0  0  0  0  0  0  0  0  0  0  0
    6.3663    0.9937    0.0000 Cl  0  0  0  0  0  0  0  0  0  0  0  0
 12 13  1  0  0  0  0 
 13 16  2  0  0  0  0 
  6  7  1  0  0  0  0 
 15 14  2  0  0  0  0 
 14 11  1  0  0  0  0 
 15 16  1  0  0  0  0 
  1  4  2  0  0  0  0 
  7  8  2  0  0  0  0 
 16 17  1  0  0  0  0 
  8  9  1  0  0  0  0 
 17 18  1  0  0  0  0 
  3  5  1  0  0  0  0 
 17 19  2  0  0  0  0 
  9 10  2  0  0  0  0 
 17 20  2  0  0  0  0 
 10  5  1  0  0  0  0 
 18 21  1  0  0  0  0 
 21 22  2  0  0  0  0 
  1  3  1  0  0  0  0 
  2 11  1  0  0  0  0 
  5  6  2  0  0  0  0 
 11 12  2  0  0  0  0 
 22 23  1  0  0  0  0 
 23 24  2  0  0  0  0 
 24 25  1  0  0  0  0 
 25 21  1  0  0  0  0 
  1  2  1  0  0  0  0 
  8 26  1  0  0  0  0 
M  END