
          11280714522D 1   1.00000     0.00000     0

 27 29  0     0  0            999 V2000
   -0.1833   -0.5917    0.0000 C   0  0  0  0  0  0           0  0  0
   -0.1833   -1.4125    0.0000 C   0  0  0  0  0  0           0  0  0
    1.2417   -0.5875    0.0000 C   0  0  0  0  0  0           0  0  0
    1.9542   -0.1667    0.0000 C   0  0  0  0  0  0           0  0  0
    0.5292   -0.1792    0.0000 C   0  0  0  0  0  0           0  0  0
    0.5292   -1.8250    0.0000 C   0  0  0  0  0  0           0  0  0
    1.2417   -1.4125    0.0000 C   0  0  0  0  0  0           0  0  0
    2.6667   -0.5792    0.0000 C   0  0  0  0  0  0           0  0  0
   -0.8958   -1.8250    0.0000 C   0  0  3  0  0  0           0  0  0
   -0.8958   -0.1750    0.0000 C   0  0  3  0  0  0           0  0  0
    5.5250    1.0833    0.0000 C   0  0  0  0  0  0           0  0  0
    4.8042    0.6625    0.0000 C   0  0  0  0  0  0           0  0  0
   -1.6000   -0.5917    0.0000 C   0  0  0  0  0  0           0  0  0
   -1.6000   -1.4167    0.0000 C   0  0  0  0  0  0           0  0  0
    5.5167    1.9083    0.0000 O   0  0  0  0  0  0           0  0  0
    3.3792   -0.1667    0.0000 C   0  0  0  0  0  0           0  0  0
    4.8042   -0.1542    0.0000 C   0  0  0  0  0  0           0  0  0
    4.0875    1.0708    0.0000 C   0  0  0  0  0  0           0  0  0
    6.2417    0.6708    0.0000 O   0  0  0  0  0  0           0  0  0
    3.3792    0.6583    0.0000 C   0  0  0  0  0  0           0  0  0
    4.0917   -0.5792    0.0000 C   0  0  0  0  0  0           0  0  0
    1.9542    0.6583    0.0000 C   0  0  0  0  0  0           0  0  0
    1.9542   -1.8250    0.0000 C   0  0  0  0  0  0           0  0  0
   -1.1083    0.6250    0.0000 C   0  0  0  0  0  0           0  0  0
   -1.6958   -2.0375    0.0000 C   0  0  0  0  0  0           0  0  0
   -0.3083   -2.4042    0.0000 C   0  0  0  0  0  0           0  0  0
   -0.3083    0.4125    0.0000 C   0  0  0  0  0  0           0  0  0
  2  1  2  0     0  0
  3  5  2  0     0  0
  4  3  1  0     0  0
  5  1  1  0     0  0
  6  2  1  0     0  0
  7  3  1  0     0  0
  8  4  2  0     0  0
  9  2  1  0     0  0
 10  1  1  0     0  0
 11 12  1  0     0  0
 12 17  2  0     0  0
 13 10  1  0     0  0
 14 13  1  0     0  0
 15 11  2  0     0  0
 16  8  1  0     0  0
 17 21  1  0     0  0
 18 20  2  0     0  0
 19 11  1  0     0  0
 20 16  1  0     0  0
 21 16  2  0     0  0
 22  4  1  0     0  0
 23  7  1  0     0  0
 24 10  1  0     0  0
 25  9  1  0     0  0
 26  9  1  0     0  0
 27 10  1  0     0  0
  9 14  1  0     0  0
  7  6  2  0     0  0
 12 18  1  0     0  0
M  END