
  SciTegic05061116452D

 28 31  0  0  0  0            999 V2000
   -5.1181   -2.8958    0.0000 C   0  0
   -5.1193   -3.7232    0.0000 C   0  0
   -4.4044   -4.1360    0.0000 C   0  0
   -4.4062   -2.4830    0.0000 C   0  0
   -3.6909   -2.8922    0.0000 C   0  0
   -3.6901   -3.7190    0.0000 C   0  0
   -2.9748   -4.1300    0.0000 N   0  0
   -2.2598   -3.7152    0.0000 C   0  0
   -2.2645   -2.8852    0.0000 C   0  0
   -2.9804   -2.4780    0.0000 N   0  0
   -1.5437   -4.1249    0.0000 O   0  0
   -1.5405   -4.9499    0.0000 C   0  0
   -0.8244   -5.3596    0.0000 C   0  0
   -1.5526   -2.4684    0.0000 C   0  0
   -0.8356   -2.8765    0.0000 N   0  0
   -0.8346   -3.7054    0.0000 C   0  0
   -0.1218   -4.1135    0.0000 C   0  0
    0.5926   -3.7001    0.0000 N   0  0
    0.5896   -2.8742    0.0000 C   0  0
   -0.1279   -2.4615    0.0000 C   0  0
   -1.5576   -1.6434    0.0000 O   0  0
    1.3081   -4.1110    0.0000 C   0  0
    1.3075   -4.9344    0.0000 C   0  0
    2.0220   -5.3452    0.0000 C   0  0
    2.7365   -4.9310    0.0000 C   0  0
    2.7320   -4.1017    0.0000 C   0  0
    2.0168   -3.6947    0.0000 C   0  0
    3.4525   -5.3409    0.0000 Cl  0  0
  3  6  2  0
  9 14  1  0
  6  7  1  0
 14 15  1  0
 15 16  1  0
  1  2  2  0
  7  8  2  0
  5  4  2  0
  8  9  1  0
  4  1  1  0
 15 20  1  0
 16 17  1  0
 17 18  1  0
 18 19  1  0
 19 20  1  0
  9 10  2  0
 14 21  2  0
 10  5  1  0
 18 22  1  0
 22 23  2  0
  8 11  1  0
 23 24  1  0
  2  3  1  0
 24 25  2  0
 11 12  1  0
 25 26  1  0
  5  6  1  0
 26 27  2  0
 27 22  1  0
 12 13  1  0
 25 28  1  0
M  END