
  SciTegic09081514182D

 39 42  0  0  0  0            999 V2000
    3.1658    1.0705    0.0000 O   0  0
    2.5889    0.0182    0.0000 S   0  0
    3.1810   -1.0255    0.0000 O   0  0
   -1.3024    4.5407    0.0000 C   0  0
   -0.8424    5.9685    0.0000 C   0  0
    0.6240    6.2840    0.0000 C   0  0
    1.6305    5.1718    0.0000 C   0  0
    1.1706    3.7440    0.0000 C   0  0
   -0.2959    3.4285    0.0000 C   0  0
   -2.1693    6.6698    0.0000 C   0  0
   -2.2138    7.8689    0.0000 O   0  0
   -3.4406    5.8721    0.0000 C   0  0
   -0.8747    7.4852    0.0000 C   0  0
   -0.9202    8.6843    0.0000 F   0  0
    0.1409    8.1243    0.0000 F   0  0
    0.1867    6.9253    0.0000 F   0  0
   -4.5015    6.4328    0.0000 F   0  0
   -3.3961    4.6729    0.0000 F   0  0
   -4.4568    5.2338    0.0000 F   0  0
    2.1753    2.6291    0.0000 C   0  0
    1.7138    1.2033    0.0000 N   0  0
    1.7138   -1.2033    0.0000 N   0  0
    0.2917   -0.7475    0.0000 C   0  0
    0.2917    0.7475    0.0000 C   0  0
   -1.0028    1.5132    0.0000 C   0  0
   -2.3155    0.7475    0.0000 C   0  0
   -2.3155   -0.7475    0.0000 C   0  0
   -1.0028   -1.5132    0.0000 C   0  0
    2.1796   -2.6273    0.0000 C   0  0
    1.1782   -3.7452    0.0000 C   0  0
    1.6425   -5.1716    0.0000 C   0  0
    0.6394   -6.2869    0.0000 C   0  0
   -0.8280   -5.9758    0.0000 C   0  0
   -1.2923   -4.5495    0.0000 N   0  0
   -0.2893   -3.4342    0.0000 C   0  0
   -2.7599   -4.2353    0.0000 C   0  0
   -3.2224   -2.8075    0.0000 C   0  0
   -4.3959   -2.5563    0.0000 C   0  0
   -3.5639   -5.1261    0.0000 O   0  0
  2  1  2  0
  3  2  2  0
  4  5  2  0
  5  6  1  0
  6  7  2  0
  7  8  1  0
  8  9  2  0
  9  4  1  0
  5 10  1  0
 10 11  1  0
 10 12  1  0
 10 13  1  0
 13 14  1  0
 13 15  1  0
 13 16  1  0
 12 17  1  0
 12 18  1  0
 12 19  1  0
  8 20  1  0
 20 21  1  0
 21 24  1  0
 23 22  1  0
 22  2  1  0
  2 21  1  0
 23 24  2  0
 24 25  1  0
 25 26  2  0
 26 27  1  0
 27 28  2  0
 28 23  1  0
 22 29  1  0
 29 30  1  0
 30 31  1  0
 30 35  1  0
 31 32  1  0
 32 33  1  0
 33 34  1  0
 34 35  1  0
 34 36  1  0
 36 37  1  0
 37 38  1  0
 36 39  2  0
M  END