
          11280714522D 1   1.00000     0.00000     0

 26 28  0     1  0            999 V2000
    5.0292   -4.6250    0.0000 S   0  0  3  0  0  0           0  0  0
    3.9542   -2.0000    0.0000 C   0  0  2  0  0  0           0  0  0
    5.2417   -3.8292    0.0000 N   0  0  3  0  0  0           0  0  0
    3.9500   -2.8250    0.0000 C   0  0  0  0  0  0           0  0  0
    4.6792   -1.5917    0.0000 N   0  0  3  0  0  0           0  0  0
    4.6625   -3.2417    0.0000 C   0  0  1  0  0  0           0  0  0
    3.2375   -1.5917    0.0000 C   0  0  0  0  0  0           0  0  0
    4.8292   -5.4250    0.0000 C   0  0  0  0  0  0           0  0  0
    5.8250   -4.8375    0.0000 O   0  0  0  0  0  0           0  0  0
    4.2292   -4.4042    0.0000 O   0  0  0  0  0  0           0  0  0
    5.3792   -2.8375    0.0000 C   0  0  0  0  0  0           0  0  0
    5.3917   -2.0042    0.0000 C   0  0  0  0  0  0           0  0  0
    3.2417   -0.7542    0.0000 C   0  0  0  0  0  0           0  0  0
    4.6792   -0.7542    0.0000 C   0  0  0  0  0  0           0  0  0
    4.0292   -5.6500    0.0000 C   0  0  3  0  0  0           0  0  0
    3.9542   -0.3375    0.0000 C   0  0  0  0  0  0           0  0  0
    6.0417   -3.6125    0.0000 C   0  0  0  0  0  0           0  0  0
    2.5250   -2.0000    0.0000 C   0  0  0  0  0  0           0  0  0
    2.5250   -0.3417    0.0000 C   0  0  0  0  0  0           0  0  0
    3.8292   -6.4500    0.0000 C   0  0  0  0  0  0           0  0  0
    3.4417   -5.0750    0.0000 C   0  0  0  0  0  0           0  0  0
    3.2292   -5.8625    0.0000 C   0  0  0  0  0  0           0  0  0
    1.8125   -1.5875    0.0000 C   0  0  0  0  0  0           0  0  0
    1.8125   -0.7625    0.0000 C   0  0  0  0  0  0           0  0  0
    3.2417   -2.4042    0.0000 H   0  0  0  0  0  0           0  0  0
    3.9417   -3.6542    0.0000 H   0  0  0  0  0  0           0  0  0
  2  4  1  0     0  0
  3  1  1  0     0  0
  4  6  1  0     0  0
  5 12  1  0     0  0
  6  3  1  0     0  0
  7  2  1  0     0  0
  8  1  1  0     0  0
  9  1  2  0     0  0
 10  1  2  0     0  0
 11  6  1  0     0  0
 12 11  1  0     0  0
 13  7  1  0     0  0
 14  5  1  0     0  0
 15  8  1  0     0  0
 16 14  1  0     0  0
 17  3  1  0     0  0
 18  7  2  0     0  0
 19 13  2  0     0  0
 20 15  1  0     0  0
 21 15  1  0     0  0
 22 15  1  0     0  0
 23 18  1  0     0  0
 24 23  2  0     0  0
  2 25  1  6     0  0
  6 26  1  6     0  0
  2  5  1  0     0  0
 16 13  1  0     0  0
 24 19  1  0     0  0
M  END