
  SciTegic12231509382D

 14 13  0  0  0  0            999 V2000
    5.3292   -3.1167    0.0000 N   0  0
    6.0542   -2.7042    0.0000 C   0  0
    4.6167   -2.6917    0.0000 C   0  0
    3.9042   -3.1042    0.0000 C   0  0
    2.4792   -3.1042    0.0000 O   0  0
    3.9042   -3.9292    0.0000 O   0  0
    3.1917   -2.6917    0.0000 C   0  0
    6.7667   -3.1167    0.0000 C   0  0
    6.0542   -1.8792    0.0000 C   0  0
    6.6292   -2.1167    0.0000 C   0  0
    1.7667   -2.6917    0.0000 C   0  0
    1.0542   -3.1042    0.0000 C   0  0
    1.0417   -3.9292    0.0000 C   0  0
    0.3292   -2.6917    0.0000 C   0  0
  2  1  1  0
  3  1  1  0
  4  3  1  0
  5  7  1  0
  6  4  1  0
  7  4  1  0
  8  2  1  0
  9  2  1  0
 10  2  1  0
 11  5  1  0
 12 11  1  0
 13 12  1  0
 14 12  1  0
M  END