
  SciTegic08041117222D

 18 19  0  0  0  0            999 V2000
   20.8797   -4.3933    0.0000 N   0  0
   20.8785   -5.2205    0.0000 C   0  0
   21.5929   -5.6333    0.0000 N   0  0
   22.3089   -5.2196    0.0000 C   0  0
   22.3060   -4.3899    0.0000 C   0  0
   21.5912   -3.9806    0.0000 C   0  0
   21.5889   -3.1556    0.0000 N   0  0
   20.2142   -5.7090    0.0000 N   0  0
   23.0243   -5.6304    0.0000 N   0  0
   23.1162   -6.4467    0.0000 C   0  0
   23.9236   -6.6163    0.0000 C   0  0
   24.3344   -5.9008    0.0000 C   0  0  2  0  0  0
   23.7809   -5.2891    0.0000 C   0  0
   25.1547   -5.8126    0.0000 N   0  0
   25.4884   -5.0580    0.0000 C   0  0
   19.4586   -5.3776    0.0000 C   0  0
   18.7939   -5.8664    0.0000 C   0  0
   19.3677   -4.5577    0.0000 C   0  0
  4  9  1  0
  9 10  1  0
  4  5  1  0
  2  3  1  0
  5  6  2  0
  6  1  1  0
 10 11  1  0
 11 12  1  0
 12 13  1  0
 13  9  1  0
  1  2  2  0
 12 14  1  6
  6  7  1  0
 14 15  1  0
  3  4  2  0
  8 16  1  0
  2  8  1  0
 16 17  1  0
 16 18  1  0
M  END