
  SciTegic12231509382D

 26 27  0  0  0  0            999 V2000
   11.3875   -5.7292    0.0000 C   0  0
    6.3792   -3.6625    0.0000 N   0  0
    5.6667   -4.0792    0.0000 C   0  0
    4.9542   -4.4917    0.0000 C   0  0
   12.1042   -5.3167    0.0000 N   0  0
    4.9542   -5.3250    0.0000 C   0  0
    5.6667   -5.7375    0.0000 O   0  0
   11.3875   -6.5542    0.0000 O   0  0
   10.6750   -5.3167    0.0000 N   0  0
    6.3792   -5.3167    0.0000 C   0  0
    7.1000   -5.7292    0.0000 C   0  0
   12.8125   -5.7417    0.0000 C   0  0
    8.5292   -5.7292    0.0000 N   0  0
    7.1000   -6.5542    0.0000 O   0  0
    4.2375   -4.0792    0.0000 C   0  0
    7.8125   -5.3167    0.0000 C   0  0
    4.2375   -5.7375    0.0000 C   0  0
    9.9542   -5.7292    0.0000 C   0  0
    9.2417   -5.3167    0.0000 C   0  0
   12.8000   -6.5625    0.0000 C   0  0
   13.5292   -5.3375    0.0000 C   0  0
    3.5250   -4.5000    0.0000 C   0  0
    3.5250   -5.3250    0.0000 C   0  0
   14.2375   -5.7542    0.0000 C   0  0
   13.5042   -6.9792    0.0000 C   0  0
   14.2292   -6.5792    0.0000 C   0  0
  2  3  3  0
  3  4  1  0
  4  6  1  0
  5  1  1  0
  6  7  1  0
  7 10  1  0
  8  1  2  0
  9  1  1  0
 10 11  1  0
 11 16  1  0
 12  5  1  0
 13 19  1  0
 14 11  1  0
 15  4  2  0
 16 13  1  0
 17  6  2  0
 18  9  1  0
 19 18  1  0
 20 12  1  0
 21 12  2  0
 22 23  2  0
 23 17  1  0
 24 21  1  0
 25 20  2  0
 26 24  2  0
 25 26  1  0
 22 15  1  0
M  END