
  SciTegic11201309402D

 43 46  0  0  0  0            999 V2000
   -3.2917  -13.3208    0.0000 N   0  0
   -2.5772  -12.9083    0.0000 C   0  0  2  0  0  0
   -1.8627  -13.3208    0.0000 C   0  0
   -1.1483  -12.9083    0.0000 N   0  0
   -1.8627  -14.1458    0.0000 O   0  0
   -0.4366  -13.3184    0.0000 C   0  0  1  0  0  0
    0.2758  -12.9095    0.0000 C   0  0
   -1.1528  -12.0801    0.0000 C   0  0
   -0.4343  -11.6694    0.0000 C   0  0
    0.2761  -12.0858    0.0000 C   0  0
    0.9897  -11.6789    0.0000 C   0  0
    0.9942  -10.8557    0.0000 C   0  0
    0.2791  -10.4412    0.0000 C   0  0
   -0.4316  -10.8505    0.0000 C   0  0
   -0.4372  -14.1434    0.0000 C   0  0
   -1.1520  -14.5554    0.0000 O   0  0
    0.2769  -14.5565    0.0000 N   0  0
    0.9917  -14.1446    0.0000 C   0  0  2  0  0  0
    1.7059  -14.5576    0.0000 C   0  0
    2.4207  -14.1457    0.0000 N   0  0
    1.7052  -15.3826    0.0000 O   0  0
    0.9924  -13.3196    0.0000 C   0  0
    1.7072  -12.9076    0.0000 C   0  0
    1.7078  -12.0826    0.0000 C   0  0
    2.4226  -11.6707    0.0000 C   0  0
    3.1368  -12.0838    0.0000 N   0  0
   -2.5772  -12.0833    0.0000 C   0  0
   -3.2917  -11.6708    0.0000 C   0  0
   -3.2889  -10.8448    0.0000 C   0  0
   -4.0025  -10.4323    0.0000 C   0  0
   -4.7180  -10.8449    0.0000 C   0  0
   -4.7153  -11.6742    0.0000 C   0  0
   -4.0011  -12.0828    0.0000 C   0  0
   -3.9985  -12.9078    0.0000 C   0  0
   -2.5736  -10.4336    0.0000 C   0  0
   -5.4330  -10.4333    0.0000 O   0  0
    3.1348  -14.5588    0.0000 C   0  0
    3.8496  -14.1468    0.0000 C   0  0
    4.5627  -14.5620    0.0000 C   0  0
    5.2770  -14.1507    0.0000 C   0  0
    5.2781  -13.3249    0.0000 C   0  0
    4.5589  -12.9120    0.0000 C   0  0
    3.8475  -13.3256    0.0000 C   0  0
 19 21  2  0
  6  4  1  0
 18 22  1  1
 10 11  1  0
 22 23  1  0
  2  3  1  0
 23 24  1  0
 11 12  2  0
 24 25  1  0
  2  1  1  1
 25 26  1  0
 12 13  1  0
  2 27  1  0
  3  4  1  0
 27 28  1  0
 13 14  2  0
 28 29  2  0
 14  9  1  0
 29 30  1  0
  4  8  1  0
 30 31  2  0
  6 15  1  1
 31 32  1  0
  6  7  1  0
 32 33  2  0
 33 28  1  0
 15 16  2  0
 33 34  1  0
  7 10  1  0
 29 35  1  0
 15 17  1  0
 31 36  1  0
  9  8  1  0
 20 37  1  0
 17 18  1  0
 37 38  1  0
 38 39  2  0
 18 19  1  0
 39 40  1  0
  3  5  2  0
 40 41  2  0
 19 20  1  0
 41 42  1  0
  9 10  2  0
 42 43  2  0
 43 38  1  0
M  END