
  SciTegic05171617272D

 33 37  0  0  0  0            999 V2000
    3.3606   -2.8684    0.0000 C   0  0
    2.1855   -2.6254    0.0000 C   0  0
    1.3877   -3.5218    0.0000 C   0  0
    1.7138   -1.2033    0.0000 N   0  0
    2.5889    0.0182    0.0000 C   0  0
    1.7138    1.2033    0.0000 C   0  0
    2.1812    2.6271    0.0000 C   0  0
    3.6500    2.9355    0.0000 N   0  0
    4.1200    4.3600    0.0000 C   0  0
    5.5886    4.6654    0.0000 C   0  0
    6.5873    3.5462    0.0000 C   0  0
    6.1174    2.1217    0.0000 C   0  0
    4.6488    1.8163    0.0000 C   0  0
    8.0566    3.8516    0.0000 N   0  0
    8.6407    5.1924    0.0000 C   0  0
    8.0326    6.2269    0.0000 C   0  0
   10.1270    5.0476    0.0000 C   0  0
   11.2303    6.0698    0.0000 C   0  0
   12.6752    5.5990    0.0000 C   0  0
   12.9914    4.1378    0.0000 C   0  0
   11.8703    3.1118    0.0000 C   0  0
   12.1821    1.6440    0.0000 C   0  0
   11.2900    0.8415    0.0000 N   0  0
   13.3231    1.2723    0.0000 O   0  0
   10.4432    3.5864    0.0000 C   0  0
    9.1497    2.8402    0.0000 C   0  0
    9.0159    1.6477    0.0000 O   0  0
    0.2917    0.7475    0.0000 C   0  0
   -1.0028    1.5132    0.0000 C   0  0
   -2.3155    0.7475    0.0000 C   0  0
   -2.3155   -0.7475    0.0000 C   0  0
   -1.0028   -1.5132    0.0000 C   0  0
    0.2917   -0.7475    0.0000 C   0  0
  1  2  1  0
  2  3  1  0
  2  4  1  0
  4  5  1  0
  5  6  2  0
  6  7  1  0
  7  8  1  0
  8  9  1  0
  9 10  1  0
 10 11  1  0
 11 12  1  0
 12 13  1  0
  8 13  1  0
 11 14  1  0
 14 15  1  0
 15 16  1  0
 15 17  1  0
 17 18  2  0
 18 19  1  0
 19 20  2  0
 20 21  1  0
 21 22  1  0
 22 23  1  0
 22 24  2  0
 21 25  2  0
 17 25  1  0
 25 26  1  0
 14 26  1  0
 26 27  2  0
  6 28  1  0
 28 29  2  0
 29 30  1  0
 30 31  2  0
 31 32  1  0
 32 33  2  0
  4 33  1  0
 28 33  1  0
M  END