
  SciTegic01161211252D

 64 66  0  0  0  0            999 V2000
    1.1779  -22.1191    0.0000 N   0  0
    1.8924  -21.7066    0.0000 C   0  0  1  0  0  0
    2.6069  -22.1191    0.0000 C   0  0
    1.8924  -20.8816    0.0000 C   0  0
    1.1779  -20.4691    0.0000 C   0  0
    1.1779  -19.6441    0.0000 C   0  0
    1.8924  -19.2316    0.0000 C   0  0
    1.8924  -18.4066    0.0000 N   0  0
    2.6069  -22.9441    0.0000 O   0  0
    3.3213  -21.7066    0.0000 N   0  0
    4.0358  -22.1191    0.0000 C   0  0
    4.7502  -21.7066    0.0000 C   0  0
    5.4647  -22.1191    0.0000 C   0  0
    6.1792  -21.7066    0.0000 C   0  0
    6.8937  -22.1191    0.0000 C   0  0
    7.6081  -21.7066    0.0000 C   0  0
    8.3226  -22.1191    0.0000 N   0  0
    7.6081  -20.8816    0.0000 O   0  0
    9.0371  -21.7066    0.0000 C   0  0  1  0  0  0
    9.7516  -22.1191    0.0000 C   0  0
    9.0371  -20.8816    0.0000 C   0  0
    9.7516  -20.4691    0.0000 C   0  0
    9.7516  -19.6441    0.0000 C   0  0
    9.0371  -19.2316    0.0000 N   0  0
    9.0371  -18.4066    0.0000 C   0  0
    8.3226  -17.9941    0.0000 N   0  0
    9.7516  -17.9941    0.0000 N   0  0
    9.7516  -22.9441    0.0000 O   0  0
   10.4661  -21.7066    0.0000 N   0  0
   11.1805  -22.1191    0.0000 C   0  0  1  0  0  0
   11.8950  -21.7066    0.0000 C   0  0
   11.1805  -22.9441    0.0000 C   0  0
   11.8950  -23.3566    0.0000 C   0  0
   11.8950  -24.1816    0.0000 C   0  0
   12.6094  -24.5941    0.0000 N   0  0
   12.6094  -25.4191    0.0000 C   0  0
   13.3240  -25.8316    0.0000 N   0  0
   11.8950  -25.8316    0.0000 N   0  0
   12.6094  -22.1191    0.0000 N   0  0
   11.8950  -20.8816    0.0000 O   0  0
    0.4634  -21.7066    0.0000 C   0  0
   -0.2510  -22.1191    0.0000 C   0  0
    0.4634  -20.8816    0.0000 O   0  0
   -0.2510  -22.9441    0.0000 C   0  0
    0.4634  -23.3566    0.0000 C   0  0
    0.4634  -24.1816    0.0000 C   0  0
    1.1779  -24.5941    0.0000 C   0  0
    1.1779  -25.4191    0.0000 N   0  0
    1.8924  -25.8316    0.0000 C   0  0
    1.8924  -26.6566    0.0000 O   0  0
    2.6069  -25.4191    0.0000 C   0  0
    3.2586  -25.9198    0.0000 N   0  0
    3.9410  -25.4562    0.0000 N   0  0
    3.7103  -24.6649    0.0000 N   0  0
    2.8863  -24.6380    0.0000 C   0  0
    4.4139  -24.2401    0.0000 C   0  0
    5.8298  -23.3940    0.0000 N   0  0
    5.1038  -22.9932    0.0000 C   0  0
    4.3994  -23.4187    0.0000 N   0  0
    5.8424  -24.2198    0.0000 C   0  0
    5.1382  -24.6444    0.0000 C   0  0
    5.3244  -25.4455    0.0000 N   0  0
    6.1438  -25.5159    0.0000 C   0  0
    6.4639  -24.7585    0.0000 N   0  0
 32 33  1  0
 16 17  1  0
 33 34  1  0
  3  9  2  0
 34 35  1  0
 16 18  2  0
 35 36  1  0
  4  5  1  0
 36 37  1  0
 17 19  1  0
 36 38  2  0
  3 10  1  0
 31 39  1  0
 19 20  1  0
 31 40  2  0
  2  3  1  0
  1 41  1  0
 19 21  1  6
 41 42  1  0
 10 11  1  0
 41 43  2  0
 21 22  1  0
 42 44  1  0
  5  6  1  0
 44 45  1  0
 22 23  1  0
 45 46  1  0
 11 12  1  0
 46 47  1  0
 23 24  1  0
 47 48  1  0
  1  2  1  0
 48 49  1  0
 24 25  1  0
 49 50  2  0
 12 13  1  0
 49 51  1  0
 51 52  1  0
 25 26  2  0
  6  7  1  0
 25 27  1  0
 13 14  1  0
 52 53  2  0
 53 54  1  0
 54 55  1  0
 55 51  2  0
 20 28  2  0
 56 61  2  0
  2  4  1  6
 60 57  2  0
 20 29  1  0
 57 58  1  0
 14 15  1  0
 58 59  2  0
 59 56  1  0
 54 56  1  0
 60 61  1  0
 29 30  1  0
  7  8  1  0
 30 31  1  0
 15 16  1  0
 30 32  1  1
 61 62  1  0
 62 63  2  0
 63 64  1  0
 64 60  1  0
M  END