
  SciTegic01161211252D

 32 35  0  0  0  0            999 V2000
   17.9348   -0.5593    0.0000 N   0  0
   17.9371   -1.3854    0.0000 C   0  0
   19.3594   -0.5494    0.0000 C   0  0
   18.6434   -0.1441    0.0000 C   0  0
   19.3659   -1.3786    0.0000 C   0  0
   18.6536   -1.7928    0.0000 C   0  0
   18.6571   -2.6151    0.0000 C   0  0
   19.3723   -3.0240    0.0000 C   0  0
   20.0855   -2.6047    0.0000 C   0  0
   20.0784   -1.7838    0.0000 C   0  0
   14.3639   -1.8039    0.0000 C   0  0
   14.3628   -2.6313    0.0000 C   0  0
   15.0775   -3.0441    0.0000 C   0  0
   15.7939   -2.6308    0.0000 C   0  0
   15.7911   -1.8003    0.0000 C   0  0
   15.0757   -1.3913    0.0000 C   0  0
   13.6481   -3.0431    0.0000 N   0  0
   12.9339   -2.6302    0.0000 C   0  0
   12.2192   -3.0420    0.0000 N   0  0
   12.9346   -1.8052    0.0000 O   0  0
   11.5052   -2.6286    0.0000 C   0  0
   11.2314   -1.8492    0.0000 C   0  0
   10.4057   -1.8649    0.0000 C   0  0
   10.1668   -2.6557    0.0000 O   0  0
   10.8456   -3.1260    0.0000 N   0  0
    9.9074   -1.2073    0.0000 C   0  0
   10.2829   -0.4729    0.0000 C   0  0
    9.0835   -1.2494    0.0000 C   0  0
    9.3814   -0.5618    0.0000 C   0  0
   16.5039   -1.3852    0.0000 N   0  0
   17.2198   -1.7949    0.0000 C   0  0
   17.2151   -2.6165    0.0000 O   0  0
 15 16  2  0
 16 11  1  0
  7  8  1  0
 12 17  1  0
  3  4  2  0
 17 18  1  0
  8  9  2  0
 18 19  1  0
  4  1  1  0
 18 20  2  0
  9 10  1  0
 19 21  1  0
 22 23  2  0
 10  5  2  0
  2  6  1  0
 11 12  2  0
 21 22  1  0
 23 24  1  0
 24 25  1  0
 25 21  2  0
  5  6  1  0
 23 26  1  0
 12 13  1  0
 26 27  1  0
  5  3  1  0
 26 28  1  0
 13 14  2  0
 26 29  1  0
  6  7  2  0
 15 30  1  0
 14 15  1  0
 30 31  1  0
  1  2  2  0
 31 32  2  0
 31  2  1  0
M  END