
          11280715572D 1   1.00000     0.00000     0

 79 82  0     1  0            999 V2000
   -1.9125   -4.7167    0.0000 N   0  0  0  0  0  0           0  0  0
   -0.5500   -5.4667    0.0000 C   0  0  2  0  0  0           0  0  0
   -4.5833   -3.2000    0.0000 N   0  0  0  0  0  0           0  0  0
   -1.9333    1.3917    0.0000 N   0  0  0  0  0  0           0  0  0
   -4.5917   -0.1292    0.0000 N   0  0  0  0  0  0           0  0  0
   -3.2333   -5.5083    0.0000 C   0  0  0  0  0  0           0  0  0
   -4.5917    1.3708    0.0000 C   0  0  0  0  0  0           0  0  0
   -0.6000    2.1625    0.0000 C   0  0  0  0  0  0           0  0  0
   -0.5208   -6.9667    0.0000 C   0  0  0  0  0  0           0  0  0
   -5.9208   -2.4375    0.0000 C   0  0  0  0  0  0           0  0  0
   -4.5708   -4.7583    0.0000 C   0  0  2  0  0  0           0  0  0
    0.7375   -0.1083    0.0000 N   0  0  0  0  0  0           0  0  0
    2.0375   -0.8875    0.0000 C   0  0  0  0  0  0           0  0  0
   -3.2708    2.1500    0.0000 C   0  0  2  0  0  0           0  0  0
    0.7167    1.3917    0.0000 C   0  0  1  0  0  0           0  0  0
   -1.8083   -7.7458    0.0000 N   0  0  3  0  0  0           0  0  0
   -5.8583   -5.5292    0.0000 C   0  0  0  0  0  0           0  0  0
   -5.9333   -0.9000    0.0000 C   0  0  2  0  0  0           0  0  0
   -3.0625  -10.0208    0.0000 C   0  0  0  0  0  0           0  0  0
   -5.6333  -11.5792    0.0000 C   0  0  0  0  0  0           0  0  0
   -6.7917  -18.3542    0.0000 C   0  0  0  0  0  0           0  0  0
    2.0167   -2.3583    0.0000 C   0  0  0  0  0  0           0  0  0
    2.0792   -5.4375    0.0000 S   0  0  0  0  0  0           0  0  0
   -3.0333  -11.5208    0.0000 N   0  0  0  0  0  0           0  0  0
    3.4000   -4.6500    0.0000 S   0  0  0  0  0  0           0  0  0
   -5.8375   -7.0292    0.0000 C   0  0  0  0  0  0           0  0  0
   -6.9125  -12.3542    0.0000 N   0  0  0  0  0  0           0  0  0
    3.3792   -3.1083    0.0000 C   0  0  3  0  0  0           0  0  0
   -1.7792   -9.2458    0.0000 C   0  0  0  0  0  0           0  0  0
   -4.3167  -12.3000    0.0000 C   0  0  1  0  0  0           0  0  0
   -9.5125  -12.4125    0.0000 C   0  0  0  0  0  0           0  0  0
   -9.8292   -0.1667    0.0000 C   0  0  0  0  0  0           0  0  0
   -7.8208  -18.9750    0.0000 N   0  0  0  0  0  0           0  0  0
    0.7583   -4.6875    0.0000 C   0  0  0  0  0  0           0  0  0
   -0.6000    3.3625    0.0000 O   0  0  0  0  0  0           0  0  0
   -5.6333    1.9667    0.0000 O   0  0  0  0  0  0           0  0  0
   -3.2167   -6.7083    0.0000 O   0  0  0  0  0  0           0  0  0
   -6.9542   -3.0458    0.0000 O   0  0  0  0  0  0           0  0  0
    0.5292   -7.5458    0.0000 O   0  0  0  0  0  0           0  0  0
    2.0208    2.1375    0.0000 C   0  0  0  0  0  0           0  0  0
   -3.2917    3.6542    0.0000 C   0  0  0  0  0  0           0  0  0
    3.0875   -0.3042    0.0000 O   0  0  0  0  0  0           0  0  0
   -5.6583  -10.3792    0.0000 O   0  0  0  0  0  0           0  0  0
   -4.1125   -9.4417    0.0000 O   0  0  0  0  0  0           0  0  0
   -6.8625   -7.6458    0.0000 O   0  0  0  0  0  0           0  0  0
  -10.8667   -0.7708    0.0000 O   0  0  0  0  0  0           0  0  0
  -10.5625  -11.8333    0.0000 O   0  0  0  0  0  0           0  0  0
   -7.2292   -0.1542    0.0000 C   0  0  0  0  0  0           0  0  0
   -6.8208  -16.8542    0.0000 N   0  0  0  0  0  0           0  0  0
   -8.2292  -11.6333    0.0000 C   0  0  0  0  0  0           0  0  0
   -5.7458  -18.9333    0.0000 N   0  0  0  0  0  0           0  0  0
   -4.7875   -7.6125    0.0000 N   0  0  0  0  0  0           0  0  0
   -8.5292   -0.9125    0.0000 C   0  0  0  0  0  0           0  0  0
    2.0250    3.6417    0.0000 C   0  0  0  0  0  0           0  0  0
   -9.8375    1.0333    0.0000 N   0  0  0  0  0  0           0  0  0
   -9.4833  -13.6125    0.0000 N   0  0  0  0  0  0           0  0  0
    2.0292    6.6375    0.0000 C   0  0  0  0  0  0           0  0  0
   -4.6000    4.3833    0.0000 C   0  0  0  0  0  0           0  0  0
    3.3250    4.3833    0.0000 C   0  0  0  0  0  0           0  0  0
    0.7250    4.3875    0.0000 C   0  0  0  0  0  0           0  0  0
    3.3250    5.8833    0.0000 C   0  0  0  0  0  0           0  0  0
    0.7292    5.8875    0.0000 C   0  0  0  0  0  0           0  0  0
   -2.8583   -7.1667    0.0000 C   0  0  0  0  0  0           0  0  0
    2.0292    8.1375    0.0000 O   0  0  0  0  0  0           0  0  0
    4.7292   -3.8583    0.0000 C   0  0  0  0  0  0           0  0  0
    3.3583   -1.5667    0.0000 C   0  0  0  0  0  0           0  0  0
   -4.2875  -13.8000    0.0000 C   0  0  0  0  0  0           0  0  0
   -5.5417  -16.0750    0.0000 C   0  0  0  0  0  0           0  0  0
    0.7292    8.8875    0.0000 C   0  0  0  0  0  0           0  0  0
   -5.8875    3.6208    0.0000 C   0  0  0  0  0  0           0  0  0
   -4.6208    5.8833    0.0000 C   0  0  0  0  0  0           0  0  0
   -5.5708  -14.5750    0.0000 C   0  0  0  0  0  0           0  0  0
    0.7250   10.0875    0.0000 C   0  0  0  0  0  0           0  0  0
    6.0583   -3.0792    0.0000 C   0  0  0  0  0  0           0  0  0
    4.6875   -0.7667    0.0000 C   0  0  0  0  0  0           0  0  0
   -7.1917    4.3500    0.0000 C   0  0  0  0  0  0           0  0  0
   -5.9292    6.6167    0.0000 C   0  0  0  0  0  0           0  0  0
    6.0375   -1.5292    0.0000 C   0  0  0  0  0  0           0  0  0
   -7.2125    5.8500    0.0000 C   0  0  0  0  0  0           0  0  0
  2  1  1  0     0  0
  3 11  1  0     0  0
  4 14  1  0     0  0
  5 18  1  0     0  0
  6  1  1  0     0  0
  7  5  1  0     0  0
  8  4  1  0     0  0
  2  9  1  1     0  0
 10  3  1  0     0  0
 11  6  1  0     0  0
 12 13  1  0     0  0
 13 22  1  0     0  0
 14  7  1  0     0  0
 15 12  1  0     0  0
 16  9  1  0     0  0
 11 17  1  6     0  0
 18 10  1  0     0  0
 19 29  1  0     0  0
 20 30  1  0     0  0
 21 49  2  0     0  0
 22 28  1  0     0  0
 23 34  1  0     0  0
 24 19  1  0     0  0
 25 23  1  0     0  0
 26 17  1  0     0  0
 27 20  1  0     0  0
 28 25  1  0     0  0
 29 16  1  0     0  0
 30 24  1  1     0  0
 31 50  1  0     0  0
 32 53  1  0     0  0
 33 21  1  0     0  0
 34  2  1  0     0  0
 35  8  2  0     0  0
 36  7  2  0     0  0
 37  6  2  0     0  0
 38 10  2  0     0  0
 39  9  2  0     0  0
 15 40  1  6     0  0
 14 41  1  6     0  0
 42 13  2  0     0  0
 43 20  2  0     0  0
 44 19  2  0     0  0
 45 26  2  0     0  0
 46 32  2  0     0  0
 47 31  2  0     0  0
 18 48  1  6     0  0
 49 68  1  0     0  0
 50 27  1  0     0  0
 51 21  1  0     0  0
 52 26  1  0     0  0
 53 48  1  0     0  0
 54 40  1  0     0  0
 55 32  1  0     0  0
 56 31  1  0     0  0
 57 62  1  0     0  0
 58 41  1  0     0  0
 59 54  2  0     0  0
 60 54  1  0     0  0
 61 59  1  0     0  0
 62 60  2  0     0  0
 63 16  1  0     0  0
 64 57  1  0     0  0
 65 28  1  0     0  0
 66 28  1  0     0  0
 67 30  1  0     0  0
 68 72  1  0     0  0
 69 64  1  0     0  0
 70 58  1  0     0  0
 71 58  2  0     0  0
 72 67  1  0     0  0
 73 69  1  0     0  0
 74 65  1  0     0  0
 75 66  1  0     0  0
 76 70  2  0     0  0
 77 71  1  0     0  0
 78 75  1  0     0  0
 79 76  1  0     0  0
 78 74  1  0     0  0
 15  8  1  0     0  0
 79 77  2  0     0  0
 61 57  2  0     0  0
M  END