
  SciTegic11161111432D

 35 40  0  0  0  0            999 V2000
    8.4128   -8.2378    0.0000 C   0  0
    9.2378   -8.2384    0.0000 C   0  0  2  0  0  0
    9.6467   -8.9613    0.0000 C   0  0  1  0  0  0
    9.2303   -9.6732    0.0000 C   0  0  2  0  0  0
    9.6347  -10.3827    0.0000 C   0  0  2  0  0  0
   10.4571  -10.3906    0.0000 C   0  0  1  0  0  0
   10.8736   -9.6787    0.0000 C   0  0
   10.4675   -8.9629    0.0000 C   0  0
    8.4025   -9.6703    0.0000 C   0  0
    7.9951   -8.9538    0.0000 C   0  0
    7.1771   -8.9492    0.0000 C   0  0
    6.7601   -9.6594    0.0000 C   0  0
    7.1674  -10.3720    0.0000 C   0  0
    7.9918  -10.3783    0.0000 C   0  0
    8.7032  -10.7914    0.0000 O   0  0
    9.6544   -7.5257    0.0000 N   0  0
    8.6435   -9.0810    0.0000 C   0  0
    8.6474   -7.8877    0.0000 C   0  0
   10.0555   -8.2378    0.0000 O   0  0
   10.8649  -11.1124    0.0000 N   0  0
    6.7490  -11.0876    0.0000 O   0  0
    9.6299  -11.2091    0.0000 H   0  0
   11.6922  -11.1192    0.0000 C   0  0
   12.1000  -11.8370    0.0000 C   0  0
   12.1118  -10.4043    0.0000 O   0  0
   11.6794  -12.5483    0.0000 C   0  0
   12.0863  -13.2656    0.0000 C   0  0
   12.9186  -13.2728    0.0000 C   0  0
   13.3380  -12.5569    0.0000 C   0  0
   12.9246  -11.8386    0.0000 C   0  0
   11.6664  -13.9803    0.0000 I   0  0
   10.2904   -6.9940    0.0000 C   0  0
   11.0659   -7.2813    0.0000 C   0  0
   11.7019   -6.7496    0.0000 C   0  0
    9.9521   -7.8201    0.0000 H   0  0
  2 16  1  0
  5  6  1  0
  4 17  1  1
  6  7  1  0
 17 18  1  0
 18 16  1  0
  7  8  1  0
  3 19  1  1
  9 10  2  0
  6 20  1  1
 13 21  1  0
  1 10  1  0
  5 22  1  1
  1  2  1  0
 20 23  1  0
  9  4  1  0
 23 24  1  0
  3  2  1  0
 23 25  2  0
  3  4  1  0
 24 26  2  0
  9 14  1  0
 26 27  1  0
 10 11  1  0
 27 28  2  0
 11 12  2  0
 28 29  1  0
 12 13  1  0
 29 30  2  0
 30 24  1  0
 13 14  2  0
 27 31  1  0
  3  8  1  0
 16 32  1  0
 14 15  1  0
 32 33  1  0
  5 15  1  0
 33 34  2  0
  4  5  1  0
  2 35  1  6
M  ISO  1  31 125
M  END