
          11280714532D 1   1.00000     0.00000     0

 39 41  0     1  0            999 V2000
    3.4292   -3.3042    0.0000 C   0  0  0  0  0  0           0  0  0
    2.7167   -2.8917    0.0000 C   0  0  0  0  0  0           0  0  0
    2.7167   -2.0667    0.0000 N   0  0  3  0  0  0           0  0  0
    3.4250   -4.1292    0.0000 C   0  0  2  0  0  0           0  0  0
    4.1417   -2.0667    0.0000 C   0  0  0  0  0  0           0  0  0
    3.4292   -1.6542    0.0000 C   0  0  2  0  0  0           0  0  0
    4.8542   -1.6542    0.0000 O   0  0  0  0  0  0           0  0  0
    4.1500   -0.4250    0.0000 C   0  0  0  0  0  0           0  0  0
    4.1542    0.4000    0.0000 C   0  0  0  0  0  0           0  0  0
    4.2500   -4.1667    0.0000 O   0  0  0  0  0  0           0  0  0
    4.2542   -3.3042    0.0000 O   0  0  0  0  0  0           0  0  0
    4.8542   -0.8375    0.0000 C   0  0  2  0  0  0           0  0  0
    2.0000   -3.3000    0.0000 O   0  0  0  0  0  0           0  0  0
    2.0167    0.8125    0.0000 C   0  0  2  0  0  0           0  0  0
    4.1250   -2.6292    0.0000 O   0  0  0  0  0  0           0  0  0
    2.9750   -4.8167    0.0000 C   0  0  2  0  0  0           0  0  0
    3.4375    0.8125    0.0000 C   0  0  1  0  0  0           0  0  0
    2.7250    0.4083    0.0000 C   0  0  0  0  0  0           0  0  0
    2.0167    1.6375    0.0000 C   0  0  1  0  0  0           0  0  0
    2.6000   -4.1292    0.0000 O   0  0  0  0  0  0           0  0  0
    7.7167   -0.8542    0.0000 C   0  0  0  0  0  0           0  0  0
    2.7250    2.0583    0.0000 C   0  0  0  0  0  0           0  0  0
    8.4292   -0.4417    0.0000 C   0  0  0  0  0  0           0  0  0
    2.0042   -1.6542    0.0000 C   0  0  0  0  0  0           0  0  0
    3.4375    1.6375    0.0000 C   0  0  0  0  0  0           0  0  0
    1.3000    0.4000    0.0000 O   0  0  0  0  0  0           0  0  0
    1.3000    2.0500    0.0000 O   0  0  0  0  0  0           0  0  0
    3.4292   -0.8292    0.0000 C   0  0  0  0  0  0           0  0  0
    3.5792   -0.6667    0.0000 C   0  0  0  0  0  0           0  0  0
    4.6167   -4.9042    0.0000 C   0  0  0  0  0  0           0  0  0
    5.5750   -0.4292    0.0000 C   0  0  0  0  0  0           0  0  0
    7.0042   -0.4375    0.0000 C   0  0  0  0  0  0           0  0  0
    2.1500   -4.7750    0.0000 C   0  0  0  0  0  0           0  0  0
    3.3417   -5.5542    0.0000 C   0  0  0  0  0  0           0  0  0
    1.3000   -0.4250    0.0000 C   0  0  0  0  0  0           0  0  0
    6.2875   -0.8417    0.0000 C   0  0  0  0  0  0           0  0  0
    2.0042   -0.8292    0.0000 C   0  0  0  0  0  0           0  0  0
    4.1667   -5.6000    0.0000 C   0  0  0  0  0  0           0  0  0
    2.7167   -0.4167    0.0000 C   0  0  0  0  0  0           0  0  0
  2  1  1  0     0  0
  3  2  1  0     0  0
  4  1  1  0     0  0
  6  5  1  1     0  0
  6  3  1  0     0  0
  7  5  1  0     0  0
  8 12  1  0     0  0
  9  8  2  0     0  0
 10  4  1  0     0  0
 11  1  2  0     0  0
 12  7  1  6     0  0
 13  2  2  0     0  0
 14 18  1  0     0  0
 15  5  2  0     0  0
 16  4  1  0     0  0
 17  9  1  1     0  0
 18 17  1  0     0  0
 19 22  1  0     0  0
  4 20  1  1     0  0
 21 32  1  0     0  0
 22 25  1  0     0  0
 23 21  2  0     0  0
 24  3  1  0     0  0
 25 17  1  0     0  0
 14 26  1  1     0  0
 19 27  1  6     0  0
 28  6  1  0     0  0
 29  8  1  0     0  0
 30 10  1  0     0  0
 31 12  1  0     0  0
 32 36  1  0     0  0
 16 33  1  1     0  0
 34 16  1  0     0  0
 35 26  1  0     0  0
 36 31  1  0     0  0
 37 24  1  0     0  0
 38 34  1  0     0  0
 39 37  1  0     0  0
 30 38  1  0     0  0
 28 39  1  0     0  0
 19 14  1  0     0  0
M  END