
          11280715192D 1   1.00000     0.00000     0

 15 15  0     0  0            999 V2000
    2.1917   -1.1292    0.0000 C   0  0  0  0  0  0           0  0  0
    2.7500   -1.3250    0.0000 N   0  0  3  0  0  0           0  0  0
    4.3417   -1.3417    0.0000 C   0  0  0  0  0  0           0  0  0
    3.7750   -1.1375    0.0000 C   0  0  0  0  0  0           0  0  0
    5.0167   -2.1292    0.0000 N   0  0  3  0  0  0           0  0  0
    2.0792   -0.5417    0.0000 O   0  0  0  0  0  0           0  0  0
    3.2000   -0.9375    0.0000 C   0  0  3  0  0  0           0  0  0
    1.7417   -1.5167    0.0000 N   0  0  0  0  0  0           0  0  0
    4.9042   -1.5417    0.0000 C   0  0  0  0  0  0           0  0  0
    2.8667   -1.9125    0.0000 C   0  0  0  0  0  0           0  0  0
    4.6042   -2.5625    0.0000 C   0  0  0  0  0  0           0  0  0
    5.5542   -2.3917    0.0000 C   0  0  0  0  0  0           0  0  0
    3.0917   -0.3500    0.0000 C   0  0  0  0  0  0           0  0  0
    4.8875   -3.0875    0.0000 C   0  0  0  0  0  0           0  0  0
    5.4667   -2.9875    0.0000 C   0  0  0  0  0  0           0  0  0
  2  1  1  0     0  0
  3  4  3  0     0  0
  4  7  1  0     0  0
  5  9  1  0     0  0
  6  1  2  0     0  0
  7  2  1  0     0  0
  8  1  1  0     0  0
  9  3  1  0     0  0
 10  2  1  0     0  0
 11  5  1  0     0  0
 12  5  1  0     0  0
 13  7  1  0     0  0
 14 11  1  0     0  0
 15 12  1  0     0  0
 15 14  1  0     0  0
M  END