
  CDK    9/16/09,9:48

 47 52  0  0  0  0  0  0  0  0999 V2000
   14.3316   -2.2646    0.0000 C   0  0  0  0  0  0  0  0  0  0  0  0
   14.3207   -0.6232    0.0000 C   0  0  0  0  0  0  0  0  0  0  0  0
   13.6104   -1.0435    0.0000 C   0  0  0  0  0  0  0  0  0  0  0  0
   13.6196   -1.8623    0.0000 C   0  0  0  0  0  0  0  0  0  0  0  0
   15.0352   -1.0292    0.0000 C   0  0  0  0  0  0  0  0  0  0  0  0
   15.0444   -1.8519    0.0000 C   0  0  0  0  0  0  0  0  0  0  0  0
   15.7576   -2.2530    0.0000 C   0  0  0  0  0  0  0  0  0  0  0  0
   16.4660   -1.8359    0.0000 C   0  0  0  0  0  0  0  0  0  0  0  0
   16.4568   -1.0132    0.0000 C   0  0  0  0  0  0  0  0  0  0  0  0
   15.7392   -0.6076    0.0000 N   0  0  0  0  0  0  0  0  0  0  0  0
   15.7287    0.2174    0.0000 C   0  0  0  0  0  0  0  0  0  0  0  0
   16.4381    0.6390    0.0000 O   0  0  0  0  0  0  0  0  0  0  0  0
   17.1672   -0.5934    0.0000 C   0  0  0  0  0  0  0  0  0  0  0  0
   17.8859   -0.9987    0.0000 C   0  0  0  0  0  0  0  0  0  0  0  0
   17.1847   -2.2414    0.0000 O   0  0  0  0  0  0  0  0  0  0  0  0
   17.8944   -1.8238    0.0000 O   0  0  0  0  0  0  0  0  0  0  0  0
   18.5963   -0.5789    0.0000 O   0  0  0  0  0  0  0  0  0  0  0  0
   15.7656   -3.0781    0.0000 N   0  0  0  0  0  0  0  0  0  0  0  0
   15.0551   -3.4976    0.0000 C   0  0  0  0  0  0  0  0  0  0  0  0
   14.3366   -3.0921    0.0000 O   0  0  0  0  0  0  0  0  0  0  0  0
   12.9094   -2.2821    0.0000 O   0  0  0  0  0  0  0  0  0  0  0  0
   12.1907   -1.8770    0.0000 C   0  0  0  0  0  0  0  0  0  0  0  0
   11.4803   -2.2969    0.0000 O   0  0  0  0  0  0  0  0  0  0  0  0
   10.7616   -1.8916    0.0000 C   0  0  0  0  0  0  0  0  0  0  0  0
   10.0513   -2.3115    0.0000 C   0  0  0  0  0  0  0  0  0  0  0  0
    9.3325   -1.9063    0.0000 O   0  0  0  0  0  0  0  0  0  0  0  0
    8.6223   -2.3261    0.0000 C   0  0  0  0  0  0  0  0  0  0  0  0
   15.0624   -4.3210    0.0000 C   0  0  0  0  0  0  0  0  0  0  0  0
   14.3503   -4.7400    0.0000 C   0  0  0  0  0  0  0  0  0  0  0  0
   15.7899   -5.5467    0.0000 C   0  0  0  0  0  0  0  0  0  0  0  0
   15.7787   -4.7238    0.0000 C   0  0  0  0  0  0  0  0  0  0  0  0
   15.0091    0.6209    0.0000 C   0  0  0  0  0  0  0  0  0  0  0  0
   15.0027    1.4449    0.0000 C   0  0  0  0  0  0  0  0  0  0  0  0
   13.5866    0.5975    0.0000 C   0  0  0  0  0  0  0  0  0  0  0  0
   14.3060    0.1978    0.0000 C   0  0  0  0  0  0  0  0  0  0  0  0
   13.5736    1.4268    0.0000 C   0  0  0  0  0  0  0  0  0  0  0  0
   14.2882    1.8476    0.0000 C   0  0  0  0  0  0  0  0  0  0  0  0
   14.2801    2.6749    0.0000 C   0  0  0  0  0  0  0  0  0  0  0  0
   13.5582    3.0825    0.0000 C   0  0  0  0  0  0  0  0  0  0  0  0
   12.8428    2.6567    0.0000 C   0  0  0  0  0  0  0  0  0  0  0  0
   12.8545    1.8307    0.0000 C   0  0  0  0  0  0  0  0  0  0  0  0
   15.0799   -5.9700    0.0000 C   0  0  0  0  0  0  0  0  0  0  0  0
   14.3608   -5.5618    0.0000 C   0  0  0  0  0  0  0  0  0  0  0  0
   13.6499   -5.9804    0.0000 C   0  0  0  0  0  0  0  0  0  0  0  0
   13.6568   -6.8070    0.0000 C   0  0  0  0  0  0  0  0  0  0  0  0
   14.3806   -7.2133    0.0000 C   0  0  0  0  0  0  0  0  0  0  0  0
   15.0886   -6.7924    0.0000 C   0  0  0  0  0  0  0  0  0  0  0  0
 22 23  1  0  0  0  0 
 10 11  1  0  0  0  0 
 23 24  1  0  0  0  0 
  5  2  2  0  0  0  0 
 24 25  1  0  0  0  0 
 11 12  2  0  0  0  0 
 25 26  1  0  0  0  0 
  1  6  2  0  0  0  0 
 26 27  1  0  0  0  0 
  9 13  1  1  0  0  0 
  2  3  1  0  0  0  0 
 28 29  2  0  0  0  0 
 29 43  1  0  0  0  0 
 13 14  1  0  0  0  0 
 42 30  1  0  0  0  0 
 30 31  2  0  0  0  0 
 31 28  1  0  0  0  0 
 19 28  1  0  0  0  0 
  8 15  1  6  0  0  0 
 11 32  1  0  0  0  0 
  3  4  2  0  0  0  0 
 32 33  2  0  0  0  0 
 33 37  1  0  0  0  0 
 14 16  2  0  0  0  0 
 36 34  1  0  0  0  0 
  4  1  1  0  0  0  0 
 34 35  2  0  0  0  0 
 35 32  1  0  0  0  0 
 14 17  1  0  0  0  0 
  5 10  1  0  0  0  0 
 36 37  1  0  0  0  0 
  7 18  1  1  0  0  0 
 37 38  2  0  0  0  0 
  6  7  1  0  0  0  0 
 38 39  1  0  0  0  0 
 18 19  1  0  0  0  0 
 39 40  2  0  0  0  0 
  7  8  1  0  0  0  0 
 40 41  1  0  0  0  0 
 41 36  2  0  0  0  0 
 19 20  2  0  0  0  0 
  8  9  1  0  0  0  0 
 42 43  1  0  0  0  0 
  4 21  1  0  0  0  0 
 43 44  2  0  0  0  0 
  9 10  1  0  0  0  0 
 44 45  1  0  0  0  0 
 21 22  1  0  0  0  0 
 45 46  2  0  0  0  0 
  5  6  1  0  0  0  0 
 46 47  1  0  0  0  0 
 47 42  2  0  0  0  0 
M  END