
  SciTegic08041117222D

 77 81  0  0  0  0            999 V2000
    9.9117  -21.8394    0.0000 C   0  0
    9.9062  -22.6643    0.0000 C   0  0
   10.6178  -23.0816    0.0000 C   0  0
   10.6123  -23.9066    0.0000 C   0  0
   11.3240  -24.3239    0.0000 C   0  0
   11.3167  -25.1469    0.0000 C   0  0
   12.0275  -25.5641    0.0000 C   0  0
   12.7457  -25.1564    0.0000 C   0  0
   12.7487  -24.3271    0.0000 C   0  0
   12.0372  -23.9136    0.0000 C   0  0
   13.4580  -25.5727    0.0000 N   0  0
   13.4535  -26.3977    0.0000 C   0  0
   14.1747  -25.1641    0.0000 C   0  0
    7.0365  -25.3720    0.0000 N   0  0
    7.0367  -24.5470    0.0000 C   0  0
    7.7513  -24.1347    0.0000 C   0  0
    6.3223  -24.1343    0.0000 O   0  0
    7.7515  -23.3097    0.0000 C   0  0
    8.4661  -22.8973    0.0000 C   0  0
    8.4663  -22.0723    0.0000 N   0  3
    9.1295  -21.5887    0.0000 C   0  0
    8.8730  -20.8063    0.0000 S   0  0
   -2.9639  -19.5916    0.0000 C   0  0
   -2.9651  -20.4190    0.0000 C   0  0
   -2.2503  -20.8319    0.0000 C   0  0
   -1.5338  -20.4185    0.0000 C   0  0
   -1.5367  -19.5880    0.0000 C   0  0
   -2.2521  -19.1789    0.0000 C   0  0
   -2.2505  -21.6569    0.0000 C   0  0
   -2.9650  -22.0692    0.0000 C   0  0
   -1.5361  -22.0695    0.0000 C   0  0
   -3.6760  -21.6534    0.0000 C   0  0
   -4.3901  -22.0651    0.0000 C   0  0
   -4.3907  -22.8910    0.0000 C   0  0
   -3.6713  -23.3035    0.0000 C   0  0
   -2.9602  -22.8895    0.0000 C   0  0
   -1.5363  -22.8945    0.0000 O   0  0
   -0.8215  -21.6572    0.0000 N   0  0
   -0.1072  -22.0699    0.0000 C   0  0  1  0  0  0
    0.6074  -21.6576    0.0000 C   0  0
   -0.1074  -22.8949    0.0000 C   0  0
    1.3218  -22.0702    0.0000 N   0  0
    0.6076  -20.8326    0.0000 O   0  0
    2.0363  -21.6579    0.0000 C   0  0
    2.7507  -22.0706    0.0000 C   0  0
    2.7470  -22.8927    0.0000 C   0  0
    3.4605  -23.3053    0.0000 C   0  0
    4.1761  -22.8930    0.0000 C   0  0
    4.1737  -22.0637    0.0000 C   0  0
    3.4595  -21.6548    0.0000 C   0  0
    0.6070  -23.3076    0.0000 C   0  0
    0.6068  -24.1326    0.0000 C   0  0
    1.3212  -24.5452    0.0000 N   0  0
    1.3210  -25.3702    0.0000 C   0  0
    2.0353  -25.7829    0.0000 N   0  0
    0.6064  -25.7826    0.0000 N   0  0
    4.8910  -23.3047    0.0000 O   0  0
    2.7499  -25.3706    0.0000 C   0  0
    2.7501  -24.5456    0.0000 O   0  0
    3.4643  -25.7833    0.0000 N   0  0
    4.1789  -25.3709    0.0000 C   0  0
    4.8932  -25.7836    0.0000 C   0  0
    5.6078  -25.3713    0.0000 C   0  0
    6.3222  -25.7840    0.0000 C   0  0
    7.7947  -21.5884    0.0000 C   0  0
    8.0513  -20.8059    0.0000 C   0  0
    7.5025  -20.1944    0.0000 C   0  0
    6.6969  -20.3642    0.0000 C   0  0
    6.4431  -21.1509    0.0000 C   0  0
    6.9936  -21.7590    0.0000 C   0  0
    4.1087  -19.8997    0.0000 C   0  0
    4.8232  -19.4872    0.0000 C   0  0
    5.5377  -19.8997    0.0000 O   0  5
    4.8232  -18.6621    0.0000 O   0  0
    3.3941  -19.4872    0.0000 F   0  0
    4.1087  -20.7248    0.0000 F   0  0
    3.3919  -20.3081    0.0000 F   0  0
  8  9  1  0
 34 35  1  0
 16 18  1  0
 35 36  2  0
 36 30  1  0
  4  5  1  0
 31 37  2  0
 18 19  1  0
 31 38  1  0
  9 10  2  0
 38 39  1  0
 19 20  1  0
 39 40  1  0
 20 21  2  0
 39 41  1  1
 10  5  1  0
 40 42  1  0
 21 22  1  0
 40 43  2  0
 65 20  1  0
 42 44  1  0
  2  3  1  0
 44 45  1  0
 66 22  1  0
 45 46  2  0
  8 11  1  0
 46 47  1  0
  5  6  2  0
 47 48  2  0
 23 24  2  0
 48 49  1  0
 11 12  1  0
 49 50  2  0
 50 45  1  0
 24 25  1  0
 41 51  1  0
  1  2  2  0
 51 52  1  0
 25 26  2  0
 52 53  1  0
 11 13  1  0
 53 54  1  0
 26 27  1  0
 54 55  2  0
  6  7  1  0
 54 56  1  0
 27 28  2  0
 48 57  1  0
 28 23  1  0
 55 58  1  0
  3  4  2  0
 58 59  2  0
 25 29  1  0
 58 60  1  0
 14 15  1  0
 60 61  1  0
 29 30  1  0
 61 62  1  0
  7  8  2  0
 62 63  1  0
 29 31  1  0
 63 64  1  0
 64 14  1  0
 21  1  1  0
 15 16  1  0
 30 32  2  0
 65 66  2  0
 66 67  1  0
 32 33  1  0
 67 68  2  0
 15 17  2  0
 68 69  1  0
 33 34  2  0
 69 70  2  0
 70 65  1  0
 71 75  1  0
 71 76  1  0
 71 72  1  0
 71 77  1  0
 72 74  2  0
 72 73  1  0
M  CHG  2  20   1  73  -1
M  END