
  SciTegic05071317012D

 32 36  0  0  0  0            999 V2000
   -0.6986   -1.8166    0.0000 C   0  0
   -0.6974   -2.6441    0.0000 C   0  0
    0.0206   -3.0569    0.0000 C   0  0
    0.0188   -1.4039    0.0000 C   0  0
    0.7342   -1.8130    0.0000 C   0  0
    0.7376   -2.6461    0.0000 C   0  0
    1.4568   -3.0574    0.0000 N   0  0
    2.1771   -2.6402    0.0000 C   0  0
    2.1737   -1.8071    0.0000 N   0  0
    1.4499   -1.3912    0.0000 C   0  0
   -1.4091   -1.4043    0.0000 O   0  0
   -1.4088   -0.5793    0.0000 C   0  0
   -1.4159   -3.0560    0.0000 O   0  0
   -2.1269   -2.6429    0.0000 C   0  0
    1.4454   -0.5663    0.0000 N   0  0
    2.8927   -3.0507    0.0000 N   0  0
    4.3191   -3.8801    0.0000 N   0  0
    4.3189   -3.0540    0.0000 C   0  0
    3.6028   -2.6390    0.0000 C   0  0
    3.6033   -4.2910    0.0000 C   0  0  2  0  0  0
    2.8893   -3.8788    0.0000 C   0  0  2  0  0  0
    2.1791   -4.2888    0.0000 C   0  0
    2.1769   -5.1127    0.0000 C   0  0
    2.8911   -5.5249    0.0000 C   0  0
    3.6074   -5.1132    0.0000 C   0  0
    5.0332   -4.2933    0.0000 C   0  0
    5.0323   -5.1183    0.0000 O   0  0
    5.7481   -3.8816    0.0000 C   0  0
    6.4984   -4.2188    0.0000 O   0  0
    7.0510   -3.6062    0.0000 C   0  0
    6.6392   -2.8913    0.0000 C   0  0
    5.8322   -3.0620    0.0000 C   0  0
  1  2  2  0
  2  3  1  0
  3  6  2  0
  5  4  2  0
  4  1  1  0
  5  6  1  0
  5 10  1  0
  6  7  1  0
  7  8  2  0
  8  9  1  0
  9 10  2  0
  1 11  1  0
 11 12  1  0
  2 13  1  0
 13 14  1  0
 10 15  1  0
  8 16  1  0
 16 21  1  0
 16 19  1  0
 20 17  1  0
 17 18  1  0
 18 19  1  0
 20 21  1  0
 20 25  1  1
 21 22  1  6
 22 23  1  0
 23 24  1  0
 24 25  1  0
 17 26  1  0
 26 27  2  0
 26 28  1  0
 28 29  1  0
 29 30  1  0
 30 31  2  0
 31 32  1  0
 32 28  2  0
M  END