
  SciTegic01161211252D

 37 42  0  0  0  0            999 V2000
   14.9049   -2.0325    0.0000 N   0  0
   16.3313   -2.0396    0.0000 C   0  0
   15.6200   -1.6222    0.0000 C   0  0
   13.5310   -0.3392    0.0000 C   0  0
   14.2318   -0.7752    0.0000 C   0  0
   14.2081   -1.6020    0.0000 C   0  0
   17.0663   -1.6837    0.0000 C   0  0
   17.7671   -2.1156    0.0000 N   0  0
   17.0857   -0.8569    0.0000 O   0  0
   17.7391   -2.9388    0.0000 C   0  0
   18.4357   -3.3744    0.0000 C   0  0
   19.1623   -2.9830    0.0000 N   0  0
   19.1920   -2.1552    0.0000 C   0  0
   18.4869   -1.7189    0.0000 C   0  0
   19.8584   -3.4208    0.0000 C   0  0
   14.9560   -0.3801    0.0000 C   0  0
   12.8067   -0.7343    0.0000 C   0  0
   12.1054   -0.2961    0.0000 C   0  0
   12.0633   -1.9500    0.0000 C   0  0
   12.7883   -1.5574    0.0000 C   0  0
   14.9007   -2.8597    0.0000 C   0  0
   16.3271   -2.8669    0.0000 C   0  0
   15.6090   -3.2780    0.0000 C   0  0
   15.6045   -4.0996    0.0000 C   0  0
   16.3164   -4.5161    0.0000 C   0  0
   17.0348   -4.1091    0.0000 C   0  0
   17.0409   -3.2813    0.0000 C   0  0
   11.3604   -1.5243    0.0000 C   0  0
   11.3808   -0.6924    0.0000 C   0  0
   10.5958   -0.4158    0.0000 O   0  0
   10.0902   -1.0769    0.0000 C   0  0
   10.5628   -1.7620    0.0000 O   0  0
   19.8236   -4.2407    0.0000 C   0  0
   20.5189   -4.6783    0.0000 C   0  0
   21.2472   -4.2943    0.0000 C   0  0
   21.2757   -3.4682    0.0000 C   0  0
   20.5796   -3.0342    0.0000 N   0  0
  5  6  1  0
 19 20  2  0
 20 17  1  0
  6  1  1  0
  8 14  1  0
 23 21  1  0
 10 11  1  0
 11 12  1  0
 22 23  1  0
 12 13  1  0
 13 14  1  0
 22  2  1  0
  2  7  1  0
  2  3  1  0
 22 27  1  0
 23 24  1  0
 24 25  1  0
 25 26  1  0
 26 27  1  0
  7  8  1  0
  1 21  1  0
  7  9  2  0
 28 29  2  0
 12 15  1  0
  8 10  1  0
  5 16  1  0
  4 17  1  0
 29 30  1  0
 30 31  1  0
 31 32  1  0
 32 28  1  0
  4  5  1  0
 15 33  2  0
 17 18  2  0
 33 34  1  0
 18 29  1  0
 34 35  2  0
  1  3  1  0
 35 36  1  0
 28 19  1  0
 36 37  2  0
 37 15  1  0
M  END