
  SciTegic10311316322D

 27 30  0  0  0  0            999 V2000
   32.9637  -19.9841    0.0000 O   0  0
   32.2484  -19.5749    0.0000 C   0  0
   31.5353  -20.8151    0.0000 S   0  0
   31.5366  -19.9861    0.0000 C   0  0
   30.7485  -19.7288    0.0000 C   0  0
   30.2603  -20.3987    0.0000 C   0  0
   30.7459  -21.0700    0.0000 C   0  0
   32.2465  -18.7499    0.0000 N   0  0
   32.9601  -18.3359    0.0000 C   0  0
   33.6724  -18.7498    0.0000 C   0  0
   34.3855  -18.3364    0.0000 C   0  0
   34.3841  -17.5105    0.0000 C   0  0
   33.6637  -17.0998    0.0000 C   0  0
   32.9535  -17.5155    0.0000 C   0  0
   32.2362  -17.1080    0.0000 C   0  0
   35.1007  -18.7477    0.0000 C   0  0
   35.1021  -19.5727    0.0000 O   0  0
   35.8145  -18.3340    0.0000 N   0  0
   36.5296  -18.7452    0.0000 C   0  0
   36.9402  -19.4555    0.0000 C   0  0
   37.3515  -18.7403    0.0000 C   0  0
   30.4926  -21.8504    0.0000 C   0  0
   29.6840  -22.0193    0.0000 C   0  0
   29.4274  -22.8026    0.0000 C   0  0
   29.9785  -23.4178    0.0000 C   0  0
   30.7894  -23.2443    0.0000 N   0  0
   31.0422  -22.4612    0.0000 C   0  0
  1  2  2  0
  2  4  1  0
  3  4  1  0
  4  5  2  0
  5  6  1  0
  6  7  2  0
  7  3  1  0
  2  8  1  0
  8  9  1  0
  9 10  2  0
 10 11  1  0
 11 12  2  0
 12 13  1  0
 13 14  2  0
 14  9  1  0
 14 15  1  0
 11 16  1  0
 16 17  2  0
 16 18  1  0
 18 19  1  0
 20 19  1  0
 21 20  1  0
 19 21  1  0
 22 23  2  0
 23 24  1  0
 24 25  2  0
 25 26  1  0
 26 27  2  0
 27 22  1  0
  7 22  1  0
M  END