
  SciTegic05221516342D

 17 18  0  0  0  0            999 V2000
   20.6100   -7.2391    0.0000 C   0  0
   20.6088   -8.0587    0.0000 C   0  0
   21.3169   -8.4676    0.0000 C   0  0
   21.3151   -6.8303    0.0000 C   0  0
   19.9008   -8.4667    0.0000 O   0  0
   19.1934   -8.0575    0.0000 C   0  0
   22.0237   -7.2355    0.0000 C   0  0
   22.0285   -8.0541    0.0000 C   0  0
   22.8085   -8.3026    0.0000 S   0  0
   23.2859   -7.6375    0.0000 C   0  0
   22.8008   -6.9781    0.0000 N   0  0
   24.1031   -7.6326    0.0000 N   0  0
   24.5075   -6.9225    0.0000 C   0  0
   25.3247   -6.9177    0.0000 C   0  0
   24.0947   -6.2172    0.0000 O   0  0
   25.7374   -7.6230    0.0000 C   0  0
   25.7291   -6.2076    0.0000 C   0  0
  1  2  2  0
  2  3  1  0
  3  8  2  0
  7  4  2  0
  4  1  1  0
  2  5  1  0
  5  6  1  0
  7  8  1  0
  8  9  1  0
  9 10  1  0
 10 11  2  0
 11  7  1  0
 10 12  1  0
 12 13  1  0
 13 14  1  0
 13 15  2  0
 14 16  1  0
 14 17  1  0
M  END