
  SciTegic11201309402D

 41 46  0  0  1  0            999 V2000
   10.6713  -21.8535    0.0000 C   0  0
    9.2418  -21.8280    0.0000 N   0  0
    9.9646  -21.4277    0.0000 C   0  0  1  0  0  0
    9.9786  -20.6052    0.0000 C   0  0
    9.2719  -20.1794    0.0000 C   0  0
    8.5512  -20.5761    0.0000 C   0  0
    7.8445  -20.1504    0.0000 C   0  0
    7.8585  -19.3278    0.0000 C   0  0
    7.1517  -18.9020    0.0000 O   0  0
    8.5813  -18.9275    0.0000 C   0  0
    9.2880  -19.3532    0.0000 C   0  0
   10.0103  -18.9544    0.0000 C   0  0
    8.5348  -21.4029    0.0000 C   0  0
   11.3934  -21.4544    0.0000 N   0  0
   10.6559  -22.6784    0.0000 O   0  0
   12.0972  -21.8816    0.0000 C   0  0  1  0  0  0
   12.8171  -21.4860    0.0000 C   0  0
   11.4041  -20.6300    0.0000 C   0  0
   12.1303  -20.2328    0.0000 C   0  0
   12.8342  -20.6601    0.0000 C   0  0
   13.5542  -20.2641    0.0000 C   0  0
   13.5713  -19.4410    0.0000 C   0  0
   12.8625  -19.0155    0.0000 C   0  0
   12.1455  -19.4139    0.0000 C   0  0
   12.0794  -22.7066    0.0000 C   0  0
   11.3561  -23.1037    0.0000 O   0  0
   12.7848  -23.1345    0.0000 N   0  0
   13.5081  -22.7374    0.0000 C   0  0
   14.2136  -23.1653    0.0000 C   0  0
   14.2825  -23.9829    0.0000 N   0  0
   14.9747  -22.8415    0.0000 N   0  0
   15.5136  -23.4664    0.0000 C   0  0
   15.0830  -24.1693    0.0000 C   0  0
   15.4766  -24.8916    0.0000 C   0  0
   16.3004  -24.9121    0.0000 C   0  0
   16.7293  -24.2043    0.0000 C   0  0
   16.3333  -23.4849    0.0000 C   0  0
   15.1616  -22.0380    0.0000 C   0  0
   15.9511  -21.7979    0.0000 C   0  0
   16.7507  -21.9838    0.0000 C   0  0
   16.5107  -21.1943    0.0000 C   0  0
 19 20  2  0
  8 10  1  0
 20 21  1  0
 10 11  2  0
 21 22  2  0
  5 11  1  0
 22 23  1  0
 23 24  2  0
 24 19  1  0
 11 12  1  0
 16 25  1  1
  6 13  1  0
 25 26  2  0
  3  2  1  1
 25 27  1  0
  1  3  1  0
 27 28  1  0
  1 14  1  0
 28 29  1  0
 29 30  2  0
  3  4  1  0
  1 15  2  0
 30 33  1  0
 32 31  1  0
 31 29  1  0
 16 14  1  0
  4  5  1  0
 32 33  2  0
  5  6  2  0
 33 34  1  0
  6  7  1  0
 34 35  2  0
 14 18  1  0
 35 36  1  0
 16 17  1  0
 36 37  2  0
 37 32  1  0
 17 20  1  0
 31 38  1  0
 19 18  1  0
 38 39  1  0
 40 39  1  0
 41 40  1  0
 39 41  1  0
  7  8  2  0
  8  9  1  0
M  END