
          11280715102D 1   1.00000     0.00000     0

 27 29  0     0  0            999 V2000
    0.3500   -0.7292    0.0000 C   0  0  0  0  0  0           0  0  0
   -0.4083   -1.0625    0.0000 N   0  0  3  0  0  0           0  0  0
   -0.9583   -0.4417    0.0000 N   0  0  0  0  0  0           0  0  0
    0.2625    0.0958    0.0000 C   0  0  0  0  0  0           0  0  0
   -0.5458    0.2708    0.0000 C   0  0  0  0  0  0           0  0  0
    1.0667   -1.1417    0.0000 N   0  0  0  0  0  0           0  0  0
    1.7792   -0.7292    0.0000 C   0  0  0  0  0  0           0  0  0
   -0.8833    1.0208    0.0000 C   0  0  3  0  0  0           0  0  0
   -0.6375   -1.8500    0.0000 C   0  0  0  0  0  0           0  0  0
    1.7792    0.0958    0.0000 O   0  0  0  0  0  0           0  0  0
    2.4917   -1.1417    0.0000 N   0  0  0  0  0  0           0  0  0
    3.2125   -0.7292    0.0000 C   0  0  0  0  0  0           0  0  0
    4.6417   -0.7375    0.0000 C   0  0  0  0  0  0           0  0  0
   -1.2958    1.7375    0.0000 C   0  0  0  0  0  0           0  0  0
   -0.3958    1.6875    0.0000 C   0  0  0  0  0  0           0  0  0
   -1.7000    1.1083    0.0000 C   0  0  0  0  0  0           0  0  0
   -1.4375   -2.0375    0.0000 C   0  0  0  0  0  0           0  0  0
   -0.0708   -2.4417    0.0000 C   0  0  0  0  0  0           0  0  0
    3.9250   -1.1417    0.0000 C   0  0  0  0  0  0           0  0  0
    5.3417   -1.1542    0.0000 C   0  0  0  0  0  0           0  0  0
    4.6375    0.0833    0.0000 C   0  0  0  0  0  0           0  0  0
   -1.6750   -2.8292    0.0000 C   0  0  0  0  0  0           0  0  0
   -0.3000   -3.2292    0.0000 C   0  0  0  0  0  0           0  0  0
    5.3542    0.4958    0.0000 C   0  0  0  0  0  0           0  0  0
    6.0625   -0.7500    0.0000 C   0  0  0  0  0  0           0  0  0
   -1.1083   -3.4292    0.0000 C   0  0  0  0  0  0           0  0  0
    6.0667    0.0750    0.0000 C   0  0  0  0  0  0           0  0  0
  2  1  1  0     0  0
  3  2  1  0     0  0
  4  1  2  0     0  0
  5  4  1  0     0  0
  6  1  1  0     0  0
  7  6  1  0     0  0
  8  5  1  0     0  0
  9  2  1  0     0  0
 10  7  2  0     0  0
 11  7  1  0     0  0
 12 11  1  0     0  0
 13 19  1  0     0  0
 14  8  1  0     0  0
 15  8  1  0     0  0
 16  8  1  0     0  0
 17  9  2  0     0  0
 18  9  1  0     0  0
 19 12  1  0     0  0
 20 13  2  0     0  0
 21 13  1  0     0  0
 22 17  1  0     0  0
 23 18  2  0     0  0
 24 21  2  0     0  0
 25 20  1  0     0  0
 26 23  1  0     0  0
 27 24  1  0     0  0
  3  5  2  0     0  0
 26 22  2  0     0  0
 27 25  2  0     0  0
M  END