
  SciTegic01061414252D

 26 27  0  0  0  0            999 V2000
   11.5364  -24.4177    0.0000 S   0  0
   11.1233  -25.1318    0.0000 O   0  0
   11.9483  -25.1324    0.0000 O   0  0
   12.2524  -23.1784    0.0000 C   0  0
   12.2512  -24.0058    0.0000 C   0  0
   12.9660  -24.4186    0.0000 C   0  0
   13.6824  -24.0053    0.0000 C   0  0
   13.6796  -23.1747    0.0000 C   0  0
   12.9642  -22.7657    0.0000 C   0  0
   14.3925  -22.7596    0.0000 C   0  0
   15.1084  -23.1694    0.0000 C   0  0
   14.3894  -21.9346    0.0000 O   0  0
   15.8214  -22.7542    0.0000 S   0  0
   16.5373  -23.1640    0.0000 C   0  0
   16.5373  -23.9878    0.0000 N   0  0
   17.2525  -24.3976    0.0000 C   0  0
   17.9663  -23.9824    0.0000 C   0  0
   17.9606  -23.1531    0.0000 C   0  0
   17.2448  -22.7471    0.0000 N   0  0
   10.8223  -24.0047    0.0000 N   0  0
   12.9658  -25.2436    0.0000 Cl  0  0
   18.6720  -22.7355    0.0000 O   0  0
   17.2552  -25.2226    0.0000 C   0  0
   17.9710  -25.6328    0.0000 C   0  0
   16.5420  -25.6374    0.0000 C   0  0
   17.2552  -26.0476    0.0000 C   0  0
  2  1  2  0
  1  3  2  0
  4  5  2  0
  5  6  1  0
  6  7  2  0
  7  8  1  0
  8  9  2  0
  9  4  1  0
  8 10  1  0
 10 11  1  0
 10 12  2  0
 11 13  1  0
 13 14  1  0
 14 15  2  0
 15 16  1  0
 16 17  2  0
 17 18  1  0
 18 19  1  0
 19 14  1  0
  5  1  1  0
  1 20  1  0
  6 21  1  0
 18 22  2  0
 16 23  1  0
 23 24  1  0
 23 25  1  0
 23 26  1  0
M  END