
  SciTegic02271515072D

 29 32  0  0  0  0            999 V2000
    4.8976  -14.9942    0.0000 C   0  0
    4.8965  -15.8137    0.0000 C   0  0
    5.6045  -16.2227    0.0000 N   0  0
    5.6027  -14.5853    0.0000 N   0  0
    4.1938  -14.5815    0.0000 C   0  0
    4.2026  -13.7647    0.0000 C   0  0
    3.4996  -13.3521    0.0000 C   0  0
    2.7894  -13.7554    0.0000 C   0  0
    2.7865  -14.5754    0.0000 C   0  0
    3.4901  -14.9843    0.0000 C   0  0
    2.0839  -13.3430    0.0000 O   0  0
    2.0775  -14.9818    0.0000 O   0  0
    1.3711  -14.5709    0.0000 C   0  0
    1.3740  -13.7478    0.0000 C   0  0
    6.3091  -14.9901    0.0000 C   0  0
    6.3116  -15.8138    0.0000 C   0  0
    7.0250  -16.2217    0.0000 N   0  0
    7.7365  -15.8070    0.0000 C   0  0
    7.7300  -14.9802    0.0000 N   0  0
    7.0160  -14.5760    0.0000 C   0  0
    7.0099  -13.7588    0.0000 N   0  0
    7.7146  -13.3450    0.0000 C   0  0
    7.7085  -12.5278    0.0000 C   0  0
    8.4253  -13.7484    0.0000 O   0  0
    8.4151  -12.1190    0.0000 C   0  0
    8.4110  -11.3054    0.0000 C   0  0
    7.7021  -10.8982    0.0000 C   0  0
    6.9956  -11.3108    0.0000 C   0  0
    6.9980  -12.1306    0.0000 C   0  0
  1  2  2  0
  2  3  1  0
  3 16  2  0
 15  4  2  0
  4  1  1  0
  1  5  1  0
  5  6  2  0
  6  7  1  0
  7  8  2  0
  8  9  1  0
  9 10  2  0
 10  5  1  0
  8 11  1  0
  9 12  1  0
 12 13  1  0
 11 14  1  0
 15 16  1  0
 16 17  1  0
 17 18  2  0
 18 19  1  0
 19 20  2  0
 20 15  1  0
 20 21  1  0
 21 22  1  0
 22 23  1  0
 22 24  2  0
 23 25  1  0
 23 29  1  0
 25 26  1  0
 26 27  1  0
 27 28  1  0
 28 29  1  0
M  END