
  SciTegic12211612462D

 29 33  0  0  0  0            999 V2000
   -1.2692   -3.3784    0.0000 C   0  0  2  0  0  0
    7.3011   -6.7295    0.0000 C   0  0
    7.9443   -5.3744    0.0000 C   0  0
    7.0924   -4.1398    0.0000 C   0  0
    5.5972   -4.2603    0.0000 C   0  0
    4.9539   -5.6155    0.0000 C   0  0
    5.8060   -6.8500    0.0000 C   0  0
    5.2915   -7.9341    0.0000 O   0  0
    3.4577   -5.7330    0.0000 C   0  0
    2.6070   -4.4966    0.0000 C   0  0
    2.9413   -6.8162    0.0000 O   0  0
    1.1108   -4.6142    0.0000 C   0  0
    0.2613   -3.3784    0.0000 N   0  0
    0.8213   -2.0718    0.0000 C   0  0  1  0  0  0
   -1.3252    0.3173    0.0000 C   0  0
    0.0000    0.6906    0.0000 C   0  0
    0.8213    0.1680    0.0000 C   0  0
    1.7359    0.6906    0.0000 N   0  0
    1.7359    1.7545    0.0000 C   0  0
    0.8213    2.2772    0.0000 N   0  0
    0.0000    1.7545    0.0000 C   0  0
   -1.2997    2.5152    0.0000 N   0  0
   -1.2912    4.0160    0.0000 C   0  0
   -2.0322    5.2292    0.0000 C   0  0
   -0.5322    5.2180    0.0000 C   0  0
   -0.5226   -1.1572    0.0000 C   0  0
   -1.7545   -2.0718    0.0000 C   0  0
    0.3536   -1.1879    0.0000 H   0  0
   -2.0282   -4.0295    0.0000 H   0  0
  2  3  2  0
  3  4  1  0
  4  5  2  0
  5  6  1  0
  6  7  2  0
  7  2  1  0
  7  8  1  0
  6  9  1  0
  9 10  1  0
  9 11  2  0
 10 12  2  0
 12 13  1  0
  1 13  1  0
  1 15  1  0
 13 14  1  0
 14 17  1  0
 15 16  1  0
 16 17  2  0
 17 18  1  0
 18 19  2  0
 19 20  1  0
 20 21  2  0
 21 16  1  0
 21 22  1  0
 22 23  1  0
 24 23  1  0
 25 24  1  0
 23 25  1  0
 14 26  1  0
  1 27  1  0
 27 26  1  0
 14 28  1  1
  1 29  1  6
M  END