
  SciTegic05161214222D

 59 62  0  0  0  0            999 V2000
   15.2127  -20.5421    0.0000 C   0  0
   15.9275  -20.1301    0.0000 C   0  0
   10.9333  -19.7250    0.0000 C   0  0
   10.9333  -20.5500    0.0000 C   0  0
   11.6454  -20.9583    0.0000 O   0  0
   12.3574  -20.5500    0.0000 C   0  0
   12.3574  -19.7250    0.0000 C   0  0
   11.6454  -19.3083    0.0000 C   0  0
   10.2156  -19.3198    0.0000 S   0  0
    9.8073  -20.0367    0.0000 O   0  0
   10.6323  -20.0318    0.0000 O   0  0
    7.3486  -14.3833    0.0000 C   0  0
    7.3474  -15.2107    0.0000 C   0  0
    8.0622  -15.6235    0.0000 C   0  0
    8.0604  -13.9705    0.0000 C   0  0
    8.7758  -14.3797    0.0000 C   0  0
    8.7766  -15.2065    0.0000 C   0  0
    9.4919  -15.6175    0.0000 N   0  0
   10.2069  -15.2027    0.0000 C   0  0
   10.2021  -14.3727    0.0000 C   0  0
    9.4862  -13.9655    0.0000 C   0  0
   10.9230  -15.6124    0.0000 C   0  0
    9.4819  -13.1405    0.0000 C   0  0
    8.0641  -16.4485    0.0000 O   0  0
    8.7796  -16.8594    0.0000 C   0  0
    8.7815  -17.6844    0.0000 C   0  0
    8.0654  -18.0942    0.0000 C   0  0
    8.0669  -18.9184    0.0000 C   0  0
    8.7829  -19.3301    0.0000 C   0  0
    9.4988  -18.9115    0.0000 C   0  0
    9.4937  -18.0886    0.0000 C   0  0
    7.3513  -17.6810    0.0000 Cl  0  0
   10.2054  -17.6713    0.0000 Cl  0  0
   10.9277  -18.9031    0.0000 N   0  0
   12.3566  -18.8948    0.0000 C   0  0
   13.0723  -19.3051    0.0000 N   0  0
   12.3541  -18.0698    0.0000 O   0  0
   13.0713  -20.1300    0.0000 C   0  0
   13.7829  -20.5403    0.0000 C   0  0
   14.4985  -20.1291    0.0000 N   0  0
   14.4980  -19.3031    0.0000 C   0  0
   13.7818  -18.8883    0.0000 C   0  0
   15.2121  -21.3671    0.0000 O   0  0
   16.6416  -20.5431    0.0000 C   0  0
   17.3564  -20.1311    0.0000 C   0  0
   18.0706  -20.5441    0.0000 C   0  0
   18.7853  -20.1321    0.0000 C   0  0
   19.4995  -20.5451    0.0000 C   0  0
   20.2143  -20.1331    0.0000 N   0  3
   20.9285  -20.5460    0.0000 C   0  0
   20.2149  -19.3081    0.0000 C   0  0
   20.4273  -20.9301    0.0000 C   0  0
   17.6284  -17.8676    0.0000 F   0  0
   18.3428  -17.4551    0.0000 C   0  0
   19.0573  -17.8676    0.0000 F   0  0
   18.3367  -18.2759    0.0000 F   0  0
   18.3459  -16.6301    0.0000 C   0  0
   19.0619  -16.2203    0.0000 O   0  5
   17.6330  -16.2149    0.0000 O   0  0
 14 17  2  0
 26 27  2  0
  6  7  1  0
 27 28  1  0
 16 15  2  0
 28 29  2  0
 15 12  1  0
 29 30  1  0
  7  8  1  0
 30 31  2  0
 31 26  1  0
 10  9  2  0
 27 32  1  0
 16 17  1  0
 31 33  1  0
 30  9  1  0
  9 11  2  0
  9 34  1  0
 34  8  1  0
 17 18  1  0
  8 35  1  0
 35 36  1  0
 18 19  2  0
 35 37  2  0
 36 38  1  0
  1  2  1  0
 19 20  1  0
  3  4  1  0
 20 21  2  0
 21 16  1  0
 36 42  1  0
 38 39  1  0
 39 40  1  0
 40 41  1  0
 41 42  1  0
 40  1  1  0
  3  8  1  0
  1 43  2  0
 19 22  1  0
  2 44  1  0
  4  5  1  0
 44 45  1  0
 21 23  1  0
 45 46  1  0
 12 13  2  0
 46 47  1  0
 14 24  1  0
 47 48  1  0
  5  6  1  0
 48 49  1  0
 24 25  1  0
 49 50  1  0
 13 14  1  0
 49 51  1  0
 25 26  1  0
 49 52  1  0
 53 54  1  0
 54 56  1  0
 54 57  1  0
 54 55  1  0
 57 58  1  0
 57 59  2  0
M  CHG  2  49   1  58  -1
M  END