
  Mrv0541 05211314572D          

 34 37  0  0  0  0            999 V2000
    1.6843    0.1954    0.0000 C   0  0  0  0  0  0  0  0  0  0  0  0
    1.6843   -0.6296    0.0000 C   0  0  0  0  0  0  0  0  0  0  0  0
    0.9698   -1.0421    0.0000 C   0  0  0  0  0  0  0  0  0  0  0  0
    0.9698    0.6079    0.0000 C   0  0  0  0  0  0  0  0  0  0  0  0
   -0.5293    0.4504    0.0000 N   0  0  0  0  0  0  0  0  0  0  0  0
    0.2553    0.1954    0.0000 C   0  0  0  0  0  0  0  0  0  0  0  0
    0.2553   -0.6296    0.0000 C   0  0  0  0  0  0  0  0  0  0  0  0
   -0.5293   -0.8845    0.0000 N   0  0  0  0  0  0  0  0  0  0  0  0
   -1.0142   -0.2171    0.0000 C   0  0  0  0  0  0  0  0  0  0  0  0
   -1.8392   -0.2171    0.0000 N   0  0  0  0  0  0  0  0  0  0  0  0
   -2.2517    0.4974    0.0000 C   0  0  0  0  0  0  0  0  0  0  0  0
   -3.0767    0.4974    0.0000 C   0  0  0  0  0  0  0  0  0  0  0  0
   -3.4892    1.2119    0.0000 C   0  0  0  0  0  0  0  0  0  0  0  0
   -3.0767    1.9263    0.0000 C   0  0  0  0  0  0  0  0  0  0  0  0
   -2.2517    1.9263    0.0000 C   0  0  0  0  0  0  0  0  0  0  0  0
   -1.8392    1.2119    0.0000 C   0  0  0  0  0  0  0  0  0  0  0  0
   -0.7842   -1.6691    0.0000 C   0  0  0  0  0  0  0  0  0  0  0  0
   -0.2322   -2.2822    0.0000 C   0  0  0  0  0  0  0  0  0  0  0  0
   -0.4871   -3.0668    0.0000 C   0  0  0  0  0  0  0  0  0  0  0  0
    0.0649   -3.6799    0.0000 C   0  0  0  0  0  0  0  0  0  0  0  0
    0.8719   -3.5084    0.0000 C   0  0  0  0  0  0  0  0  0  0  0  0
    1.1268   -2.7238    0.0000 C   0  0  0  0  0  0  0  0  0  0  0  0
    0.5748   -2.1107    0.0000 C   0  0  0  0  0  0  0  0  0  0  0  0
   -1.2941   -3.2384    0.0000 C   0  0  0  0  0  0  0  0  0  0  0  0
   -2.1011   -3.4099    0.0000 F   0  0  0  0  0  0  0  0  0  0  0  0
   -1.1226   -4.0453    0.0000 F   0  0  0  0  0  0  0  0  0  0  0  0
   -1.4656   -2.4314    0.0000 F   0  0  0  0  0  0  0  0  0  0  0  0
    2.3987    0.6079    0.0000 C   0  0  0  0  0  0  0  0  0  0  0  0
    3.1132    0.1954    0.0000 O   0  0  0  0  0  0  0  0  0  0  0  0
    2.3987    1.4329    0.0000 N   0  0  0  0  0  0  0  0  0  0  0  0
   -3.4892    2.6408    0.0000 S   0  0  0  0  0  0  0  0  0  0  0  0
   -3.9017    3.3553    0.0000 O   0  0  0  0  0  0  0  0  0  0  0  0
   -2.7747    3.0533    0.0000 O   0  0  0  0  0  0  0  0  0  0  0  0
   -4.2037    2.2283    0.0000 C   0  0  0  0  0  0  0  0  0  0  0  0
 16 11  1  0  0  0  0
  5  6  1  0  0  0  0
  8 17  1  0  0  0  0
  7  8  1  0  0  0  0
 17 18  1  0  0  0  0
  8  9  1  0  0  0  0
 18 19  2  0  0  0  0
  9  5  2  0  0  0  0
 19 20  1  0  0  0  0
  4  1  1  0  0  0  0
 20 21  2  0  0  0  0
  9 10  1  0  0  0  0
 21 22  1  0  0  0  0
  6  7  1  0  0  0  0
 22 23  2  0  0  0  0
 23 18  1  0  0  0  0
 10 11  1  0  0  0  0
 19 24  1  0  0  0  0
 24 25  1  0  0  0  0
 11 12  2  0  0  0  0
 24 26  1  0  0  0  0
  2  3  1  0  0  0  0
 24 27  1  0  0  0  0
 12 13  1  0  0  0  0
  1 28  1  0  0  0  0
  3  7  2  0  0  0  0
 28 29  2  0  0  0  0
 13 14  2  0  0  0  0
 28 30  1  0  0  0  0
  1  2  2  0  0  0  0
 14 31  1  0  0  0  0
 14 15  1  0  0  0  0
 31 32  2  0  0  0  0
  6  4  2  0  0  0  0
 31 33  2  0  0  0  0
 15 16  2  0  0  0  0
 31 34  1  0  0  0  0
M  END