
          11280715492D 1   1.00000     0.00000     0

 46 50  0     1  0            999 V2000
   -2.2681   -0.7958    0.0000 C   0  0  0  0  0  0           0  0  0
   -2.2693   -1.6232    0.0000 C   0  0  0  0  0  0           0  0  0
   -1.5545   -2.0360    0.0000 C   0  0  0  0  0  0           0  0  0
   -0.8380   -1.6227    0.0000 C   0  0  0  0  0  0           0  0  0
   -0.8409   -0.7922    0.0000 C   0  0  0  0  0  0           0  0  0
   -1.5563   -0.3830    0.0000 C   0  0  0  0  0  0           0  0  0
   -2.9841   -2.0351    0.0000 O   0  0  0  0  0  0           0  0  0
   -0.1280   -0.3770    0.0000 C   0  0  0  0  0  0           0  0  0
    0.5880   -0.7868    0.0000 C   0  0  1  0  0  0           0  0  0
    1.3010   -0.3716    0.0000 C   0  0  0  0  0  0           0  0  0
    1.2978    0.4534    0.0000 O   0  0  0  0  0  0           0  0  0
   -1.5587    0.4420    0.0000 C   0  0  0  0  0  0           0  0  0
   -0.1229   -2.0341    0.0000 C   0  0  0  0  0  0           0  0  0
    2.0170   -0.7814    0.0000 N   0  0  3  0  0  0           0  0  0
    2.0177   -1.6095    0.0000 C   0  0  0  0  0  0           0  0  0
    2.7274   -0.3673    0.0000 C   0  0  3  0  0  0           0  0  0
    3.4439   -0.7816    0.0000 C   0  0  0  0  0  0           0  0  0
    0.5888   -1.6111    0.0000 N   0  0  0  0  0  0           0  0  0
    3.4432   -1.6065    0.0000 C   0  0  0  0  0  0           0  0  0
    2.7283   -2.0164    0.0000 C   0  0  0  0  0  0           0  0  0
    2.7268   -2.8387    0.0000 C   0  0  0  0  0  0           0  0  0
    3.4395   -3.2519    0.0000 C   0  0  0  0  0  0           0  0  0
    4.1552   -2.8370    0.0000 C   0  0  0  0  0  0           0  0  0
    4.1532   -2.0161    0.0000 C   0  0  0  0  0  0           0  0  0
    2.7259    0.4577    0.0000 C   0  0  0  0  0  0           0  0  0
    3.4397    0.8715    0.0000 N   0  0  0  0  0  0           0  0  0
    2.0107    0.8690    0.0000 O   0  0  0  0  0  0           0  0  0
    4.1549    0.4602    0.0000 C   0  0  0  0  0  0           0  0  0
    4.8686    0.8740    0.0000 C   0  0  0  0  0  0           0  0  0
    5.5838    0.4627    0.0000 C   0  0  0  0  0  0           0  0  0
    5.5853   -0.3623    0.0000 C   0  0  0  0  0  0           0  0  0
    6.3005   -0.7735    0.0000 C   0  0  0  0  0  0           0  0  0
    6.3019   -1.5985    0.0000 C   0  0  0  0  0  0           0  0  0
    7.0171   -2.0097    0.0000 N   0  0  0  0  0  0           0  0  0
    7.0186   -2.8347    0.0000 C   0  0  0  0  0  0           0  0  0
    6.3048   -3.2485    0.0000 O   0  0  0  0  0  0           0  0  0
    7.7338   -3.2459    0.0000 C   0  0  3  0  0  0           0  0  0
    7.7328   -4.0718    0.0000 N   0  0  0  0  0  0           0  0  0
    8.4439   -4.4829    0.0000 C   0  0  0  0  0  0           0  0  0
    8.4449   -2.8310    0.0000 C   0  0  0  0  0  0           0  0  0
    9.1606   -3.2467    0.0000 C   0  0  0  0  0  0           0  0  0
    9.1599   -4.0690    0.0000 C   0  0  0  0  0  0           0  0  0
    9.8706   -4.4789    0.0000 C   0  0  0  0  0  0           0  0  0
   10.5825   -4.0677    0.0000 C   0  0  0  0  0  0           0  0  0
   10.5791   -3.2422    0.0000 C   0  0  0  0  0  0           0  0  0
    9.8678   -2.8360    0.0000 C   0  0  0  0  0  0           0  0  0
 26 28  1  0     0  0
  1  2  2  0     0  0
 28 29  1  0     0  0
 10 14  1  0     0  0
 29 30  1  0     0  0
 14 15  1  0     0  0
 30 31  1  0     0  0
  2  7  1  0     0  0
 31 32  1  0     0  0
  3  4  2  0     0  0
 32 33  1  0     0  0
 14 16  1  0     0  0
 33 34  1  0     0  0
 15 20  1  0     0  0
 34 35  1  0     0  0
 17 16  1  0     0  0
 35 36  2  0     0  0
  5  8  1  0     0  0
 17 19  1  0     0  0
  9  8  1  1     0  0
  4  5  1  0     0  0
 19 20  2  0     0  0
  9 10  1  0     0  0
 20 21  1  0     0  0
  9 18  1  0     0  0
 21 22  2  0     0  0
  2  3  1  0     0  0
 22 23  1  0     0  0
 10 11  2  0     0  0
 35 37  1  0     0  0
 37 38  1  0     0  0
 23 24  2  0     0  0
 24 19  1  0     0  0
  5  6  2  0     0  0
 37 40  1  0     0  0
 38 39  1  0     0  0
 39 42  1  0     0  0
 41 40  1  0     0  0
 16 25  1  0     0  0
  6 12  1  0     0  0
 41 42  2  0     0  0
 25 26  1  0     0  0
 42 43  1  0     0  0
  6  1  1  0     0  0
 43 44  2  0     0  0
 25 27  2  0     0  0
 44 45  1  0     0  0
  4 13  1  0     0  0
 45 46  2  0     0  0
 46 41  1  0     0  0
M  END