
  SciTegic04301217482D

108110  0  0  0  0            999 V2000
   -4.9425   -9.1350    0.0000 S   0  0
   -5.7674   -9.1222    0.0000 O   0  0
   -5.3661   -9.8430    0.0000 O   0  0
   -4.2821  -12.8603    0.0000 S   0  0
   -3.8796  -13.5804    0.0000 O   0  0
   -3.4572  -12.8718    0.0000 O   0  0
   -0.6763   -7.5536    0.0000 S   0  0
   -0.6751   -6.7286    0.0000 O   0  0
   -1.3902   -7.1401    0.0000 O   0  0
   17.7980   -9.1172    0.0000 N   0  0
   17.8948   -8.2954    0.0000 C   0  0
   17.1449   -7.9536    0.0000 N   0  0
   16.9885   -9.2772    0.0000 C   0  0  2  0  0  0
   16.5847   -8.5577    0.0000 C   0  0  1  0  0  0
   15.7757   -8.7194    0.0000 C   0  0  1  0  0  0
   15.6795   -9.5389    0.0000 S   0  0
   16.4290   -9.8834    0.0000 C   0  0
   18.6136   -7.8904    0.0000 O   0  0
   16.1825   -7.8326    0.0000 H   0  0
   17.3903   -9.9929    0.0000 H   0  0
   15.0658   -8.3000    0.0000 C   0  0
   15.0736   -7.4750    0.0000 C   0  0
   14.3630   -7.0559    0.0000 C   0  0
   14.3708   -6.2309    0.0000 C   0  0
   13.6603   -5.8117    0.0000 C   0  0
   13.6680   -4.9867    0.0000 N   0  0
   12.9420   -6.2174    0.0000 O   0  0
   12.9574   -4.5675    0.0000 C   0  0
   12.2530   -4.9859    0.0000 C   0  0
   12.2561   -5.8108    0.0000 O   0  0
   11.5432   -6.2261    0.0000 C   0  0
   11.5465   -7.0511    0.0000 C   0  0
   10.8336   -7.4663    0.0000 O   0  0
   10.8368   -8.2914    0.0000 C   0  0
   10.1239   -8.7066    0.0000 C   0  0
   10.1271   -9.5316    0.0000 O   0  0
    9.4142   -9.9469    0.0000 C   0  0
    8.6929   -9.5528    0.0000 C   0  0
    8.6788   -8.7280    0.0000 O   0  0
    7.9573   -8.3278    0.0000 C   0  0
    7.9432   -7.5029    0.0000 C   0  0
    7.2217   -7.1029    0.0000 C   0  0
    7.2075   -6.2779    0.0000 N   0  0
    6.5144   -7.5275    0.0000 O   0  0
    6.4861   -5.8777    0.0000 C   0  0
    6.4718   -5.0529    0.0000 C   0  0
    5.7504   -4.6527    0.0000 O   0  0
   -2.8561  -12.8825    0.0000 O   0  0
   -1.3859  -10.4302    0.0000 O   0  0
   -2.1081  -10.8315    0.0000 C   0  0  1  0  0  0
   -2.1210  -11.6564    0.0000 C   0  0  2  0  0  0
   -1.4117  -12.0800    0.0000 N   0  0
   -2.8432  -12.0576    0.0000 C   0  0  2  0  0  0
   -3.5525  -11.6340    0.0000 C   0  0  1  0  0  0
   -4.2706  -12.0353    0.0000 O   0  0
   -3.5397  -10.8091    0.0000 C   0  0  2  0  0  0
   -2.8174  -10.4078    0.0000 O   0  0
   -4.2448  -10.3855    0.0000 C   0  0
   -4.2319   -9.5606    0.0000 O   0  0
   -1.4238  -12.9049    0.0000 C   0  0
   -2.1443  -13.3068    0.0000 C   0  0
   -2.1001  -10.0026    0.0000 H   0  0
   -0.7155  -13.3279    0.0000 O   0  0
    1.4712   -8.7816    0.0000 O   0  0
    0.7554   -9.1941    0.0000 C   0  0  1  0  0  0
    0.7554  -10.0191    0.0000 C   0  0  2  0  0  0
    1.4712  -10.4316    0.0000 O   0  0
    0.0395  -10.4316    0.0000 C   0  0  1  0  0  0
    0.0395  -11.2566    0.0000 O   0  0
   -0.6764  -10.0191    0.0000 C   0  0  1  0  0  0
   -0.6764   -9.1941    0.0000 C   0  0  2  0  0  0
    0.0395   -8.7816    0.0000 O   0  0
   -1.3881   -8.7816    0.0000 C   0  0
   -1.3881   -7.9566    0.0000 O   0  0
   -2.1029   -9.1935    0.0000 O   0  0
    2.8933   -6.3010    0.0000 O   0  0
    2.1791   -6.7163    0.0000 C   0  0  1  0  0  0
    2.1823   -7.5413    0.0000 C   0  0  2  0  0  0
    2.8997   -7.9510    0.0000 N   0  0
    1.4680   -7.9566    0.0000 C   0  0  2  0  0  0
    0.7505   -7.5469    0.0000 C   0  0  1  0  0  0
    0.0405   -7.9621    0.0000 O   0  0
    0.7473   -6.7219    0.0000 C   0  0  2  0  0  0
    1.4616   -6.3066    0.0000 O   0  0
    0.0340   -6.3121    0.0000 C   0  0
    0.0250   -5.4829    0.0000 O   0  0
    5.0367   -5.0635    0.0000 C   0  0  1  0  0  0
    5.0367   -5.8885    0.0000 C   0  0  2  0  0  0
    5.7526   -6.3010    0.0000 O   0  0
    4.3209   -6.3010    0.0000 C   0  0  1  0  0  0
    4.3209   -7.1260    0.0000 O   0  0
    3.6050   -5.8885    0.0000 C   0  0  1  0  0  0
    3.6050   -5.0635    0.0000 C   0  0  2  0  0  0
    4.3209   -4.6510    0.0000 O   0  0
    2.8933   -4.6510    0.0000 C   0  0
    2.8933   -3.8260    0.0000 O   0  0
    2.1785   -5.0629    0.0000 O   0  0
    2.9036   -8.7760    0.0000 C   0  0
    3.6201   -9.1851    0.0000 O   0  0
    2.1911   -9.1919    0.0000 C   0  0
    0.7500   -8.3666    0.0000 H   0  0
    2.1709   -5.8875    0.0000 H   0  0
   -0.6833   -8.3750    0.0000 O   0  5
   -5.0022  -13.2628    0.0000 O   0  5
   -4.9270   -8.3121    0.0000 O   0  5
   -4.4375   -7.9458    0.0000 Na  0  3
   -5.3708  -14.3833    0.0000 Na  0  3
   -1.5333   -6.6666    0.0000 Na  0  3
 50 49  1  0
 50 51  1  0
 51 52  1  6
 51 53  1  0
 53 48  1  1
 53 54  1  0
 54 55  1  1
 54 56  1  0
 56 57  1  0
 56 58  1  1
 58 59  1  0
 50 57  1  0
 28 29  1  0
 52 60  1  0
  8  7  2  0
 60 61  1  0
 29 30  1  0
 50 62  1  6
  7  9  2  0
 60 63  2  0
 30 31  1  0
 31 32  1  0
 14 15  1  0
 32 33  1  0
 15 16  1  0
 33 34  1  0
 16 17  1  0
 34 35  1  0
 17 13  1  0
 35 36  1  0
 65 64  1  0
 65 66  1  0
 66 67  1  6
 66 68  1  0
 68 69  1  1
 68 70  1  0
 70 49  1  6
 70 71  1  0
 71 72  1  0
 71 73  1  1
 73 74  2  0
 65 72  1  0
 73 75  1  0
 36 37  1  0
 11 18  2  0
 37 38  1  0
 38 39  1  0
 14 19  1  6
 39 40  1  0
  5  4  2  0
 40 41  1  0
 13 20  1  6
 41 42  1  0
 77 76  1  0
 77 78  1  0
 78 79  1  6
 78 80  1  0
 80 64  1  1
 80 81  1  0
 81 82  1  1
 81 83  1  0
 83 84  1  0
 83 85  1  1
 85 86  1  0
 77 84  1  0
  4  6  2  0
 42 43  1  0
 15 21  1  1
 42 44  2  0
 43 45  1  0
 21 22  1  0
 45 46  1  0
 13 10  1  0
 46 47  1  0
 87 47  1  1
 87 88  1  0
 88 89  1  6
 88 90  1  0
 90 91  1  1
 90 92  1  0
 92 76  1  6
 92 93  1  0
 93 94  1  0
 93 95  1  1
 95 96  1  0
 87 94  1  0
 22 23  1  0
 95 97  2  0
 10 11  1  0
 79 98  1  0
 23 24  1  0
 98 99  2  0
 11 12  1  0
 98100  1  0
 24 25  1  0
 65101  1  6
 12 14  1  0
 77102  1  6
 82  7  1  0
 25 26  1  0
  7103  1  0
 55  4  1  0
 13 14  1  0
  4104  1  0
 59  1  1  0
 25 27  2  0
  1105  1  0
  2  1  2  0
 26 28  1  0
  1  3  2  0
M  CHG  6 103  -1 104  -1 105  -1 106   1 107   1 108   1
M  END