
  SciTegic11201309402D

 57 62  0  0  0  0            999 V2000
   21.4056  -11.3869    0.0000 N   0  0
   20.3064  -13.5224    0.0000 N   0  0
   21.2682  -12.1999    0.0000 C   0  0
   20.9018  -12.9384    0.0000 C   0  0  1  0  0  0
   21.2682  -10.5683    0.0000 C   0  0  2  0  0  0
   19.5793  -13.9002    0.0000 C   0  0
   20.9018   -9.8298    0.0000 C   0  0
   20.3064   -9.2458    0.0000 N   0  0
   17.9477  -13.9002    0.0000 N   0  0
   17.2092  -13.5224    0.0000 C   0  0
   20.5297  -14.3238    0.0000 C   0  0
   22.2128  -11.5129    0.0000 C   0  0
   16.2532  -12.1999    0.0000 N   0  0
   16.6252  -12.9384    0.0000 C   0  0  1  0  0  0
   18.7607  -14.0318    0.0000 C   0  0  1  0  0  0
   22.0067  -10.2018    0.0000 C   0  0
   21.6976  -13.1559    0.0000 C   0  0
   18.7607   -8.7478    0.0000 C   0  0
   22.5907  -10.7858    0.0000 C   0  0
   18.1767   -6.2516    0.0000 C   0  0
   19.5793   -8.8794    0.0000 C   0  0  2  0  0  0
   16.1158  -11.3869    0.0000 C   0  0
   15.9554  -13.4307    0.0000 C   0  0
   21.3197  -14.5357    0.0000 C   0  0
   21.9151  -13.9517    0.0000 C   0  0
   16.0413  -14.2437    0.0000 C   0  0
   15.4288  -14.8047    0.0000 S   0  0
   22.0582  -12.4575    0.0000 O   0  0
   17.9477   -8.8794    0.0000 N   0  0
   17.6214   -5.6333    0.0000 N   0  0
   19.8255  -14.6845    0.0000 O   0  0
   21.5716   -9.3489    0.0000 O   0  0
   16.7169  -14.1922    0.0000 O   0  0
   18.7607   -7.9234    0.0000 O   0  0
   15.7665  -15.5490    0.0000 C   0  0
   16.7512  -14.6559    0.0000 C   0  0
   15.2914  -11.3869    0.0000 O   0  0
   16.5795  -15.4631    0.0000 C   0  0
   18.9840   -6.0799    0.0000 N   0  0
   17.9191   -7.0303    0.0000 N   0  0
   22.6708  -12.2113    0.0000 C   0  0
   18.7607  -14.8562    0.0000 C   0  0
   23.4151  -10.7400    0.0000 C   0  0
   16.2532  -10.5683    0.0000 C   0  0
   17.2092   -9.2458    0.0000 C   0  0
   19.8255   -8.0893    0.0000 C   0  0
   22.7109  -14.1692    0.0000 C   0  0
   21.5430  -15.3371    0.0000 C   0  0
   19.5335   -6.6868    0.0000 C   0  0
   19.2759   -7.4768    0.0000 C   0  0
   16.6252   -9.8298    0.0000 C   0  0
   23.4952  -12.1655    0.0000 C   0  0
   23.8616  -11.4270    0.0000 C   0  0
   22.9170  -14.9650    0.0000 C   0  0
   22.3330  -15.5490    0.0000 C   0  0
   21.5873   -9.6206    0.0000 H   0  0
   21.8142  -12.5291    0.0000 H   0  0
  4  2  1  0
  3  1  1  0
  4  3  1  0
  5  1  1  0
  6  2  1  0
  7  5  1  0
  8  7  1  0
  9 15  1  0
 10  9  1  0
 11  2  1  0
 12  1  1  0
 13 14  1  0
 14 10  1  0
 15  6  1  0
 16  5  1  0
 17  4  1  0
 18 21  1  0
 19 12  1  0
 20 39  2  0
 21  8  1  0
 22 44  1  0
 14 23  1  6
 24 25  2  0
 25 17  1  0
 26 23  1  0
 27 26  1  0
 28  3  2  0
 29 18  1  0
 30 20  1  0
 31  6  2  0
 32  7  2  0
 33 10  2  0
 34 18  2  0
 35 27  1  0
 36 26  2  0
 37 22  2  0
 38 36  1  0
 39 49  1  0
 40 20  1  0
 41 12  1  0
 15 42  1  6
 43 19  1  0
 44 51  1  0
 45 29  1  0
 21 46  1  6
 47 25  1  0
 48 24  1  0
 49 50  1  0
 50 46  1  0
 51 45  1  0
 52 41  1  0
 53 52  1  0
 54 47  2  0
 55 54  1  0
 16 19  1  0
 43 53  1  0
 11 24  1  0
 48 55  2  0
 13 22  1  0
 35 38  2  0
  5 56  1  1
  4 57  1  6
M  END