
  SciTegic04071410272D

 28 30  0  0  0  0            999 V2000
   -1.5155    1.1752    0.0000 C   0  0  1  0  0  0
   -0.4485    0.3733    0.0000 C   0  0  2  0  0  0
   -0.9647    0.8020    0.0000 C   0  0
   -1.9364    0.8020    0.0000 C   0  0  1  0  0  0
   -2.0761    1.6151    0.0000 N   0  3
   -0.5867    1.1907    0.0000 C   0  0
   -2.4563    0.0897    0.0000 C   0  0
   -1.8360    0.4666    0.0000 C   0  0
   -0.0367   -0.3415    0.0000 C   0  0
    0.7883   -0.3423    0.0000 C   0  0
    0.7875   -1.1673    0.0000 C   0  0
    1.6133   -0.3432    0.0000 C   0  0
    2.0265    0.3709    0.0000 C   0  0
    2.8515    0.3701    0.0000 C   0  0
    3.2633   -0.3448    0.0000 C   0  0
    2.8501   -1.0589    0.0000 C   0  0
    2.0251   -1.0580    0.0000 C   0  0
    1.5016   -1.5806    0.0000 C   0  0
    1.5008   -2.4055    0.0000 C   0  0
    0.7859   -2.8173    0.0000 C   0  0
    0.0718   -2.4041    0.0000 C   0  0
    0.0726   -1.5791    0.0000 C   0  0
   -1.7054    1.9781    0.0000 H   0  0
   -2.5391    1.3654    0.0000 H   0  0
   -2.8405    1.9255    0.0000 C   0  0
   -1.9860    2.4352    0.0000 C   0  0
    5.5026    0.0000    0.0000 Br  0  5
    0.7891    0.4827    0.0000 O   0  0
  4  5  1  0
  1  5  1  0
  1  6  1  0
  6  2  1  0
  4  7  1  0
  1  8  1  0
  7  8  1  0
  2  9  1  6
  9 10  1  0
 10 11  1  0
 10 12  1  0
 12 13  2  0
 13 14  1  0
 14 15  2  0
 15 16  1  0
 16 17  2  0
 17 12  1  0
 11 18  2  0
 18 19  1  0
 19 20  2  0
 20 21  1  0
 21 22  2  0
 22 11  1  0
  1 23  1  6
  4 24  1  1
  5 25  1  0
  5 26  1  0
  2  3  1  0
  3  4  1  0
 10 28  1  0
M  CHG  2   5   1  27  -1
M  END