
          11280715142D 1   1.00000     0.00000     0

 45 49  0     1  0            999 V2000
    0.6417   -2.6250    0.0000 C   0  0  2  0  0  0           0  0  0
    0.6250   -0.7542    0.0000 N   0  0  3  0  0  0           0  0  0
    1.0542   -3.3375    0.0000 C   0  0  1  0  0  0           0  0  0
   -0.0125   -2.1125    0.0000 C   0  0  0  0  0  0           0  0  0
   -0.0125   -1.2792    0.0000 C   0  0  0  0  0  0           0  0  0
    0.8500   -4.8417    0.0000 C   0  0  0  0  0  0           0  0  0
    1.4542   -2.4292    0.0000 N   0  0  0  0  0  0           0  0  0
    0.3750    0.0333    0.0000 C   0  0  0  0  0  0           0  0  0
    1.4375   -0.9375    0.0000 C   0  0  0  0  0  0           0  0  0
    0.0542   -3.2042    0.0000 C   0  0  0  0  0  0           0  0  0
    0.9292    0.6375    0.0000 C   0  0  0  0  0  0           0  0  0
    1.8500   -3.5500    0.0000 C   0  0  0  0  0  0           0  0  0
    0.6375   -4.0500    0.0000 O   0  0  0  0  0  0           0  0  0
    1.6375   -5.0542    0.0000 N   0  0  0  0  0  0           0  0  0
    0.2625   -5.4250    0.0000 N   0  0  0  0  0  0           0  0  0
    1.7292    0.4625    0.0000 C   0  0  0  0  0  0           0  0  0
    0.6750    1.4208    0.0000 C   0  0  0  0  0  0           0  0  0
    1.8042   -1.6792    0.0000 C   0  0  0  0  0  0           0  0  0
    0.2667   -4.0042    0.0000 C   0  0  0  0  0  0           0  0  0
    1.8542   -5.8417    0.0000 C   0  0  0  0  0  0           0  0  0
    0.4750   -6.2167    0.0000 C   0  0  0  0  0  0           0  0  0
    2.2875    1.0708    0.0000 C   0  0  0  0  0  0           0  0  0
    1.2250    2.0333    0.0000 C   0  0  0  0  0  0           0  0  0
    1.2667   -6.4292    0.0000 C   0  0  0  0  0  0           0  0  0
    1.9417   -0.2875    0.0000 O   0  0  0  0  0  0           0  0  0
    2.0625   -4.3417    0.0000 O   0  0  0  0  0  0           0  0  0
    2.0375    1.8583    0.0000 C   0  0  0  0  0  0           0  0  0
    2.6417   -3.3292    0.0000 O   0  0  0  0  0  0           0  0  0
   -0.7333   -2.5250    0.0000 C   0  0  0  0  0  0           0  0  0
   -0.3333   -4.5792    0.0000 C   0  0  0  0  0  0           0  0  0
   -0.7458   -2.9792    0.0000 C   0  0  0  0  0  0           0  0  0
   -0.7333   -0.8667    0.0000 C   0  0  0  0  0  0           0  0  0
   -0.1333    1.5875    0.0000 C   0  0  0  0  0  0           0  0  0
    2.5292    0.2500    0.0000 C   0  0  0  0  0  0           0  0  0
   -1.3333   -3.5542    0.0000 C   0  0  0  0  0  0           0  0  0
    2.6500   -6.0542    0.0000 C   0  0  0  0  0  0           0  0  0
   -0.1083   -6.8042    0.0000 C   0  0  0  0  0  0           0  0  0
    2.5875    2.4708    0.0000 C   0  0  0  0  0  0           0  0  0
   -1.1250   -4.3542    0.0000 C   0  0  0  0  0  0           0  0  0
   -0.3333   -5.4042    0.0000 C   0  0  0  0  0  0           0  0  0
   -1.4458   -2.1125    0.0000 C   0  0  0  0  0  0           0  0  0
   -1.0583   -5.8125    0.0000 C   0  0  0  0  0  0           0  0  0
   -1.0583   -6.6375    0.0000 C   0  0  0  0  0  0           0  0  0
   -1.4458   -1.2875    0.0000 C   0  0  0  0  0  0           0  0  0
   -1.7833   -7.0417    0.0000 C   0  0  0  0  0  0           0  0  0
  2  5  1  0     0  0
  3  1  1  0     0  0
  4  1  1  0     0  0
  5  4  1  0     0  0
  6 13  1  0     0  0
  7  1  1  0     0  0
  8  2  1  0     0  0
  9 18  1  0     0  0
  1 10  1  1     0  0
 11  8  1  0     0  0
 12  3  1  0     0  0
  3 13  1  1     0  0
 14  6  1  0     0  0
 15  6  2  0     0  0
 16 11  2  0     0  0
 17 11  1  0     0  0
 18  7  1  0     0  0
 19 10  2  0     0  0
 20 14  2  0     0  0
 21 15  1  0     0  0
 22 16  1  0     0  0
 23 17  2  0     0  0
 24 21  2  0     0  0
 25  9  2  0     0  0
 26 12  2  0     0  0
 27 23  1  0     0  0
 28 12  1  0     0  0
 29  4  2  0     0  0
 30 19  1  0     0  0
 31 10  1  0     0  0
 32  5  2  0     0  0
 33 17  1  0     0  0
 34 16  1  0     0  0
 35 31  2  0     0  0
 36 20  1  0     0  0
 37 21  1  0     0  0
 38 27  1  0     0  0
 39 35  1  0     0  0
 40 30  1  0     0  0
 41 29  1  0     0  0
 42 40  1  0     0  0
 43 42  1  0     0  0
 44 41  2  0     0  0
 45 43  1  0     0  0
  2  9  1  0     0  0
 30 39  2  0     0  0
 32 44  1  0     0  0
 24 20  1  0     0  0
 22 27  2  0     0  0
M  END