
  SciTegic04091415222D

 28 31  0  0  0  0            999 V2000
   10.4405  -16.4181    0.0000 C   0  0
   11.8542  -16.4145    0.0000 C   0  0
   11.1456  -16.0092    0.0000 C   0  0
   11.8570  -17.2371    0.0000 C   0  0
   11.8532  -18.8722    0.0000 C   0  0
   12.5644  -18.4600    0.0000 C   0  0
   12.5625  -17.6443    0.0000 C   0  0
   11.1466  -17.6444    0.0000 C   0  0
   10.4393  -17.2376    0.0000 C   0  0
    9.7355  -17.6466    0.0000 C   0  0
    9.7377  -18.4622    0.0000 O   0  0
   10.4496  -18.8672    0.0000 C   0  0
   11.1505  -18.4558    0.0000 C   0  0
   12.5573  -16.0045    0.0000 C   0  0
   13.2669  -16.4121    0.0000 N   0  0
   13.9726  -16.0016    0.0000 C   0  0
   13.9699  -15.1835    0.0000 N   0  0
   13.2557  -14.7778    0.0000 C   0  0
   12.5529  -15.1907    0.0000 N   0  0
   11.1431  -15.1920    0.0000 Cl  0  0
   13.2497  -13.9606    0.0000 N   0  0
   14.6816  -16.4078    0.0000 S   0  0
   15.3880  -15.9969    0.0000 C   0  0
   16.0970  -16.4032    0.0000 C   0  0
   16.8034  -15.9923    0.0000 C   0  0
   17.5124  -16.3985    0.0000 N   0  0
   16.8007  -15.1751    0.0000 O   0  0
   16.0997  -17.2204    0.0000 C   0  0
  1  9  2  0
  4  2  1  0
  2  3  2  0
  3  1  1  0
  4  8  1  0
 13  5  1  0
  5  6  2  0
  6  7  1  0
  7  4  2  0
  8  9  1  0
  9 10  1  0
 10 11  1  0
 11 12  1  0
 12 13  1  0
 13  8  2  0
 14 15  2  0
 15 16  1  0
 16 17  2  0
 17 18  1  0
 18 19  2  0
 19 14  1  0
  2 14  1  0
  3 20  1  0
 18 21  1  0
 16 22  1  0
 22 23  1  0
 23 24  1  0
 24 25  1  0
 25 26  1  0
 25 27  2  0
 24 28  1  0
M  END