
          11280715312D 1   1.00000     0.00000     0

 39 42  0     0  0            999 V2000
    2.5917   -2.1375    0.0000 N   0  0  0  0  0  0           0  0  0
    2.5917   -2.9792    0.0000 C   0  0  0  0  0  0           0  0  0
    1.1667   -2.1375    0.0000 C   0  0  0  0  0  0           0  0  0
    1.8792   -1.7417    0.0000 C   0  0  0  0  0  0           0  0  0
    1.8792   -3.3875    0.0000 N   0  0  0  0  0  0           0  0  0
    1.1667   -2.9792    0.0000 C   0  0  0  0  0  0           0  0  0
    9.0167   -3.3667    0.0000 C   0  0  0  0  0  0           0  0  0
    0.4625   -1.7417    0.0000 C   0  0  0  0  0  0           0  0  0
    0.4625   -3.3875    0.0000 C   0  0  0  0  0  0           0  0  0
   -0.2583   -2.1375    0.0000 C   0  0  0  0  0  0           0  0  0
   -0.2583   -2.9792    0.0000 C   0  0  0  0  0  0           0  0  0
   12.5875   -2.1167    0.0000 N   0  0  3  0  0  0           0  0  0
    3.3042   -3.3792    0.0000 N   0  0  3  0  0  0           0  0  0
    9.7292   -2.9542    0.0000 C   0  0  0  0  0  0           0  0  0
    8.3042   -2.9625    0.0000 N   0  0  3  0  0  0           0  0  0
   13.8917   -2.3875    0.0000 S   0  0  0  0  0  0           0  0  0
    9.0250   -4.1917    0.0000 O   0  0  0  0  0  0           0  0  0
   13.3375   -1.7750    0.0000 C   0  0  0  0  0  0           0  0  0
    1.8875   -0.9167    0.0000 N   0  0  0  0  0  0           0  0  0
   11.8667   -1.7042    0.0000 C   0  0  0  0  0  0           0  0  0
   10.4500   -3.3667    0.0000 C   0  0  0  0  0  0           0  0  0
    9.7292   -2.1292    0.0000 C   0  0  0  0  0  0           0  0  0
   11.1542   -2.1250    0.0000 C   0  0  0  0  0  0           0  0  0
   -0.9625   -1.7167    0.0000 O   0  0  0  0  0  0           0  0  0
   -0.9625   -3.4000    0.0000 O   0  0  0  0  0  0           0  0  0
   10.4375   -1.7167    0.0000 C   0  0  0  0  0  0           0  0  0
   11.1625   -2.9500    0.0000 C   0  0  0  0  0  0           0  0  0
   12.6750   -2.9375    0.0000 C   0  0  0  0  0  0           0  0  0
   13.4792   -3.1042    0.0000 C   0  0  0  0  0  0           0  0  0
    4.0167   -2.9667    0.0000 C   0  0  0  0  0  0           0  0  0
    7.5917   -3.3750    0.0000 C   0  0  0  0  0  0           0  0  0
    3.3042   -4.2042    0.0000 C   0  0  0  0  0  0           0  0  0
    8.3042   -2.1292    0.0000 C   0  0  0  0  0  0           0  0  0
   -1.6875   -3.0042    0.0000 C   0  0  0  0  0  0           0  0  0
   -1.6875   -2.1125    0.0000 C   0  0  0  0  0  0           0  0  0
    6.8792   -2.9667    0.0000 C   0  0  0  0  0  0           0  0  0
    4.7375   -3.3792    0.0000 C   0  0  0  0  0  0           0  0  0
    5.4500   -2.9667    0.0000 C   0  0  0  0  0  0           0  0  0
    6.1667   -3.3792    0.0000 C   0  0  0  0  0  0           0  0  0
  2  1  2  0     0  0
  3  4  2  0     0  0
  4  1  1  0     0  0
  5  2  1  0     0  0
  6  3  1  0     0  0
  7 15  1  0     0  0
  8  3  1  0     0  0
  9  6  1  0     0  0
 10  8  2  0     0  0
 11 10  1  0     0  0
 12 20  1  0     0  0
 13  2  1  0     0  0
 14  7  1  0     0  0
 15 31  1  0     0  0
 16 18  1  0     0  0
 17  7  2  0     0  0
 18 12  1  0     0  0
 19  4  1  0     0  0
 20 23  1  0     0  0
 21 14  2  0     0  0
 22 14  1  0     0  0
 23 26  1  0     0  0
 24 10  1  0     0  0
 25 11  1  0     0  0
 26 22  2  0     0  0
 27 21  1  0     0  0
 28 12  1  0     0  0
 29 28  1  0     0  0
 30 13  1  0     0  0
 31 36  1  0     0  0
 32 13  1  0     0  0
 33 15  1  0     0  0
 34 25  1  0     0  0
 35 24  1  0     0  0
 36 39  1  0     0  0
 37 30  1  0     0  0
 38 37  1  0     0  0
 39 38  1  0     0  0
  5  6  2  0     0  0
 11  9  2  0     0  0
 23 27  2  0     0  0
 16 29  1  0     0  0
M  END