
  SciTegic03291108532D

 15 15  0  0  0  0            999 V2000
   -2.4155    0.8441    0.0000 O   0  0
   -3.1300   -0.3934    0.0000 O   0  0
   -4.5589    2.0816    0.0000 N   0  0
   -3.8445    0.8441    0.0000 C   0  0
   -3.1300    0.4316    0.0000 C   0  0
   -3.8445    1.6691    0.0000 C   0  0
   -4.5589    0.4316    0.0000 C   0  0
   -5.2734    0.8441    0.0000 C   0  0
   -5.2734    1.6691    0.0000 C   0  0
   -1.7010    0.4316    0.0000 C   0  0
   -0.9866    0.8441    0.0000 C   0  0
   -0.2721    0.4316    0.0000 C   0  0
    0.4424    0.8441    0.0000 C   0  0
    1.1568    0.4316    0.0000 C   0  0
    1.8713    0.8441    0.0000 C   0  0
  1  5  1  0
  1 10  1  0
  2  5  2  0
  3  6  1  0
  3  9  2  0
  4  5  1  0
  4  6  2  0
  4  7  1  0
  7  8  2  0
  8  9  1  0
 10 11  1  0
 11 12  1  0
 12 13  1  0
 13 14  1  0
 14 15  1  0
M  END