
          11280715342D 1   1.00000     0.00000     0

  7  7  0     0  0            999 V2000
    1.1167   -3.9917    0.0000 S   0  0  0  0  0  0           0  0  0
    1.7875   -4.4750    0.0000 C   0  0  0  0  0  0           0  0  0
    0.4417   -4.4750    0.0000 C   0  0  0  0  0  0           0  0  0
    1.5292   -5.2667    0.0000 C   0  0  0  0  0  0           0  0  0
    0.7000   -5.2667    0.0000 C   0  0  0  0  0  0           0  0  0
    3.1875   -4.7750    0.0000 S   0  0  0  0  0  0           0  0  0
    2.5667   -4.2167    0.0000 C   0  0  0  0  0  0           0  0  0
  2  1  1  0     0  0
  3  1  1  0     0  0
  4  2  2  0     0  0
  5  3  2  0     0  0
  6  7  1  0     0  0
  7  2  1  0     0  0
  4  5  1  0     0  0
M  END