
          11280715112D 1   1.00000     0.00000     0

 24 26  0     0  0            999 V2000
    0.3500   -0.7292    0.0000 C   0  0  0  0  0  0           0  0  0
   -0.4083   -1.0625    0.0000 N   0  0  3  0  0  0           0  0  0
   -0.9583   -0.4417    0.0000 N   0  0  0  0  0  0           0  0  0
    0.2625    0.0958    0.0000 C   0  0  0  0  0  0           0  0  0
    1.0667   -1.1417    0.0000 N   0  0  0  0  0  0           0  0  0
   -0.5458    0.2708    0.0000 C   0  0  0  0  0  0           0  0  0
    1.7792   -0.7292    0.0000 C   0  0  0  0  0  0           0  0  0
    2.4917   -1.1417    0.0000 N   0  0  0  0  0  0           0  0  0
   -0.6375   -1.8500    0.0000 C   0  0  0  0  0  0           0  0  0
    1.7792    0.0958    0.0000 O   0  0  0  0  0  0           0  0  0
   -0.8833    1.0250    0.0000 C   0  0  3  0  0  0           0  0  0
    3.2042   -0.7292    0.0000 C   0  0  0  0  0  0           0  0  0
   -0.0708   -2.4417    0.0000 C   0  0  0  0  0  0           0  0  0
   -1.4375   -2.0375    0.0000 C   0  0  0  0  0  0           0  0  0
   -0.3958    1.6958    0.0000 C   0  0  0  0  0  0           0  0  0
   -1.7000    1.1125    0.0000 C   0  0  0  0  0  0           0  0  0
    3.9167   -1.1417    0.0000 C   0  0  0  0  0  0           0  0  0
    3.2042    0.0958    0.0000 C   0  0  0  0  0  0           0  0  0
   -1.6750   -2.8292    0.0000 C   0  0  0  0  0  0           0  0  0
   -0.3000   -3.2292    0.0000 C   0  0  0  0  0  0           0  0  0
    3.9167    0.5083    0.0000 C   0  0  0  0  0  0           0  0  0
    4.6292   -0.7292    0.0000 C   0  0  0  0  0  0           0  0  0
   -1.1083   -3.4292    0.0000 C   0  0  0  0  0  0           0  0  0
    4.6375    0.0958    0.0000 C   0  0  0  0  0  0           0  0  0
  2  1  1  0     0  0
  3  2  1  0     0  0
  4  1  2  0     0  0
  5  1  1  0     0  0
  6  4  1  0     0  0
  7  5  1  0     0  0
  8  7  1  0     0  0
  9  2  1  0     0  0
 10  7  2  0     0  0
 11  6  1  0     0  0
 12  8  1  0     0  0
 13  9  1  0     0  0
 14  9  2  0     0  0
 15 11  1  0     0  0
 16 11  1  0     0  0
 17 12  2  0     0  0
 18 12  1  0     0  0
 19 14  1  0     0  0
 20 13  2  0     0  0
 21 18  2  0     0  0
 22 17  1  0     0  0
 23 19  2  0     0  0
 24 21  1  0     0  0
  3  6  2  0     0  0
 23 20  1  0     0  0
 24 22  2  0     0  0
M  END