
          11280715082D 1   1.00000     0.00000     0

 22 22  0     0  0            999 V2000
    4.5375   -5.6500    0.0000 P   0  0  3  0  0  0           0  0  0
    7.5500   -5.6500    0.0000 C   0  0  3  0  0  0           0  0  0
    8.1542   -5.6542    0.0000 C   0  0  0  0  0  0           0  0  0
    7.2500   -5.1292    0.0000 N   0  0  0  0  0  0           0  0  0
    7.5542   -4.6042    0.0000 C   0  0  0  0  0  0           0  0  0
    5.0125   -6.1667    0.0000 O   0  0  0  0  0  0           0  0  0
    5.0542   -5.3417    0.0000 O   0  0  0  0  0  0           0  0  0
    7.2417   -6.1625    0.0000 C   0  0  0  0  0  0           0  0  0
    8.4542   -6.1750    0.0000 O   0  0  0  0  0  0           0  0  0
    8.1542   -4.6042    0.0000 O   0  0  0  0  0  0           0  0  0
    4.2292   -5.1292    0.0000 O   0  0  0  0  0  0           0  0  0
    4.0167   -5.9542    0.0000 O   0  0  0  0  0  0           0  0  0
    5.4417   -6.1542    0.0000 C   0  0  0  0  0  0           0  0  0
    6.6417   -6.1542    0.0000 C   0  0  0  0  0  0           0  0  0
    8.4542   -5.1292    0.0000 O   0  0  0  0  0  0           0  0  0
    6.3417   -6.6667    0.0000 C   0  0  0  0  0  0           0  0  0
    6.3500   -5.6292    0.0000 C   0  0  0  0  0  0           0  0  0
    5.7417   -6.6667    0.0000 C   0  0  0  0  0  0           0  0  0
    5.7417   -5.6292    0.0000 C   0  0  0  0  0  0           0  0  0
    7.2542   -4.0917    0.0000 C   0  0  0  0  0  0           0  0  0
    9.0625   -5.1292    0.0000 C   0  0  0  0  0  0           0  0  0
    9.3625   -4.6167    0.0000 C   0  0  0  0  0  0           0  0  0
  2  8  1  0     0  0
  3  2  1  0     0  0
  4  2  1  0     0  0
  5  4  1  0     0  0
  6  1  1  0     0  0
  7  1  2  0     0  0
  8 14  1  0     0  0
  9  3  2  0     0  0
 10  5  2  0     0  0
 11  1  1  0     0  0
 12  1  1  0     0  0
 13  6  1  0     0  0
 14 17  2  0     0  0
 15  3  1  0     0  0
 16 18  2  0     0  0
 17 19  1  0     0  0
 18 13  1  0     0  0
 19 13  2  0     0  0
 20  5  1  0     0  0
 21 15  1  0     0  0
 22 21  1  0     0  0
 16 14  1  0     0  0
M  END