
  SciTegic04151115542D

 32 34  0  0  0  0            999 V2000
   15.7011   -0.1917    0.0000 C   0  0
   16.1094    0.5250    0.0000 C   0  0
   16.9345    0.5297    0.0000 C   0  0
   15.6929    1.2372    0.0000 C   0  0
   16.1013    1.9540    0.0000 O   0  0
   14.8678    1.2325    0.0000 C   0  0
   14.4512    1.9446    0.0000 O   0  0
   13.6261    1.9399    0.0000 C   0  0
   14.4594    0.5156    0.0000 O   0  0
   17.3511   -0.1824    0.0000 O   0  0
   17.3429    1.2466    0.0000 C   0  0
   18.1679    1.2513    0.0000 N   0  0
   16.9264    1.9587    0.0000 O   0  0
   18.5764    1.9681    0.0000 C   0  0
   19.3997    1.9699    0.0000 C   0  0
   19.8081    2.6860    0.0000 C   0  0
   19.3914    3.3991    0.0000 C   0  0
   18.5622    3.3917    0.0000 C   0  0
   18.1575    2.6752    0.0000 C   0  0
   14.8751   -0.1936    0.0000 N   0  0
   15.7125   -1.6151    0.0000 N   0  0
   16.1171   -0.8987    0.0000 C   0  0
   14.8834   -1.6225    0.0000 C   0  0
   14.4698   -0.9112    0.0000 C   0  0
   13.6488   -0.9147    0.0000 C   0  0
   13.2405   -1.6287    0.0000 C   0  0
   13.6591   -2.3408    0.0000 C   0  0
   14.4787   -2.3338    0.0000 C   0  0
   16.9421   -0.8914    0.0000 O   0  0
   20.6332    2.6903    0.0000 C   0  0
   21.0494    1.9779    0.0000 C   0  0
   21.0419    3.4069    0.0000 O   0  0
 16 17  2  0
  6  9  2  0
 17 18  1  0
  4  5  2  0
 18 19  2  0
 19 14  1  0
  3 10  2  0
  1 20  1  0
 20 24  2  0
  2  3  1  0
 23 21  2  0
  3 11  1  0
 21 22  1  0
 22  1  2  0
  4  6  1  0
 11 12  1  0
 23 24  1  0
  1  2  1  0
 24 25  1  0
 11 13  2  0
 25 26  2  0
  6  7  1  0
 26 27  1  0
 12 14  1  0
 27 28  2  0
 28 23  1  0
  2  4  1  0
 22 29  1  0
 14 15  2  0
 16 30  1  0
  7  8  1  0
 30 31  1  0
 15 16  1  0
 30 32  2  0
M  END