
  SciTegic05061409512D

 37 39  0  0  0  0            999 V2000
    2.6855   -8.8463    0.0000 S   0  0
    1.8604   -8.8487    0.0000 O   0  0
    2.2751   -9.5619    0.0000 O   0  0
    5.5450  -10.4960    0.0000 C   0  0  2  0  0  0
    6.3700  -10.4984    0.0000 C   0  0
    5.9596   -9.7827    0.0000 C   0  0
    4.1209  -10.4960    0.0000 N   0  0
    4.1209  -11.3210    0.0000 C   0  0  1  0  0  0
    4.8329  -11.7293    0.0000 C   0  0  2  0  0  0
    5.5450  -11.3210    0.0000 C   0  0
    4.8329  -10.0794    0.0000 C   0  0
    6.7845   -9.7852    0.0000 C   0  0
    7.1991   -9.0719    0.0000 O   0  0
    7.1950  -10.5008    0.0000 O   0  0
    4.8329  -12.5543    0.0000 C   0  0
    3.4070  -11.7345    0.0000 C   0  0
    4.8329   -9.2543    0.0000 O   0  0
    1.9792  -11.7346    0.0000 C   0  0
    1.9800  -12.5606    0.0000 C   0  0
    2.7001  -12.9719    0.0000 C   0  0
    3.4105  -12.5566    0.0000 C   0  0
    4.1163  -12.9654    0.0000 C   0  0
    4.1160  -13.7896    0.0000 C   0  0
    4.8310  -14.2029    0.0000 C   0  0
    5.5479  -13.7861    0.0000 C   0  0
    5.5447  -12.9632    0.0000 C   0  0
    1.2666  -12.9751    0.0000 Cl  0  0
    6.2638  -14.1961    0.0000 Cl  0  0
    3.4052  -10.0856    0.0000 C   0  0  2  0  0  0
    3.4028   -9.2606    0.0000 C   0  0
    2.6919  -10.5001    0.0000 C   0  0
    1.9762  -10.0898    0.0000 C   0  0
    2.6943  -11.3252    0.0000 C   0  0
    1.9750  -10.9085    0.0000 C   0  0
    2.6847   -8.0252    0.0000 C   0  0
    1.9690   -7.6148    0.0000 C   0  0
    3.3979   -7.6105    0.0000 C   0  0
  2  1  2  0
  1  3  2  0
  5  4  1  0
  4  6  1  1
  7  8  1  0
  7 11  1  0
  8  9  1  0
  9 10  1  0
 10  4  1  0
  4 11  1  0
  6 12  1  0
 12 13  2  0
 12 14  1  0
  9 15  1  6
  8 16  1  1
 11 17  2  0
 16 33  2  0
 33 18  1  0
 18 19  2  0
 19 20  1  0
 20 21  2  0
 21 16  1  0
 15 22  2  0
 22 23  1  0
 23 24  2  0
 24 25  1  0
 25 26  2  0
 26 15  1  0
 19 27  1  0
 25 28  1  0
  7 29  1  0
 29 30  1  0
 29 31  1  1
 31 32  1  0
 31 34  1  0
 30  1  1  0
  1 35  1  0
 35 36  1  0
 35 37  1  0
M  END