
  SciTegic01161211222D

 41 47  0  0  0  0            999 V2000
   21.6764  -21.6821    0.0000 N   0  0
   20.9876  -22.1282    0.0000 C   0  0
   21.0331  -22.9486    0.0000 C   0  0
   21.7676  -23.3201    0.0000 C   0  0
   22.4062  -22.0428    0.0000 C   0  0
   22.4580  -22.8640    0.0000 C   0  0
   23.1939  -23.2281    0.0000 N   0  0
   23.8785  -22.7719    0.0000 C   0  0
   23.8225  -21.9478    0.0000 C   0  0
   23.0862  -21.5876    0.0000 N   0  0
   16.0303  -20.7394    0.0000 N   0  0
   17.4568  -20.7465    0.0000 C   0  0
   16.7454  -20.3291    0.0000 C   0  0
   14.6564  -19.0461    0.0000 C   0  0
   15.3572  -19.4821    0.0000 C   0  0
   15.3335  -20.3089    0.0000 C   0  0
   18.1917  -20.3906    0.0000 C   0  0
   18.8925  -20.8225    0.0000 N   0  0
   18.2111  -19.5638    0.0000 O   0  0
   18.8645  -21.6457    0.0000 C   0  0
   19.5611  -22.0814    0.0000 C   0  0
   20.2877  -21.6899    0.0000 N   0  0
   20.3174  -20.8621    0.0000 C   0  0
   19.6123  -20.4258    0.0000 C   0  0
   16.0814  -19.0871    0.0000 C   0  0
   13.9321  -19.4412    0.0000 C   0  0
   13.2308  -19.0030    0.0000 C   0  0
   13.1887  -20.6569    0.0000 C   0  0
   13.9137  -20.2643    0.0000 C   0  0
   16.0261  -21.5666    0.0000 C   0  0
   17.4526  -21.5738    0.0000 C   0  0
   16.7344  -21.9849    0.0000 C   0  0
   16.7299  -22.8065    0.0000 C   0  0
   17.4418  -23.2230    0.0000 C   0  0
   18.1602  -22.8160    0.0000 C   0  0
   18.1663  -21.9882    0.0000 C   0  0
   12.4858  -20.2312    0.0000 C   0  0
   12.5062  -19.3993    0.0000 C   0  0
   11.7212  -19.1227    0.0000 O   0  0
   11.2156  -19.7838    0.0000 C   0  0
   11.6882  -20.4689    0.0000 O   0  0
  4  6  1  0
  8  9  1  0
  5  1  1  0
  9 10  2  0
 10  5  1  0
  2  3  1  0
 18 20  1  0
 15 25  1  0
 14 26  1  0
 14 15  1  0
 26 27  2  0
 27 38  1  0
 11 13  1  0
 37 28  1  0
 15 16  1  0
 28 29  2  0
 29 26  1  0
 16 11  1  0
 18 24  1  0
 32 30  1  0
 20 21  1  0
 21 22  1  0
 31 32  1  0
 22 23  1  0
 23 24  1  0
 31 12  1  0
 12 17  1  0
 12 13  1  0
 31 36  1  0
 32 33  1  0
 33 34  1  0
 34 35  1  0
 35 36  1  0
 17 18  1  0
 11 30  1  0
 17 19  2  0
 37 38  2  0
  5  6  2  0
  1  2  2  0
  6  7  1  0
  3  4  2  0
  7  8  2  0
 38 39  1  0
 39 40  1  0
 40 41  1  0
 41 37  1  0
 22  2  1  0
M  END