
  SciTegic09261414462D

 30 33  0  0  0  0            999 V2000
   13.8540  -25.3914    0.0000 C   0  0
   13.8416  -23.7331    0.0000 N   0  0
   13.1290  -24.9914    0.0000 C   0  0
   14.5540  -24.9706    0.0000 C   0  0
   13.1290  -24.1539    0.0000 C   0  0
   14.5540  -24.1456    0.0000 C   0  0
   13.8540  -26.2164    0.0000 N   0  0
   12.4207  -25.4039    0.0000 C   0  0
   15.2707  -25.3831    0.0000 C   0  0
   12.4082  -23.7539    0.0000 C   0  0
   15.2707  -23.7331    0.0000 C   0  0
   11.7041  -24.9914    0.0000 C   0  0
   15.9831  -24.9706    0.0000 C   0  0
   11.6915  -24.1664    0.0000 C   0  0
   15.9831  -24.1456    0.0000 C   0  0
   17.4210  -26.6369    0.0000 C   0  0
   16.7078  -26.2223    0.0000 C   0  0
   15.9921  -26.6326    0.0000 C   0  0
   15.2789  -26.2180    0.0000 C   0  0
   14.5632  -26.6284    0.0000 C   0  0
   18.1359  -25.3955    0.0000 C   0  0
   18.1348  -26.2229    0.0000 C   0  0
   18.8495  -26.6357    0.0000 N   0  0
   19.5660  -26.2224    0.0000 C   0  0
   19.5631  -25.3919    0.0000 C   0  0
   18.8477  -24.9828    0.0000 C   0  0
   20.2760  -24.9767    0.0000 O   0  0
   20.2810  -26.6338    0.0000 C   0  0
   20.9949  -26.2202    0.0000 N   0  0
   21.7100  -26.6315    0.0000 O   0  0
  2  6  1  0
  3  1  2  0
  4  1  1  0
  5  3  1  0
  6  4  1  0
  7  1  1  0
  8  3  1  0
  9  4  2  0
 10  5  1  0
 11  6  2  0
 12  8  1  0
 13  9  1  0
 14 12  1  0
 15 13  2  0
  2  5  2  0
 11 15  1  0
 10 14  1  0
 16 17  1  0
 17 18  1  0
 18 19  1  0
 19 20  1  0
 20  7  1  0
 21 22  2  0
 22 23  1  0
 23 24  2  0
 24 25  1  0
 25 26  2  0
 26 21  1  0
 25 27  1  0
 24 28  1  0
 28 29  2  0
 29 30  1  0
 22 16  1  0
M  END