
  CDK    9/16/09,9:56

 65 67  0  0  0  0  0  0  0  0999 V2000
    6.6887   -6.4624    0.0000 O   0  0  0  0  0  0  0  0  0  0  0  0
    6.6852   -7.2848    0.0000 C   0  0  0  0  0  0  0  0  0  0  0  0
    5.9500   -7.6592    0.0000 C   0  0  0  0  0  0  0  0  0  0  0  0
    5.2168   -7.2827    0.0000 C   0  0  0  0  0  0  0  0  0  0  0  0
    5.0875   -6.4663    0.0000 O   0  0  0  0  0  0  0  0  0  0  0  0
    4.6319   -7.8663    0.0000 C   0  0  0  0  0  0  0  0  0  0  0  0
    3.8159   -7.7338    0.0000 O   0  0  0  0  0  0  0  0  0  0  0  0
    5.0063   -8.6015    0.0000 C   0  0  0  0  0  0  0  0  0  0  0  0
    5.8175   -8.4752    0.0000 O   0  0  0  0  0  0  0  0  0  0  0  0
    4.6298   -9.3347    0.0000 N   0  0  0  0  0  0  0  0  0  0  0  0
    3.8134   -9.4640    0.0000 C   0  0  0  0  0  0  0  0  0  0  0  0
    3.6810  -10.2800    0.0000 N   0  0  0  0  0  0  0  0  0  0  0  0
    4.4193  -10.6536    0.0000 C   0  0  0  0  0  0  0  0  0  0  0  0
    4.6310  -11.4522    0.0000 C   0  0  0  0  0  0  0  0  0  0  0  0
    4.0461  -12.0358    0.0000 N   0  0  0  0  0  0  0  0  0  0  0  0
    5.4274  -11.6673    0.0000 N   0  0  0  0  0  0  0  0  0  0  0  0
    6.0123  -11.0837    0.0000 C   0  0  0  0  0  0  0  0  0  0  0  0
    5.7995  -10.2891    0.0000 N   0  0  0  0  0  0  0  0  0  0  0  0
    5.0031  -10.0740    0.0000 C   0  0  0  0  0  0  0  0  0  0  0  0
    7.3877   -7.7174    0.0000 N   0  0  0  0  0  0  0  0  0  0  0  0
   10.9417   -6.4667    0.0000 C   0  0  0  0  0  0  0  0  0  0  0  0
   11.6561   -6.0542    0.0000 N   0  0  0  0  0  0  0  0  0  0  0  0
   10.2230   -6.0542    0.0000 C   0  0  0  0  0  0  0  0  0  0  0  0
   10.9417   -7.2958    0.0000 O   0  0  0  0  0  0  0  0  0  0  0  0
    9.5044   -6.4667    0.0000 C   0  0  0  0  0  0  0  0  0  0  0  0
    8.7858   -6.0542    0.0000 C   0  0  0  0  0  0  0  0  0  0  0  0
    8.0700   -6.4600    0.0000 C   0  0  0  0  0  0  0  0  0  0  0  0
    8.0910   -7.2883    0.0000 C   0  0  0  0  0  0  0  0  0  0  0  0
   12.3706   -6.4667    0.0000 C   0  0  0  0  0  0  0  0  0  0  0  0
   13.0851   -6.0542    0.0000 C   0  0  0  0  0  0  0  0  0  0  0  0
   13.7996   -6.4667    0.0000 N   0  0  0  0  0  0  0  0  0  0  0  0
   12.3706   -7.2917    0.0000 C   0  0  0  0  0  0  0  0  0  0  0  0
   13.0851   -5.2292    0.0000 O   0  0  0  0  0  0  0  0  0  0  0  0
   13.0851   -7.7042    0.0000 C   0  0  0  0  0  0  0  0  0  0  0  0
   13.0806   -8.5302    0.0000 C   0  0  0  0  0  0  0  0  0  0  0  0
   13.7942   -8.9427    0.0000 C   0  0  0  0  0  0  0  0  0  0  0  0
   13.7938   -9.7677    0.0000 N   0  0  0  0  0  0  0  0  0  0  0  0
   14.5140   -6.0542    0.0000 C   0  0  0  0  0  0  0  0  0  0  0  0
   15.2285   -6.4667    0.0000 C   0  0  0  0  0  0  0  0  0  0  0  0
   15.9430   -6.0542    0.0000 C   0  0  0  0  0  0  0  0  0  0  0  0
   16.6574   -6.4667    0.0000 C   0  0  0  0  0  0  0  0  0  0  0  0
   16.6574   -7.2917    0.0000 O   0  0  0  0  0  0  0  0  0  0  0  0
   17.3719   -6.0542    0.0000 N   0  0  0  0  0  0  0  0  0  0  0  0
   18.0903   -6.4708    0.0000 C   0  0  0  0  0  0  0  0  0  0  0  0
   18.8048   -6.0583    0.0000 C   0  0  0  0  0  0  0  0  0  0  0  0
   18.0903   -7.2958    0.0000 C   0  0  0  0  0  0  0  0  0  0  0  0
   19.5193   -6.4708    0.0000 N   0  0  0  0  0  0  0  0  0  0  0  0
   18.8048   -5.2333    0.0000 O   0  0  0  0  0  0  0  0  0  0  0  0
   20.2337   -6.0583    0.0000 C   0  0  0  0  0  0  0  0  0  0  0  0
   20.9482   -6.4708    0.0000 C   0  0  0  0  0  0  0  0  0  0  0  0
   20.2337   -5.2333    0.0000 C   0  0  0  0  0  0  0  0  0  0  0  0
   20.9482   -4.8208    0.0000 C   0  0  0  0  0  0  0  0  0  0  0  0
   20.9482   -3.9958    0.0000 C   0  0  0  0  0  0  0  0  0  0  0  0
   21.6627   -3.5833    0.0000 N   0  0  0  0  0  0  0  0  0  0  0  0
   21.6627   -2.7583    0.0000 C   0  0  0  0  0  0  0  0  0  0  0  0
   22.3771   -2.3458    0.0000 N   0  0  0  0  0  0  0  0  0  0  0  0
   20.9482   -2.3458    0.0000 N   0  0  0  0  0  0  0  0  0  0  0  0
   20.9482   -7.2958    0.0000 O   0  0  0  0  0  0  0  0  0  0  0  0
   21.6627   -6.0583    0.0000 N   0  0  0  0  0  0  0  0  0  0  0  0
   18.8048   -7.7083    0.0000 C   0  0  0  0  0  0  0  0  0  0  0  0
   18.8048   -8.5333    0.0000 C   0  0  0  0  0  0  0  0  0  0  0  0
   19.5193   -8.9458    0.0000 N   0  0  0  0  0  0  0  0  0  0  0  0
   19.5193   -9.7708    0.0000 C   0  0  0  0  0  0  0  0  0  0  0  0
   20.2337  -10.1833    0.0000 N   0  0  0  0  0  0  0  0  0  0  0  0
   18.8048  -10.1833    0.0000 N   0  0  0  0  0  0  0  0  0  0  0  0
 11 12  2  0  0  0  0 
 29 32  1  1  0  0  0 
 12 13  1  0  0  0  0 
 30 33  2  0  0  0  0 
 13 14  1  0  0  0  0 
 32 34  1  0  0  0  0 
 14 15  1  0  0  0  0 
 34 35  1  0  0  0  0 
 14 16  2  0  0  0  0 
 35 36  1  0  0  0  0 
 16 17  1  0  0  0  0 
 36 37  1  0  0  0  0 
 17 18  2  0  0  0  0 
 31 38  1  0  0  0  0 
 18 19  1  0  0  0  0 
 38 39  1  0  0  0  0 
 13 19  2  0  0  0  0 
 39 40  1  0  0  0  0 
 10 19  1  0  0  0  0 
 40 41  1  0  0  0  0 
 41 42  2  0  0  0  0 
  2 20  1  0  0  0  0 
 41 43  1  0  0  0  0 
  1  2  2  0  0  0  0 
 43 44  1  0  0  0  0 
  3  2  1  1  0  0  0 
 44 45  1  0  0  0  0 
 21 22  1  0  0  0  0 
 44 46  1  1  0  0  0 
  3  4  1  0  0  0  0 
 45 47  1  0  0  0  0 
 21 23  1  0  0  0  0 
 45 48  2  0  0  0  0 
  4  5  1  6  0  0  0 
 47 49  1  0  0  0  0 
 21 24  2  0  0  0  0 
 49 50  1  0  0  0  0 
  4  6  1  0  0  0  0 
 49 51  1  6  0  0  0 
 23 25  1  0  0  0  0 
 51 52  1  0  0  0  0 
  6  7  1  6  0  0  0 
 52 53  1  0  0  0  0 
 25 26  1  0  0  0  0 
 53 54  1  0  0  0  0 
  6  8  1  0  0  0  0 
 54 55  1  0  0  0  0 
 26 27  1  0  0  0  0 
 55 56  2  0  0  0  0 
  8  9  1  0  0  0  0 
 55 57  1  0  0  0  0 
 27 28  1  0  0  0  0 
 50 58  2  0  0  0  0 
 28 20  1  0  0  0  0 
 50 59  1  0  0  0  0 
  3  9  1  0  0  0  0 
 46 60  1  0  0  0  0 
 22 29  1  0  0  0  0 
 60 61  1  0  0  0  0 
  8 10  1  1  0  0  0 
 61 62  1  0  0  0  0 
 29 30  1  0  0  0  0 
 62 63  1  0  0  0  0 
 10 11  1  0  0  0  0 
 63 64  1  0  0  0  0 
 30 31  1  0  0  0  0 
 63 65  2  0  0  0  0 
M  END