
  SciTegic12231509382D

 20 20  0  0  0  0            999 V2000
   -0.8875   -6.4042    0.0000 C   0  0
   -0.1667   -5.1625    0.0000 C   0  0
   -0.1625   -5.9917    0.0000 C   0  0
   -1.6000   -5.9917    0.0000 C   0  0
   -0.8875   -4.7542    0.0000 C   0  0
   -1.6000   -5.1667    0.0000 C   0  0
    0.5458   -4.7417    0.0000 O   0  0
    1.2625   -5.1542    0.0000 C   0  0
    1.2625   -5.9792    0.0000 O   0  0
   -0.8875   -7.2292    0.0000 C   0  0
   -2.3125   -6.4042    0.0000 O   0  0
   -4.4542   -5.9917    0.0000 N   0  0
   -3.0250   -5.9917    0.0000 C   0  0
   -0.8875   -3.9292    0.0000 C   0  0
    1.9750   -4.7417    0.0000 C   0  0
   -3.7458   -6.4042    0.0000 C   0  0
   -5.1750   -6.4000    0.0000 C   0  0
   -4.4542   -5.1667    0.0000 C   0  0
   -1.6000   -7.6417    0.0000 C   0  0
   -0.1750   -7.6417    0.0000 C   0  0
  2  3  1  0
  3  1  2  0
  4  1  1  0
  5  6  1  0
  6  4  2  0
  7  2  1  0
  8  7  1  0
  9  8  2  0
 10  1  1  0
 11  4  1  0
 12 16  1  0
 13 11  1  0
 14  5  1  0
 15  8  1  0
 16 13  1  0
 17 12  1  0
 18 12  1  0
 19 10  1  0
 20 10  1  0
  2  5  2  0
M  END