
  SciTegic02181312462D

 36 39  0  0  0  0            999 V2000
   12.9728   -6.8548    0.0000 C   0  0
   13.6873   -7.2673    0.0000 C   0  0
   14.4018   -6.8548    0.0000 C   0  0
   14.4018   -6.0298    0.0000 C   0  0
   13.6873   -5.6173    0.0000 C   0  0
   12.9728   -6.0298    0.0000 N   0  0
   12.2584   -7.2673    0.0000 C   0  0
   12.2584   -8.0923    0.0000 O   0  0
   11.5439   -6.8548    0.0000 N   0  0
   16.5452   -4.7923    0.0000 N   0  0
   15.8307   -4.3798    0.0000 C   0  0
   15.1163   -4.7923    0.0000 C   0  0
   15.1163   -5.6173    0.0000 C   0  0
   15.8307   -6.0298    0.0000 C   0  0
   16.5452   -5.6173    0.0000 C   0  0
   17.2597   -4.3798    0.0000 C   0  0
   17.9741   -4.7923    0.0000 C   0  0
   10.8294   -7.2673    0.0000 C   0  0
   10.1150   -6.8548    0.0000 C   0  0
    9.4005   -7.2673    0.0000 C   0  0
    9.4005   -8.0923    0.0000 C   0  0
   10.1150   -8.5048    0.0000 C   0  0
   10.8294   -8.0923    0.0000 C   0  0
    8.6860   -8.5048    0.0000 N   0  0
    7.9715   -8.0923    0.0000 C   0  0
    7.9715   -7.2673    0.0000 O   0  0
    7.2571   -8.5048    0.0000 N   0  0
    5.2369   -7.8148    0.0000 O   0  0
    5.7889   -8.4279    0.0000 N   0  0
    6.5426   -8.0923    0.0000 C   0  0
    6.4564   -7.2718    0.0000 C   0  0
    5.6494   -7.1003    0.0000 C   0  0
    5.3138   -6.3466    0.0000 C   0  0
    5.8972   -5.7633    0.0000 C   0  0
    4.9783   -5.5929    0.0000 C   0  0
    4.5169   -6.1331    0.0000 C   0  0
  1  2  1  0
  2  3  2  0
  3  4  1  0
  4  5  2  0
  5  6  1  0
  1  6  2  0
  1  7  1  0
  7  8  2  0
  7  9  1  0
 10 11  1  0
 11 12  1  0
 12 13  1  0
 13 14  1  0
 14 15  1  0
 10 15  1  0
 16 17  1  0
 10 16  1  0
  4 13  1  0
 18 19  1  0
 19 20  2  0
 20 21  1  0
 21 22  2  0
 22 23  1  0
 18 23  2  0
 24 25  1  0
 25 26  2  0
 25 27  1  0
 28 29  1  0
 29 30  2  0
 30 31  1  0
 31 32  2  0
 28 32  1  0
 33 34  1  0
 33 36  1  0
 33 35  1  0
 32 33  1  0
 27 30  1  0
 21 24  1  0
  9 18  1  0
M  END