
          11280715512D 1   1.00000     0.00000     0

 41 44  0     0  0            999 V2000
    7.4652   -8.1041    0.0000 C   0  0  0  0  0  0           0  0  0
    7.4641   -8.9315    0.0000 C   0  0  0  0  0  0           0  0  0
    8.1789   -9.3444    0.0000 C   0  0  0  0  0  0           0  0  0
    8.1771   -7.6914    0.0000 C   0  0  0  0  0  0           0  0  0
    8.8973   -8.9286    0.0000 C   0  0  0  0  0  0           0  0  0
    8.8925   -8.1005    0.0000 C   0  0  0  0  0  0           0  0  0
    9.5396   -7.5746    0.0000 N   0  0  3  0  0  0           0  0  0
    9.5535   -9.4431    0.0000 C   0  0  0  0  0  0           0  0  0
   10.3517   -7.7489    0.0000 C   0  0  0  0  0  0           0  0  0
   10.3642   -9.2500    0.0000 N   0  0  0  0  0  0           0  0  0
   10.7165   -8.4953    0.0000 N   0  0  3  0  0  0           0  0  0
   10.8600   -7.0990    0.0000 O   0  0  0  0  0  0           0  0  0
    9.3771  -10.2490    0.0000 C   0  0  3  0  0  0           0  0  0
   11.5415   -8.4879    0.0000 C   0  0  0  0  0  0           0  0  0
   11.9604   -9.1987    0.0000 C   0  0  0  0  0  0           0  0  0
   12.7853   -9.1913    0.0000 N   0  0  0  0  0  0           0  0  0
   11.5542   -9.9168    0.0000 O   0  0  0  0  0  0           0  0  0
    9.3471   -6.7724    0.0000 C   0  0  0  0  0  0           0  0  0
    9.9455   -6.2045    0.0000 C   0  0  0  0  0  0           0  0  0
    9.7530   -5.4023    0.0000 C   0  0  3  0  0  0           0  0  0
   10.7365   -6.4389    0.0000 O   0  0  0  0  0  0           0  0  0
    9.5333   -4.6000    0.0000 C   0  0  0  0  0  0           0  0  0
   10.5521   -5.1971    0.0000 C   0  0  0  0  0  0           0  0  0
    8.9557   -5.6144    0.0000 C   0  0  0  0  0  0           0  0  0
   13.2042   -9.9021    0.0000 C   0  0  0  0  0  0           0  0  0
   12.7961  -10.6180    0.0000 C   0  0  0  0  0  0           0  0  0
   13.2143  -11.3282    0.0000 C   0  0  0  0  0  0           0  0  0
   14.0402  -11.3213    0.0000 C   0  0  0  0  0  0           0  0  0
   14.4461  -10.5982    0.0000 C   0  0  0  0  0  0           0  0  0
   14.0255   -9.8909    0.0000 C   0  0  0  0  0  0           0  0  0
   15.2710  -10.5879    0.0000 N   0  0  3  0  0  0           0  0  0
    8.5934  -10.4987    0.0000 C   0  0  0  0  0  0           0  0  0
    8.4157  -11.3006    0.0000 C   0  0  0  0  0  0           0  0  0
    9.0228  -11.8598    0.0000 C   0  0  0  0  0  0           0  0  0
    9.8105  -11.6113    0.0000 C   0  0  0  0  0  0           0  0  0
    9.9911  -10.8036    0.0000 C   0  0  0  0  0  0           0  0  0
   15.6746   -9.8683    0.0000 C   0  0  0  0  0  0           0  0  0
   16.4995   -9.8581    0.0000 C   0  0  0  0  0  0           0  0  0
   16.9031   -9.1385    0.0000 N   0  0  0  0  0  0           0  0  0
   17.7280   -9.1283    0.0000 C   0  0  0  0  0  0           0  0  0
   15.6924  -11.2972    0.0000 C   0  0  0  0  0  0           0  0  0
 19 20  1  0     0  0
  8 10  2  0     0  0
 19 21  2  0     0  0
 20 22  1  0     0  0
  9 11  1  0     0  0
 20 23  1  0     0  0
 10 11  1  0     0  0
 20 24  1  0     0  0
  2  3  1  0     0  0
 16 25  1  0     0  0
  9 12  2  0     0  0
 25 26  2  0     0  0
  5  6  1  0     0  0
 26 27  1  0     0  0
  8 13  1  0     0  0
 27 28  2  0     0  0
  3  5  2  0     0  0
 28 29  1  0     0  0
 11 14  1  0     0  0
 29 30  2  0     0  0
 30 25  1  0     0  0
  6  7  1  0     0  0
 29 31  1  0     0  0
 13 32  1  0     0  0
 14 15  1  0     0  0
  1  2  2  0     0  0
 15 16  1  0     0  0
  5  8  1  0     0  0
 15 17  2  0     0  0
 13 36  1  0     0  0
 32 33  1  0     0  0
 33 34  1  0     0  0
 34 35  1  0     0  0
 35 36  1  0     0  0
  6  4  2  0     0  0
 31 37  1  0     0  0
  7 18  1  0     0  0
 37 38  1  0     0  0
  7  9  1  0     0  0
 38 39  1  0     0  0
 18 19  1  0     0  0
 39 40  1  0     0  0
  4  1  1  0     0  0
 31 41  1  0     0  0
M  END