
          11280714522D 1   1.00000     0.00000     0

 23 25  0     1  0            999 V2000
    1.5625   -6.6542    0.0000 S   0  0  3  0  0  0           0  0  0
    0.4917   -4.0292    0.0000 C   0  0  2  0  0  0           0  0  0
    0.4792   -4.8542    0.0000 C   0  0  0  0  0  0           0  0  0
    1.2125   -3.6250    0.0000 N   0  0  3  0  0  0           0  0  0
    1.7792   -5.8625    0.0000 N   0  0  3  0  0  0           0  0  0
    1.1917   -5.2792    0.0000 C   0  0  2  0  0  0           0  0  0
   -0.2333   -3.6250    0.0000 C   0  0  0  0  0  0           0  0  0
    0.7625   -6.4417    0.0000 O   0  0  0  0  0  0           0  0  0
    2.3542   -6.8667    0.0000 O   0  0  0  0  0  0           0  0  0
    1.9167   -4.8667    0.0000 C   0  0  0  0  0  0           0  0  0
    1.9250   -4.0417    0.0000 C   0  0  0  0  0  0           0  0  0
   -0.2250   -2.7917    0.0000 C   0  0  0  0  0  0           0  0  0
    1.2125   -2.7917    0.0000 C   0  0  0  0  0  0           0  0  0
    0.4917   -2.3667    0.0000 C   0  0  0  0  0  0           0  0  0
    1.3625   -7.4542    0.0000 C   0  0  0  0  0  0           0  0  0
    2.5750   -5.6417    0.0000 C   0  0  0  0  0  0           0  0  0
   -0.9458   -4.0292    0.0000 C   0  0  0  0  0  0           0  0  0
   -0.9458   -2.3792    0.0000 C   0  0  0  0  0  0           0  0  0
    3.1542   -6.2292    0.0000 C   0  0  0  0  0  0           0  0  0
   -1.6583   -3.6167    0.0000 C   0  0  0  0  0  0           0  0  0
   -1.6583   -2.7917    0.0000 C   0  0  0  0  0  0           0  0  0
    0.4792   -5.6875    0.0000 H   0  0  0  0  0  0           0  0  0
   -0.2250   -4.4417    0.0000 H   0  0  0  0  0  0           0  0  0
  2  3  1  0     0  0
  3  6  1  0     0  0
  4 11  1  0     0  0
  5  1  1  0     0  0
  6  5  1  0     0  0
  7  2  1  0     0  0
  8  1  2  0     0  0
  9  1  2  0     0  0
 10  6  1  0     0  0
 11 10  1  0     0  0
 12  7  1  0     0  0
 13  4  1  0     0  0
 14 13  1  0     0  0
 15  1  1  0     0  0
 16  5  1  0     0  0
 17  7  2  0     0  0
 18 12  2  0     0  0
 19 16  1  0     0  0
 20 17  1  0     0  0
 21 20  2  0     0  0
  6 22  1  6     0  0
  2 23  1  6     0  0
  2  4  1  0     0  0
 14 12  1  0     0  0
 21 18  1  0     0  0
M  END