
          02060813482D 1   1.00000     0.00000     0

 16 17  0     0  0            999 V2000
   12.5986  -10.9750    0.0000 C   0  0  0  0  0  0           0  0  0
   12.5974  -11.8023    0.0000 C   0  0  3  0  0  0           0  0  0
   13.3122  -12.2152    0.0000 C   0  0  0  0  0  0           0  0  0
   14.0287  -11.8019    0.0000 C   0  0  0  0  0  0           0  0  0
   14.0258  -10.9713    0.0000 N   0  0  0  0  0  0           0  0  0
   13.3104  -10.5622    0.0000 C   0  0  0  0  0  0           0  0  0
   11.8826  -12.2143    0.0000 C   0  0  0  0  0  0           0  0  0
   11.1685  -11.8012    0.0000 N   0  0  0  0  0  0           0  0  0
   11.8820  -13.0393    0.0000 O   0  0  0  0  0  0           0  0  0
   10.4537  -12.2131    0.0000 C   0  0  0  0  0  0           0  0  0
    9.7403  -11.7979    0.0000 N   0  0  0  0  0  0           0  0  0
    9.0260  -12.2091    0.0000 C   0  0  0  0  0  0           0  0  0
    9.0249  -13.0350    0.0000 C   0  0  0  0  0  0           0  0  0
    9.7441  -13.4479    0.0000 C   0  0  0  0  0  0           0  0  0
   10.4554  -13.0343    0.0000 C   0  0  0  0  0  0           0  0  0
    9.7463  -14.2729    0.0000 C   0  0  0  0  0  0           0  0  0
  7  8  1  0     0  0
  7  9  2  0     0  0
  4  5  1  0     0  0
  8 10  1  0     0  0
  2  3  1  0     0  0
 10 11  2  0     0  0
  5  6  1  0     0  0
 11 12  1  0     0  0
  6  1  1  0     0  0
 12 13  2  0     0  0
  1  2  1  0     0  0
 13 14  1  0     0  0
  2  7  1  0     0  0
 14 15  2  0     0  0
 15 10  1  0     0  0
  3  4  1  0     0  0
 14 16  1  0     0  0
M  END