
  SciTegic05071317012D

 15 15  0  0  0  0            999 V2000
   24.6677  -13.7319    0.0000 C   0  0
   24.1439  -14.3692    0.0000 N   0  0
   24.5864  -15.0656    0.0000 C   0  0
   25.3876  -14.8577    0.0000 N   0  0
   25.4339  -14.0347    0.0000 C   0  0
   26.1289  -13.5903    0.0000 C   0  0
   26.8614  -13.9699    0.0000 C   0  0
   27.5565  -13.5254    0.0000 C   0  0
   28.2890  -13.9050    0.0000 N   0  0
   28.9840  -13.4605    0.0000 C   0  0
   29.7164  -13.8401    0.0000 N   0  0
   28.9465  -12.6363    0.0000 N   0  0
   29.6416  -12.1919    0.0000 C   0  0
   30.4115  -13.3957    0.0000 C   0  0
   30.3315  -11.7454    0.0000 N   0  0
  1  2  1  0
  2  3  1  0
  3  4  2  0
  4  5  1  0
  5  1  2  0
  5  6  1  0
  6  7  1  0
  7  8  1  0
  8  9  1  0
  9 10  1  0
 10 11  1  0
 10 12  2  0
 12 13  1  0
 11 14  1  0
 13 15  3  0
M  END