
  Mrv0541 05211314572D          

 27 28  0  0  0  0            999 V2000
    1.3535   -1.2574    0.0000 N   0  0  0  0  0  0  0  0  0  0  0  0
    2.0679   -0.0199    0.0000 C   0  0  0  0  0  0  0  0  0  0  0  0
    2.0679   -0.8449    0.0000 C   0  0  0  0  0  0  0  0  0  0  0  0
    1.3535    0.3926    0.0000 C   0  0  0  0  0  0  0  0  0  0  0  0
    0.6390   -0.8449    0.0000 C   0  0  0  0  0  0  0  0  0  0  0  0
    0.6390   -0.0199    0.0000 N   0  0  0  0  0  0  0  0  0  0  0  0
    2.7824    0.3926    0.0000 C   0  0  0  0  0  0  0  0  0  0  0  0
    1.3535    1.2176    0.0000 C   0  0  0  0  0  0  0  0  0  0  0  0
   -3.6478   -0.8449    0.0000 C   0  0  0  0  0  0  0  0  0  0  0  0
   -2.9334   -1.2574    0.0000 C   0  0  0  0  0  0  0  0  0  0  0  0
    2.7824    1.2176    0.0000 C   0  0  0  0  0  0  0  0  0  0  0  0
    2.0679    1.6301    0.0000 C   0  0  0  0  0  0  0  0  0  0  0  0
   -4.4015   -1.1804    0.0000 O   0  0  0  0  0  0  0  0  0  0  0  0
   -3.7341   -0.0244    0.0000 C   0  0  0  0  0  0  0  0  0  0  0  0
   -2.9334   -2.0824    0.0000 O   0  0  0  0  0  0  0  0  0  0  0  0
   -4.9535   -0.5673    0.0000 C   0  0  0  0  0  0  0  0  0  0  0  0
   -4.5410    0.1471    0.0000 C   0  0  0  0  0  0  0  0  0  0  0  0
   -0.0755   -1.2574    0.0000 N   0  0  0  0  0  0  0  0  0  0  0  0
    2.7824   -1.2574    0.0000 N   0  0  0  0  0  0  0  0  0  0  0  0
   -2.2189   -0.8449    0.0000 N   0  0  0  0  0  0  0  0  0  0  0  0
    3.4969    1.6301    0.0000 O   0  0  0  0  0  0  0  0  0  0  0  0
    2.0679    2.4551    0.0000 O   0  0  0  0  0  0  0  0  0  0  0  0
    5.7362    0.0000    0.0000 Cl  0  0  0  0  0  0  0  0  0  0  0  0
   -0.7900   -0.8449    0.0000 C   0  0  0  0  0  0  0  0  0  0  0  0
   -1.5044   -1.2574    0.0000 C   0  0  0  0  0  0  0  0  0  0  0  0
    3.4969    2.4551    0.0000 C   0  0  0  0  0  0  0  0  0  0  0  0
    2.7824    2.8676    0.0000 C   0  0  0  0  0  0  0  0  0  0  0  0
  1  3  2  0  0  0  0
  2  3  1  0  0  0  0
  2  4  2  0  0  0  0
  1  5  1  0  0  0  0
  4  6  1  0  0  0  0
  5  6  2  0  0  0  0
  2  7  1  0  0  0  0
  4  8  1  0  0  0  0
  9 10  1  0  0  0  0
  7 11  2  0  0  0  0
  8 12  2  0  0  0  0
 11 12  1  0  0  0  0
  9 13  1  0  0  0  0
  9 14  2  0  0  0  0
 10 15  2  0  0  0  0
 13 16  1  0  0  0  0
 14 17  1  0  0  0  0
 16 17  2  0  0  0  0
  5 18  1  0  0  0  0
  3 19  1  0  0  0  0
 10 20  1  0  0  0  0
 11 21  1  0  0  0  0
 12 22  1  0  0  0  0
 18 24  1  0  0  0  0
 20 25  1  0  0  0  0
 24 25  1  0  0  0  0
 21 26  1  0  0  0  0
 22 27  1  0  0  0  0
M  END