
          11280715332D 1   1.00000     0.00000     0

 37 42  0     1  0            999 V2000
    4.7875   -4.5542    0.0000 N   0  0  3  0  0  0           0  0  0
    4.0667   -4.9750    0.0000 C   0  0  0  0  0  0           0  0  0
    5.4417   -5.0542    0.0000 C   0  0  3  0  0  0           0  0  0
    3.3792   -4.5792    0.0000 C   0  0  2  0  0  0           0  0  0
    4.8875   -3.7417    0.0000 C   0  0  0  0  0  0           0  0  0
    5.3417   -6.4625    0.0000 C   0  0  3  0  0  0           0  0  0
    4.1292   -2.7292    0.0000 C   0  0  0  0  0  0           0  0  0
    5.3417   -5.8792    0.0000 N   0  0  0  0  0  0           0  0  0
    3.3750   -3.5000    0.0000 C   0  0  0  0  0  0           0  0  0
    3.6375   -2.1042    0.0000 C   0  0  0  0  0  0           0  0  0
    4.9167   -2.6250    0.0000 C   0  0  0  0  0  0           0  0  0
    6.2042   -4.7292    0.0000 C   0  0  0  0  0  0           0  0  0
    5.6417   -3.4167    0.0000 C   0  0  0  0  0  0           0  0  0
    6.3042   -3.9167    0.0000 C   0  0  0  0  0  0           0  0  0
    4.0667   -5.7750    0.0000 O   0  0  0  0  0  0           0  0  0
    2.6917   -4.9750    0.0000 N   0  0  3  0  0  0           0  0  0
    6.0750   -7.7125    0.0000 C   0  0  3  0  0  0           0  0  0
    4.8750   -8.1542    0.0000 C   0  0  3  0  0  0           0  0  0
    4.5750   -7.7792    0.0000 C   0  0  3  0  0  0           0  0  0
    5.2167   -1.8875    0.0000 C   0  0  0  0  0  0           0  0  0
    3.9375   -1.3667    0.0000 C   0  0  0  0  0  0           0  0  0
    6.0750   -6.8875    0.0000 C   0  0  0  0  0  0           0  0  0
    4.8750   -7.0917    0.0000 C   0  0  0  0  0  0           0  0  0
    4.5750   -6.8667    0.0000 C   0  0  0  0  0  0           0  0  0
    4.7292   -1.2542    0.0000 C   0  0  0  0  0  0           0  0  0
    5.3542   -8.0917    0.0000 C   0  0  0  0  0  0           0  0  0
    5.7042   -8.4500    0.0000 C   0  0  0  0  0  0           0  0  0
    4.2167   -8.4500    0.0000 C   0  0  0  0  0  0           0  0  0
    5.0292   -0.5167    0.0000 O   0  0  0  0  0  0           0  0  0
    5.4042   -3.2542    0.0000 C   0  0  0  0  0  0           0  0  0
    2.8500   -2.2167    0.0000 C   0  0  0  0  0  0           0  0  0
    5.7417   -2.6042    0.0000 C   0  0  0  0  0  0           0  0  0
    7.0667   -3.5917    0.0000 C   0  0  0  0  0  0           0  0  0
    2.0000   -4.5792    0.0000 C   0  0  0  0  0  0           0  0  0
    2.6917   -5.7750    0.0000 C   0  0  0  0  0  0           0  0  0
    6.5042   -2.2792    0.0000 C   0  0  0  0  0  0           0  0  0
    7.1667   -2.7750    0.0000 C   0  0  0  0  0  0           0  0  0
  2  1  1  0     0  0
  3  1  1  0     0  0
  4  2  1  0     0  0
  5  1  1  0     0  0
  6  8  1  0     0  0
  7  9  1  0     0  0
  8  3  1  0     0  0
  4  9  1  1     0  0
 10  7  1  0     0  0
 11  7  2  0     0  0
 12  3  1  0     0  0
 13  5  1  0     0  0
 14 13  1  0     0  0
 15  2  2  0     0  0
 16  4  1  0     0  0
 17 22  1  0     0  0
 18 23  1  0     0  0
 19 24  1  0     0  0
 20 11  1  0     0  0
 21 10  2  0     0  0
 22  6  1  0     0  0
 23  6  1  0     0  0
 24  6  1  0     0  0
 25 20  2  0     0  0
 26 19  1  0     0  0
 27 18  1  0     0  0
 28 19  1  0     0  0
 29 25  1  0     0  0
 30 11  1  0     0  0
 31 10  1  0     0  0
 32 13  2  0     0  0
 33 14  2  0     0  0
 34 16  1  0     0  0
 35 16  1  0     0  0
 36 32  1  0     0  0
 37 36  2  0     0  0
 14 12  1  0     0  0
 33 37  1  0     0  0
 18 28  1  0     0  0
 17 26  1  0     0  0
 17 27  1  0     0  0
 21 25  1  0     0  0
M  END