
  SciTegic10041313222D

 34 41  0  0  0  0            999 V2000
   -1.0250   -0.9042    0.0000 C   0  0
    0.1917   -1.6417    0.0000 C   0  0
   -0.6000   -0.2042    0.0000 C   0  0
    0.6167   -0.9292    0.0000 C   0  0
   -0.6333   -1.6167    0.0000 C   0  0
   -1.8458   -0.8917    0.0000 C   0  0
    1.0250   -2.0917    0.0000 N   0  0
   -2.2625   -1.5917    0.0000 C   0  0
   -1.4125   -1.9917    0.0000 O   0  0
   -0.9875    0.5208    0.0000 C   0  0
   -0.5833    1.2458    0.0000 N   0  0
    1.8500   -1.6167    0.0000 C   0  0
    0.2250   -0.2125    0.0000 C   0  0
    1.4250   -0.9292    0.0000 C   0  0
   -2.2375   -0.1792    0.0000 C   0  0
   -1.8125    0.5333    0.0000 C   0  0
   -1.4375   -0.1792    0.0000 C   0  0
    4.6750   -0.8917    0.0000 C   0  0
    2.6375   -1.6042    0.0000 C   0  0
   -0.5875    2.0708    0.0000 C   0  0
   -3.0750   -1.5792    0.0000 C   0  0
    1.8125   -0.2292    0.0000 C   0  0
   -1.4083    1.2458    0.0000 C   0  0
    0.1125    2.4958    0.0000 C   0  0
    3.8500   -0.8917    0.0000 N   0  0
    5.6436   -0.8917    0.0000 S   0  0
    0.4917    3.2333    0.0000 C   0  0
    0.9292    2.5333    0.0000 C   0  0
   -3.0500   -0.1542    0.0000 C   0  0
   -0.1875    0.5208    0.0000 O   0  0
    3.0250   -0.9042    0.0000 C   0  0
   -3.4750   -0.8542    0.0000 C   0  0
    2.6125   -0.2125    0.0000 C   0  0
   -3.4875   -2.2917    0.0000 O   0  0
  2  5  1  0
  3  1  1  0
  4  2  2  0
  5  1  1  0
  6  1  1  0
  7  2  1  0
  8  6  1  0
  9  5  1  0
 10  3  1  0
 11 23  1  0
 12  7  1  0
 13  3  1  0
 14  4  1  0
 15  6  2  0
 16 15  1  0
 17  1  1  0
 18 25  2  0
 19 12  1  0
 20 11  1  0
 21  8  2  0
 22 14  1  0
 23 17  1  0
 24 20  1  0
 25 31  1  0
 26 18  2  0
 27 24  1  0
 28 24  1  0
 29 15  1  0
 30  3  1  0
 31 19  2  0
 32 29  2  0
 33 22  2  0
 34 21  1  0
  8  9  1  0
 13  4  1  0
 11 10  1  0
 16 10  1  0
 32 21  1  0
 12 14  2  0
 27 28  1  0
 33 31  1  0
M  END