
  SciTegic05071317052D

 22 20  0  0  0  0            999 V2000
    2.3708   -5.1791    0.0000 C   0  0
    2.3708   -6.0041    0.0000 C   0  0
    3.0828   -6.4124    0.0000 N   0  0
    3.7949   -6.0041    0.0000 C   0  0
    3.7949   -5.1791    0.0000 C   0  0
    3.0828   -4.7624    0.0000 N   0  0
    3.0833   -3.9372    0.0000 C   0  0
    3.7507   -3.4522    0.0000 N   0  0
    3.4958   -2.6671    0.0000 C   0  0
    2.6706   -2.6676    0.0000 C   0  0
    2.4158   -3.4522    0.0000 S   0  0
    3.8955   -1.9455    0.0000 C   0  0
    4.7204   -1.9309    0.0000 C   0  0
    5.1202   -1.2091    0.0000 N   0  0
    5.9450   -1.1945    0.0000 C   0  0
    4.6951   -0.5021    0.0000 C   0  0
    3.0828   -7.2374    0.0000 C   0  0
    2.3684   -7.6499    0.0000 C   0  0
    2.3684   -8.4749    0.0000 C   0  0
    6.4289   -3.8110    0.0000 Br  0  0
    6.5411   -5.2741    0.0000 Br  0  0
    5.6866   -6.0696    0.0000 Br  0  0
  1  2  1  0
  1  6  1  0
  2  3  1  0
  3  4  1  0
  4  5  1  0
  5  6  1  0
  7  8  2  0
  8  9  1  0
  9 10  2  0
 10 11  1  0
 11  7  1  0
  6  7  1  0
  9 12  1  0
 12 13  1  0
 13 14  1  0
 14 15  1  0
 14 16  1  0
  3 17  1  0
 17 18  1  0
 18 19  1  0
M  END