
  SciTegic04091414152D

 18 18  0  0  0  0            999 V2000
   26.9706  -15.5081    0.0000 C   0  0
   26.9706  -16.3331    0.0000 C   0  0
   27.6825  -16.7415    0.0000 C   0  0
   28.3946  -16.3331    0.0000 C   0  0
   28.3946  -15.5081    0.0000 C   0  0
   27.6825  -15.0915    0.0000 N   0  0
   29.1102  -15.0977    0.0000 O   0  0
   26.2548  -15.0977    0.0000 O   0  0
   26.2566  -16.7467    0.0000 C   0  0
   25.5460  -17.1596    0.0000 N   0  0
   27.6825  -17.5665    0.0000 C   0  0
   29.1084  -16.7467    0.0000 C   0  0
   29.8235  -16.3352    0.0000 N   0  0
   30.5373  -16.7488    0.0000 C   0  0
   31.2524  -16.3373    0.0000 C   0  0
   31.9663  -16.7509    0.0000 O   0  0
   30.5362  -17.5738    0.0000 C   0  0
   29.8211  -17.9852    0.0000 O   0  0
  1  2  1  0
  1  6  1  0
  2  3  2  0
  3  4  1  0
  4  5  2  0
  5  6  1  0
  5  7  1  0
  1  8  2  0
  2  9  1  0
  9 10  3  0
  3 11  1  0
  4 12  1  0
 12 13  1  0
 13 14  1  0
 14 15  1  0
 15 16  1  0
 14 17  1  0
 17 18  1  0
M  END