
          11280715412D 1   1.00000     0.00000     0

 33 37  0     0  0            999 V2000
   -0.1125    0.6000    0.0000 C   0  0  0  0  0  0           0  0  0
   -1.1083   -0.2917    0.0000 C   0  0  0  0  0  0           0  0  0
   -0.9333    0.5083    0.0000 N   0  0  0  0  0  0           0  0  0
   -0.3958   -0.7125    0.0000 N   0  0  3  0  0  0           0  0  0
    0.2167   -0.1542    0.0000 C   0  0  0  0  0  0           0  0  0
    0.3000    1.3083    0.0000 C   0  0  0  0  0  0           0  0  0
   -1.8333   -0.3792    0.0000 C   0  0  0  0  0  0           0  0  0
    1.1250    1.3083    0.0000 N   0  0  3  0  0  0           0  0  0
   -2.2458    0.3458    0.0000 C   0  0  0  0  0  0           0  0  0
    1.5292    2.0208    0.0000 C   0  0  0  0  0  0           0  0  0
   -0.3958   -1.5375    0.0000 C   0  0  0  0  0  0           0  0  0
   -2.2458   -1.0917    0.0000 C   0  0  0  0  0  0           0  0  0
   -3.0708    0.3458    0.0000 C   0  0  0  0  0  0           0  0  0
    2.3542    2.0208    0.0000 C   0  0  0  0  0  0           0  0  0
    1.5292    0.6000    0.0000 C   0  0  0  0  0  0           0  0  0
    0.2667    2.1333    0.0000 O   0  0  0  0  0  0           0  0  0
    2.7625    1.3083    0.0000 C   0  0  0  0  0  0           0  0  0
    2.3542    0.6000    0.0000 C   0  0  0  0  0  0           0  0  0
    0.3042   -1.9375    0.0000 C   0  0  0  0  0  0           0  0  0
   -1.1125   -1.9375    0.0000 C   0  0  0  0  0  0           0  0  0
   -3.4833   -0.3750    0.0000 C   0  0  0  0  0  0           0  0  0
   -1.8333    1.0500    0.0000 Cl  0  0  0  0  0  0           0  0  0
    1.0292   -0.3292    0.0000 C   0  0  0  0  0  0           0  0  0
   -3.0708   -1.0917    0.0000 C   0  0  0  0  0  0           0  0  0
   -0.4125   -3.1750    0.0000 C   0  0  0  0  0  0           0  0  0
    0.3042   -2.7667    0.0000 C   0  0  0  0  0  0           0  0  0
   -1.1208   -2.7542    0.0000 C   0  0  0  0  0  0           0  0  0
   -4.3083   -0.3667    0.0000 Cl  0  0  0  0  0  0           0  0  0
   -0.4208   -4.0000    0.0000 Cl  0  0  0  0  0  0           0  0  0
    2.7625    2.7333    0.0000 C   0  0  0  0  0  0           0  0  0
    3.5792    1.3083    0.0000 C   0  0  0  0  0  0           0  0  0
    3.5792    2.7333    0.0000 C   0  0  0  0  0  0           0  0  0
    3.9917    2.0208    0.0000 C   0  0  0  0  0  0           0  0  0
  2  3  2  0     0  0
  3  1  1  0     0  0
  4  5  1  0     0  0
  5  1  2  0     0  0
  6  1  1  0     0  0
  7  2  1  0     0  0
  8  6  1  0     0  0
  9  7  2  0     0  0
 10  8  1  0     0  0
 11  4  1  0     0  0
 12  7  1  0     0  0
 13  9  1  0     0  0
 14 10  1  0     0  0
 15  8  1  0     0  0
 16  6  2  0     0  0
 17 18  1  0     0  0
 18 15  1  0     0  0
 19 11  1  0     0  0
 20 11  2  0     0  0
 21 24  1  0     0  0
 22  9  1  0     0  0
 23  5  1  0     0  0
 24 12  2  0     0  0
 25 27  2  0     0  0
 26 19  2  0     0  0
 27 20  1  0     0  0
 28 21  1  0     0  0
 29 25  1  0     0  0
 30 14  1  0     0  0
 31 17  1  0     0  0
 32 30  2  0     0  0
 33 31  2  0     0  0
  4  2  1  0     0  0
 17 14  2  0     0  0
 25 26  1  0     0  0
 21 13  2  0     0  0
 33 32  1  0     0  0
M  END