
          11280715382D 1   1.00000     0.00000     0

 35 37  0     1  0            999 V2000
   10.7875   -3.9875    0.0000 C   0  0  0  0  0  0           0  0  0
    9.9875   -4.1167    0.0000 N   0  0  3  0  0  0           0  0  0
    9.4875   -2.8042    0.0000 C   0  0  0  0  0  0           0  0  0
   11.1667   -3.2292    0.0000 C   0  0  1  0  0  0           0  0  0
    9.4917   -3.6292    0.0000 C   0  0  0  0  0  0           0  0  0
   10.8042   -2.4542    0.0000 C   0  0  1  0  0  0           0  0  0
    8.7625   -1.5625    0.0000 C   0  0  3  0  0  0           0  0  0
    8.7667   -2.3917    0.0000 C   0  0  0  0  0  0           0  0  0
   10.0042   -2.3042    0.0000 C   0  0  0  0  0  0           0  0  0
   11.9917   -3.2417    0.0000 O   0  0  0  0  0  0           0  0  0
   12.3917   -3.9667    0.0000 C   0  0  0  0  0  0           0  0  0
   11.3042   -1.8000    0.0000 C   0  0  0  0  0  0           0  0  0
   11.2750   -4.6500    0.0000 O   0  0  0  0  0  0           0  0  0
   11.9750   -4.6667    0.0000 O   0  0  0  0  0  0           0  0  0
    8.0917   -1.0167    0.0000 F   0  0  0  0  0  0           0  0  0
    8.7625   -0.8125    0.0000 F   0  0  0  0  0  0           0  0  0
    9.4292   -1.0167    0.0000 F   0  0  0  0  0  0           0  0  0
   12.1250   -1.9167    0.0000 C   0  0  0  0  0  0           0  0  0
   10.9917   -1.0417    0.0000 C   0  0  0  0  0  0           0  0  0
    9.7375   -4.9042    0.0000 C   0  0  0  0  0  0           0  0  0
   12.3167   -0.5000    0.0000 C   0  0  0  0  0  0           0  0  0
    8.7667   -4.0417    0.0000 C   0  0  0  0  0  0           0  0  0
   12.6292   -1.2625    0.0000 C   0  0  0  0  0  0           0  0  0
   11.4917   -0.3917    0.0000 C   0  0  0  0  0  0           0  0  0
    8.6792   -5.8667    0.0000 N   0  0  0  0  0  0           0  0  0
    8.0542   -2.8042    0.0000 C   0  0  0  0  0  0           0  0  0
   12.8167    0.1583    0.0000 O   0  0  0  0  0  0           0  0  0
    8.0542   -3.6292    0.0000 C   0  0  0  0  0  0           0  0  0
   14.7667   -0.8250    0.0000 O   0  0  0  0  0  0           0  0  0
   13.2167   -3.9792    0.0000 C   0  0  0  0  0  0           0  0  0
    8.9292   -5.0875    0.0000 C   0  0  0  0  0  0           0  0  0
    7.8792   -6.0500    0.0000 C   0  0  0  0  0  0           0  0  0
   13.6375    0.0458    0.0000 C   0  0  0  0  0  0           0  0  0
   13.9500   -0.7167    0.0000 C   0  0  0  0  0  0           0  0  0
   15.0792   -1.5875    0.0000 C   0  0  0  0  0  0           0  0  0
  2  1  1  0     0  0
  3  5  1  0     0  0
  4  1  1  0     0  0
  5  2  1  0     0  0
  6  4  1  0     0  0
  7  8  1  0     0  0
  8  3  2  0     0  0
  9  6  1  0     0  0
  4 10  1  1     0  0
 11 10  1  0     0  0
  6 12  1  1     0  0
 13  1  2  0     0  0
 14 11  2  0     0  0
 15  7  1  0     0  0
 16  7  1  0     0  0
 17  7  1  0     0  0
 18 12  2  0     0  0
 19 12  1  0     0  0
 20  2  1  0     0  0
 21 24  1  0     0  0
 22  5  2  0     0  0
 23 18  1  0     0  0
 24 19  2  0     0  0
 25 31  1  0     0  0
 26 28  2  0     0  0
 27 21  1  0     0  0
 28 22  1  0     0  0
 29 34  1  0     0  0
 30 11  1  0     0  0
 31 20  1  0     0  0
 32 25  1  0     0  0
 33 27  1  0     0  0
 34 33  1  0     0  0
 35 29  1  0     0  0
  9  3  1  0     0  0
 23 21  2  0     0  0
  8 26  1  0     0  0
M  END