
          11280715122D 1   1.00000     0.00000     0

 30 32  0     0  0            999 V2000
    8.5917   -6.0667    0.0000 C   0  0  0  0  0  0           0  0  0
    7.8792   -5.6542    0.0000 C   0  0  0  0  0  0           0  0  0
    3.3417   -7.7667    0.0000 N   0  0  3  0  0  0           0  0  0
    8.5917   -6.8917    0.0000 C   0  0  0  0  0  0           0  0  0
    2.5292   -7.6292    0.0000 C   0  0  0  0  0  0           0  0  0
    9.3042   -5.6542    0.0000 C   0  0  0  0  0  0           0  0  0
    4.9875   -7.8292    0.0000 N   0  0  3  0  0  0           0  0  0
    7.8792   -4.8292    0.0000 N   0  0  3  0  0  0           0  0  0
    7.1667   -6.0667    0.0000 O   0  0  0  0  0  0           0  0  0
    9.3042   -7.3042    0.0000 C   0  0  0  0  0  0           0  0  0
    3.7292   -8.5000    0.0000 C   0  0  0  0  0  0           0  0  0
    3.7792   -7.0667    0.0000 C   0  0  0  0  0  0           0  0  0
    2.2417   -6.8542    0.0000 C   0  0  0  0  0  0           0  0  0
    7.7750   -6.9000    0.0000 N   0  0  0  0  0  0           0  0  0
    4.6042   -7.1042    0.0000 C   0  0  0  0  0  0           0  0  0
    4.5542   -8.5250    0.0000 C   0  0  0  0  0  0           0  0  0
   10.0167   -6.0667    0.0000 C   0  0  0  0  0  0           0  0  0
   10.0167   -6.8917    0.0000 C   0  0  0  0  0  0           0  0  0
    2.7667   -6.2167    0.0000 O   0  0  0  0  0  0           0  0  0
    5.8125   -7.8625    0.0000 C   0  0  0  0  0  0           0  0  0
    6.3917   -7.2750    0.0000 C   0  0  0  0  0  0           0  0  0
    2.0042   -8.2667    0.0000 C   0  0  0  0  0  0           0  0  0
    7.1875   -7.4875    0.0000 C   0  0  0  0  0  0           0  0  0
    7.1667   -4.4167    0.0000 C   0  0  0  0  0  0           0  0  0
    8.5917   -4.4167    0.0000 C   0  0  0  0  0  0           0  0  0
    1.4292   -6.7167    0.0000 C   0  0  0  0  0  0           0  0  0
   10.7417   -7.3042    0.0000 C   0  0  0  0  0  0           0  0  0
    3.5792   -6.3542    0.0000 C   0  0  0  0  0  0           0  0  0
    1.1875   -8.1292    0.0000 C   0  0  0  0  0  0           0  0  0
    0.9042   -7.3542    0.0000 C   0  0  0  0  0  0           0  0  0
  2  1  1  0     0  0
  3 11  1  0     0  0
  4  1  2  0     0  0
  5  3  1  0     0  0
  6  1  1  0     0  0
  7 20  1  0     0  0
  8  2  1  0     0  0
  9  2  2  0     0  0
 10  4  1  0     0  0
 11 16  1  0     0  0
 12 15  1  0     0  0
 13  5  1  0     0  0
 14  4  1  0     0  0
 15  7  1  0     0  0
 16  7  1  0     0  0
 17  6  2  0     0  0
 18 17  1  0     0  0
 19 13  1  0     0  0
 20 21  1  0     0  0
 21 23  1  0     0  0
 22  5  2  0     0  0
 23 14  1  0     0  0
 24  8  1  0     0  0
 25  8  1  0     0  0
 26 13  2  0     0  0
 27 18  1  0     0  0
 28 19  1  0     0  0
 29 22  1  0     0  0
 30 29  2  0     0  0
 18 10  2  0     0  0
  3 12  1  0     0  0
 30 26  1  0     0  0
M  END