
          11280715462D 1   1.00000     0.00000     0

 30 33  0     1  0            999 V2000
   -0.4583   -0.2292    0.0000 N   0  0  3  0  0  0           0  0  0
   -0.6875    0.5000    0.0000 C   0  0  0  0  0  0           0  0  0
   -0.0875    0.9708    0.0000 N   0  0  3  0  0  0           0  0  0
   -1.0625   -0.6875    0.0000 C   0  0  0  0  0  0           0  0  0
    0.5167    0.5125    0.0000 C   0  0  0  0  0  0           0  0  0
    0.2875   -0.2292    0.0000 C   0  0  1  0  0  0           0  0  0
   -1.4375    0.5125    0.0000 N   0  0  0  0  0  0           0  0  0
   -1.0708   -1.4625    0.0000 S   0  0  3  0  0  0           0  0  0
   -1.6708   -0.2167    0.0000 C   0  0  0  0  0  0           0  0  0
   -0.0875    1.7500    0.0000 C   0  0  0  0  0  0           0  0  0
    0.5625    2.1458    0.0000 C   0  0  0  0  0  0           0  0  0
   -0.7208    2.1458    0.0000 C   0  0  0  0  0  0           0  0  0
    1.0000   -0.4292    0.0000 C   0  0  0  0  0  0           0  0  0
    1.2292    0.7500    0.0000 O   0  0  0  0  0  0           0  0  0
   -0.3208   -1.4667    0.0000 O   0  0  0  0  0  0           0  0  0
   -1.8125   -1.4625    0.0000 O   0  0  0  0  0  0           0  0  0
    0.5625    2.9125    0.0000 C   0  0  0  0  0  0           0  0  0
   -0.7333    2.9000    0.0000 C   0  0  0  0  0  0           0  0  0
   -0.0875    3.3000    0.0000 C   0  0  0  0  0  0           0  0  0
    0.2792   -1.0125    0.0000 C   0  0  0  0  0  0           0  0  0
    1.0000   -1.2125    0.0000 C   0  0  0  0  0  0           0  0  0
   -1.0750   -2.2417    0.0000 C   0  0  0  0  0  0           0  0  0
    0.9875   -2.7625    0.0000 C   0  0  0  0  0  0           0  0  0
   -1.3833    3.3000    0.0000 Cl  0  0  0  0  0  0           0  0  0
    1.2042    3.3000    0.0000 Cl  0  0  0  0  0  0           0  0  0
    0.9875   -3.5375    0.0000 Br  0  0  0  0  0  0           0  0  0
    1.6375   -1.6000    0.0000 C   0  0  0  0  0  0           0  0  0
    0.3500   -1.5875    0.0000 C   0  0  0  0  0  0           0  0  0
    1.6375   -2.3792    0.0000 C   0  0  0  0  0  0           0  0  0
    0.3417   -2.3667    0.0000 C   0  0  0  0  0  0           0  0  0
  2  1  1  0     0  0
  3  2  1  0     0  0
  4  1  1  0     0  0
  5  6  1  0     0  0
  6  1  1  0     0  0
  7  2  2  0     0  0
  8  4  1  0     0  0
  9  4  2  0     0  0
 10  3  1  0     0  0
 11 10  2  0     0  0
 12 10  1  0     0  0
  6 13  1  1     0  0
 14  5  2  0     0  0
 15  8  2  0     0  0
 16  8  2  0     0  0
 17 11  1  0     0  0
 18 12  2  0     0  0
 19 18  1  0     0  0
  6 20  1  6     0  0
 21 13  1  0     0  0
 22  8  1  0     0  0
 23 30  2  0     0  0
 24 18  1  0     0  0
 25 17  1  0     0  0
 26 23  1  0     0  0
 27 21  1  0     0  0
 28 21  2  0     0  0
 29 27  2  0     0  0
 30 28  1  0     0  0
  3  5  1  0     0  0
  7  9  1  0     0  0
 29 23  1  0     0  0
 17 19  2  0     0  0
M  END