
  SciTegic01161211212D

 49 55  0  0  0  0            999 V2000
    9.9572   -4.7100    0.0000 N   0  0
   10.6235   -5.1889    0.0000 C   0  0
    0.0917   -8.8995    0.0000 C   0  0  2  0  0  0
   11.2982   -4.7100    0.0000 N   0  0
   11.0358   -3.9271    0.0000 N   0  0
   10.2196   -3.9229    0.0000 C   0  0
   -0.3206   -8.1873    0.0000 C   0  0
   -0.6330   -9.3075    0.0000 C   0  0
    0.7496   -8.4080    0.0000 O   0  0
   -0.6455  -10.1238    0.0000 N   0  0
   -0.2332  -11.3981    0.0000 N   0  0
    0.3415   -9.6823    0.0000 O   0  0
    5.6887   -7.2129    0.0000 N   0  0
    7.1129   -6.3758    0.0000 N   0  0
    0.0999   -7.4752    0.0000 C   0  0
   -1.3118  -10.5986    0.0000 N   0  0
    9.2451   -5.1223    0.0000 C   0  0
   -1.0702  -11.3939    0.0000 C   0  0
    0.0292  -10.6235    0.0000 C   0  0
   -1.1494   -8.1873    0.0000 C   0  0
   10.6193   -6.0093    0.0000 O   0  0
   -0.3206   -6.7631    0.0000 C   0  0
    7.8250   -5.9510    0.0000 C   0  0
    4.9723   -7.6251    0.0000 C   0  0
    1.4242   -8.8995    0.0000 C   0  0  2  0  0  0
    5.6720   -6.3883    0.0000 C   0  0
    7.1129   -7.2004    0.0000 C   0  0
    6.4091   -7.6209    0.0000 C   0  0
    6.3841   -5.9635    0.0000 C   0  0
   12.0103   -5.1223    0.0000 C   0  0
    9.2493   -5.9510    0.0000 C   0  0
    8.5205   -4.7100    0.0000 C   0  0
    8.5371   -6.3633    0.0000 C   0  0
    7.8083   -5.1348    0.0000 C   0  0
    1.1619   -9.6823    0.0000 C   0  0
    4.9890   -8.4580    0.0000 C   0  0
    4.2477   -7.2129    0.0000 C   0  0
   -1.1494   -6.7631    0.0000 C   0  0
    0.9162   -7.4752    0.0000 Cl  0  0
    2.8527   -8.8870    0.0000 O   0  0
   -1.5575   -7.4752    0.0000 C   0  0
    3.5648   -8.4705    0.0000 C   0  0
    2.1322   -8.4872    0.0000 C   0  0
    3.5481   -7.6501    0.0000 C   0  0
    4.2852   -8.8745    0.0000 C   0  0
   -1.5617   -6.0468    0.0000 Cl  0  0
   12.7224   -4.7100    0.0000 C   0  0
   12.0103   -5.9385    0.0000 C   0  0
   13.4345   -5.1223    0.0000 C   0  0
  2  1  1  0
  3  9  1  0
  4  2  1  0
  5  6  2  0
  6  1  1  0
  7  3  1  0
  3  8  1  1
  9 25  1  0
 10  8  1  0
 11 19  2  0
 12 35  1  0
 13 26  1  0
 14 23  1  0
 15  7  1  0
 16 10  1  0
 17  1  1  0
 18 16  2  0
 19 10  1  0
 20  7  2  0
 21  2  2  0
 22 15  2  0
 23 34  1  0
 24 13  1  0
 25 43  1  1
 26 29  1  0
 27 14  1  0
 28 27  1  0
 29 14  1  0
 30  4  1  0
 31 17  2  0
 32 17  1  0
 33 31  1  0
 34 32  2  0
 35 25  1  0
 36 24  2  0
 37 24  1  0
 38 41  2  0
 39 15  1  0
 40 42  1  0
 41 20  1  0
 42 44  1  0
 43 40  1  0
 44 37  2  0
 45 36  1  0
 46 38  1  0
 47 30  1  0
 48 30  1  0
 49 47  1  0
  4  5  1  0
 23 33  2  0
 13 28  1  0
 42 45  2  0
  3 12  1  0
 18 11  1  0
 22 38  1  0
M  END