
  SciTegic12231509382D

 32 34  0  0  0  0            999 V2000
    2.5987   -1.5004    0.0000 C   0  0
   16.5086   14.1150    0.0000 C   0  0
   16.0696   12.6941    0.0000 C   0  0
    1.2990   -0.7500    0.0000 C   0  0
   18.0086   14.1190    0.0000 N   0  0
   17.2647   11.8087    0.0000 N   0  0
    3.9511   -0.8815    0.0000 C   0  0
    4.9531   -1.9978    0.0000 N   0  0
   18.4759   12.6936    0.0000 S   0  0
    4.2010   -3.2956    0.0000 S   0  0
    2.7343   -2.9815    0.0000 N   0  0
    1.2990    0.7500    0.0000 C   0  0
    0.0000    1.5000    0.0000 N   0  0
    0.0000   -1.5000    0.0000 C   0  0
   15.6181   15.3198    0.0000 O   0  0
   14.6444   12.2236    0.0000 O   0  0
    4.2568    0.5852    0.0000 O   0  0
   -1.2990   -0.7500    0.0000 C   0  0
   -1.2990    0.7500    0.0000 C   0  0
    0.0000    2.7000    0.0000 C   0  0
    9.4506    6.4044    0.0000 O   0  0
   12.6071    8.8146    0.0000 O   0  0
    7.4132    2.9954    0.0000 O   0  0
   14.3383   10.7543    0.0000 C   0  0
    5.6819    1.0556    0.0000 C   0  0
   16.0964   16.4204    0.0000 C   0  0
   11.1819    8.3441    0.0000 C   0  0
    7.7193    4.4647    0.0000 C   0  0
   12.9132   10.2839    0.0000 C   0  0
    9.1445    4.9351    0.0000 C   0  0
    5.9880    2.5249    0.0000 C   0  0
   10.8758    6.8748    0.0000 C   0  0
  2  3  1  0
  1  4  1  0
  2  5  2  0
  3  6  2  0
  1  7  1  0
  7  8  2  0
  5  9  1  0
  6  9  1  0
  8 10  1  0
  1 11  2  0
 10 11  1  0
  4 12  1  0
 12 13  1  0
  4 14  2  0
  2 15  1  0
  3 16  1  0
  7 17  1  0
 14 18  1  0
 13 19  1  0
 18 19  1  0
 13 20  1  0
 16 24  1  0
 17 25  1  0
 15 26  1  0
 22 27  1  0
 23 28  1  0
 22 29  1  0
 24 29  1  0
 21 30  1  0
 28 30  1  0
 23 31  1  0
 25 31  1  0
 21 32  1  0
 27 32  1  0
M  END