
          11280714582D 1   1.00000     0.00000     0

 22 24  0     0  0            999 V2000
    3.6292   -2.0792    0.0000 C   0  0  0  0  0  0           0  0  0
    2.9167   -2.4917    0.0000 N   0  0  3  0  0  0           0  0  0
    0.7000   -4.5500    0.0000 N   0  0  0  0  0  0           0  0  0
    0.7792   -3.7292    0.0000 C   0  0  0  0  0  0           0  0  0
    4.3417   -2.5000    0.0000 N   0  0  0  0  0  0           0  0  0
   -0.5250   -4.0042    0.0000 N   0  0  0  0  0  0           0  0  0
   -0.1083   -4.7250    0.0000 C   0  0  0  0  0  0           0  0  0
    3.6375   -1.2542    0.0000 S   0  0  0  0  0  0           0  0  0
    0.0292   -3.3917    0.0000 C   0  0  0  0  0  0           0  0  0
    1.4917   -3.3167    0.0000 C   0  0  3  0  0  0           0  0  0
    2.9167   -3.3167    0.0000 C   0  0  0  0  0  0           0  0  0
    2.2042   -2.0792    0.0000 C   0  0  0  0  0  0           0  0  0
    2.2042   -3.7292    0.0000 C   0  0  0  0  0  0           0  0  0
    1.4917   -2.4917    0.0000 C   0  0  0  0  0  0           0  0  0
    5.0625   -2.0875    0.0000 C   0  0  0  0  0  0           0  0  0
    7.2000   -3.3292    0.0000 C   0  0  0  0  0  0           0  0  0
    5.7750   -2.5042    0.0000 C   0  0  0  0  0  0           0  0  0
    7.9125   -3.7417    0.0000 Br  0  0  0  0  0  0           0  0  0
    6.4792   -3.7417    0.0000 C   0  0  0  0  0  0           0  0  0
    7.2000   -2.5042    0.0000 C   0  0  0  0  0  0           0  0  0
    5.7667   -3.3292    0.0000 C   0  0  0  0  0  0           0  0  0
    6.4875   -2.0917    0.0000 C   0  0  0  0  0  0           0  0  0
  2  1  1  0     0  0
  3  4  1  0     0  0
  4 10  1  0     0  0
  5  1  1  0     0  0
  6  9  1  0     0  0
  7  3  2  0     0  0
  8  1  2  0     0  0
  9  4  2  0     0  0
 10 14  1  0     0  0
 11  2  1  0     0  0
 12  2  1  0     0  0
 13 11  1  0     0  0
 14 12  1  0     0  0
 15  5  1  0     0  0
 16 20  1  0     0  0
 17 15  1  0     0  0
 18 16  1  0     0  0
 19 21  1  0     0  0
 20 22  2  0     0  0
 21 17  2  0     0  0
 22 17  1  0     0  0
 10 13  1  0     0  0
 16 19  2  0     0  0
  7  6  1  0     0  0
M  END