
  SciTegic02261315432D

 26 28  0  0  1  0            999 V2000
    4.4022   -2.9678    0.0000 S   0  3
    5.1254   -3.3952    0.0000 C   0  0
    4.4075   -4.6521    0.0000 O   0  0
    5.1279   -4.2201    0.0000 C   0  0
    3.6817   -3.3997    0.0000 C   0  0
   -0.6064   -4.2552    0.0000 C   0  0
    3.6843   -4.2247    0.0000 C   0  0  1  0  0  0
    4.3996   -2.1429    0.0000 O   0  5
   -0.6090   -3.4303    0.0000 C   0  0
   -1.3155   -4.6699    0.0000 C   0  0
    0.1110   -4.6654    0.0000 O   0  0
    2.2579   -4.2463    0.0000 N   0  0
   -1.3129   -5.4948    0.0000 O   0  0
    0.1058   -3.0155    0.0000 O   0  0
    5.8345   -2.9806    0.0000 C   0  0
    2.9696   -4.6566    0.0000 C   0  0
    5.8397   -4.6303    0.0000 C   0  0
   -2.0354   -3.4348    0.0000 C   0  0
   -2.0328   -4.2597    0.0000 C   0  0
   -1.3207   -3.0200    0.0000 C   0  0
    1.5374   -4.6611    0.0000 C   0  0
    0.8315   -4.2507    0.0000 C   0  0
   -2.0163   -5.9096    0.0000 C   0  0
    0.8289   -3.4258    0.0000 C   0  0
    6.5518   -3.3907    0.0000 C   0  0
    6.5544   -4.2157    0.0000 C   0  0
  2  1  1  0
  3  7  1  0
  4  2  2  0
  5  1  1  0
  6 11  1  0
  7  5  1  0
  1  8  1  6
  9  6  1  0
 10  6  2  0
 11 22  1  0
 12 16  1  0
 13 10  1  0
 14  9  1  0
 15  2  1  0
  7 16  1  6
 17  4  1  0
 18 19  2  0
 19 10  1  0
 20  9  2  0
 21 12  1  0
 22 21  1  0
 23 13  1  0
 24 14  1  0
 25 15  2  0
 26 25  1  0
  3  4  1  0
 26 17  2  0
 20 18  1  0
M  CHG  2   1   1   8  -1
M  END