
          05080814032D 1   1.00000     0.00000     0

 31 35  0     0  0            999 V2000
   -4.4931   -4.7208    0.0000 C   0  0  0  0  0  0           0  0  0
   -4.4943   -5.5482    0.0000 C   0  0  0  0  0  0           0  0  0
   -3.7794   -5.9610    0.0000 C   0  0  0  0  0  0           0  0  0
   -3.7812   -4.3080    0.0000 C   0  0  0  0  0  0           0  0  0
   -3.0659   -4.7172    0.0000 C   0  0  0  0  0  0           0  0  0
   -3.0656   -5.5436    0.0000 C   0  0  0  0  0  0           0  0  0
   -2.2795   -5.7988    0.0000 N   0  0  3  0  0  0           0  0  0
   -1.7939   -5.1300    0.0000 C   0  0  0  0  0  0           0  0  0
   -2.2799   -4.4616    0.0000 N   0  0  0  0  0  0           0  0  0
   -3.7776   -6.7883    0.0000 C   0  0  0  0  0  0           0  0  0
   -4.4910   -7.2027    0.0000 O   0  0  0  0  0  0           0  0  0
   -3.0620   -7.1989    0.0000 O   0  0  0  0  0  0           0  0  0
   -2.0243   -6.5833    0.0000 C   0  0  0  0  0  0           0  0  0
   -1.2173   -6.7546    0.0000 C   0  0  0  0  0  0           0  0  0
   -0.9640   -7.5404    0.0000 C   0  0  0  0  0  0           0  0  0
   -0.1578   -7.7119    0.0000 C   0  0  0  0  0  0           0  0  0
    0.3950   -7.0983    0.0000 C   0  0  0  0  0  0           0  0  0
    0.1360   -6.3105    0.0000 C   0  0  0  0  0  0           0  0  0
   -0.6696   -6.1428    0.0000 C   0  0  0  0  0  0           0  0  0
    1.2022   -7.2685    0.0000 N   0  0  3  0  0  0           0  0  0
    1.5398   -8.0185    0.0000 C   0  0  0  0  0  0           0  0  0
    2.3602   -7.9310    0.0000 C   0  0  0  0  0  0           0  0  0
    2.5304   -7.1237    0.0000 C   0  0  0  0  0  0           0  0  0
    1.8153   -6.7124    0.0000 C   0  0  0  0  0  0           0  0  0
    1.7280   -5.8965    0.0000 C   0  0  0  0  0  0           0  0  0
    2.3396   -5.3428    0.0000 N   0  0  0  0  0  0           0  0  0
    2.0019   -4.5900    0.0000 N   0  0  0  0  0  0           0  0  0
    1.1816   -4.6785    0.0000 N   0  0  0  0  0  0           0  0  0
    1.0124   -5.4860    0.0000 N   0  0  0  0  0  0           0  0  0
   -4.4888   -8.0277    0.0000 C   0  0  0  0  0  0           0  0  0
   -0.9689   -5.1297    0.0000 C   0  0  0  0  0  0           0  0  0
 14 15  2  0     0  0
  5  4  2  0     0  0
 15 16  1  0     0  0
  6  7  1  0     0  0
 16 17  2  0     0  0
  7  8  1  0     0  0
 17 18  1  0     0  0
  8  9  2  0     0  0
 18 19  2  0     0  0
 19 14  1  0     0  0
  9  5  1  0     0  0
 17 20  1  0     0  0
 20 21  1  0     0  0
  4  1  1  0     0  0
  5  6  1  0     0  0
 10 11  1  0     0  0
 21 22  2  0     0  0
 22 23  1  0     0  0
 23 24  2  0     0  0
 24 20  1  0     0  0
 25 26  1  0     0  0
 10 12  2  0     0  0
  3 10  1  0     0  0
  2  3  1  0     0  0
  7 13  1  0     0  0
  3  6  2  0     0  0
 26 27  1  0     0  0
 27 28  2  0     0  0
 28 29  1  0     0  0
 29 25  2  0     0  0
 24 25  1  0     0  0
 13 14  1  0     0  0
 11 30  1  0     0  0
  1  2  2  0     0  0
  8 31  1  0     0  0
M  END