
          11280714582D 1   1.00000     0.00000     0

 32 36  0     0  0            999 V2000
    3.4667   -2.3542    0.0000 C   0  0  0  0  0  0           0  0  0
    4.2500   -1.2667    0.0000 N   0  0  0  0  0  0           0  0  0
    2.7542   -2.7667    0.0000 C   0  0  0  0  0  0           0  0  0
    2.0375   -7.3042    0.0000 C   0  0  0  0  0  0           0  0  0
    1.2792   -7.6375    0.0000 N   0  0  0  0  0  0           0  0  0
    0.7292   -7.0250    0.0000 N   0  0  0  0  0  0           0  0  0
    1.9500   -6.4792    0.0000 N   0  0  0  0  0  0           0  0  0
    3.4667   -1.5250    0.0000 C   0  0  0  0  0  0           0  0  0
    4.2542   -2.6042    0.0000 N   0  0  3  0  0  0           0  0  0
    1.1417   -6.3125    0.0000 N   0  0  0  0  0  0           0  0  0
    4.7417   -1.9292    0.0000 C   0  0  0  0  0  0           0  0  0
    2.7542   -7.7125    0.0000 C   0  0  0  0  0  0           0  0  0
    2.7542   -3.5917    0.0000 N   0  0  3  0  0  0           0  0  0
    2.0417   -2.3542    0.0000 N   0  0  0  0  0  0           0  0  0
    3.4667   -7.3000    0.0000 C   0  0  0  0  0  0           0  0  0
    2.7542   -1.1167    0.0000 N   0  0  0  0  0  0           0  0  0
    2.0417   -1.5292    0.0000 C   0  0  0  0  0  0           0  0  0
    3.4667   -6.4792    0.0000 C   0  0  0  0  0  0           0  0  0
    3.4667   -4.0042    0.0000 C   0  0  0  0  0  0           0  0  0
    2.7542   -6.0667    0.0000 C   0  0  0  0  0  0           0  0  0
    4.1875   -6.0625    0.0000 C   0  0  0  0  0  0           0  0  0
    3.4667   -4.8292    0.0000 C   0  0  0  0  0  0           0  0  0
    2.7542   -5.2417    0.0000 C   0  0  0  0  0  0           0  0  0
    4.1792   -5.2417    0.0000 C   0  0  0  0  0  0           0  0  0
    4.5167   -3.3875    0.0000 C   0  0  0  0  0  0           0  0  0
    2.0417   -4.0042    0.0000 C   0  0  0  0  0  0           0  0  0
    2.7542   -8.5375    0.0000 C   0  0  0  0  0  0           0  0  0
    4.1792   -7.7042    0.0000 C   0  0  0  0  0  0           0  0  0
    1.3250   -3.5917    0.0000 C   0  0  0  0  0  0           0  0  0
    3.4667   -8.9500    0.0000 C   0  0  0  0  0  0           0  0  0
    4.1875   -8.5292    0.0000 C   0  0  0  0  0  0           0  0  0
    0.6125   -4.0042    0.0000 C   0  0  0  0  0  0           0  0  0
  2  8  1  0     0  0
  3  1  2  0     0  0
  4 12  1  0     0  0
  5  4  1  0     0  0
  6  5  2  0     0  0
  7  4  2  0     0  0
  8  1  1  0     0  0
  9  1  1  0     0  0
 10  7  1  0     0  0
 11  9  1  0     0  0
 12 15  2  0     0  0
 13  3  1  0     0  0
 14  3  1  0     0  0
 15 18  1  0     0  0
 16  8  2  0     0  0
 17 16  1  0     0  0
 18 21  1  0     0  0
 19 13  1  0     0  0
 20 23  1  0     0  0
 21 24  2  0     0  0
 22 19  1  0     0  0
 23 22  2  0     0  0
 24 22  1  0     0  0
 25  9  1  0     0  0
 26 13  1  0     0  0
 27 12  1  0     0  0
 28 15  1  0     0  0
 29 26  1  0     0  0
 30 31  1  0     0  0
 31 28  2  0     0  0
 32 29  1  0     0  0
  2 11  2  0     0  0
 14 17  2  0     0  0
 18 20  2  0     0  0
 30 27  2  0     0  0
  6 10  1  0     0  0
M  END