
  SciTegic07061118172D

 21 23  0  0  0  0            999 V2000
    1.5774  -21.9274    0.0000 C   0  0
    0.8738  -22.3586    0.0000 C   0  0
   -0.5667  -22.3417    0.0000 N   0  0
    0.1478  -21.9292    0.0000 C   0  0
    0.1478  -21.1042    0.0000 O   0  0
   -0.5667  -23.1667    0.0000 C   0  0
   -1.2378  -23.6543    0.0000 C   0  0
   -0.9828  -24.4389    0.0000 C   0  0
   -0.1578  -24.4389    0.0000 C   0  0
    0.0970  -23.6542    0.0000 S   0  0
   -2.0252  -23.3982    0.0000 C   0  0
   -2.1967  -22.5912    0.0000 N   0  0
   -2.6383  -23.9502    0.0000 O   0  0
    2.3635  -22.1771    0.0000 C   0  0
    2.8470  -21.5087    0.0000 S   0  0
    1.5766  -21.0987    0.0000 C   0  0
    2.3587  -20.8437    0.0000 C   0  0
    2.5275  -20.0405    0.0000 C   0  0
    1.9152  -19.4915    0.0000 C   0  0
    1.1314  -19.7513    0.0000 C   0  0
    0.9662  -20.5539    0.0000 C   0  0
  1  2  1  0
  3  6  1  0
  6  7  2  0
 11 12  1  0
 11 13  2  0
  7 11  1  0
  3  4  1  0
 14 15  1  0
  4  2  1  0
  1 14  2  0
 15 17  1  0
 16  1  1  0
  4  5  2  0
 16 17  2  0
  7  8  1  0
 17 18  1  0
  8  9  2  0
 18 19  2  0
  9 10  1  0
 19 20  1  0
 10  6  1  0
 20 21  2  0
 21 16  1  0
M  END