
  SciTegic01161211262D

 32 35  0  0  0  0            999 V2000
   -3.2894   -9.0798    0.0000 C   0  0
   -3.2911   -7.4266    0.0000 C   0  0
   -2.5760   -7.8360    0.0000 C   0  0
   -2.5729   -8.6690    0.0000 C   0  0
   -1.8539   -9.0803    0.0000 O   0  0
   -1.1336   -8.6634    0.0000 C   0  0
   -1.1367   -7.8304    0.0000 C   0  0  1  0  0  0
   -1.8604   -7.4145    0.0000 O   0  0
   -0.4233   -7.4158    0.0000 C   0  0
    0.2925   -7.8263    0.0000 N   0  0
    1.0059   -7.4117    0.0000 C   0  0
    1.7218   -7.8222    0.0000 C   0  0
    2.4353   -7.4076    0.0000 O   0  0
    3.1511   -7.8181    0.0000 C   0  0
    3.1484   -8.6423    0.0000 C   0  0
    3.8635   -9.0527    0.0000 C   0  0
    4.5779   -8.6381    0.0000 C   0  0
    2.4337   -9.0546    0.0000 O   0  0
    2.4333   -9.8798    0.0000 C   0  0
   -4.0039   -8.6668    0.0000 C   0  0
   -4.0043   -7.8440    0.0000 C   0  0
   -4.7133   -7.4352    0.0000 C   0  0
   -5.4259   -7.8447    0.0000 C   0  0
   -5.4185   -8.6677    0.0000 C   0  0
   -4.7124   -9.0810    0.0000 C   0  0
    3.8546   -7.4017    0.0000 C   0  0
    4.5708   -7.8116    0.0000 C   0  0
    5.2818   -7.3963    0.0000 C   0  0
    5.2777   -6.5713    0.0000 C   0  0
    4.5566   -6.1635    0.0000 C   0  0
    3.8487   -6.5810    0.0000 C   0  0
   -0.0661   -6.7652    0.0000 Cl  0  0
  2 21  1  0
 14 15  2  0
  3  8  1  0
 15 16  1  0
  4  5  1  0
 16 17  2  0
 17 27  1  0
 26 14  1  0
  5  6  1  0
 15 18  1  0
  6  7  1  0
 18 19  1  0
 20 21  2  0
  7  8  1  0
  3  4  1  0
  7  9  1  1
  9 10  1  0
 20  1  1  0
 20 25  1  0
 21 22  1  0
 22 23  1  0
 23 24  1  0
 24 25  1  0
 10 11  1  0
  1  4  2  0
 26 27  1  0
 11 12  1  0
 27 28  2  0
 28 29  1  0
 12 13  1  0
 29 30  2  0
  3  2  2  0
 30 31  1  0
 31 26  2  0
 13 14  1  0
M  END