
  SciTegic02271514512D

 30 33  0  0  0  0            999 V2000
    3.5487  -13.1838    0.0000 N   0  0
    1.7276  -14.3506    0.0000 C   0  0
    2.5224  -14.1592    0.0000 N   0  0
    2.7540  -13.3752    0.0000 C   0  0
    2.1909  -12.7827    0.0000 C   0  0
    1.3961  -12.9741    0.0000 C   0  0
    1.1645  -13.7580    0.0000 N   0  0
    2.4225  -11.9987    0.0000 F   0  0
    0.7476  -16.2252    0.0000 C   0  0
    0.7256  -15.4080    0.0000 C   0  0
    0.0069  -15.0185    0.0000 C   0  0
   -0.6970  -15.4461    0.0000 C   0  0
   -0.6694  -16.2633    0.0000 C   0  0
    0.0509  -16.6528    0.0000 N   0  0
    1.5316  -16.4568    0.0000 N   0  0
    1.4960  -15.1346    0.0000 C   0  0
    1.9941  -15.7828    0.0000 C   0  0
   -1.4146  -15.0565    0.0000 Cl  0  0
    4.1117  -13.7762    0.0000 C   0  0  1  0  0  0
    3.8768  -14.5605    0.0000 C   0  0
    4.4359  -15.1516    0.0000 C   0  0
    5.2317  -14.9643    0.0000 C   0  0
    5.4654  -14.1802    0.0000 C   0  0  2  0  0  0
    4.9033  -13.5835    0.0000 C   0  0
    6.2605  -13.9916    0.0000 N   0  0
    6.8214  -14.5859    0.0000 C   0  0
    7.6165  -14.3972    0.0000 C   0  0
    6.5872  -15.3688    0.0000 O   0  0
    8.1775  -14.9915    0.0000 O   0  0
    7.9433  -15.7744    0.0000 C   0  0
  2  3  1  0
  3  4  2  0
  4  5  1  0
  5  6  2  0
  6  7  1  0
  2  7  2  0
  5  8  1  0
  9 10  1  0
 10 11  2  0
 11 12  1  0
 12 13  2  0
 13 14  1  0
  9 14  2  0
 16 17  2  0
 15 17  1  0
  9 15  1  0
 10 16  1  0
 12 18  1  0
  2 16  1  0
  1  4  1  0
 19  1  1  6
 19 20  1  0
 19 24  1  0
 20 21  1  0
 21 22  1  0
 22 23  1  0
 23 24  1  0
 23 25  1  6
 25 26  1  0
 26 27  1  0
 26 28  2  0
 27 29  1  0
 29 30  1  0
M  END