
          11280715452D 1   1.00000     0.00000     0

 31 32  0     1  0            999 V2000
    6.8542   -3.5667    0.0000 C   0  0  0  0  0  0           0  0  0
    7.5667   -3.1542    0.0000 N   0  0  3  0  0  0           0  0  0
    6.1417   -3.1542    0.0000 C   0  0  2  0  0  0           0  0  0
    6.8500   -1.0792    0.0000 P   0  0  3  0  0  0           0  0  0
    8.2875   -3.5667    0.0000 C   0  0  2  0  0  0           0  0  0
    6.1417   -2.3292    0.0000 C   0  0  2  0  0  0           0  0  0
    5.4292   -3.5667    0.0000 N   0  0  0  0  0  0           0  0  0
    8.3667   -4.3917    0.0000 C   0  0  0  0  0  0           0  0  0
    6.8542   -1.9167    0.0000 O   0  0  0  0  0  0           0  0  0
    5.4167   -4.4000    0.0000 C   0  0  0  0  0  0           0  0  0
    6.8542   -4.4000    0.0000 O   0  0  0  0  0  0           0  0  0
    7.6792   -1.0792    0.0000 O   0  0  0  0  0  0           0  0  0
    7.7000   -4.8792    0.0000 O   0  0  0  0  0  0           0  0  0
    6.1292   -4.8167    0.0000 O   0  0  0  0  0  0           0  0  0
    6.0292   -1.0875    0.0000 O   0  0  0  0  0  0           0  0  0
    6.8542   -0.2625    0.0000 O   0  0  0  0  0  0           0  0  0
    9.1292   -4.7375    0.0000 N   0  0  0  0  0  0           0  0  0
    7.7417   -2.3500    0.0000 C   0  0  0  0  0  0           0  0  0
    8.9042   -3.0125    0.0000 C   0  0  0  0  0  0           0  0  0
    5.4250   -1.9167    0.0000 C   0  0  0  0  0  0           0  0  0
    1.8417   -4.7875    0.0000 C   0  0  0  0  0  0           0  0  0
    8.5625   -2.2667    0.0000 C   0  0  0  0  0  0           0  0  0
    4.7042   -4.8042    0.0000 C   0  0  0  0  0  0           0  0  0
    2.5625   -4.3792    0.0000 C   0  0  0  0  0  0           0  0  0
    1.1375   -4.3667    0.0000 C   0  0  0  0  0  0           0  0  0
    1.8417   -5.6125    0.0000 C   0  0  0  0  0  0           0  0  0
    3.9917   -4.3917    0.0000 C   0  0  0  0  0  0           0  0  0
    3.2750   -4.8000    0.0000 C   0  0  0  0  0  0           0  0  0
    0.4167   -4.7667    0.0000 C   0  0  0  0  0  0           0  0  0
    1.1167   -6.0167    0.0000 C   0  0  0  0  0  0           0  0  0
    0.4125   -5.5917    0.0000 C   0  0  0  0  0  0           0  0  0
  2  1  1  0     0  0
  3  1  1  1     0  0
  4  9  1  0     0  0
  5  2  1  0     0  0
  6  3  1  0     0  0
  7  3  1  0     0  0
  5  8  1  1     0  0
  6  9  1  1     0  0
 10  7  1  0     0  0
 11  1  2  0     0  0
 12  4  2  0     0  0
 13  8  2  0     0  0
 14 10  2  0     0  0
 15  4  1  0     0  0
 16  4  1  0     0  0
 17  8  1  0     0  0
 18  2  1  0     0  0
 19  5  1  0     0  0
 20  6  1  0     0  0
 21 24  1  0     0  0
 22 18  1  0     0  0
 23 10  1  0     0  0
 24 28  1  0     0  0
 25 21  2  0     0  0
 26 21  1  0     0  0
 27 23  1  0     0  0
 28 27  1  0     0  0
 29 25  1  0     0  0
 30 26  2  0     0  0
 31 30  1  0     0  0
 22 19  1  0     0  0
 31 29  2  0     0  0
M  END