
  SciTegic04191613082D

183193  0  0  1  0            999 V2000
  -26.2535   -8.0570    0.0000 N   0  0
  -25.1767   -8.5866    0.0000 C   0  0
  -25.0972   -9.7839    0.0000 N   0  0
  -23.9300   -7.7509    0.0000 N   0  0
  -24.0294   -6.2534    0.0000 C   0  0
  -22.7827   -5.4178    0.0000 C   0  0
  -22.8821   -3.9203    0.0000 C   0  0
  -21.6256   -3.0781    0.0000 C   0  0  1  0  0  0
  -22.3279   -1.7526    0.0000 C   0  0
  -23.4397   -2.2042    0.0000 O   0  0
  -22.7489   -0.3129    0.0000 N   0  0
  -22.8715    1.1821    0.0000 C   0  0  2  0  0  0
  -24.3036    0.6954    0.0000 C   0  0
  -24.5369   -0.4817    0.0000 O   0  0
  -25.4330    1.6838    0.0000 N   0  0
  -26.8540    1.2009    0.0000 C   0  0  2  0  0  0
  -27.1488   -0.2707    0.0000 C   0  0
  -26.2475   -1.0629    0.0000 O   0  0
  -28.2854   -0.6556    0.0000 O   0  0
  -27.9833    2.1894    0.0000 C   0  0
  -29.4043    1.7064    0.0000 C   0  0
  -30.5337    2.6949    0.0000 C   0  0
  -31.9547    2.2120    0.0000 C   0  0
  -32.8577    3.0023    0.0000 N   0  0
  -22.6906    2.6711    0.0000 C   0  0
  -22.2137    4.0933    0.0000 N   0  0
  -21.4603    5.3904    0.0000 C   0  0
  -22.2698    5.9775    0.0000 O   0  0
  -20.4612    6.5092    0.0000 C   0  0
  -19.2574    7.4040    0.0000 C   0  0
  -17.9057    8.0565    0.0000 C   0  0
  -16.4404    8.3771    0.0000 C   0  0
  -16.5843    9.5685    0.0000 O   0  0
  -14.9408    8.4146    0.0000 N   0  0
  -13.4613    8.1677    0.0000 C   0  0
  -12.0552    7.6452    0.0000 C   0  0  1  0  0  0
  -10.8082    6.8100    0.0000 C   0  0
  -10.0491    7.7394    0.0000 O   0  0
   -9.7414    5.7555    0.0000 N   0  0
   -8.9086    4.5079    0.0000 C   0  0  1  0  0  0
   -7.4109    4.7190    0.0000 C   0  0
   -6.8484    6.1105    0.0000 C   0  0
   -7.7692    7.2946    0.0000 C   0  0
   -7.2042    8.6841    0.0000 C   0  0
   -5.7184    8.8896    0.0000 C   0  0
   -4.7975    7.7056    0.0000 C   0  0
   -5.3625    6.3160    0.0000 C   0  0
   -8.3441    3.1182    0.0000 C   0  0
   -8.0709    1.6433    0.0000 N   0  0
   -8.1002    0.1436    0.0000 C   0  0  1  0  0  0
   -6.7503   -0.5388    0.0000 C   0  0
   -5.4937    0.2820    0.0000 C   0  0
   -4.1406   -0.3918    0.0000 C   0  0
   -2.8880    0.4281    0.0000 C   0  0
   -1.5518   -0.2469    0.0000 C   0  0
   -0.2992    0.5731    0.0000 C   0  0
   -0.3829    2.0680    0.0000 C   0  0
   -1.7192    2.7430    0.0000 C   0  0
   -2.9717    1.9231    0.0000 C   0  0
   -4.3080    2.5981    0.0000 C   0  0
   -5.5787    1.7771    0.0000 C   0  0
   -8.4308   -1.3196    0.0000 C   0  0
   -9.0491   -2.6862    0.0000 N   0  0
   -9.9299   -3.9004    0.0000 C   0  0  1  0  0  0
   -8.7997   -4.9057    0.0000 C   0  0
   -8.5809   -6.3904    0.0000 C   0  0
   -7.1860   -6.9442    0.0000 C   0  0
   -6.9672   -8.4290    0.0000 N   0  0
   -5.5723   -8.9828    0.0000 C   0  0
   -4.6314   -8.2380    0.0000 N   0  0
   -5.3973  -10.1700    0.0000 N   0  0
  -11.0370   -4.9124    0.0000 C   0  0
  -12.3252   -5.6809    0.0000 N   0  0
  -13.7417   -6.1743    0.0000 C   0  0  2  0  0  0
  -15.2286   -6.3724    0.0000 C   0  0
  -16.7249   -6.2672    0.0000 N   0  0
  -18.1694   -5.8630    0.0000 C   0  0  2  0  0  0
  -19.5030   -5.1762    0.0000 C   0  0
  -20.1575   -6.1820    0.0000 O   0  0
  -20.6710   -4.2351    0.0000 N   0  0
  -18.2045   -7.3752    0.0000 C   0  0
  -19.6880   -7.6023    0.0000 C   0  0
  -20.2340   -9.0003    0.0000 C   0  0
  -21.7175   -9.2275    0.0000 N   0  0
  -22.2635  -10.6255    0.0000 C   0  0
  -21.5134  -11.5622    0.0000 N   0  0
  -23.4496  -10.8071    0.0000 N   0  0
  -15.1974   -7.3720    0.0000 O   0  0
  -12.9067   -7.4355    0.0000 C   0  0
  -11.4086   -7.3445    0.0000 C   0  0
  -10.5801   -8.5959    0.0000 C   0  0
   -9.0820   -8.5050    0.0000 N   0  0
   -8.2534   -9.7564    0.0000 C   0  0
   -8.7890  -10.8302    0.0000 N   0  0
   -7.0556   -9.6837    0.0000 N   0  0
  -10.3211   -5.8755    0.0000 O   0  0
   -7.2930   -1.7011    0.0000 O   0  0
   -7.1924    3.4550    0.0000 O   0  0
  -10.7735    6.8660    0.0000 N   0  0
   -9.6623    5.8584    0.0000 C   0  0
   -8.7620    4.6586    0.0000 C   0  0  2  0  0  0
   -8.1049    3.3102    0.0000 N   0  0
   -7.7149    1.8618    0.0000 C   0  0
   -6.5318    2.0622    0.0000 O   0  0
   -7.6061    0.3657    0.0000 C   0  0  2  0  0  0
   -6.6064    0.3431    0.0000 C   0  0
   -7.7824   -1.1239    0.0000 N   0  0
   -8.2374   -2.5532    0.0000 C   0  0
   -8.9547   -3.8706    0.0000 C   0  0  1  0  0  0
   -9.9083   -5.0284    0.0000 N   0  0
  -11.0638   -5.9848    0.0000 C   0  0
  -10.3900   -6.9778    0.0000 O   0  0
  -12.3795   -6.7053    0.0000 C   0  0  1  0  0  0
  -13.8077   -7.1638    0.0000 N   0  0
  -15.2969   -7.3436    0.0000 C   0  0
  -16.7932   -7.2385    0.0000 C   0  0  2  0  0  0
  -18.2426   -6.8520    0.0000 N   0  0
  -19.5926   -6.1982    0.0000 C   0  0
  -20.2159   -7.2236    0.0000 O   0  0
  -20.7945   -5.3007    0.0000 C   0  0  1  0  0  0
  -21.8123   -6.4199    0.0000 C   0  0  2  0  0  0
  -22.9847   -6.1642    0.0000 C   0  0
  -21.4478   -7.5632    0.0000 O   0  0
  -21.8048   -4.1920    0.0000 N   0  0
  -22.5871   -2.9121    0.0000 C   0  0
  -23.1130   -1.5074    0.0000 C   0  0  2  0  0  0
  -24.6204   -1.3802    0.0000 C   0  0
  -25.4781   -2.6118    0.0000 C   0  0
  -26.9730   -2.4880    0.0000 C   0  0
  -27.8278   -3.7206    0.0000 C   0  0
  -27.1877   -5.0772    0.0000 C   0  0
  -25.6928   -5.2011    0.0000 C   0  0
  -24.8380   -3.9685    0.0000 C   0  0
  -27.8715   -6.0633    0.0000 F   0  0
  -23.3635   -0.0284    0.0000 N   0  0
  -23.3296    1.4712    0.0000 C   0  0
  -24.3227    1.5887    0.0000 O   0  0
  -23.0125    2.9373    0.0000 C   0  0  2  0  0  0
  -22.4237    4.3169    0.0000 N   0  0
  -21.5845    5.5601    0.0000 C   0  0
  -20.5251    6.6221    0.0000 C   0  0
  -21.0255    6.2775    0.0000 C   0  0
  -19.2839    7.4643    0.0000 C   0  0
  -22.3564    6.1959    0.0000 O   0  0
  -24.4549    3.3934    0.0000 C   0  0
  -24.7794    4.8587    0.0000 C   0  0
  -26.2090    5.3130    0.0000 C   0  0
  -26.5304    6.7782    0.0000 C   0  0
  -25.4222    7.7891    0.0000 C   0  0
  -25.7438    9.2551    0.0000 C   0  0
  -26.0009   10.4272    0.0000 N   0  0
  -23.9926    7.3349    0.0000 C   0  0
  -23.6713    5.8697    0.0000 C   0  0
  -23.6658   -3.4378    0.0000 O   0  0
  -19.3045   -7.9236    0.0000 C   0  0
  -18.9145   -9.3720    0.0000 C   0  0
  -17.4652   -9.7585    0.0000 C   0  0
  -16.4058   -8.6966    0.0000 C   0  0
  -15.2669   -8.5433    0.0000 O   0  0
  -11.7796   -8.0940    0.0000 C   0  0
  -12.6745   -9.2989    0.0000 C   0  0
  -12.0830  -10.6746    0.0000 C   0  0
  -12.9960  -11.8809    0.0000 C   0  0
  -14.4826  -11.7040    0.0000 C   0  0
  -15.0729  -10.3280    0.0000 C   0  0
  -16.5595  -10.1511    0.0000 C   0  0
  -17.4557  -11.3502    0.0000 C   0  0
  -16.8655  -12.7262    0.0000 C   0  0
  -15.3789  -12.9031    0.0000 C   0  0
  -14.1766   -9.1289    0.0000 C   0  0
   -7.6993   -4.7145    0.0000 C   0  0
   -6.3509   -4.0554    0.0000 C   0  0
   -5.1054   -4.8927    0.0000 C   0  0
   -3.7571   -4.2335    0.0000 N   0  0
   -2.5115   -5.0708    0.0000 C   0  0
   -1.4335   -4.5437    0.0000 N   0  0
   -2.5937   -6.2680    0.0000 N   0  0
   -7.1337   -3.0242    0.0000 O   0  0
   -7.9087    5.1801    0.0000 C   0  0
   -8.7754    6.6666    0.0000 O   0  0
  -21.7945   -5.3012    0.0000 H   0  0
  -16.0224   -7.8755    0.0000 H   0  0
  -11.2123    7.1071    0.0000 H   0  0
  2  1  1  0
  2  3  2  0
  4  2  1  0
  5  4  1  0
  6  5  1  0
  7  6  1  0
  8  7  1  1
  9  8  1  0
  9 10  2  0
 11  9  1  0
 12 11  1  0
 12 13  1  6
 13 14  2  0
 13 15  1  0
 16 15  1  6
 16 17  1  0
 17 18  1  0
 17 19  2  0
 16 20  1  0
 20 21  1  0
 21 22  1  0
 22 23  1  0
 23 24  1  0
 12 25  1  0
 26 25  1  0
 27 26  1  0
 27 28  2  0
 29 27  1  0
 29 30  2  0
 30 31  1  0
 31 32  1  0
 32 33  2  0
 32 34  1  0
 35 34  1  0
 36 35  1  0
 36 37  1  0
 37 38  2  0
 37 39  1  0
 39 40  1  0
 40 41  1  1
 41 42  1  0
 43 42  1  0
 44 43  2  0
 45 44  1  0
 46 45  2  0
 47 46  1  0
 42 47  2  0
 40 48  1  0
 48 49  1  0
 49 50  1  0
 50 51  1  1
 51 52  1  0
 52 53  2  0
 53 54  1  0
 54 55  2  0
 55 56  1  0
 56 57  2  0
 57 58  1  0
 58 59  2  0
 59 54  1  0
 59 60  1  0
 60 61  2  0
 61 52  1  0
 50 62  1  0
 62 63  1  0
 63 64  1  0
 64 65  1  1
 65 66  1  0
 66 67  1  0
 67 68  1  0
 68 69  1  0
 69 70  1  0
 69 71  2  0
 64 72  1  0
 72 73  1  0
 73 74  1  0
 74 75  1  0
 75 76  1  0
 77 76  1  0
 78 77  1  0
 78 79  2  0
 80 78  1  0
  8 80  1  0
 77 81  1  1
 81 82  1  0
 82 83  1  0
 83 84  1  0
 84 85  1  0
 85 86  1  0
 85 87  2  0
 75 88  2  0
 74 89  1  1
 89 90  1  0
 90 91  1  0
 91 92  1  0
 92 93  1  0
 93 94  1  0
 93 95  2  0
 72 96  2  0
 62 97  2  0
 48 98  2  0
 99 36  1  0
100 99  1  0
101100  1  0
102101  1  0
103102  1  0
103104  2  0
105103  1  0
105106  1  6
107105  1  0
108107  1  0
109108  1  0
110109  1  0
111110  1  0
111112  2  0
113111  1  0
113114  1  0
114115  1  0
116115  1  0
116117  1  0
117118  1  0
118119  2  0
118120  1  0
120121  1  0
121122  1  1
121123  1  0
120124  1  0
124125  1  0
125126  1  0
126127  1  6
127128  1  0
128129  2  0
129130  1  0
130131  2  0
131132  1  0
132133  2  0
133128  1  0
131134  1  0
126135  1  0
135136  1  0
136137  2  0
138136  1  0
139138  1  0
139140  1  0
140141  1  0
141142  2  0
142 29  1  0
143141  1  0
 31143  2  0
140144  2  0
138145  1  1
145146  1  0
146147  2  0
147148  1  0
148149  2  0
149150  1  0
150151  3  0
149152  1  0
152153  2  0
153146  1  0
125154  2  0
155117  1  0
156155  1  0
157156  1  0
158157  1  0
116158  1  0
115159  2  0
113160  1  6
160161  1  0
162161  1  0
163162  2  0
164163  1  0
164165  1  0
165166  2  0
166167  1  0
167168  2  0
168169  1  0
169164  2  0
170165  1  0
161170  2  0
109171  1  6
171172  1  0
172173  1  0
173174  1  0
174175  1  0
175176  2  0
175177  1  0
108178  2  0
101179  1  1
100180  2  0
120181  1  6
116182  1  6
 36183  1  1
M  END