
  SciTegic01311317052D

 39 42  0  0  1  0            999 V2000
    5.3506   -2.0356    0.0000 S   0  0
    6.6051   -1.3335    0.0000 C   0  0  1  0  0  0
    4.5156   -2.0231    0.0000 N   0  0
    6.1814   -2.0438    0.0000 C   0  0
    6.7297    0.1246    0.0000 C   0  0
    7.2033   -1.6368    0.0000 C   0  0  1  0  0  0
    7.9137   -2.8913    0.0000 C   0  0
    9.3261   -5.3880    0.0000 S   0  0
    7.2033   -2.4718    0.0000 N   0  0
    2.6088   -2.7833    0.0000 N   0  0
    6.8959   -0.5733    0.0000 C   0  0
    5.8989   -1.5869    0.0000 C   0  0
    7.9054   -3.7138    0.0000 C   0  0  2  0  0  0
    7.5440   -0.9513    0.0000 C   0  0
    8.6158   -4.1375    0.0000 C   0  0
    1.7863   -2.7958    0.0000 C   0  0
    3.8800   -2.2474    0.0000 C   0  0
    3.7429   -1.7240    0.0000 C   0  0
    4.9476   -1.3127    0.0000 O   0  0
    4.9269   -2.7459    0.0000 O   0  0
    3.2818   -2.5423    0.0000 C   0  0
    3.3898   -3.0907    0.0000 C   0  0
    9.3137   -6.2105    0.0000 O   0  0
   10.0490   -4.9767    0.0000 O   0  0
    8.6158   -4.9643    0.0000 C   0  0
    8.6282   -2.4800    0.0000 O   0  0
    6.1980   -0.9471    0.0000 C   0  0
    7.1826   -4.1168    0.0000 N   0  0
    1.3626   -2.0812    0.0000 C   0  0
   10.0365   -5.7992    0.0000 C   0  0
    6.0111    0.5359    0.0000 C   0  0
    7.4443    0.5359    0.0000 C   0  0
    1.3626   -3.5061    0.0000 C   0  0
    6.4722   -3.7138    0.0000 C   0  0
    7.1826   -4.9601    0.0000 C   0  0
    1.7863   -1.3584    0.0000 C   0  0
    0.5401   -2.0812    0.0000 C   0  0
    0.5401   -3.5061    0.0000 C   0  0
    0.1288   -2.7833    0.0000 C   0  0
  2  4  1  1
  3  1  1  0
  4  1  1  0
  6  2  1  0
  7  9  1  0
  8 25  1  0
  6  9  1  6
 10 21  1  0
 11  5  1  0
 12  2  1  0
 13  7  1  0
 14  6  1  0
 15 13  1  0
 16 10  1  0
 17  3  1  0
 18  3  1  0
 19  1  2  0
 20  1  2  0
 21 18  1  0
 22 17  1  0
 23  8  2  0
 24  8  2  0
 25 15  1  0
 26  7  2  0
 27 12  1  0
 13 28  1  6
 29 16  2  0
 30  8  1  0
 31  5  1  0
 32  5  1  0
 33 16  1  0
 34 28  1  0
 35 28  1  0
 36 29  1  0
 37 29  1  0
 38 33  2  0
 39 38  1  0
 22 10  1  0
 27 11  1  0
 11 14  1  0
 39 37  2  0
  5  2  1  0
M  END