
          11280716012D 1   1.00000     0.00000     0

 72 78  0     1  0            999 V2000
   12.2131  -17.6644    0.0000 C   0  0  0  0  0  0           0  0  0
   12.9120  -16.4196    0.0000 N   0  0  3  0  0  0           0  0  0
   12.9205  -17.2445    0.0000 C   0  0  1  0  0  0           0  0  0
   13.6406  -17.6496    0.0000 C   0  0  0  0  0  0           0  0  0
   14.4645  -17.6470    0.0000 C   0  0  0  0  0  0           0  0  0
   14.8732  -16.9304    0.0000 C   0  0  0  0  0  0           0  0  0
   15.6958  -16.9247    0.0000 C   0  0  0  0  0  0           0  0  0
   16.1133  -17.6377    0.0000 C   0  0  0  0  0  0           0  0  0
   16.9395  -17.6340    0.0000 O   0  0  0  0  0  0           0  0  0
   15.7045  -18.3543    0.0000 C   0  0  0  0  0  0           0  0  0
   14.8783  -18.3579    0.0000 C   0  0  0  0  0  0           0  0  0
   12.2217  -18.4893    0.0000 O   0  0  0  0  0  0           0  0  0
   11.4930  -17.2593    0.0000 N   0  0  3  0  0  0           0  0  0
   14.4696  -19.0746    0.0000 C   0  0  0  0  0  0           0  0  0
   14.4546  -16.2167    0.0000 C   0  0  0  0  0  0           0  0  0
   11.4884  -16.4333    0.0000 C   0  0  0  0  0  0           0  0  0
   10.0664  -17.2730    0.0000 C   0  0  0  0  0  0           0  0  0
   10.7870  -17.6825    0.0000 C   0  0  3  0  0  0           0  0  0
   10.0591  -16.4459    0.0000 C   0  0  0  0  0  0           0  0  0
   10.7693  -16.0305    0.0000 C   0  0  0  0  0  0           0  0  0
   10.7637  -15.2096    0.0000 C   0  0  0  0  0  0           0  0  0
   10.0486  -14.8031    0.0000 C   0  0  0  0  0  0           0  0  0
    9.3377  -15.2235    0.0000 C   0  0  0  0  0  0           0  0  0
    9.3468  -16.0430    0.0000 C   0  0  0  0  0  0           0  0  0
   10.7965  -18.5075    0.0000 C   0  0  0  0  0  0           0  0  0
   11.5157  -18.9117    0.0000 O   0  0  0  0  0  0           0  0  0
   10.0767  -18.9179    0.0000 N   0  0  0  0  0  0           0  0  0
    5.7875  -18.9042    0.0000 C   0  0  0  0  0  0           0  0  0
    5.7875  -19.7333    0.0000 C   0  0  0  0  0  0           0  0  0
    6.5037  -20.1458    0.0000 N   0  0  0  0  0  0           0  0  0
    7.2157  -19.7333    0.0000 C   0  0  0  0  0  0           0  0  0
    7.2157  -18.9042    0.0000 C   0  0  0  0  0  0           0  0  0
    6.5037  -18.4875    0.0000 N   0  0  0  0  0  0           0  0  0
    7.9337  -20.1510    0.0000 O   0  0  0  0  0  0           0  0  0
    5.0677  -18.4938    0.0000 C   0  0  0  0  0  0           0  0  0
    7.9355  -18.4938    0.0000 C   0  0  0  0  0  0           0  0  0
    5.0695  -20.1510    0.0000 C   0  0  0  0  0  0           0  0  0
    0.7895  -20.9760    0.0000 C   0  0  0  0  0  0           0  0  0
    0.0778  -22.2135    0.0000 N   0  0  3  0  0  0           0  0  0
    0.0778  -21.3885    0.0000 C   0  0  1  0  0  0           0  0  0
   -0.6390  -20.9777    0.0000 C   0  0  0  0  0  0           0  0  0
   -1.4652  -20.9822    0.0000 C   0  0  0  0  0  0           0  0  0
   -1.8732  -21.6993    0.0000 C   0  0  0  0  0  0           0  0  0
   -2.6958  -21.7059    0.0000 C   0  0  0  0  0  0           0  0  0
   -3.1192  -20.9904    0.0000 C   0  0  0  0  0  0           0  0  0
   -3.9454  -20.9949    0.0000 O   0  0  0  0  0  0           0  0  0
   -2.7112  -20.2733    0.0000 C   0  0  0  0  0  0           0  0  0
   -1.8798  -20.2717    0.0000 C   0  0  0  0  0  0           0  0  0
    0.7895  -20.1510    0.0000 O   0  0  0  0  0  0           0  0  0
    1.5054  -21.3885    0.0000 N   0  0  3  0  0  0           0  0  0
   -1.4719  -19.5547    0.0000 C   0  0  0  0  0  0           0  0  0
   -1.4538  -22.4125    0.0000 C   0  0  0  0  0  0           0  0  0
    1.5015  -22.2146    0.0000 C   0  0  0  0  0  0           0  0  0
    2.9321  -21.3896    0.0000 C   0  0  0  0  0  0           0  0  0
    2.2158  -20.9726    0.0000 C   0  0  3  0  0  0           0  0  0
    2.9308  -22.2168    0.0000 C   0  0  0  0  0  0           0  0  0
    2.2163  -22.6248    0.0000 C   0  0  0  0  0  0           0  0  0
    2.2135  -23.4457    0.0000 C   0  0  0  0  0  0           0  0  0
    2.9243  -23.8595    0.0000 C   0  0  0  0  0  0           0  0  0
    3.6395  -23.4465    0.0000 C   0  0  0  0  0  0           0  0  0
    3.6389  -22.6269    0.0000 C   0  0  0  0  0  0           0  0  0
    2.2148  -20.1476    0.0000 C   0  0  0  0  0  0           0  0  0
    1.4998  -19.7360    0.0000 O   0  0  0  0  0  0           0  0  0
    2.9294  -19.7354    0.0000 N   0  0  0  0  0  0           0  0  0
    3.6437  -20.1482    0.0000 C   0  0  0  0  0  0           0  0  0
    4.3583  -19.7360    0.0000 C   0  0  0  0  0  0           0  0  0
    8.6478  -18.9101    0.0000 C   0  0  0  0  0  0           0  0  0
    9.3645  -18.5015    0.0000 C   0  0  0  0  0  0           0  0  0
   13.6221  -15.9997    0.0000 C   0  0  0  0  0  0           0  0  0
   12.1933  -16.0145    0.0000 C   0  0  0  0  0  0           0  0  0
   -0.6367  -22.6260    0.0000 C   0  0  0  0  0  0           0  0  0
    0.7923  -22.6260    0.0000 C   0  0  0  0  0  0           0  0  0
 28 35  1  0     0  0
 13 18  1  0     0  0
 32 36  1  0     0  0
 16 20  1  0     0  0
 29 37  1  0     0  0
 19 17  1  0     0  0
 17 18  1  0     0  0
  4  5  1  0     0  0
  5  6  2  0     0  0
 19 20  2  0     0  0
  6  7  1  0     0  0
 20 21  1  0     0  0
  7  8  2  0     0  0
 21 22  2  0     0  0
  8  9  1  0     0  0
 22 23  1  0     0  0
  8 10  1  0     0  0
 23 24  2  0     0  0
 24 19  1  0     0  0
 40 39  1  1     0  0
 38 40  1  0     0  0
 40 41  1  0     0  0
 41 42  1  0     0  0
 42 43  2  0     0  0
 43 44  1  0     0  0
 44 45  2  0     0  0
 45 46  1  0     0  0
 45 47  1  0     0  0
 47 48  2  0     0  0
 42 48  1  0     0  0
 38 49  2  0     0  0
 38 50  1  0     0  0
 48 51  1  0     0  0
 43 52  1  0     0  0
 10 11  2  0     0  0
 50 53  1  0     0  0
 18 25  1  0     0  0
  5 11  1  0     0  0
 25 26  2  0     0  0
 50 55  1  0     0  0
 53 57  1  0     0  0
 56 54  1  0     0  0
 54 55  1  0     0  0
  1 12  2  0     0  0
 27 25  1  0     0  0
 56 57  2  0     0  0
 28 29  1  0     0  0
 57 58  1  0     0  0
  1 13  1  0     0  0
 58 59  2  0     0  0
 11 14  1  0     0  0
 59 60  1  0     0  0
  6 15  1  0     0  0
 60 61  2  0     0  0
 61 56  1  0     0  0
 55 62  1  0     0  0
 13 16  1  0     0  0
 62 63  2  0     0  0
  3  2  1  1     0  0
 64 62  1  0     0  0
 28 33  2  0     0  0
 64 65  1  0     0  0
 29 30  2  0     0  0
 65 66  1  0     0  0
 66 37  1  0     0  0
 30 31  1  0     0  0
 36 67  1  0     0  0
 31 32  2  0     0  0
 67 68  1  0     0  0
 68 27  1  0     0  0
 32 33  1  0     0  0
  2 69  1  0     0  0
  1  3  1  0     0  0
  2 70  1  0     0  0
 31 34  1  0     0  0
 39 71  1  0     0  0
  3  4  1  0     0  0
 39 72  1  0     0  0
M  END