
          11280715362D 1   1.00000     0.00000     0

 34 36  0     0  0            999 V2000
   12.9750    0.1208    0.0000 S   0  0  3  0  0  0           0  0  0
   13.8000    0.1208    0.0000 C   0  0  0  0  0  0           0  0  0
    9.4000   -1.9625    0.0000 C   0  0  0  0  0  0           0  0  0
   14.2042    0.8333    0.0000 C   0  0  0  0  0  0           0  0  0
    9.4000   -1.1375    0.0000 C   0  0  0  0  0  0           0  0  0
   15.0250    0.8375    0.0000 C   0  0  0  0  0  0           0  0  0
   12.9667   -0.7042    0.0000 O   0  0  0  0  0  0           0  0  0
   12.9667    0.9458    0.0000 O   0  0  0  0  0  0           0  0  0
   12.2542    0.5250    0.0000 N   0  0  0  0  0  0           0  0  0
   12.9750   -2.3750    0.0000 C   0  0  0  0  0  0           0  0  0
   15.4417    0.1208    0.0000 C   0  0  0  0  0  0           0  0  0
   10.1167   -0.7250    0.0000 C   0  0  0  0  0  0           0  0  0
    8.6875   -2.3750    0.0000 C   0  0  0  0  0  0           0  0  0
   10.1167   -2.3750    0.0000 C   0  0  0  0  0  0           0  0  0
   14.2042   -0.5917    0.0000 C   0  0  0  0  0  0           0  0  0
    7.9792   -3.6042    0.0000 N   0  0  0  0  0  0           0  0  0
   12.9750   -3.2000    0.0000 O   0  0  0  0  0  0           0  0  0
   15.0292   -0.5917    0.0000 C   0  0  0  0  0  0           0  0  0
   15.4292    1.5583    0.0000 Cl  0  0  0  0  0  0           0  0  0
   16.2667    0.1250    0.0000 Cl  0  0  0  0  0  0           0  0  0
   13.6875   -1.9625    0.0000 O   0  0  0  0  0  0           0  0  0
   10.1167    0.1083    0.0000 C   0  0  0  0  0  0           0  0  0
   11.5417    0.1125    0.0000 C   0  0  0  0  0  0           0  0  0
    8.6917   -3.1917    0.0000 C   0  0  0  0  0  0           0  0  0
    8.6875   -0.7250    0.0000 C   0  0  0  0  0  0           0  0  0
    8.6875    0.1000    0.0000 C   0  0  0  0  0  0           0  0  0
   12.2542   -1.9625    0.0000 C   0  0  0  0  0  0           0  0  0
    7.2625   -3.1917    0.0000 C   0  0  0  0  0  0           0  0  0
   10.8292   -1.9625    0.0000 C   0  0  0  0  0  0           0  0  0
   10.8292    0.5208    0.0000 C   0  0  0  0  0  0           0  0  0
    7.9750   -1.9542    0.0000 C   0  0  0  0  0  0           0  0  0
    9.4000    0.5208    0.0000 C   0  0  0  0  0  0           0  0  0
   11.5417   -2.3750    0.0000 C   0  0  0  0  0  0           0  0  0
    7.2625   -2.3667    0.0000 C   0  0  0  0  0  0           0  0  0
  2  1  1  0     0  0
  3  5  1  0     0  0
  4  2  1  0     0  0
  5 12  2  0     0  0
  6  4  2  0     0  0
  7  1  2  0     0  0
  8  1  2  0     0  0
  9  1  1  0     0  0
 10 27  1  0     0  0
 11 18  2  0     0  0
 12 22  1  0     0  0
 13  3  1  0     0  0
 14  3  2  0     0  0
 15  2  2  0     0  0
 16 24  2  0     0  0
 17 10  2  0     0  0
 18 15  1  0     0  0
 19  6  1  0     0  0
 20 11  1  0     0  0
 21 10  1  0     0  0
 22 30  1  0     0  0
 23  9  1  0     0  0
 24 13  1  0     0  0
 25 26  2  0     0  0
 26 32  1  0     0  0
 27 33  1  0     0  0
 28 34  2  0     0  0
 14 29  1  0     0  0
 30 23  1  0     0  0
 31 13  2  0     0  0
 32 22  2  0     0  0
 33 29  1  0     0  0
 34 31  1  0     0  0
 11  6  1  0     0  0
  5 25  1  0     0  0
 16 28  1  0     0  0
M  END