
  SciTegic11201309402D

120129  0  0  0  0            999 V2000
   10.6966  -17.4660    0.0000 C   0  0
   10.6990  -18.2898    0.0000 C   0  0
   11.4126  -18.7068    0.0000 C   0  0
   12.1287  -18.2891    0.0000 C   0  0
   12.1243  -17.4604    0.0000 C   0  0
   11.4098  -17.0534    0.0000 C   0  0
    9.9812  -18.7054    0.0000 O   0  0
   12.8392  -17.0441    0.0000 C   0  0
   12.8344  -16.2197    0.0000 C   0  0  1  0  0  0
   13.5494  -15.8076    0.0000 C   0  0
   12.1190  -15.8117    0.0000 N   0  0
   14.2648  -16.2156    0.0000 O   0  0
   13.5446  -14.9790    0.0000 N   0  0
   14.2595  -14.5669    0.0000 C   0  0  2  0  0  0
   14.2547  -13.7425    0.0000 C   0  0
   14.9749  -14.9749    0.0000 C   0  0
   14.9755  -15.7993    0.0000 S   0  0
   15.6910  -16.2116    0.0000 S   0  0
   15.6958  -17.0359    0.0000 C   0  0
   16.4112  -17.4440    0.0000 C   0  0  1  0  0  0
   16.4160  -18.2683    0.0000 C   0  0
   17.1261  -17.0276    0.0000 N   0  0
   15.7011  -18.6847    0.0000 N   0  0
   17.1315  -18.6806    0.0000 O   0  0
   15.7059  -19.5090    0.0000 C   0  0  2  0  0  0
   14.9910  -19.9254    0.0000 C   0  0
   16.4214  -19.9213    0.0000 C   0  0
   14.2755  -19.5131    0.0000 O   0  0
   14.9958  -20.7498    0.0000 N   0  0
   16.4262  -20.7457    0.0000 C   0  0
   15.7090  -21.1583    0.0000 C   0  0
   15.7132  -21.9815    0.0000 C   0  0
   16.4295  -22.3908    0.0000 C   0  0
   17.1438  -21.9719    0.0000 C   0  0
   17.1384  -21.1508    0.0000 C   0  0
   16.4318  -23.2152    0.0000 O   0  0
   17.8416  -17.4399    0.0000 C   0  0
   18.5523  -17.0236    0.0000 C   0  0  2  0  0  0
   17.8422  -18.2643    0.0000 O   0  0
   19.2678  -17.4358    0.0000 C   0  0
   18.5517  -16.1992    0.0000 N   0  0
   19.2726  -18.2602    0.0000 C   0  0
   18.5588  -18.6734    0.0000 C   0  0
   18.5630  -19.4966    0.0000 C   0  0
   19.2794  -19.9059    0.0000 C   0  0
   19.9937  -19.4870    0.0000 C   0  0
   19.9882  -18.6659    0.0000 C   0  0
   19.2624  -15.7828    0.0000 C   0  0
   19.2618  -14.9585    0.0000 C   0  0  1  0  0  0
   19.9779  -16.1951    0.0000 O   0  0
   19.9725  -14.5464    0.0000 N   0  0
   20.6880  -14.9544    0.0000 C   0  0
   21.4029  -14.5381    0.0000 C   0  0  2  0  0  0
   20.6928  -15.7788    0.0000 O   0  0
   22.1184  -14.9503    0.0000 C   0  0
   21.3980  -13.7138    0.0000 N   0  0
   22.1189  -15.7747    0.0000 C   0  0
   22.8344  -16.1827    0.0000 N   0  0
   21.4082  -16.1868    0.0000 O   0  0
   22.1130  -13.2974    0.0000 C   0  0
   22.1217  -12.4639    0.0000 C   0  0  1  0  0  0
   22.8285  -13.7096    0.0000 O   0  0
   21.4021  -12.0555    0.0000 N   0  0
   14.9696  -13.3262    0.0000 N   0  0
   14.9648  -12.5018    0.0000 C   0  0  2  0  0  0
   15.7078  -12.0855    0.0000 C   0  0
   16.3909  -12.4935    0.0000 O   0  0
   14.2419  -12.0823    0.0000 C   0  0
   21.4072  -11.2343    0.0000 C   0  0
   19.9808  -12.0626    0.0000 C   0  0
   20.6968  -12.4736    0.0000 C   0  0
   19.9794  -11.2324    0.0000 S   0  0
   20.6906  -10.8242    0.0000 C   0  0  1  0  0  0
   20.6936  -10.0080    0.0000 N   0  0
   19.9843   -9.5927    0.0000 C   0  0
   19.9893   -8.7683    0.0000 O   0  0
   20.6994  -13.2979    0.0000 O   0  0
   18.5583   -9.5879    0.0000 N   0  0
   17.8430   -9.9962    0.0000 C   0  0
   17.8426  -10.8205    0.0000 C   0  0  1  0  0  0
   17.1273  -11.2330    0.0000 C   0  0
   18.5534  -11.2367    0.0000 N   0  0
   19.2657  -10.8215    0.0000 C   0  0
   19.2643   -9.9971    0.0000 C   0  0  2  0  0  0
   21.4063  -10.4169    0.0000 C   0  0
   22.1219  -10.8279    0.0000 C   0  0
   22.8324  -10.4187    0.0000 C   0  0
   23.5480  -10.8339    0.0000 N   0  0
   24.2628  -10.4247    0.0000 C   0  0
   24.9784  -10.8398    0.0000 N   0  0
   24.2663   -9.5960    0.0000 N   0  0
   22.8324  -12.0556    0.0000 C   0  0
   23.5229  -12.5127    0.0000 C   0  0
   24.8011  -12.8763    0.0000 N   0  0
   24.2918  -12.2283    0.0000 C   0  0
   24.3440  -13.5627    0.0000 C   0  0
   23.5513  -13.3374    0.0000 C   0  0
   22.9683  -13.9123    0.0000 C   0  0
   23.1676  -14.7084    0.0000 C   0  0
   23.9624  -14.9249    0.0000 C   0  0
   24.5486  -14.3518    0.0000 C   0  0
   18.5421  -14.5505    0.0000 C   0  0
   13.5392  -13.3303    0.0000 O   0  0
   13.4007  -12.1010    0.0000 C   0  0
   12.8888  -11.4331    0.0000 N   0  0
   12.0946  -11.7108    0.0000 C   0  0
   12.1133  -12.5521    0.0000 N   0  0
   12.9191  -12.7941    0.0000 C   0  0
   16.3989  -10.8119    0.0000 C   0  0
   14.9478  -10.8163    0.0000 C   0  0
   15.6760  -11.2335    0.0000 C   0  0
   16.4049   -9.9763    0.0000 C   0  0
   14.9456   -9.9706    0.0000 C   0  0
   15.6732   -9.5545    0.0000 C   0  0
   15.6756   -8.7182    0.0000 C   0  0
   14.9512   -8.2970    0.0000 C   0  0
   14.2228   -8.7183    0.0000 C   0  0
   14.2240   -9.5532    0.0000 C   0  0
   17.1154   -9.5735    0.0000 O   0  0
   19.2711   -8.9971    0.0000 H   0  0
  1  2  2  0
  2  3  1  0
  3  4  2  0
  4  5  1  0
  5  6  2  0
  6  1  1  0
  2  7  1  0
  5  8  1  0
  9  8  1  0
  9 10  1  0
  9 11  1  6
 10 12  2  0
 10 13  1  0
 14 13  1  6
 14 15  1  0
 14 16  1  0
 16 17  1  0
 17 18  1  0
 18 19  1  0
 20 19  1  0
 20 21  1  6
 20 22  1  0
 21 23  1  0
 21 24  2  0
 25 23  1  1
 25 26  1  0
 25 27  1  0
 26 28  2  0
 26 29  1  0
 27 30  1  0
 30 31  2  0
 31 32  1  0
 32 33  2  0
 33 34  1  0
 34 35  2  0
 35 30  1  0
 33 36  1  0
 22 37  1  0
 37 38  1  0
 37 39  2  0
 38 40  1  1
 38 41  1  0
 40 42  1  0
 42 43  2  0
 43 44  1  0
 44 45  2  0
 45 46  1  0
 46 47  2  0
 47 42  1  0
 41 48  1  0
 48 49  1  0
 48 50  2  0
 49 51  1  0
 51 52  1  0
 52 53  1  0
 52 54  2  0
 53 55  1  1
 53 56  1  0
 55 57  1  0
 57 58  1  0
 57 59  2  0
 56 60  1  0
 60 61  1  0
 60 62  2  0
 61 63  1  0
 15 64  1  0
 64 65  1  0
 65 66  1  0
 66 67  2  0
 65 68  1  1
 63 69  1  0
 63 71  1  0
 69 73  1  0
 72 70  1  0
 70 71  1  0
 73 74  1  0
 74 75  1  0
 75 84  1  0
 75 76  2  0
 71 77  2  0
 84 78  1  0
 78 79  1  0
 79 80  1  0
 80 81  1  6
 80 82  1  0
 66 82  1  0
 72 83  1  0
 83 84  1  0
 73 85  1  6
 85 86  1  0
 86 87  1  0
 87 88  1  0
 88 89  1  0
 89 90  1  0
 89 91  2  0
 61 92  1  1
 92 93  1  0
 93 97  1  0
 96 94  1  0
 94 95  1  0
 95 93  2  0
 96 97  2  0
 97 98  1  0
 98 99  2  0
 99100  1  0
100101  2  0
101 96  1  0
 49102  1  6
 15103  2  0
 68104  1  0
104105  1  0
105106  1  0
106107  2  0
107108  1  0
108104  2  0
 81109  1  0
109112  2  0
113110  1  0
110111  2  0
111109  1  0
114112  1  0
113114  1  0
114115  2  0
115116  1  0
116117  2  0
117118  1  0
118113  2  0
 79119  2  0
 84120  1  6
M  END