
          11280715372D 1   1.00000     0.00000     0

 26 29  0     0  0            999 V2000
   -1.9250   -0.0792    0.0000 C   0  0  0  0  0  0           0  0  0
   -1.9250   -0.6792    0.0000 C   0  0  0  0  0  0           0  0  0
   -1.4125    0.2208    0.0000 O   0  0  0  0  0  0           0  0  0
   -1.4125   -0.9792    0.0000 C   0  0  0  0  0  0           0  0  0
   -2.4458    0.2208    0.0000 C   0  0  0  0  0  0           0  0  0
   -0.8875   -0.0792    0.0000 C   0  0  0  0  0  0           0  0  0
   -0.8875   -0.6750    0.0000 C   0  0  0  0  0  0           0  0  0
   -2.4458   -0.9792    0.0000 C   0  0  0  0  0  0           0  0  0
   -2.9708   -0.0792    0.0000 C   0  0  0  0  0  0           0  0  0
   -2.9708   -0.6750    0.0000 C   0  0  0  0  0  0           0  0  0
   -2.4500    0.8208    0.0000 C   0  0  0  0  0  0           0  0  0
   -1.4125   -1.5792    0.0000 O   0  0  0  0  0  0           0  0  0
   -0.3625    0.2208    0.0000 C   0  0  0  0  0  0           0  0  0
   -2.4375   -1.5792    0.0000 O   0  0  0  0  0  0           0  0  0
   -3.5083    0.2083    0.0000 O   0  0  0  0  0  0           0  0  0
   -2.9625    1.1333    0.0000 C   0  0  0  0  0  0           0  0  0
   -0.3625    0.8250    0.0000 C   0  0  0  0  0  0           0  0  0
    0.1542   -0.0792    0.0000 C   0  0  0  0  0  0           0  0  0
   -2.9500    1.7333    0.0000 C   0  0  0  0  0  0           0  0  0
   -3.4875    0.8375    0.0000 C   0  0  0  0  0  0           0  0  0
    0.6792    0.2250    0.0000 C   0  0  0  0  0  0           0  0  0
    0.1542    1.1333    0.0000 C   0  0  0  0  0  0           0  0  0
   -4.0000    1.1458    0.0000 C   0  0  0  0  0  0           0  0  0
   -3.4625    2.0375    0.0000 C   0  0  0  0  0  0           0  0  0
    0.6792    0.8208    0.0000 C   0  0  0  0  0  0           0  0  0
   -3.9875    1.7458    0.0000 C   0  0  0  0  0  0           0  0  0
  2  1  2  0     0  0
  3  1  1  0     0  0
  4  2  1  0     0  0
  5  1  1  0     0  0
  6  3  1  0     0  0
  7  6  2  0     0  0
  8  2  1  0     0  0
  9  5  2  0     0  0
 10  9  1  0     0  0
 11  5  1  0     0  0
 12  4  2  0     0  0
 13  6  1  0     0  0
 14  8  1  0     0  0
 15  9  1  0     0  0
 16 11  1  0     0  0
 17 13  1  0     0  0
 18 13  2  0     0  0
 19 16  2  0     0  0
 20 16  1  0     0  0
 21 18  1  0     0  0
 22 17  2  0     0  0
 23 20  2  0     0  0
 24 19  1  0     0  0
 25 21  2  0     0  0
 26 23  1  0     0  0
 10  8  2  0     0  0
  7  4  1  0     0  0
 26 24  2  0     0  0
 25 22  1  0     0  0
M  END