
          11280714452D 1   1.00000     0.00000     0

 19 21  0     0  0            999 V2000
    0.4500   -0.6250    0.0000 C   0  0  3  0  0  0           0  0  0
   -0.0750   -0.3167    0.0000 O   0  0  0  0  0  0           0  0  0
    1.0292   -0.7792    0.0000 C   0  0  0  0  0  0           0  0  0
    1.4792   -0.3792    0.0000 N   0  0  0  0  0  0           0  0  0
   -0.0750   -1.5167    0.0000 O   0  0  0  0  0  0           0  0  0
    0.4417   -0.0250    0.0000 O   0  0  0  0  0  0           0  0  0
    0.4500   -1.2167    0.0000 C   0  0  0  0  0  0           0  0  0
   -0.5958   -0.6167    0.0000 C   0  0  0  0  0  0           0  0  0
    1.2667   -1.3292    0.0000 N   0  0  0  0  0  0           0  0  0
   -0.5958   -1.2167    0.0000 C   0  0  0  0  0  0           0  0  0
    1.9917   -0.6875    0.0000 C   0  0  0  0  0  0           0  0  0
    0.9625    0.2833    0.0000 C   0  0  3  0  0  0           0  0  0
    1.8625   -1.2667    0.0000 C   0  0  0  0  0  0           0  0  0
   -1.1083   -0.3167    0.0000 C   0  0  0  0  0  0           0  0  0
   -1.1083   -1.5167    0.0000 C   0  0  0  0  0  0           0  0  0
    0.9542    0.8833    0.0000 C   0  0  0  0  0  0           0  0  0
    1.5417    0.4375    0.0000 C   0  0  0  0  0  0           0  0  0
   -1.6333   -0.6250    0.0000 C   0  0  0  0  0  0           0  0  0
   -1.6333   -1.2167    0.0000 C   0  0  0  0  0  0           0  0  0
  2  1  1  0     0  0
  3  1  1  0     0  0
  4  3  2  0     0  0
  5  7  1  0     0  0
  6  1  1  0     0  0
  7  1  1  0     0  0
  8  2  1  0     0  0
  9  3  1  0     0  0
 10  5  1  0     0  0
 11  4  1  0     0  0
 12  6  1  0     0  0
 13  9  1  0     0  0
 14  8  2  0     0  0
 15 10  2  0     0  0
 16 12  1  0     0  0
 17 12  1  0     0  0
 18 14  1  0     0  0
 19 15  1  0     0  0
  8 10  1  0     0  0
 13 11  1  0     0  0
 18 19  2  0     0  0
M  END