
          11280715132D 1   1.00000     0.00000     0

 27 29  0     1  0            999 V2000
    5.8792   -3.6417    0.0000 N   0  0  3  0  0  0           0  0  0
    5.2042   -4.1292    0.0000 C   0  0  0  0  0  0           0  0  0
    6.6292   -3.9750    0.0000 C   0  0  3  0  0  0           0  0  0
    5.7917   -2.8250    0.0000 C   0  0  0  0  0  0           0  0  0
    3.7917   -2.3750    0.0000 C   0  0  0  0  0  0           0  0  0
    7.2917   -3.4875    0.0000 C   0  0  0  0  0  0           0  0  0
    4.3542   -2.9792    0.0000 C   0  0  0  0  0  0           0  0  0
    4.4417   -3.8042    0.0000 C   0  0  2  0  0  0           0  0  0
    6.7042   -4.8000    0.0000 C   0  0  0  0  0  0           0  0  0
    2.9792   -2.5500    0.0000 C   0  0  0  0  0  0           0  0  0
    4.0417   -1.5875    0.0000 C   0  0  0  0  0  0           0  0  0
    6.4542   -2.3375    0.0000 C   0  0  0  0  0  0           0  0  0
    7.2042   -2.6667    0.0000 C   0  0  0  0  0  0           0  0  0
    5.2917   -4.9625    0.0000 O   0  0  0  0  0  0           0  0  0
    3.4917   -0.9750    0.0000 C   0  0  0  0  0  0           0  0  0
    2.4292   -1.9375    0.0000 C   0  0  0  0  0  0           0  0  0
    2.6792   -1.1500    0.0000 C   0  0  0  0  0  0           0  0  0
    6.0417   -5.2875    0.0000 O   0  0  0  0  0  0           0  0  0
    7.4667   -5.1417    0.0000 N   0  0  0  0  0  0           0  0  0
    3.7792   -4.2875    0.0000 N   0  0  0  0  0  0           0  0  0
    2.1167   -0.5375    0.0000 O   0  0  0  0  0  0           0  0  0
    4.8542   -1.4042    0.0000 C   0  0  0  0  0  0           0  0  0
    2.7292   -3.3375    0.0000 C   0  0  0  0  0  0           0  0  0
    7.8792   -2.1792    0.0000 C   0  0  0  0  0  0           0  0  0
    6.3667   -1.5125    0.0000 C   0  0  0  0  0  0           0  0  0
    7.0417   -1.0250    0.0000 C   0  0  0  0  0  0           0  0  0
    7.7917   -1.3625    0.0000 C   0  0  0  0  0  0           0  0  0
  2  1  1  0     0  0
  3  1  1  0     0  0
  4  1  1  0     0  0
  5  7  1  0     0  0
  6  3  1  0     0  0
  8  7  1  1     0  0
  8  2  1  0     0  0
  9  3  1  0     0  0
 10  5  1  0     0  0
 11  5  2  0     0  0
 12  4  1  0     0  0
 13 12  2  0     0  0
 14  2  2  0     0  0
 15 11  1  0     0  0
 16 10  2  0     0  0
 17 15  2  0     0  0
 18  9  2  0     0  0
 19  9  1  0     0  0
 20  8  1  0     0  0
 21 17  1  0     0  0
 22 11  1  0     0  0
 23 10  1  0     0  0
 24 13  1  0     0  0
 25 12  1  0     0  0
 26 25  2  0     0  0
 27 26  1  0     0  0
 13  6  1  0     0  0
 24 27  2  0     0  0
 16 17  1  0     0  0
M  END