
  SciTegic02011310452D

 39 42  0  0  0  0            999 V2000
   26.9146  -22.2363    0.0000 N   0  0
   26.2801  -22.7184    0.0000 C   0  0  1  0  0  0
   27.6421  -22.4442    0.0000 C   0  0
   26.9116  -21.3742    0.0000 C   0  0
   26.0428  -23.4540    0.0000 C   0  0  1  0  0  0
   25.6117  -22.2329    0.0000 O   0  0
   28.1519  -21.7027    0.0000 C   0  0
   27.9878  -23.1986    0.0000 N   0  0
   27.7136  -21.1047    0.0000 N   0  0
   25.2355  -23.4675    0.0000 C   0  0  1  0  0  0
   26.2981  -24.2232    0.0000 O   0  0
   24.9747  -22.7058    0.0000 C   0  0  1  0  0  0
   28.9501  -21.7669    0.0000 C   0  0
   28.8331  -23.2744    0.0000 C   0  0
   24.9866  -24.2409    0.0000 O   0  0
   24.2109  -22.4798    0.0000 C   0  0
   29.3253  -22.5597    0.0000 N   0  0
   29.3537  -21.0729    0.0000 N   0  0
   24.1736  -21.6812    0.0000 N   0  0
   23.4476  -21.3060    0.0000 C   0  0
   22.7598  -21.7472    0.0000 C   0  0
   22.0338  -21.3720    0.0000 C   0  0
   21.3459  -21.8133    0.0000 N   0  0
   20.6261  -21.4263    0.0000 C   0  0
   19.9311  -21.8561    0.0000 O   0  0
   20.5997  -20.6041    0.0000 N   0  0
   19.8838  -20.2101    0.0000 C   0  0
   19.8719  -19.3945    0.0000 C   0  0
   19.1568  -19.0005    0.0000 C   0  0
   18.4566  -19.4236    0.0000 C   0  0
   18.4761  -20.2448    0.0000 C   0  0
   19.1917  -20.6351    0.0000 C   0  0
   24.8615  -21.2400    0.0000 C   0  0
   25.5875  -21.6152    0.0000 C   0  0
   24.8234  -20.4237    0.0000 C   0  0
   17.7402  -19.0306    0.0000 C   0  0
   17.7223  -18.2136    0.0000 C   0  0
   17.0415  -19.4546    0.0000 C   0  0
   17.0289  -18.6179    0.0000 C   0  0
  2  1  1  1
  1  3  1  0
  1  4  1  0
  5  2  1  0
  2  6  1  0
  3  7  2  0
  3  8  1  0
  4  9  2  0
  5 10  1  0
  5 11  1  6
  6 12  1  0
  7 13  1  0
  8 14  2  0
 10 15  1  6
 12 16  1  1
 13 17  2  0
 13 18  1  0
 16 19  1  0
  7  9  1  0
 10 12  1  0
 14 17  1  0
 19 20  1  0
 20 21  1  0
 21 22  1  0
 22 23  1  0
 23 24  1  0
 24 25  2  0
 24 26  1  0
 26 27  1  0
 27 28  2  0
 28 29  1  0
 29 30  2  0
 30 31  1  0
 31 32  2  0
 32 27  1  0
 19 33  1  0
 33 34  1  0
 33 35  1  0
 30 36  1  0
 36 37  1  0
 36 38  1  0
 36 39  1  0
M  END