
  SciTegic01181116592D

 27 30  0  0  0  0            999 V2000
   18.4112  -10.1619    0.0000 C   0  0
   18.4110  -10.9867    0.0000 O   0  0
   17.6970   -9.7493    0.0000 N   0  0
   16.9847  -10.1663    0.0000 C   0  0
   16.2727   -9.7573    0.0000 C   0  0
   16.2686   -8.9322    0.0000 N   0  0
   16.9828   -8.5178    0.0000 C   0  0
   17.7011   -8.9285    0.0000 C   0  0
   15.5529   -8.5224    0.0000 C   0  0
   14.8401   -8.9373    0.0000 C   0  0
   15.5500   -7.6976    0.0000 C   0  0
   19.1255   -9.7496    0.0000 C   0  0
   19.1267   -8.9226    0.0000 C   0  0
   19.8402  -10.1624    0.0000 C   0  0
   19.8384   -8.5099    0.0000 C   0  0
   20.5535   -8.9189    0.0000 C   0  0
   20.5584   -9.7451    0.0000 C   0  0
   21.3457   -9.9959    0.0000 N   0  0
   21.8275   -9.3246    0.0000 C   0  0
   21.3371   -8.6594    0.0000 C   0  0
   21.7572   -7.9496    0.0000 C   0  0
   22.5819   -7.9585    0.0000 N   0  0
   22.9797   -8.6780    0.0000 C   0  0
   23.8007   -8.6889    0.0000 C   0  0
   24.2246   -7.9809    0.0000 O   0  0
   23.8212   -7.2605    0.0000 C   0  0
   22.9939   -7.2479    0.0000 C   0  0
  4  5  1  0
 12 14  1  0
 14 17  2  0
  5  6  1  0
 16 15  2  0
 15 13  1  0
 16 17  1  0
  6  7  1  0
  7  8  1  0
  6  9  1  0
  1  3  1  0
 17 18  1  0
 18 19  1  0
 19 20  2  0
 20 16  1  0
  9 10  1  0
 20 21  1  0
  3  4  1  0
 21 22  1  0
 22 23  1  0
  9 11  1  0
  1  2  2  0
  1 12  1  0
  3  8  1  0
 13 12  2  0
 22 27  1  0
 23 24  1  0
 24 25  1  0
 25 26  1  0
 26 27  1  0
M  END