
          02060813472D 1   1.00000     0.00000     0

 28 30  0     1  0            999 V2000
   -4.9458  -13.4500    0.0000 C   0  0  0  0  0  0           0  0  0
   -4.9458  -14.2750    0.0000 O   0  0  0  0  0  0           0  0  0
   -4.2338  -14.6833    0.0000 C   0  0  0  0  0  0           0  0  0
   -3.5218  -14.2750    0.0000 C   0  0  0  0  0  0           0  0  0
   -3.5218  -13.4500    0.0000 N   0  0  3  0  0  0           0  0  0
   -4.2338  -13.0333    0.0000 C   0  0  0  0  0  0           0  0  0
   -2.8061  -13.0396    0.0000 C   0  0  0  0  0  0           0  0  0
   -2.0929  -13.4542    0.0000 C   0  0  0  0  0  0           0  0  0
   -2.8037  -12.2146    0.0000 O   0  0  0  0  0  0           0  0  0
   -1.3772  -13.0438    0.0000 C   0  0  1  0  0  0           0  0  0
   -1.3833  -12.2167    0.0000 C   0  0  0  0  0  0           0  0  0
   -0.6719  -11.7989    0.0000 C   0  0  3  0  0  0           0  0  0
    0.0448  -12.2118    0.0000 C   0  0  0  0  0  0           0  0  0
    0.7541  -11.7975    0.0000 C   0  0  0  0  0  0           0  0  0
    0.7522  -10.9721    0.0000 C   0  0  0  0  0  0           0  0  0
    0.0349  -10.5628    0.0000 C   0  0  0  0  0  0           0  0  0
   -0.6806  -10.9787    0.0000 C   0  0  0  0  0  0           0  0  0
   -0.6618  -13.4547    0.0000 C   0  0  0  0  0  0           0  0  0
   -0.6599  -14.2797    0.0000 O   0  0  0  0  0  0           0  0  0
    0.0518  -13.0406    0.0000 N   0  0  0  0  0  0           0  0  0
    0.7665  -13.4515    0.0000 C   0  0  2  0  0  0           0  0  0
    1.1661  -12.7261    0.0000 C   0  0  0  0  0  0           0  0  0
    1.5656  -12.0011    0.0000 N   0  0  0  0  0  0           0  0  0
    0.4093  -14.1936    0.0000 C   0  0  0  0  0  0           0  0  0
    1.1486  -14.7282    0.0000 C   0  0  0  0  0  0           0  0  0
    1.8265  -14.2579    0.0000 N   0  0  3  0  0  0           0  0  0
    1.5886  -13.4680    0.0000 C   0  0  0  0  0  0           0  0  0
    2.6054  -14.5298    0.0000 C   0  0  0  0  0  0           0  0  0
  5  7  1  0     0  0
  1  2  1  0     0  0
  7  8  1  0     0  0
 12 17  1  0     0  0
 13 14  1  0     0  0
 14 15  1  0     0  0
 15 16  1  0     0  0
 16 17  1  0     0  0
  1  6  1  0     0  0
 10 18  1  0     0  0
  7  9  2  0     0  0
 18 19  2  0     0  0
  2  3  1  0     0  0
 18 20  1  0     0  0
  8 10  1  0     0  0
 21 20  1  1     0  0
  3  4  1  0     0  0
 21 22  1  0     0  0
 10 11  1  1     0  0
 22 23  3  0     0  0
  4  5  1  0     0  0
 21 24  1  0     0  0
 11 12  1  0     0  0
 12 13  1  0     0  0
  5  6  1  0     0  0
 24 25  1  0     0  0
 25 26  1  0     0  0
 26 27  1  0     0  0
 21 27  1  0     0  0
 26 28  1  0     0  0
M  END