
  CDK    9/16/09,9:59

 19 20  0  0  0  0  0  0  0  0999 V2000
    6.3616  -26.6677    0.0000 C   0  0  0  0  0  0  0  0  0  0  0  0
    5.9404  -27.3672    0.0000 C   0  0  0  0  0  0  0  0  0  0  0  0
    5.9940  -24.5229    0.0000 C   0  0  0  0  0  0  0  0  0  0  0  0
    6.3928  -25.2459    0.0000 N   0  0  0  0  0  0  0  0  0  0  0  0
    5.9644  -25.9480    0.0000 C   0  0  0  0  0  0  0  0  0  0  0  0
    6.4247  -23.8118    0.0000 C   0  0  0  0  0  0  0  0  0  0  0  0
    6.4259  -22.4772    0.0000 N   0  0  0  0  0  0  0  0  0  0  0  0
    5.9438  -23.1497    0.0000 C   0  0  0  0  0  0  0  0  0  0  0  0
    7.2117  -22.7333    0.0000 C   0  0  0  0  0  0  0  0  0  0  0  0
    7.2096  -23.5579    0.0000 C   0  0  0  0  0  0  0  0  0  0  0  0
    7.9258  -23.9744    0.0000 N   0  0  0  0  0  0  0  0  0  0  0  0
    8.6445  -23.5591    0.0000 C   0  0  0  0  0  0  0  0  0  0  0  0
    8.6425  -22.7313    0.0000 N   0  0  0  0  0  0  0  0  0  0  0  0
    7.9258  -22.3186    0.0000 C   0  0  0  0  0  0  0  0  0  0  0  0
    7.9243  -21.4921    0.0000 O   0  0  0  0  0  0  0  0  0  0  0  0
    6.3427  -28.0874    0.0000 C   0  0  0  0  0  0  0  0  0  0  0  0
    5.9233  -28.7952    0.0000 O   0  0  0  0  0  0  0  0  0  0  0  0
    7.2192  -25.2640    0.0000 C   0  0  0  0  0  0  0  0  0  0  0  0
    7.1880  -26.6832    0.0000 O   0  0  0  0  0  0  0  0  0  0  0  0
  5  1  1  0  0  0  0 
  9 10  2  0  0  0  0 
  1  2  1  0  0  0  0 
 10 11  1  0  0  0  0 
  3  6  1  0  0  0  0 
 11 12  2  0  0  0  0 
  6 10  1  0  0  0  0 
 12 13  1  0  0  0  0 
 13 14  1  0  0  0  0 
 14  9  1  0  0  0  0 
  3  4  1  0  0  0  0 
 14 15  2  0  0  0  0 
  9  7  1  0  0  0  0 
  2 16  1  0  0  0  0 
  7  8  1  0  0  0  0 
 16 17  1  0  0  0  0 
  8  6  2  0  0  0  0 
  4 18  1  0  0  0  0 
  4  5  1  0  0  0  0 
  1 19  1  0  0  0  0 
M  END