
  SciTegic02181312462D

 35 38  0  0  0  0            999 V2000
   12.2827  -11.0131    0.0000 I   0  5
   11.6378   -6.7236    0.0000 C   0  0
   12.3338   -7.1020    0.0000 C   0  0
   12.3560   -7.8975    0.0000 C   0  0
   11.6801   -8.3111    0.0000 C   0  0
   10.9784   -7.9314    0.0000 C   0  0
   10.9618   -7.1372    0.0000 C   0  0
   11.6155   -5.9281    0.0000 C   0  0
   10.9195   -5.5497    0.0000 C   0  0
   10.8994   -4.7577    0.0000 C   0  0
   11.5753   -4.3442    0.0000 C   0  0
   12.2749   -4.7204    0.0000 C   0  0
   12.2915   -5.5145    0.0000 C   0  0
   11.5588   -3.5500    0.0000 C   0  0
   10.8571   -3.1702    0.0000 C   0  0
   10.8405   -2.3761    0.0000 C   0  0
   11.5164   -1.9625    0.0000 C   0  0
   12.2124   -2.3409    0.0000 C   0  0
   12.2347   -3.1364    0.0000 C   0  0
   13.7478   -9.4980    0.0000 C   0  0
   13.0620   -9.1008    0.0000 N   0  3
   13.0636   -8.3064    0.0000 C   0  0
   13.7471   -7.9106    0.0000 C   0  0
   14.4368   -8.3064    0.0000 C   0  0
   15.1242   -7.9092    0.0000 C   0  0
   15.8115   -8.3103    0.0000 C   0  0
   15.8137   -9.1033    0.0000 C   0  0
   15.1249   -9.4966    0.0000 C   0  0
   14.4352   -9.1008    0.0000 C   0  0
   12.4102   -9.5574    0.0000 C   0  0
   13.7500  -10.2909    0.0000 C   0  0
   16.4995   -9.5004    0.0000 O   0  0
   17.1869   -9.1033    0.0000 C   0  0
   16.4989   -7.9131    0.0000 O   0  0
   17.1886   -8.3089    0.0000 C   0  0
  2  3  1  0
  3  4  2  0
  4  5  1  0
  5  6  2  0
  6  7  1  0
  2  7  2  0
  8  9  1  0
  9 10  2  0
 10 11  1  0
 11 12  2  0
 12 13  1  0
  8 13  2  0
  2  8  1  0
 14 15  1  0
 15 16  2  0
 16 17  1  0
 17 18  2  0
 18 19  1  0
 14 19  2  0
 11 14  1  0
 20 21  2  0
 21 22  1  0
 22 23  2  0
 23 24  1  0
 24 25  1  0
 25 26  2  0
 26 27  1  0
 27 28  2  0
 28 29  1  0
 20 29  1  0
 24 29  2  0
 21 30  1  0
 20 31  1  0
 32 33  1  0
 27 32  1  0
 34 35  1  0
 26 34  1  0
 22  4  1  0
M  CHG  2   1  -1  21   1
M  END