
  CDK    9/16/09,9:58

 21 24  0  0  0  0  0  0  0  0999 V2000
   12.7173  -10.1641    0.0000 C   0  0  0  0  0  0  0  0  0  0  0  0
   12.7160  -10.9907    0.0000 C   0  0  0  0  0  0  0  0  0  0  0  0
   13.4282  -11.4032    0.0000 C   0  0  0  0  0  0  0  0  0  0  0  0
   13.4262   -9.7517    0.0000 C   0  0  0  0  0  0  0  0  0  0  0  0
   14.1435  -10.1600    0.0000 C   0  0  0  0  0  0  0  0  0  0  0  0
   14.1441  -10.9861    0.0000 C   0  0  0  0  0  0  0  0  0  0  0  0
   14.9300  -11.2409    0.0000 N   0  0  0  0  0  0  0  0  0  0  0  0
   15.4152  -10.5723    0.0000 C   0  0  0  0  0  0  0  0  0  0  0  0
   14.9291   -9.9043    0.0000 N   0  0  0  0  0  0  0  0  0  0  0  0
   16.2393  -10.5716    0.0000 N   0  0  0  0  0  0  0  0  0  0  0  0
   16.6469  -11.2889    0.0000 C   0  0  0  0  0  0  0  0  0  0  0  0
   17.4674  -11.2904    0.0000 C   0  0  0  0  0  0  0  0  0  0  0  0
   17.8828  -10.5781    0.0000 C   0  0  0  0  0  0  0  0  0  0  0  0
   17.4715   -9.8629    0.0000 C   0  0  0  0  0  0  0  0  0  0  0  0
   16.6448   -9.8598    0.0000 C   0  0  0  0  0  0  0  0  0  0  0  0
   16.2326  -11.9982    0.0000 C   0  0  0  0  0  0  0  0  0  0  0  0
   15.4074  -11.9934    0.0000 C   0  0  0  0  0  0  0  0  0  0  0  0
   14.9924  -12.7044    0.0000 C   0  0  0  0  0  0  0  0  0  0  0  0
   15.4015  -13.4208    0.0000 C   0  0  0  0  0  0  0  0  0  0  0  0
   16.2298  -13.4217    0.0000 C   0  0  0  0  0  0  0  0  0  0  0  0
   16.6410  -12.7100    0.0000 C   0  0  0  0  0  0  0  0  0  0  0  0
  8 10  1  0  0  0  0 
 10 11  1  0  0  0  0 
  5  6  1  0  0  0  0 
  2  3  1  0  0  0  0 
  3  6  2  0  0  0  0 
  1  2  2  0  0  0  0 
 10 15  1  0  0  0  0 
 11 12  1  0  0  0  0 
 12 13  1  0  0  0  0 
 13 14  1  0  0  0  0 
 14 15  1  0  0  0  0 
  5  4  2  0  0  0  0 
  6  7  1  0  0  0  0 
 16 17  2  0  0  0  0 
  7  8  1  0  0  0  0 
 17 18  1  0  0  0  0 
  8  9  2  0  0  0  0 
 18 19  2  0  0  0  0 
  9  5  1  0  0  0  0 
 19 20  1  0  0  0  0 
  4  1  1  0  0  0  0 
 20 21  2  0  0  0  0 
 21 16  1  0  0  0  0 
 11 16  1  0  0  0  0 
M  END