
  SciTegic01161211252D

 42 44  0  0  0  0            999 V2000
    0.6417   -0.8375    0.0000 C   0  0
    0.6417   -0.0042    0.0000 C   0  0
   -0.0708   -1.2542    0.0000 C   0  0
   -0.7833   -0.8417    0.0000 C   0  0
    2.0667   -0.8292    0.0000 S   0  0
   -0.7833   -2.4917    0.0000 S   0  0
    1.3292    2.8750    0.0000 S   0  0
    4.2042    1.2458    0.0000 S   0  0
   -3.6375   -0.0167    0.0000 S   0  0
   -0.0750    0.4000    0.0000 O   0  0
   -0.7833   -0.0167    0.0000 C   0  0
   -1.5000   -1.2542    0.0000 C   0  0
    1.3625   -1.2500    0.0000 O   0  0
    2.0542    1.6458    0.0000 C   0  0
    1.3542    0.4083    0.0000 C   0  0
    2.7792    1.2375    0.0000 C   0  0
   -1.5000   -2.0792    0.0000 O   0  0
    2.0500    2.4708    0.0000 O   0  0
    3.4917    1.6583    0.0000 O   0  0
   -1.5000    0.3958    0.0000 C   0  0
   -2.2125   -0.0167    0.0000 C   0  0
   -2.2125   -0.8417    0.0000 C   0  0
    1.3500    1.2250    0.0000 C   0  0
   -2.9250    0.3958    0.0000 O   0  0
    2.4917   -1.5417    0.0000 O   0  0
   -1.1958   -3.2125    0.0000 O   0  0
    3.8042    0.5333    0.0000 O   0  0
    1.7500    3.5833    0.0000 O   0  0
   -4.0583    0.6958    0.0000 O   0  0
    4.6167    1.9708    0.0000 O   0  0
    0.6167    3.2958    0.0000 O   0  0
    0.9042    2.1708    0.0000 O   0  0
    2.7792   -0.4125    0.0000 O   0  0
    1.6542   -0.1167    0.0000 O   0  0
    4.9292    0.8458    0.0000 O   0  0
   -0.0708   -2.9000    0.0000 O   0  0
   -0.6208   -1.7250    0.0000 O   0  0
   -3.2250   -0.7292    0.0000 O   0  0
   -4.3500   -0.4292    0.0000 O   0  0
   -0.0708   -2.0792    0.0000 O   0  0
    2.7792    0.4125    0.0000 C   0  0
    2.0667   -0.0042    0.0000 C   0  0
  2  1  2  0
  3  1  1  0
  4  3  1  0
  5 13  1  0
  6 17  1  0
  7 18  1  0
  8 19  1  0
  9 24  1  0
 10  2  1  0
 11  4  1  0
 12  4  2  0
 13  1  1  0
 14 23  2  0
 15  2  1  0
 16 41  2  0
 17 12  1  0
 18 14  1  0
 19 16  1  0
 20 11  2  0
 21 22  2  0
 22 12  1  0
 23 15  1  0
 24 21  1  0
 25  5  1  0
 26  6  1  0
 27  8  1  0
 28  7  1  0
 29  9  1  0
 30  8  2  0
 31  7  2  0
 32  7  2  0
 33  5  2  0
 34  5  2  0
 35  8  2  0
 36  6  2  0
 37  6  2  0
 38  9  2  0
 39  9  2  0
 40  3  2  0
 41 42  1  0
 42 15  2  0
 10 11  1  0
 21 20  1  0
 16 14  1  0
M  END