
  SciTegic10041313302D

 12 10  0  0  0  0            999 V2000
    0.0000    0.0000    0.0000 Cl  0  0
    2.2393    0.0000    0.0000 Cl  0  0
    0.7145   -5.3625    0.0000 N   0  0
   -0.7145   -5.3625    0.0000 N   0  0
    0.0000   -1.6500    0.0000 N   0  0
    0.0000   -4.1250    0.0000 C   0  0
    0.0000   -4.9500    0.0000 C   0  0
   -0.7145   -3.7125    0.0000 C   0  0
    0.7145   -3.7125    0.0000 C   0  0
    0.0000   -2.4750    0.0000 C   0  0
   -0.7145   -2.8875    0.0000 C   0  0
    0.7145   -2.8875    0.0000 C   0  0
  3  7  2  0
  7  4  1  0
  5 10  1  0
  6  7  1  0
  6  8  2  0
  6  9  1  0
  8 11  1  0
  9 12  2  0
 10 11  2  0
 10 12  1  0
M  END