
          11280715122D 1   1.00000     0.00000     0

 32 35  0     0  0            999 V2000
    8.0792   -8.9917    0.0000 C   0  0  0  0  0  0           0  0  0
    7.5542  -10.2167    0.0000 N   0  0  0  0  0  0           0  0  0
    8.2625   -9.8000    0.0000 N   0  0  0  0  0  0           0  0  0
    6.9375   -9.6875    0.0000 N   0  0  0  0  0  0           0  0  0
    5.0750   -4.6625    0.0000 C   0  0  0  0  0  0           0  0  0
    7.2667   -8.9167    0.0000 N   0  0  0  0  0  0           0  0  0
    8.6292   -8.3750    0.0000 C   0  0  0  0  0  0           0  0  0
    4.3542   -5.0750    0.0000 N   0  0  0  0  0  0           0  0  0
    5.0750   -3.8292    0.0000 N   0  0  0  0  0  0           0  0  0
    3.6417   -3.8292    0.0000 C   0  0  0  0  0  0           0  0  0
    8.6292   -7.5417    0.0000 C   0  0  0  0  0  0           0  0  0
    2.9292   -3.4167    0.0000 C   0  0  0  0  0  0           0  0  0
    5.7875   -5.0750    0.0000 N   0  0  3  0  0  0           0  0  0
    4.3542   -3.4167    0.0000 C   0  0  0  0  0  0           0  0  0
    3.6417   -4.6625    0.0000 C   0  0  0  0  0  0           0  0  0
    7.9250   -7.1375    0.0000 C   0  0  0  0  0  0           0  0  0
    5.7792   -5.9000    0.0000 C   0  0  0  0  0  0           0  0  0
    2.2125   -3.8292    0.0000 O   0  0  0  0  0  0           0  0  0
    7.9167   -6.3042    0.0000 C   0  0  0  0  0  0           0  0  0
    7.2042   -7.5500    0.0000 C   0  0  0  0  0  0           0  0  0
    6.5000   -6.3125    0.0000 C   0  0  0  0  0  0           0  0  0
    2.9292   -2.5917    0.0000 O   0  0  0  0  0  0           0  0  0
    7.2042   -5.8917    0.0000 C   0  0  0  0  0  0           0  0  0
    6.4917   -7.1375    0.0000 C   0  0  0  0  0  0           0  0  0
    9.3417   -8.7875    0.0000 C   0  0  0  0  0  0           0  0  0
    9.3417   -7.1375    0.0000 C   0  0  0  0  0  0           0  0  0
    6.4917   -4.6625    0.0000 C   0  0  0  0  0  0           0  0  0
    7.2042   -5.0750    0.0000 C   0  0  0  0  0  0           0  0  0
    7.9125   -4.6667    0.0000 C   0  0  0  0  0  0           0  0  0
   10.0625   -8.3750    0.0000 C   0  0  0  0  0  0           0  0  0
   10.0542   -7.5417    0.0000 C   0  0  0  0  0  0           0  0  0
    8.6250   -5.0792    0.0000 C   0  0  0  0  0  0           0  0  0
  2  3  2  0     0  0
  3  1  1  0     0  0
  4  6  1  0     0  0
  5 13  1  0     0  0
  6  1  2  0     0  0
  7  1  1  0     0  0
  8  5  2  0     0  0
  9  5  1  0     0  0
 10 14  1  0     0  0
 11  7  2  0     0  0
 12 10  1  0     0  0
 13 17  1  0     0  0
 14  9  2  0     0  0
 15  8  1  0     0  0
 16 11  1  0     0  0
 17 21  1  0     0  0
 18 12  2  0     0  0
 19 16  2  0     0  0
 20 16  1  0     0  0
 21 24  1  0     0  0
 22 12  1  0     0  0
 23 19  1  0     0  0
 24 20  2  0     0  0
 25  7  1  0     0  0
 26 11  1  0     0  0
 27 13  1  0     0  0
 28 27  1  0     0  0
 29 28  1  0     0  0
 30 25  2  0     0  0
 31 30  1  0     0  0
 32 29  1  0     0  0
  2  4  1  0     0  0
 26 31  2  0     0  0
 21 23  2  0     0  0
 15 10  2  0     0  0
M  END