
  SciTegic09261414482D

 28 32  0  0  0  0            999 V2000
   10.1890  -13.9864    0.0000 N   0  0
   10.1890  -14.8114    0.0000 C   0  0
    9.4747  -15.2219    0.0000 C   0  0
    8.7624  -14.8114    0.0000 N   0  0
    8.7624  -13.9864    0.0000 C   0  0
    9.4747  -13.5719    0.0000 C   0  0
    8.0481  -15.2219    0.0000 C   0  0
    6.6214  -15.2219    0.0000 O   0  0
    7.3337  -14.8114    0.0000 C   0  0  2  0  0  0
    7.3337  -13.9864    0.0000 C   0  0
    6.6214  -13.5719    0.0000 O   0  0
    5.9071  -13.9864    0.0000 C   0  0
    5.9071  -14.8114    0.0000 C   0  0
    5.1927  -13.5719    0.0000 C   0  0
    4.4783  -13.9864    0.0000 C   0  0
    4.4783  -14.8114    0.0000 C   0  0
    5.1927  -15.2219    0.0000 C   0  0
   10.9034  -13.5719    0.0000 C   0  0
   12.3300  -13.5719    0.0000 O   0  0
   11.6156  -13.9864    0.0000 C   0  0  2  0  0  0
   11.6156  -14.8114    0.0000 C   0  0
   12.3300  -15.2219    0.0000 O   0  0
   13.0486  -14.8114    0.0000 C   0  0
   13.0486  -13.9864    0.0000 C   0  0
   13.7566  -15.2219    0.0000 C   0  0
   14.4752  -14.8114    0.0000 C   0  0
   14.4752  -13.9864    0.0000 C   0  0
   13.7566  -13.5719    0.0000 C   0  0
 21 22  1  0
 22 23  1  0
 23 24  1  0
 19 24  1  0
 25 26  1  0
 26 27  2  0
 27 28  1  0
 24 28  2  0
 23 25  2  0
 20 18  1  6
  1 18  1  0
  1  2  1  0
  2  3  1  0
  3  4  1  0
  4  5  1  0
  5  6  1  0
  1  6  1  0
  8  9  1  0
  9 10  1  0
 10 11  1  0
 11 12  1  0
 12 13  1  0
  8 13  1  0
 14 15  1  0
 15 16  2  0
 16 17  1  0
 13 17  2  0
 12 14  2  0
  9  7  1  6
  4  7  1  0
 19 20  1  0
 20 21  1  0
M  END