
  SciTegic04151115542D

 23 24  0  0  0  0            999 V2000
   12.2861  -24.4166    0.0000 C   0  0
   12.2849  -25.2440    0.0000 C   0  0
   12.9997  -25.6569    0.0000 C   0  0
   13.7162  -25.2435    0.0000 C   0  0
   13.7133  -24.4130    0.0000 C   0  0
   12.9979  -24.0039    0.0000 C   0  0
   12.9995  -26.4819    0.0000 F   0  0
   11.5701  -25.6559    0.0000 Cl  0  0
   14.4262  -23.9978    0.0000 N   0  0
   15.1422  -24.4076    0.0000 C   0  0
   15.8552  -23.9924    0.0000 C   0  0
   15.1454  -25.2326    0.0000 O   0  0
   16.5712  -24.4022    0.0000 N   0  0
   15.8520  -23.1674    0.0000 O   0  0
   17.2841  -23.9870    0.0000 C   0  0
   17.9960  -24.3977    0.0000 C   0  0
   18.7068  -23.9861    0.0000 N   0  0
   18.7080  -23.1607    0.0000 C   0  0
   17.9921  -22.7487    0.0000 C   0  0
   17.2751  -23.1621    0.0000 C   0  0
   19.4213  -24.3986    0.0000 C   0  0
   20.1358  -23.9861    0.0000 C   0  0
   20.1358  -23.1611    0.0000 C   0  0
  5  6  2  0
 10 12  2  0
  6  1  1  0
 11 13  1  0
  1  2  2  0
 11 14  2  0
  3  7  1  0
 13 15  1  0
 15 16  1  0
  3  4  2  0
  2  8  1  0
  5  9  1  0
  4  5  1  0
 15 20  1  0
 16 17  1  0
 17 18  1  0
 18 19  1  0
 19 20  1  0
  9 10  1  0
 17 21  1  0
  2  3  1  0
 21 22  1  0
 10 11  1  0
 22 23  1  0
M  END