
  SciTegic04091414152D

 22 22  0  0  0  0            999 V2000
   17.4594   -5.9922    0.0000 S   0  0
   17.8724   -5.2783    0.0000 O   0  0
   17.0475   -5.2776    0.0000 O   0  0
   16.7451   -6.4038    0.0000 C   0  0
   18.1763   -6.4059    0.0000 N   0  0
   18.8900   -5.9995    0.0000 C   0  0
   19.6061   -6.4121    0.0000 C   0  0
   20.3219   -6.0020    0.0000 N   0  0
   20.3180   -5.1772    0.0000 C   0  0
   19.6027   -4.7634    0.0000 C   0  0
   21.0380   -6.4146    0.0000 C   0  0
   21.7507   -6.0035    0.0000 C   0  0
   16.0315   -5.9918    0.0000 C   0  0
   15.3142   -6.4059    0.0000 C   0  0
   14.5971   -5.9918    0.0000 C   0  0
   14.5970   -5.1636    0.0000 C   0  0
   15.3122   -4.7532    0.0000 C   0  0
   16.0293   -5.1673    0.0000 C   0  0
   13.8832   -4.7504    0.0000 C   0  0
   13.8843   -3.9256    0.0000 F   0  0
   13.1684   -5.1618    0.0000 F   0  0
   13.1712   -4.3336    0.0000 F   0  0
  2  1  2  0
  1  3  2  0
  1  5  1  0
  4  1  1  0
  6  7  1  0
  9 10  1  0
  8  9  1  0
 11 12  1  0
  8 11  1  0
  7  8  1  0
  5  6  1  0
 13 14  1  0
 14 15  2  0
 15 16  1  0
 16 17  2  0
 17 18  1  0
 13 18  2  0
  4 13  1  0
 16 19  1  0
 19 20  1  0
 19 21  1  0
 19 22  1  0
M  END