
  SciTegic12231509382D

 43 47  0  0  0  0            999 V2000
   17.3501  -16.2215    0.0000 C   0  0
   17.7588  -16.9337    0.0000 C   0  0
   18.5753  -16.9359    0.0000 N   0  0
   18.9895  -16.2276    0.0000 C   0  0  1  0  0  0
   18.5808  -15.5153    0.0000 C   0  0
   17.7580  -15.5114    0.0000 N   0  0
   11.1817  -12.6458    0.0000 C   0  0
   10.7652  -13.3559    0.0000 C   0  0
   11.1718  -14.0695    0.0000 C   0  0
   11.9948  -14.0744    0.0000 C   0  0
   12.4095  -13.3595    0.0000 C   0  0
   12.0005  -12.6488    0.0000 C   0  0
   13.2346  -13.3609    0.0000 O   0  0
   13.6458  -14.0762    0.0000 C   0  0
   13.2300  -14.7863    0.0000 C   0  0
   13.6406  -15.5011    0.0000 C   0  0
   14.4666  -15.5029    0.0000 C   0  0
   14.8802  -14.7841    0.0000 C   0  0
   14.4672  -14.0722    0.0000 C   0  0
   14.8789  -16.2176    0.0000 C   0  0
   15.7039  -16.2179    0.0000 N   0  0
   16.1146  -16.9342    0.0000 C   0  0
   16.9361  -16.9364    0.0000 C   0  0
   16.9417  -15.5074    0.0000 C   0  0
   16.1141  -15.5034    0.0000 C   0  0
   17.3443  -17.6471    0.0000 O   0  0
   18.9960  -14.8023    0.0000 O   0  0
   19.8145  -16.2309    0.0000 C   0  0  1  0  0  0
   20.2242  -16.9471    0.0000 C   0  0
   17.3465  -14.7964    0.0000 C   0  0
   17.7599  -14.0823    0.0000 C   0  0
   17.3483  -13.3673    0.0000 C   0  0
   17.7618  -12.6533    0.0000 C   0  0
   20.2300  -15.5181    0.0000 O   0  0
   19.3973  -15.5093    0.0000 H   0  0
   19.8058  -17.6570    0.0000 C   0  0
   20.2119  -18.3710    0.0000 C   0  0
   21.0372  -18.3786    0.0000 C   0  0
   21.4549  -17.6659    0.0000 C   0  0
   21.0471  -16.9456    0.0000 C   0  0
    9.9376  -13.3524    0.0000 C   0  0
    9.5296  -12.6354    0.0000 O   0  0
    9.5207  -14.0644    0.0000 O   0  0
 20 21  1  0
 21 22  1  0
 10 11  1  0
  4  5  1  0
 11 12  2  0
 12  7  1  0
 21 25  1  0
 22 23  1  0
 23  1  1  0
  1 24  1  0
 24 25  1  0
  5  6  1  0
  2 26  2  0
 11 13  1  0
  5 27  2  0
  4 28  1  0
 13 14  1  0
 28 29  1  0
  1  2  1  0
  6 30  1  0
 14 15  2  0
 30 31  1  0
  7  8  2  0
 31 32  1  0
 15 16  1  0
 32 33  1  0
  1  6  1  0
 28 34  1  6
 16 17  2  0
  4 35  1  6
 29 36  1  0
  8  9  1  0
 17 18  1  0
  2  3  1  0
 18 19  2  0
 19 14  1  0
 29 40  1  0
 36 37  1  0
 37 38  1  0
 38 39  1  0
 39 40  1  0
  9 10  2  0
 17 20  1  0
  4  3  1  0
 41 42  1  0
 41 43  2  0
  8 41  1  0
M  END