
          11280714542D 1   1.00000     0.00000     0

 32 33  0     0  0            999 V2000
   -0.1583   -2.2500    0.0000 C   0  0  0  0  0  0           0  0  0
    0.3625   -2.5417    0.0000 N   0  0  0  0  0  0           0  0  0
    3.5292   -1.3667    0.0000 N   0  0  3  0  0  0           0  0  0
    0.8792   -2.2417    0.0000 C   0  0  0  0  0  0           0  0  0
   -0.6750   -2.5542    0.0000 C   0  0  0  0  0  0           0  0  0
    3.3000   -2.0667    0.0000 C   0  0  3  0  0  0           0  0  0
    2.9792   -1.6792    0.0000 C   0  0  3  0  0  0           0  0  0
    1.9167   -2.2375    0.0000 C   0  0  3  0  0  0           0  0  0
    2.4375   -1.9292    0.0000 C   0  0  0  0  0  0           0  0  0
    2.1542   -1.5375    0.0000 C   0  0  0  0  0  0           0  0  0
    1.4042   -2.5417    0.0000 N   0  0  0  0  0  0           0  0  0
    4.7750   -3.4000    0.0000 C   0  0  0  0  0  0           0  0  0
    5.9750   -2.3625    0.0000 C   0  0  0  0  0  0           0  0  0
    5.0750   -2.8792    0.0000 C   0  0  0  0  0  0           0  0  0
    5.6750   -2.8792    0.0000 C   0  0  0  0  0  0           0  0  0
   -0.1625   -1.6500    0.0000 O   0  0  0  0  0  0           0  0  0
   -1.1958   -2.2542    0.0000 C   0  0  0  0  0  0           0  0  0
    0.8792   -1.6417    0.0000 O   0  0  0  0  0  0           0  0  0
    3.2917   -2.6667    0.0000 C   0  0  0  0  0  0           0  0  0
    2.7750   -2.3667    0.0000 C   0  0  0  0  0  0           0  0  0
    5.5917   -1.9000    0.0000 O   0  0  0  0  0  0           0  0  0
    4.1750   -3.4000    0.0000 O   0  0  0  0  0  0           0  0  0
    6.5667   -2.2625    0.0000 O   0  0  0  0  0  0           0  0  0
    5.0750   -3.9167    0.0000 O   0  0  0  0  0  0           0  0  0
    3.8250   -0.8417    0.0000 C   0  0  0  0  0  0           0  0  0
   -0.6750   -3.1542    0.0000 C   0  0  0  0  0  0           0  0  0
   -1.2000   -1.6542    0.0000 O   0  0  0  0  0  0           0  0  0
   -1.7125   -2.5542    0.0000 C   0  0  0  0  0  0           0  0  0
   -1.7208   -1.3542    0.0000 C   0  0  0  0  0  0           0  0  0
   -1.1958   -3.4542    0.0000 C   0  0  0  0  0  0           0  0  0
   -2.2375   -1.6542    0.0000 C   0  0  0  0  0  0           0  0  0
   -1.7125   -3.1542    0.0000 C   0  0  0  0  0  0           0  0  0
  2  1  1  0     0  0
  3  6  1  0     0  0
  4  2  1  0     0  0
  5  1  1  0     0  0
  6  9  1  0     0  0
  7 10  1  0     0  0
  8 11  1  0     0  0
  9  8  1  0     0  0
 10  8  1  0     0  0
 11  4  1  0     0  0
 13 15  1  0     0  0
 14 12  1  0     0  0
 15 14  2  0     0  0
 16  1  2  0     0  0
 17  5  2  0     0  0
 18  4  2  0     0  0
 19  6  1  0     0  0
 20  7  1  0     0  0
 21 13  2  0     0  0
 22 12  2  0     0  0
 23 13  1  0     0  0
 24 12  1  0     0  0
 25  3  1  0     0  0
 26  5  1  0     0  0
 27 17  1  0     0  0
 28 17  1  0     0  0
 29 27  1  0     0  0
 30 26  2  0     0  0
 31 29  1  0     0  0
 32 30  1  0     0  0
 32 28  2  0     0  0
  7  3  1  0     0  0
 20 19  1  0     0  0
M  END