
  SciTegic12171312552D

 56 63  0  0  0  0            999 V2000
   17.3888  -11.6711    0.0000 F   0  0
   17.6055  -10.8753    0.0000 B   0  5
   16.8079  -11.0856    0.0000 F   0  0
    7.3213  -12.6471    0.0000 C   0  0
    7.3213  -13.4729    0.0000 C   0  0
    8.0322  -13.8873    0.0000 N   0  0
    8.7452  -13.4729    0.0000 C   0  0
    8.7452  -12.6471    0.0000 N   0  0
    8.0322  -12.2369    0.0000 C   0  0
    6.5313  -12.3928    0.0000 N   0  0
    6.0500  -13.0627    0.0000 C   0  0
    6.5313  -13.7273    0.0000 N   0  0
    8.0322  -11.4070    0.0000 N   0  0
    8.7452  -10.9968    0.0000 C   0  0
    6.2769  -14.5109    0.0000 C   0  0  2  0  0  0
    5.4912  -14.7707    0.0000 O   0  0
    5.4912  -15.5911    0.0000 C   0  0  1  0  0  0
    6.2769  -15.8487    0.0000 C   0  0  2  0  0  0
    6.7624  -15.1809    0.0000 C   0  0  1  0  0  0
    7.5882  -15.1809    0.0000 O   0  0
    6.5313  -16.6345    0.0000 O   0  0
    4.8234  -16.0756    0.0000 C   0  0
    4.0702  -15.7427    0.0000 N   0  0
    4.9128  -16.9004    0.0000 O   0  0
    3.4066  -16.2335    0.0000 C   0  0
    2.6502  -15.8964    0.0000 C   0  0
    9.4590  -11.4104    0.0000 C   0  0
   10.1741  -10.9990    0.0000 N   0  0
   10.8880  -11.4126    0.0000 C   0  0
   11.6031  -11.0012    0.0000 C   0  0
   10.8867  -12.2376    0.0000 O   0  0
   12.3169  -11.4148    0.0000 O   0  0
   13.0320  -11.0034    0.0000 C   0  0
   13.7420  -11.4197    0.0000 C   0  0
   14.4566  -11.0090    0.0000 C   0  0
   14.4583  -10.1831    0.0000 C   0  0
   13.7394   -9.7697    0.0000 C   0  0
   13.0278  -10.1828    0.0000 C   0  0
   15.1729   -9.7708    0.0000 C   0  0
   15.8872  -10.1834    0.0000 C   0  0
   16.6018   -9.7711    0.0000 C   0  0
   17.4965   -8.7749    0.0000 C   0  0
   16.6895   -8.9463    0.0000 C   0  0
   17.9089   -9.4895    0.0000 C   0  0
   17.3573  -10.0998    0.0000 N   0  3
   18.7119   -9.6577    0.0000 C   0  0
   18.9636  -10.4426    0.0000 C   0  0
   18.4159  -11.0530    0.0000 N   0  0
   18.8271  -11.7625    0.0000 C   0  0
   19.6290  -11.5907    0.0000 C   0  0
   19.7133  -10.7750    0.0000 C   0  0
   18.4979  -12.5201    0.0000 C   0  0
   17.6913  -12.6929    0.0000 S   0  0
   17.6064  -13.5136    0.0000 C   0  0
   18.3606  -13.8479    0.0000 C   0  0
   18.9116  -13.2338    0.0000 C   0  0
  2  1  1  0
  3  2  1  0
  4  5  2  0
  5  6  1  0
  6  7  2  0
  7  8  1  0
  8  9  2  0
  9  4  1  0
  4 10  1  0
 10 11  2  0
 11 12  1  0
 12  5  1  0
  9 13  1  0
 13 14  1  0
 15 12  1  1
 15 16  1  0
 16 17  1  0
 17 18  1  0
 18 19  1  0
 19 15  1  0
 19 20  1  6
 18 21  1  6
 17 22  1  1
 22 23  1  0
 22 24  2  0
 23 25  1  0
 25 26  1  0
 14 27  1  0
 27 28  1  0
 28 29  1  0
 29 30  1  0
 29 31  2  0
 30 32  1  0
 32 33  1  0
 33 34  2  0
 34 35  1  0
 35 36  2  0
 36 37  1  0
 37 38  2  0
 38 33  1  0
 36 39  1  0
 39 40  2  0
 40 41  1  0
 41 45  2  0
 44 42  1  0
 42 43  2  0
 43 41  1  0
 44 45  1  0
 44 46  2  0
 45  2  1  0
  2 48  1  0
 47 46  1  0
 47 48  1  0
 48 49  1  0
 49 50  2  0
 50 51  1  0
 51 47  2  0
 52 53  1  0
 53 54  1  0
 54 55  2  0
 55 56  1  0
 56 52  2  0
 49 52  1  0
M  CHG  2   2  -1  45   1
M  END