
  SciTegic12231509382D

 25 28  0  0  0  0            999 V2000
    3.2676   -6.3681    0.0000 O   0  0
    4.0158   -5.7046    0.0000 C   0  0
    4.9684   -6.0253    0.0000 C   0  0
    5.7146   -5.3518    0.0000 C   0  0
    5.5101   -4.3676    0.0000 C   0  0
    4.5596   -4.0569    0.0000 C   0  0
    3.8114   -4.7204    0.0000 C   0  0
    2.8623   -4.4056    0.0000 Cl  0  0
    6.6651   -5.6625    0.0000 C   0  0
    6.9742   -6.6150    0.0000 N   0  0
    7.9758   -6.6176    0.0000 C   0  0
    8.2869   -5.6626    0.0000 N   0  0
    7.4759   -5.0771    0.0000 C   0  0
    7.4759   -4.0771    0.0000 C   0  0
    6.6084   -3.5796    0.0000 C   0  0
    6.6084   -2.5744    0.0000 C   0  0
    7.4759   -2.0667    0.0000 N   0  0
    8.3434   -2.5744    0.0000 C   0  0
    8.3434   -3.5796    0.0000 C   0  0
    8.5622   -7.4277    0.0000 C   0  0
    9.5618   -7.3214    0.0000 C   0  0
   10.1482   -8.1314    0.0000 C   0  0
    9.7452   -9.0466    0.0000 C   0  0
    8.7457   -9.1529    0.0000 C   0  0
    8.1491   -8.3440    0.0000 C   0  0
  1  2  1  0
  2  7  2  0
  2  3  1  0
  3  4  2  0
  4  5  1  0
  5  6  2  0
  6  7  1  0
  7  8  1  0
  4  9  1  0
  9 13  2  0
  9 10  1  0
 10 11  2  0
 11 12  1  0
 12 13  1  0
 13 14  1  0
 14 19  2  0
 14 15  1  0
 15 16  2  0
 16 17  1  0
 17 18  2  0
 18 19  1  0
 11 20  1  0
 20 25  2  0
 20 21  1  0
 21 22  2  0
 22 23  1  0
 23 24  2  0
 24 25  1  0
M  END