
  SciTegic12121615192D

 99101  0  0  0  0            999 V2000
    2.2502    5.2058    0.0000 C   0  0
    2.8347    4.1577    0.0000 C   0  0  1  0  0  0
    1.4832    4.8086    0.0000 C   0  0
    4.7970    5.8664    0.0000 N   0  0
    6.2799    6.0975    0.0000 C   0  0  2  0  0  0
    6.1950    8.2759    0.0000 O   0  0
    6.8221    7.4970    0.0000 C   0  0
    7.2236    4.9304    0.0000 C   0  0
    8.7062    5.1632    0.0000 C   0  0
    9.4607    4.2301    0.0000 C   0  0
    9.1374    6.2830    0.0000 C   0  0
    8.3050    7.7281    0.0000 N   0  0
    8.8472    9.1275    0.0000 C   0  0  2  0  0  0
   11.0827    8.4240    0.0000 O   0  0
   10.3301    9.3587    0.0000 C   0  0
    7.9084   10.2985    0.0000 C   0  0
    8.4521   11.6973    0.0000 C   0  0
    7.5133   12.8683    0.0000 C   0  0
    7.9480   13.9867    0.0000 O   0  0
    6.3272   12.6859    0.0000 N   0  0
   10.8723   10.7581    0.0000 N   0  0
   12.3553   10.9892    0.0000 C   0  0  2  0  0  0
   12.1449   13.3234    0.0000 O   0  0
   12.8975   12.3887    0.0000 C   0  0
   13.2989    9.8222    0.0000 C   0  0
   14.7816   10.0549    0.0000 C   0  0
   15.5361    9.1218    0.0000 O   0  0
   15.2128   11.1748    0.0000 O   0  0
   14.3804   12.6198    0.0000 N   0  0
   14.9226   14.0193    0.0000 C   0  0  2  0  0  0
   16.8390   15.3694    0.0000 O   0  0
   16.4055   14.2504    0.0000 C   0  0
   13.9837   15.1902    0.0000 C   0  0
   14.4185   16.3087    0.0000 O   0  0
   17.1581   13.3157    0.0000 N   0  0
   -2.1833   -4.5338    0.0000 N   0  0
   -0.7500   -4.9759    0.0000 C   0  0  2  0  0  0
    0.9289   -6.1625    0.0000 O   0  0
    0.7500   -4.9759    0.0000 C   0  0
   -0.9781   -6.4698    0.0000 C   0  0
    0.1929   -7.4085    0.0000 C   0  0
    0.0117   -8.5948    0.0000 C   0  0
    1.3109   -6.9726    0.0000 C   0  0
    2.1834   -4.5338    0.0000 N   0  0
    3.4227   -3.6888    0.0000 C   0  0  2  0  0  0
    5.3972   -3.1161    0.0000 O   0  0
    4.3580   -2.5161    0.0000 C   0  0
    4.4484   -4.7986    0.0000 C   0  0
    2.5895   -6.6913    0.0000 N   0  0
    2.6069   -8.1912    0.0000 C   0  0
    4.0387   -8.6381    0.0000 N   0  0
    4.9063   -7.4145    0.0000 C   0  0
    4.0041   -6.2321    0.0000 C   0  0
    4.9060   -1.1197    0.0000 N   0  0
    5.0181    0.3761    0.0000 C   0  0  2  0  0  0
    5.8013    2.2769    0.0000 O   0  0
    4.6843    1.8384    0.0000 C   0  0
    6.5252    0.4860    0.0000 C   0  0
    7.3690   -0.7551    0.0000 C   0  0
    8.8658   -0.6459    0.0000 C   0  0
    9.5405   -1.6383    0.0000 O   0  0
    9.3883    0.4344    0.0000 N   0  0
    3.9343    3.1375    0.0000 N   0  0
   -4.9060   -1.1198    0.0000 C   0  0
   -4.3579   -2.5161    0.0000 C   0  0  2  0  0  0
   -4.2861   -3.7139    0.0000 C   0  0
  -12.2965   -3.1717    0.0000 N   0  0
  -12.1138   -1.6820    0.0000 C   0  0  2  0  0  0
  -10.5898    0.0984    0.0000 O   0  0
  -10.7334   -1.0930    0.0000 C   0  0
  -13.3147   -0.7818    0.0000 C   0  0
  -15.0067   -2.8251    0.0000 N   0  0
  -16.5005   -2.9617    0.0000 C   0  0
  -17.0920   -1.5833    0.0000 N   0  0
  -15.9638   -0.5948    0.0000 C   0  0
  -14.6951   -1.3708    0.0000 C   0  0
   -9.5325   -1.9932    0.0000 N   0  0
   -8.1521   -1.4042    0.0000 C   0  0  2  0  0  0
   -7.0709   -3.2972    0.0000 O   0  0
   -6.9512   -2.3044    0.0000 C   0  0
   -7.9694    0.0855    0.0000 C   0  0
   -6.5884    0.6730    0.0000 C   0  0
   -6.4057    2.1626    0.0000 C   0  0
   -5.0246    2.7501    0.0000 C   0  0
   -4.8785    3.9412    0.0000 N   0  0
   -5.5708   -1.7154    0.0000 N   0  0
  -13.6776   -3.7592    0.0000 C   0  0
  -14.4765   -3.1577    0.0000 C   0  0
  -13.8237   -4.9503    0.0000 O   0  0
   -3.4227   -3.6888    0.0000 C   0  0
   -4.2389   -4.5685    0.0000 O   0  0
    4.2548    4.4669    0.0000 C   0  0
    5.0074    3.5322    0.0000 O   0  0
   -5.0181    0.3760    0.0000 C   0  0
   -4.6843    1.8384    0.0000 C   0  0
   -3.9343    3.1375    0.0000 C   0  0
   -2.8347    4.1577    0.0000 C   0  0
   -1.4833    4.8086    0.0000 C   0  0
    0.0000    5.0321    0.0000 C   0  0
  2  1  1  6
  3  2  1  0
  7 12  1  0
 15 21  1  0
 24 29  1  0
 32 35  1  0
  4  5  1  0
  5  7  1  0
  7  6  2  0
  5  8  1  6
  8  9  1  0
  9 10  1  0
  9 11  1  0
 12 13  1  0
 13 15  1  0
 15 14  2  0
 13 16  1  1
 16 17  1  0
 17 18  1  0
 18 19  2  0
 18 20  1  0
 21 22  1  0
 22 24  1  0
 24 23  2  0
 22 25  1  6
 25 26  1  0
 26 27  2  0
 26 28  1  0
 29 30  1  0
 30 32  1  0
 32 31  2  0
 30 33  1  1
 33 34  1  0
 39 44  1  0
 47 54  1  0
 57 63  1  0
 36 37  1  0
 37 39  1  0
 39 38  2  0
 37 40  1  6
 40 41  1  0
 41 42  1  0
 41 43  1  0
 44 45  1  0
 45 47  1  0
 47 46  2  0
 45 48  1  6
 48 53  1  0
 49 50  1  0
 50 51  2  0
 51 52  1  0
 52 53  2  0
 53 49  1  0
 54 55  1  0
 55 57  1  0
 57 56  2  0
 55 58  1  6
 58 59  1  0
 59 60  1  0
 60 61  2  0
 60 62  1  0
 65 64  1  0
 65 66  1  6
 70 77  1  0
 80 86  1  0
 67 68  1  0
 68 70  1  0
 70 69  2  0
 68 71  1  1
 71 76  1  0
 72 73  1  0
 73 74  2  0
 74 75  1  0
 75 76  2  0
 76 72  1  0
 77 78  1  0
 78 80  1  0
 80 79  2  0
 78 81  1  1
 81 82  1  0
 82 83  1  0
 83 84  1  0
 84 85  1  0
 67 87  1  0
 87 88  1  0
 87 89  2  0
 86 65  1  0
 65 90  1  0
 90 91  2  0
 90 36  1  0
 63  2  1  0
  2 92  1  0
 92  4  1  0
 92 93  2  0
 64 94  1  0
 94 95  1  0
 95 96  1  0
 96 97  1  0
  3 99  1  0
 98 99  1  0
 97 98  1  0
M  END