
  SciTegic04091416462D

 40 42  0  0  0  0            999 V2000
   33.6535  -21.4761    0.0000 C   0  0
   34.0670  -22.1900    0.0000 N   0  3
   33.6534  -22.9007    0.0000 C   0  0
   34.0661  -23.6142    0.0000 C   0  0
   34.8921  -23.6135    0.0000 C   0  0
   35.3034  -22.8935    0.0000 C   0  0
   34.8884  -22.1829    0.0000 C   0  0
   35.3067  -24.3268    0.0000 N   0  0
   28.7092  -21.4751    0.0000 C   0  0
   29.1200  -22.1919    0.0000 C   0  0
   29.9442  -22.1923    0.0000 C   0  0
   30.3576  -21.4772    0.0000 C   0  0
   29.9405  -20.7604    0.0000 C   0  0
   29.1177  -20.7635    0.0000 C   0  0
   27.8842  -21.4747    0.0000 C   0  0
   27.4720  -20.7601    0.0000 N   0  3
   27.8897  -20.0476    0.0000 C   0  0
   27.4781  -19.3335    0.0000 C   0  0
   26.6523  -19.3327    0.0000 C   0  0
   26.2397  -20.0521    0.0000 C   0  0
   26.6535  -20.7632    0.0000 C   0  0
   26.2392  -18.6185    0.0000 N   0  0
   31.1826  -21.4761    0.0000 C   0  0
   31.5916  -22.1927    0.0000 C   0  0
   32.4158  -22.1919    0.0000 C   0  0
   32.8282  -21.4763    0.0000 C   0  0
   32.4104  -20.7600    0.0000 C   0  0
   31.5875  -20.7642    0.0000 C   0  0
   34.8962  -25.0425    0.0000 C   0  0
   36.1317  -24.3245    0.0000 C   0  0
   36.5431  -25.0404    0.0000 C   0  0
   37.3674  -25.0383    0.0000 C   0  0
   37.7786  -24.3221    0.0000 C   0  0
   37.3596  -23.6064    0.0000 C   0  0
   36.5367  -23.6120    0.0000 C   0  0
   38.6036  -24.3186    0.0000 Cl  0  0
   25.4139  -18.5847    0.0000 C   0  0
   26.6659  -17.9125    0.0000 C   0  0
   29.0518  -19.8884    0.0000 Br  0  5
   34.7089  -21.2732    0.0000 Br  0  5
  1  2  1  0
  2  3  2  0
  3  4  1  0
  4  5  2  0
  5  6  1  0
  6  7  2  0
  7  2  1  0
  5  8  1  0
  9 10  2  0
 10 11  1  0
 11 12  2  0
 12 13  1  0
 13 14  2  0
 14  9  1  0
  9 15  1  0
 15 16  1  0
 16 17  2  0
 17 18  1  0
 18 19  2  0
 19 20  1  0
 20 21  2  0
 21 16  1  0
 19 22  1  0
 12 23  1  0
 23 24  2  0
 24 25  1  0
 25 26  2  0
 26 27  1  0
 27 28  2  0
 28 23  1  0
 26  1  1  0
  8 29  1  0
  8 30  1  0
 30 31  2  0
 31 32  1  0
 32 33  2  0
 33 34  1  0
 34 35  2  0
 35 30  1  0
 33 36  1  0
 37 22  1  0
 22 38  1  0
M  CHG  4   2   1  16   1  39  -1  40  -1
M  END