
          11280715352D 1   1.00000     0.00000     0

 14 13  0     0  0            999 V2000
   -2.0458    0.4875    0.0000 C   0  0  0  0  0  0           0  0  0
   -1.5250    0.1875    0.0000 O   0  0  0  0  0  0           0  0  0
   -2.0458    1.0875    0.0000 O   0  0  0  0  0  0           0  0  0
    0.5542    0.1875    0.0000 N   0  0  0  0  0  0           0  0  0
   -2.5625    0.1875    0.0000 C   0  0  3  0  0  0           0  0  0
   -0.4875    0.1875    0.0000 C   0  0  3  0  0  0           0  0  0
   -1.0083    0.4875    0.0000 C   0  0  0  0  0  0           0  0  0
    0.0292    0.4875    0.0000 C   0  0  0  0  0  0           0  0  0
   -0.4875   -0.4125    0.0000 O   0  0  0  0  0  0           0  0  0
    1.0667    0.4875    0.0000 C   0  0  3  0  0  0           0  0  0
   -3.0833    0.4875    0.0000 C   0  0  0  0  0  0           0  0  0
   -2.5625   -0.4125    0.0000 C   0  0  0  0  0  0           0  0  0
    1.5917    0.1875    0.0000 C   0  0  0  0  0  0           0  0  0
    1.0667    1.0875    0.0000 C   0  0  0  0  0  0           0  0  0
  2  1  1  0     0  0
  3  1  2  0     0  0
  4  8  1  0     0  0
  5  1  1  0     0  0
  6  7  1  0     0  0
  7  2  1  0     0  0
  8  6  1  0     0  0
  9  6  1  0     0  0
 10  4  1  0     0  0
 11  5  1  0     0  0
 12  5  1  0     0  0
 13 10  1  0     0  0
 14 10  1  0     0  0
M  END