
  SciTegic01161211252D

 27 30  0  0  0  0            999 V2000
   -0.6301  -11.0833    0.0000 N   0  0
    0.0837  -11.4969    0.0000 C   0  0
    0.0825  -12.3219    0.0000 O   0  0
    0.7988  -11.0854    0.0000 C   0  0
    1.5110  -11.4998    0.0000 C   0  0
    2.2256  -11.0890    0.0000 N   0  0
    2.2272  -10.2632    0.0000 C   0  0
    1.5084   -9.8498    0.0000 C   0  0
    0.7967  -10.2629    0.0000 C   0  0
    2.9418   -9.8508    0.0000 S   0  0
    3.6562  -10.2633    0.0000 C   0  0
    3.6513  -11.0886    0.0000 C   0  0
    4.3649  -11.5011    0.0000 C   0  0
    5.0804  -11.0886    0.0000 C   0  0
    5.0778  -10.2593    0.0000 C   0  0
    4.3637   -9.8506    0.0000 C   0  0
   -1.3131  -11.5462    0.0000 C   0  0
   -2.1034  -11.3030    0.0000 C   0  0
   -0.5713  -10.2608    0.0000 C   0  0
   -2.4078  -10.5375    0.0000 N   0  0
   -1.1776   -9.6992    0.0000 C   0  0
   -1.9939   -9.8253    0.0000 C   0  0
   -3.2325  -10.5377    0.0000 C   0  0
   -3.8143   -9.9528    0.0000 C   0  0
   -4.3992  -10.5346    0.0000 C   0  0
   -3.8174  -11.1195    0.0000 C   0  0
    5.7953  -11.5003    0.0000 F   0  0
  6  7  2  0
 13 14  2  0
  2  4  1  0
 14 15  1  0
  7  8  1  0
 15 16  2  0
 16 11  1  0
  1 17  1  0
  8  9  2  0
 17 18  1  0
  9  4  1  0
  1 19  1  0
  4  5  2  0
 18 20  1  0
  7 10  1  0
 19 21  1  0
  2  3  2  0
 20 22  1  0
 21 22  1  0
 23 24  1  0
 10 11  1  0
  5  6  1  0
 11 12  2  0
  1  2  1  0
 24 25  1  0
 25 26  1  0
 26 23  1  0
 20 23  1  0
 12 13  1  0
 14 27  1  0
M  END