
          11280715512D 1   1.00000     0.00000     0

 37 40  0     1  0            999 V2000
    8.9944  -21.1750    0.0000 C   0  0  0  0  0  0           0  0  0
    8.9932  -22.0023    0.0000 C   0  0  0  0  0  0           0  0  0
    9.7081  -22.4152    0.0000 C   0  0  0  0  0  0           0  0  0
    9.7063  -20.7622    0.0000 C   0  0  0  0  0  0           0  0  0
   10.4265  -21.9994    0.0000 C   0  0  0  0  0  0           0  0  0
   10.4216  -21.1713    0.0000 C   0  0  0  0  0  0           0  0  0
   11.0687  -20.6454    0.0000 N   0  0  3  0  0  0           0  0  0
   11.0827  -22.5139    0.0000 C   0  0  0  0  0  0           0  0  0
   11.8809  -20.8197    0.0000 C   0  0  0  0  0  0           0  0  0
   11.8934  -22.3209    0.0000 N   0  0  0  0  0  0           0  0  0
   12.2457  -21.5661    0.0000 C   0  0  2  0  0  0           0  0  0
   12.3892  -20.1699    0.0000 O   0  0  0  0  0  0           0  0  0
   10.9062  -23.3198    0.0000 C   0  0  3  0  0  0           0  0  0
   13.0707  -21.5588    0.0000 C   0  0  0  0  0  0           0  0  0
   13.4895  -22.2695    0.0000 C   0  0  0  0  0  0           0  0  0
   14.3145  -22.2622    0.0000 N   0  0  0  0  0  0           0  0  0
   13.0834  -22.9876    0.0000 O   0  0  0  0  0  0           0  0  0
   10.8762  -19.8432    0.0000 C   0  0  0  0  0  0           0  0  0
   11.4747  -19.2754    0.0000 C   0  0  0  0  0  0           0  0  0
   11.2822  -18.4731    0.0000 C   0  0  3  0  0  0           0  0  0
   12.2657  -19.5097    0.0000 O   0  0  0  0  0  0           0  0  0
   11.0625  -17.6708    0.0000 C   0  0  0  0  0  0           0  0  0
   12.0813  -18.2679    0.0000 C   0  0  0  0  0  0           0  0  0
   10.4849  -18.6852    0.0000 C   0  0  0  0  0  0           0  0  0
   14.7333  -22.9729    0.0000 C   0  0  0  0  0  0           0  0  0
   14.3253  -23.6888    0.0000 C   0  0  0  0  0  0           0  0  0
   14.7435  -24.3991    0.0000 C   0  0  0  0  0  0           0  0  0
   15.5693  -24.3921    0.0000 C   0  0  0  0  0  0           0  0  0
   15.9752  -23.6690    0.0000 C   0  0  0  0  0  0           0  0  0
   15.5547  -22.9617    0.0000 C   0  0  0  0  0  0           0  0  0
   16.8002  -23.6587    0.0000 N   0  0  0  0  0  0           0  0  0
   17.2037  -22.9392    0.0000 C   0  0  0  0  0  0           0  0  0
   10.1225  -23.5695    0.0000 C   0  0  0  0  0  0           0  0  0
    9.9449  -24.3715    0.0000 C   0  0  0  0  0  0           0  0  0
   10.5520  -24.9306    0.0000 C   0  0  0  0  0  0           0  0  0
   11.3397  -24.6821    0.0000 C   0  0  0  0  0  0           0  0  0
   11.5203  -23.8744    0.0000 C   0  0  0  0  0  0           0  0  0
  7 18  1  0     0  0
  7  9  1  0     0  0
 18 19  1  0     0  0
  4  1  1  0     0  0
 19 20  1  0     0  0
  8 10  2  0     0  0
 19 21  2  0     0  0
 20 22  1  0     0  0
  9 11  1  0     0  0
 20 23  1  0     0  0
 10 11  1  0     0  0
 20 24  1  0     0  0
  2  3  1  0     0  0
 16 25  1  0     0  0
  9 12  2  0     0  0
 25 26  2  0     0  0
  5  6  1  0     0  0
 26 27  1  0     0  0
  8 13  1  0     0  0
 27 28  2  0     0  0
  3  5  2  0     0  0
 28 29  1  0     0  0
 11 14  1  1     0  0
 29 30  2  0     0  0
 30 25  1  0     0  0
  6  7  1  0     0  0
 29 31  1  0     0  0
 14 15  1  0     0  0
 31 32  1  0     0  0
 13 33  1  0     0  0
  1  2  2  0     0  0
 15 16  1  0     0  0
  5  8  1  0     0  0
 15 17  2  0     0  0
  6  4  2  0     0  0
 13 37  1  0     0  0
 33 34  1  0     0  0
 34 35  1  0     0  0
 35 36  1  0     0  0
 36 37  1  0     0  0
M  END