
          11280714442D 1   1.00000     0.00000     0

 24 24  0     0  0            999 V2000
    3.2250   -2.1667    0.0000 C   0  0  0  0  0  0           0  0  0
    4.0417   -2.1542    0.0000 C   0  0  0  0  0  0           0  0  0
    9.8375   -3.5000    0.0000 C   0  0  0  0  0  0           0  0  0
    4.4750   -2.8542    0.0000 O   0  0  0  0  0  0           0  0  0
    9.0125   -3.5000    0.0000 N   0  0  0  0  0  0           0  0  0
    2.7917   -1.4667    0.0000 C   0  0  0  0  0  0           0  0  0
   10.2500   -2.7792    0.0000 O   0  0  0  0  0  0           0  0  0
    4.4417   -1.4292    0.0000 O   0  0  0  0  0  0           0  0  0
    6.9500   -2.8042    0.0000 N   0  0  0  0  0  0           0  0  0
    7.7750   -2.7875    0.0000 C   0  0  3  0  0  0           0  0  0
   10.2500   -4.2125    0.0000 N   0  0  0  0  0  0           0  0  0
    8.6000   -2.7875    0.0000 C   0  0  0  0  0  0           0  0  0
    5.7292   -3.5417    0.0000 C   0  0  3  0  0  0           0  0  0
    5.3000   -2.8417    0.0000 C   0  0  0  0  0  0           0  0  0
    6.5542   -3.5292    0.0000 C   0  0  0  0  0  0           0  0  0
    3.1917   -0.7417    0.0000 F   0  0  0  0  0  0           0  0  0
    2.8292   -2.8917    0.0000 C   0  0  0  0  0  0           0  0  0
    5.3292   -4.2667    0.0000 O   0  0  0  0  0  0           0  0  0
    1.9667   -1.4792    0.0000 C   0  0  0  0  0  0           0  0  0
    8.1667   -2.0625    0.0000 C   0  0  0  0  0  0           0  0  0
    8.2042   -3.4917    0.0000 C   0  0  0  0  0  0           0  0  0
   11.0750   -4.2125    0.0000 C   0  0  0  0  0  0           0  0  0
    1.9917   -2.9125    0.0000 C   0  0  0  0  0  0           0  0  0
    1.5667   -2.2042    0.0000 C   0  0  0  0  0  0           0  0  0
  2  1  1  0     0  0
  3  5  1  0     0  0
  4  2  1  0     0  0
  5 12  1  0     0  0
  6  1  1  0     0  0
  7  3  2  0     0  0
  8  2  2  0     0  0
  9 15  1  0     0  0
 10  9  1  0     0  0
 11  3  1  0     0  0
 12 10  1  0     0  0
 13 14  1  0     0  0
 14  4  1  0     0  0
 15 13  1  0     0  0
 16  6  1  0     0  0
 17  1  2  0     0  0
 18 13  1  0     0  0
 19  6  2  0     0  0
 20 10  1  0     0  0
 21 10  1  0     0  0
 22 11  1  0     0  0
 23 17  1  0     0  0
 24 23  2  0     0  0
 24 19  1  0     0  0
M  END