
  CDK    9/16/09,9:56

 89 91  0  0  0  0  0  0  0  0999 V2000
   18.6837   -4.8083    0.0000 N   0  0  0  0  0  0  0  0  0  0  0  0
   19.4021   -5.2250    0.0000 C   0  0  0  0  0  0  0  0  0  0  0  0
   20.1166   -4.8125    0.0000 C   0  0  0  0  0  0  0  0  0  0  0  0
   19.4021   -6.0500    0.0000 C   0  0  0  0  0  0  0  0  0  0  0  0
   20.8311   -5.2250    0.0000 N   0  0  0  0  0  0  0  0  0  0  0  0
   20.1166   -3.9875    0.0000 O   0  0  0  0  0  0  0  0  0  0  0  0
   20.1166   -6.4625    0.0000 C   0  0  0  0  0  0  0  0  0  0  0  0
   20.1166   -7.2875    0.0000 C   0  0  0  0  0  0  0  0  0  0  0  0
   20.8311   -7.7000    0.0000 N   0  0  0  0  0  0  0  0  0  0  0  0
   20.8311   -8.5250    0.0000 C   0  0  0  0  0  0  0  0  0  0  0  0
   21.5456   -8.9375    0.0000 N   0  0  0  0  0  0  0  0  0  0  0  0
   20.1166   -8.9375    0.0000 N   0  0  0  0  0  0  0  0  0  0  0  0
   17.9693   -5.2208    0.0000 C   0  0  0  0  0  0  0  0  0  0  0  0
   16.5364   -5.2208    0.0000 N   0  0  0  0  0  0  0  0  0  0  0  0
   17.2508   -4.8083    0.0000 C   0  0  0  0  0  0  0  0  0  0  0  0
   17.2508   -3.9833    0.0000 C   0  0  0  0  0  0  0  0  0  0  0  0
   17.9653   -3.5708    0.0000 C   0  0  0  0  0  0  0  0  0  0  0  0
   17.9653   -2.7458    0.0000 C   0  0  0  0  0  0  0  0  0  0  0  0
   18.6798   -2.3333    0.0000 N   0  0  0  0  0  0  0  0  0  0  0  0
   18.6798   -1.5083    0.0000 C   0  0  0  0  0  0  0  0  0  0  0  0
   19.3943   -1.0958    0.0000 N   0  0  0  0  0  0  0  0  0  0  0  0
   17.9653   -1.0958    0.0000 N   0  0  0  0  0  0  0  0  0  0  0  0
   17.9653   -6.0458    0.0000 O   0  0  0  0  0  0  0  0  0  0  0  0
   15.8215   -4.8125    0.0000 C   0  0  0  0  0  0  0  0  0  0  0  0
   15.8215   -3.9875    0.0000 O   0  0  0  0  0  0  0  0  0  0  0  0
    2.2804   -5.2207    0.0000 O   0  0  0  0  0  0  0  0  0  0  0  0
    2.2769   -6.0431    0.0000 C   0  0  0  0  0  0  0  0  0  0  0  0
    1.5416   -6.4175    0.0000 C   0  0  0  0  0  0  0  0  0  0  0  0
    0.8084   -6.0410    0.0000 C   0  0  0  0  0  0  0  0  0  0  0  0
    0.6792   -5.2246    0.0000 O   0  0  0  0  0  0  0  0  0  0  0  0
    0.2236   -6.6246    0.0000 C   0  0  0  0  0  0  0  0  0  0  0  0
   -0.5924   -6.4921    0.0000 O   0  0  0  0  0  0  0  0  0  0  0  0
    0.5980   -7.3599    0.0000 C   0  0  0  0  0  0  0  0  0  0  0  0
    1.4092   -7.2335    0.0000 O   0  0  0  0  0  0  0  0  0  0  0  0
    0.2214   -8.0931    0.0000 N   0  0  0  0  0  0  0  0  0  0  0  0
   -0.5949   -8.2223    0.0000 C   0  0  0  0  0  0  0  0  0  0  0  0
   -0.7273   -9.0383    0.0000 N   0  0  0  0  0  0  0  0  0  0  0  0
    0.0110   -9.4119    0.0000 C   0  0  0  0  0  0  0  0  0  0  0  0
    0.2226  -10.2106    0.0000 C   0  0  0  0  0  0  0  0  0  0  0  0
   -0.3622  -10.7942    0.0000 N   0  0  0  0  0  0  0  0  0  0  0  0
    1.0191  -10.4256    0.0000 N   0  0  0  0  0  0  0  0  0  0  0  0
    1.6039   -9.8420    0.0000 C   0  0  0  0  0  0  0  0  0  0  0  0
    1.3912   -9.0474    0.0000 N   0  0  0  0  0  0  0  0  0  0  0  0
    0.5947   -8.8324    0.0000 C   0  0  0  0  0  0  0  0  0  0  0  0
    2.9794   -6.4758    0.0000 N   0  0  0  0  0  0  0  0  0  0  0  0
    6.5333   -5.2250    0.0000 C   0  0  0  0  0  0  0  0  0  0  0  0
    7.2478   -4.8125    0.0000 N   0  0  0  0  0  0  0  0  0  0  0  0
    5.8147   -4.8125    0.0000 C   0  0  0  0  0  0  0  0  0  0  0  0
    6.5333   -6.0542    0.0000 O   0  0  0  0  0  0  0  0  0  0  0  0
    5.0961   -5.2250    0.0000 C   0  0  0  0  0  0  0  0  0  0  0  0
    4.3774   -4.8125    0.0000 C   0  0  0  0  0  0  0  0  0  0  0  0
    3.6617   -5.2183    0.0000 C   0  0  0  0  0  0  0  0  0  0  0  0
    3.6827   -6.0466    0.0000 C   0  0  0  0  0  0  0  0  0  0  0  0
    7.9623   -5.2250    0.0000 C   0  0  0  0  0  0  0  0  0  0  0  0
    8.6767   -4.8125    0.0000 C   0  0  0  0  0  0  0  0  0  0  0  0
    9.3912   -5.2250    0.0000 N   0  0  0  0  0  0  0  0  0  0  0  0
   10.1057   -4.8125    0.0000 C   0  0  0  0  0  0  0  0  0  0  0  0
   10.8202   -5.2250    0.0000 C   0  0  0  0  0  0  0  0  0  0  0  0
   11.5346   -4.8125    0.0000 C   0  0  0  0  0  0  0  0  0  0  0  0
   12.2491   -5.2250    0.0000 C   0  0  0  0  0  0  0  0  0  0  0  0
    7.9623   -6.0500    0.0000 C   0  0  0  0  0  0  0  0  0  0  0  0
    8.6767   -6.4625    0.0000 C   0  0  0  0  0  0  0  0  0  0  0  0
    8.6767   -7.2875    0.0000 C   0  0  0  0  0  0  0  0  0  0  0  0
    9.3912   -7.7000    0.0000 C   0  0  0  0  0  0  0  0  0  0  0  0
    9.3912   -8.5250    0.0000 N   0  0  0  0  0  0  0  0  0  0  0  0
    8.6767   -3.9875    0.0000 O   0  0  0  0  0  0  0  0  0  0  0  0
   12.9636   -4.8125    0.0000 C   0  0  0  0  0  0  0  0  0  0  0  0
   13.6780   -5.2250    0.0000 C   0  0  0  0  0  0  0  0  0  0  0  0
   13.6780   -6.0500    0.0000 O   0  0  0  0  0  0  0  0  0  0  0  0
   14.3925   -4.8125    0.0000 N   0  0  0  0  0  0  0  0  0  0  0  0
   15.1070   -5.2250    0.0000 C   0  0  0  0  0  0  0  0  0  0  0  0
   15.1070   -6.0500    0.0000 C   0  0  0  0  0  0  0  0  0  0  0  0
   15.8215   -6.4625    0.0000 C   0  0  0  0  0  0  0  0  0  0  0  0
   15.8215   -7.2875    0.0000 C   0  0  0  0  0  0  0  0  0  0  0  0
   16.5359   -7.7000    0.0000 N   0  0  0  0  0  0  0  0  0  0  0  0
   16.5359   -8.5250    0.0000 C   0  0  0  0  0  0  0  0  0  0  0  0
   15.8215   -8.9375    0.0000 N   0  0  0  0  0  0  0  0  0  0  0  0
   17.2504   -8.9375    0.0000 N   0  0  0  0  0  0  0  0  0  0  0  0
   21.5456   -4.8125    0.0000 C   0  0  0  0  0  0  0  0  0  0  0  0
   22.2600   -5.2250    0.0000 C   0  0  0  0  0  0  0  0  0  0  0  0
   21.5456   -3.9875    0.0000 C   0  0  0  0  0  0  0  0  0  0  0  0
   22.2600   -3.5750    0.0000 C   0  0  0  0  0  0  0  0  0  0  0  0
   22.2600   -2.7500    0.0000 C   0  0  0  0  0  0  0  0  0  0  0  0
   22.9745   -2.3375    0.0000 N   0  0  0  0  0  0  0  0  0  0  0  0
   22.9745   -1.5125    0.0000 C   0  0  0  0  0  0  0  0  0  0  0  0
   23.6890   -1.1000    0.0000 N   0  0  0  0  0  0  0  0  0  0  0  0
   22.2600   -1.1000    0.0000 N   0  0  0  0  0  0  0  0  0  0  0  0
   22.2600   -6.0500    0.0000 O   0  0  0  0  0  0  0  0  0  0  0  0
   22.9745   -4.8125    0.0000 N   0  0  0  0  0  0  0  0  0  0  0  0
 35 44  1  0  0  0  0 
  3  6  2  0  0  0  0 
 27 45  1  0  0  0  0 
 13 23  2  0  0  0  0 
 10 12  2  0  0  0  0 
 46 47  1  0  0  0  0 
 24 14  1  0  0  0  0 
 46 48  1  0  0  0  0 
  1  2  1  0  0  0  0 
 46 49  2  0  0  0  0 
 24 25  2  0  0  0  0 
 48 50  1  0  0  0  0 
 13  1  1  0  0  0  0 
 50 51  1  0  0  0  0 
  4  7  1  0  0  0  0 
 51 52  1  0  0  0  0 
  2  4  1  1  0  0  0 
 52 53  1  0  0  0  0 
 53 45  1  0  0  0  0 
 14 15  1  0  0  0  0 
 47 54  1  0  0  0  0 
 15 13  1  0  0  0  0 
 54 55  1  0  0  0  0 
  7  8  1  0  0  0  0 
 55 56  1  0  0  0  0 
 15 16  1  6  0  0  0 
 56 57  1  0  0  0  0 
 57 58  1  0  0  0  0 
 16 17  1  0  0  0  0 
 58 59  1  0  0  0  0 
  8  9  1  0  0  0  0 
 59 60  1  0  0  0  0 
 17 18  1  0  0  0  0 
 54 61  1  1  0  0  0 
  3  5  1  0  0  0  0 
 61 62  1  0  0  0  0 
 18 19  1  0  0  0  0 
 62 63  1  0  0  0  0 
  9 10  1  0  0  0  0 
 63 64  1  0  0  0  0 
 19 20  1  0  0  0  0 
 64 65  1  0  0  0  0 
  2  3  1  0  0  0  0 
 55 66  2  0  0  0  0 
 20 21  2  0  0  0  0 
 60 67  1  0  0  0  0 
 10 11  1  0  0  0  0 
 67 68  1  0  0  0  0 
 20 22  1  0  0  0  0 
 68 69  2  0  0  0  0 
 26 27  2  0  0  0  0 
 68 70  1  0  0  0  0 
 28 27  1  1  0  0  0 
 70 71  1  0  0  0  0 
 71 24  1  0  0  0  0 
 28 29  1  0  0  0  0 
 71 72  1  1  0  0  0 
 29 30  1  6  0  0  0 
 72 73  1  0  0  0  0 
 29 31  1  0  0  0  0 
 73 74  1  0  0  0  0 
 31 32  1  6  0  0  0 
 74 75  1  0  0  0  0 
 31 33  1  0  0  0  0 
 75 76  1  0  0  0  0 
 33 34  1  0  0  0  0 
 76 77  1  0  0  0  0 
 28 34  1  0  0  0  0 
 76 78  2  0  0  0  0 
 33 35  1  1  0  0  0 
  5 79  1  0  0  0  0 
 35 36  1  0  0  0  0 
 79 80  1  0  0  0  0 
 36 37  2  0  0  0  0 
 79 81  1  6  0  0  0 
 37 38  1  0  0  0  0 
 81 82  1  0  0  0  0 
 38 39  1  0  0  0  0 
 82 83  1  0  0  0  0 
 39 40  1  0  0  0  0 
 83 84  1  0  0  0  0 
 39 41  2  0  0  0  0 
 84 85  1  0  0  0  0 
 41 42  1  0  0  0  0 
 85 86  1  0  0  0  0 
 42 43  2  0  0  0  0 
 85 87  2  0  0  0  0 
 43 44  1  0  0  0  0 
 80 88  2  0  0  0  0 
 38 44  2  0  0  0  0 
 80 89  1  0  0  0  0 
M  END