
  SciTegic08071217342D

 93 97  0  0  0  0            999 V2000
    4.2844   -4.4761    0.0000 C   0  0
    5.0183   -4.0993    0.0000 C   0  0  2  0  0  0
    5.5042   -4.7638    0.0000 N   0  0
    6.9555   -0.2975    0.0000 C   0  0
    7.7787   -0.2975    0.0000 N   0  0
    7.7787   -5.5076    0.0000 N   0  0
    9.7192   -1.7058    0.0000 N   0  0
    9.7192   -4.0993    0.0000 N   0  0
    6.1720   -5.2497    0.0000 C   0  0
    9.2332   -1.0348    0.0000 C   0  0
    9.9705   -3.3158    0.0000 C   0  0
    3.5935   -4.0265    0.0000 N   0  0
    2.6083   -5.1175    0.0000 C   0  0
    8.5622   -5.2497    0.0000 C   0  0
    1.3521   -2.9588    0.0000 N   0  3
    6.9555   -5.5076    0.0000 C   0  0  2  0  0  0
    6.1720   -0.5488    0.0000 C   0  0
    8.5622   -0.5488    0.0000 C   0  0  2  0  0  0
    9.9705   -2.4893    0.0000 C   0  0  2  0  0  0
    2.1819   -6.7076    0.0000 C   0  0
    3.1869   -5.7026    0.0000 N   0  0
    1.9670   -7.5076    0.0000 N   0  0
    2.8199   -4.3175    0.0000 C   0  0  2  0  0  0
    6.8266   -6.3208    0.0000 C   0  0
    9.2332   -4.7638    0.0000 C   0  0  2  0  0  0
    1.3521   -2.1224    0.0000 N   0  5
    4.2976   -9.8415    0.0000 C   0  0
   -2.0629   -5.2596    0.0000 C   0  0
    0.9554   -8.5192    0.0000 C   0  0
    6.0530   -6.6183    0.0000 C   0  0
    0.8265   -3.6827    0.0000 N   0  0
    2.9786   -6.4993    0.0000 C   0  0  1  0  0  0
    4.7638   -2.4893    0.0000 S   0  0
    1.1703   -7.7192    0.0000 C   0  0  2  0  0  0
    5.0183   -1.7058    0.0000 S   0  0
   10.1853   -6.7274    0.0000 C   0  0
    5.0976   -9.6299    0.0000 N   0  0
   -1.3157   -4.9191    0.0000 C   0  0
   -2.7372   -4.7836    0.0000 N   0  0
    4.2381   -5.2993    0.0000 O   0  0
    1.8083   -5.3291    0.0000 O   0  0
    6.8266    0.5157    0.0000 O   0  0
    9.8184   -0.4562    0.0000 O   0  0
   10.7837   -3.4447    0.0000 O   0  0
    5.7952   -5.9836    0.0000 O   0  0
    8.9390   -5.9836    0.0000 O   0  0
    4.7638   -3.3158    0.0000 C   0  0
    8.9390    0.1851    0.0000 C   0  0
   10.7837   -2.3604    0.0000 C   0  0
    1.5901   -6.1290    0.0000 O   0  0
    0.1587   -8.7308    0.0000 O   0  0
    5.9241   -7.4316    0.0000 O   0  0
    9.9705   -7.5274    0.0000 O   0  0
    9.8184   -5.3489    0.0000 C   0  0
    3.7191   -9.2564    0.0000 N   0  0
   -2.1785   -6.4002    0.0000 N   0  0
   -0.6016   -5.3291    0.0000 C   0  0
   -1.3157   -4.0959    0.0000 C   0  0
    4.0894  -10.6415    0.0000 N   0  0
    5.5042   -1.0348    0.0000 C   0  0
    1.5406   -9.1043    0.0000 N   0  0
    0.1124   -4.0959    0.0000 C   0  0
    5.4150   -6.0993    0.0000 N   0  0
    9.6035   -6.1489    0.0000 C   0  0
    9.7622    0.2248    0.0000 C   0  0
   10.9821   -6.5192    0.0000 N   0  0
   11.4085    0.3140    0.0000 C   0  0
   -0.6016   -3.6827    0.0000 C   0  0
    0.1124   -4.9191    0.0000 C   0  0
   11.3093   -2.9984    0.0000 C   0  0
    3.5505   -3.1968    0.0000 C   0  0
    6.3803    0.2479    0.0000 C   0  0
    5.3456   -0.5984    0.0000 C   0  0
   10.2151   -0.4661    0.0000 C   0  0
   10.1391    0.9587    0.0000 C   0  0
   11.0382   -0.4199    0.0000 C   0  0
   10.9622    1.0017    0.0000 C   0  0
   12.2383    0.3537    0.0000 O   0  0
    2.2050   -3.7687    0.0000 C   0  0
    3.5604   -7.0811    0.0000 C   0  0
    0.5885   -7.1406    0.0000 C   0  0
    3.9307   -8.4630    0.0000 C   0  0
   -1.5934   -6.9820    0.0000 C   0  0
   11.0118   -3.7720    0.0000 C   0  0
   12.1226   -2.8695    0.0000 C   0  0
    3.3455   -7.8779    0.0000 C   0  0
   -0.2083   -7.3522    0.0000 C   0  0
   -0.7934   -6.7671    0.0000 C   0  0
    5.6861    0.7008    0.0000 C   0  0
    5.0480    0.1752    0.0000 C   0  0
   11.5275   -4.4133    0.0000 C   0  0
   12.6383   -3.5141    0.0000 C   0  0
   12.3473   -4.2844    0.0000 C   0  0
  2  1  1  1
  3  2  1  0
  4 17  1  0
  5  4  1  0
  6 16  1  0
  7 10  1  0
  8 25  1  0
  9  3  1  0
 10 18  1  0
 11  8  1  0
 12  1  1  0
 13 23  1  0
 14  6  1  0
 15 31  2  0
 16  9  1  0
 17 60  1  0
 18  5  1  0
 19 11  1  0
 20 32  1  0
 21 13  1  0
 22 20  1  0
 23 12  1  0
 16 24  1  1
 25 14  1  0
 26 15  2  0
 27 55  2  0
 28 56  2  0
 29 34  1  0
 30 24  1  0
 31 62  1  0
 32 21  1  0
 33 47  1  0
 34 22  1  0
 35 33  1  0
 36 64  1  0
 37 27  1  0
 38 28  1  0
 39 28  1  0
 40  1  2  0
 41 13  2  0
 42  4  2  0
 43 10  2  0
 44 11  2  0
 45  9  2  0
 46 14  2  0
 47  2  1  0
 18 48  1  1
 19 49  1  1
 50 20  2  0
 51 29  2  0
 52 30  2  0
 53 36  2  0
 25 54  1  1
 55 82  1  0
 56 83  1  0
 57 38  2  0
 58 38  1  0
 59 27  1  0
 60 35  1  0
 61 29  1  0
 62 68  1  0
 63 30  1  0
 64 54  1  0
 65 48  1  0
 66 36  1  0
 67 77  1  0
 68 58  2  0
 69 57  1  0
 70 49  1  0
 71 12  1  0
 72 17  1  0
 73 17  1  0
 74 65  2  0
 75 65  1  0
 76 74  1  0
 77 75  2  0
 78 67  1  0
 23 79  1  6
 32 80  1  1
 34 81  1  6
 82 86  1  0
 83 88  1  0
 84 70  2  0
 85 70  1  0
 86 80  1  0
 87 81  1  0
 88 87  1  0
 89 72  1  0
 90 73  1  0
 91 84  1  0
 92 85  2  0
 93 92  1  0
 89 90  1  0
  7 19  1  0
 76 67  2  0
 93 91  2  0
 69 62  2  0
M  CHG  2  15   1  26  -1
M  END