
  SciTegic12231509382D

 13 13  0  0  0  0            999 V2000
    9.7659   -2.9372    0.0000 C   0  0
    8.8984   -3.4346    0.0000 N   0  0
    8.8954   -4.4346    0.0000 C   0  0
    8.0338   -2.9321    0.0000 C   0  0
    7.1663   -3.4295    0.0000 C   0  0
    6.3018   -2.9270    0.0000 C   0  0
    6.3047   -1.9270    0.0000 O   0  0
    5.4343   -3.4244    0.0000 C   0  0
    5.4343   -4.4296    0.0000 C   0  0
    4.5668   -4.9271    0.0000 C   0  0
    3.6993   -4.4296    0.0000 C   0  0
    3.6993   -3.4244    0.0000 C   0  0
    4.5668   -2.9167    0.0000 C   0  0
  1  2  1  0
  2  3  1  0
  2  4  1  0
  4  5  1  0
  5  6  1  0
  6  7  2  0
  6  8  1  0
  8 13  2  0
  8  9  1  0
  9 10  2  0
 10 11  1  0
 11 12  2  0
 12 13  1  0
M  END