
  SciTegic12211612372D

 34 37  0  0  0  0            999 V2000
   -8.8512    7.1585    0.0000 O   0  0
   -8.8428    5.9585    0.0000 S   0  0
   -7.8079    6.5660    0.0000 O   0  0
   -6.2429    5.9768    0.0000 C   0  0
   -7.5375    5.2177    0.0000 N   0  0
   -7.5291    4.0177    0.0000 C   0  0
  -10.1374    5.1994    0.0000 C   0  0
   -3.6268    2.9927    0.0000 C   0  0
   -2.3316    3.7497    0.0000 C   0  0
   -2.3396    5.2497    0.0000 C   0  0
   -3.6426    5.9928    0.0000 C   0  0
   -4.9376    5.2360    0.0000 C   0  0
   -4.9297    3.7360    0.0000 C   0  0
   -3.6187    1.4918    0.0000 C   0  0  2  0  0  0
   -4.9162    0.7374    0.0000 C   0  0
   -6.2187    1.4831    0.0000 C   0  0
   -7.2561    0.8799    0.0000 O   0  0
   -6.2227    2.6831    0.0000 O   0  0
   -3.6489    7.1928    0.0000 Cl  0  0
   -2.3155    0.7475    0.0000 C   0  0
   -2.3155   -0.7475    0.0000 C   0  0
   -1.0028   -1.5132    0.0000 C   0  0
   -1.0028    1.5132    0.0000 C   0  0
    0.2917    0.7475    0.0000 C   0  0
    0.2917   -0.7475    0.0000 C   0  0
    1.7138   -1.2033    0.0000 N   0  0
    2.5889    0.0182    0.0000 N   0  0
    1.7138    1.2033    0.0000 N   0  0
    2.0907   -2.3426    0.0000 C   0  0
  -10.1274    3.6994    0.0000 C   0  0
  -11.4213    2.9407    0.0000 C   0  0
  -12.7254    3.6819    0.0000 C   0  0
  -12.7355    5.1819    0.0000 C   0  0
  -11.4415    5.9406    0.0000 C   0  0
  2  1  2  0
  3  2  2  0
  4  5  1  0
  5  2  1  0
  5  6  1  0
  2  7  1  0
  8  9  2  0
  9 10  1  0
 10 11  2  0
 11 12  1  0
 12 13  2  0
 13  8  1  0
  8 14  1  0
 14 15  1  1
 15 16  1  0
 16 17  2  0
 16 18  1  0
 11 19  1  0
 14 20  1  0
 20 21  2  0
 21 22  1  0
 22 25  2  0
 24 23  2  0
 23 20  1  0
 24 25  1  0
 25 26  1  0
 26 27  1  0
 27 28  2  0
 28 24  1  0
 26 29  1  0
 12  4  1  0
  7 30  2  0
 30 31  1  0
 31 32  2  0
 32 33  1  0
 33 34  2  0
 34  7  1  0
M  END