
          11280715082D 1   1.00000     0.00000     0

 46 50  0     0  0            999 V2000
    5.8750   -3.3375    0.0000 C   0  0  0  0  0  0           0  0  0
    6.3917   -3.0417    0.0000 C   0  0  0  0  0  0           0  0  0
    6.9042   -3.3375    0.0000 N   0  0  3  0  0  0           0  0  0
    5.3625   -3.0500    0.0000 N   0  0  0  0  0  0           0  0  0
    4.8417   -3.3417    0.0000 C   0  0  0  0  0  0           0  0  0
    5.8750   -3.9375    0.0000 C   0  0  0  0  0  0           0  0  0
    6.9125   -3.9375    0.0000 C   0  0  0  0  0  0           0  0  0
    3.2917   -3.0542    0.0000 C   0  0  0  0  0  0           0  0  0
    4.3250   -3.0500    0.0000 C   0  0  3  0  0  0           0  0  0
    6.3875   -4.2375    0.0000 C   0  0  0  0  0  0           0  0  0
    3.8125   -3.3500    0.0000 N   0  0  0  0  0  0           0  0  0
    2.2542   -3.0542    0.0000 C   0  0  0  0  0  0           0  0  0
    7.4250   -3.0375    0.0000 C   0  0  0  0  0  0           0  0  0
    2.7750   -3.3542    0.0000 C   0  0  0  0  0  0           0  0  0
    1.7375   -3.3542    0.0000 C   0  0  0  0  0  0           0  0  0
    6.3875   -2.4417    0.0000 O   0  0  0  0  0  0           0  0  0
    2.0000   -1.1667    0.0000 C   0  0  0  0  0  0           0  0  0
    4.8375   -3.9417    0.0000 O   0  0  0  0  0  0           0  0  0
    4.3250   -2.4500    0.0000 C   0  0  0  0  0  0           0  0  0
    3.2417   -2.5500    0.0000 O   0  0  0  0  0  0           0  0  0
    1.9875   -1.5750    0.0000 O   0  0  0  0  0  0           0  0  0
    2.5250   -0.8750    0.0000 C   0  0  0  0  0  0           0  0  0
    1.2167   -3.0542    0.0000 C   0  0  0  0  0  0           0  0  0
    7.9417   -3.3375    0.0000 C   0  0  0  0  0  0           0  0  0
    3.9000   -2.0250    0.0000 C   0  0  0  0  0  0           0  0  0
    3.0500   -1.1750    0.0000 C   0  0  0  0  0  0           0  0  0
    8.9750   -3.9250    0.0000 C   0  0  0  0  0  0           0  0  0
    1.4875   -0.8667    0.0000 O   0  0  0  0  0  0           0  0  0
    7.9417   -3.9292    0.0000 C   0  0  0  0  0  0           0  0  0
    4.0500   -1.4417    0.0000 C   0  0  0  0  0  0           0  0  0
    8.4500   -3.0375    0.0000 C   0  0  0  0  0  0           0  0  0
    3.3167   -2.1792    0.0000 C   0  0  0  0  0  0           0  0  0
    2.8917   -1.7625    0.0000 C   0  0  0  0  0  0           0  0  0
    3.6292   -1.0167    0.0000 C   0  0  0  0  0  0           0  0  0
    8.4542   -4.2250    0.0000 C   0  0  0  0  0  0           0  0  0
    8.9667   -3.3250    0.0000 C   0  0  0  0  0  0           0  0  0
    2.2542   -2.4500    0.0000 C   0  0  0  0  0  0           0  0  0
    9.4875   -4.2250    0.0000 O   0  0  0  0  0  0           0  0  0
    5.3500   -4.2292    0.0000 C   0  0  0  0  0  0           0  0  0
    1.7375   -2.1500    0.0000 C   0  0  0  0  0  0           0  0  0
    1.7375   -3.9500    0.0000 C   0  0  0  0  0  0           0  0  0
    1.2125   -2.4500    0.0000 C   0  0  0  0  0  0           0  0  0
    0.7000   -3.3542    0.0000 C   0  0  0  0  0  0           0  0  0
    9.4875   -4.8250    0.0000 C   0  0  0  0  0  0           0  0  0
    1.2250   -4.2500    0.0000 C   0  0  0  0  0  0           0  0  0
    0.7000   -3.9542    0.0000 C   0  0  0  0  0  0           0  0  0
  2  1  1  0     0  0
  3  2  1  0     0  0
  4  1  1  0     0  0
  5  4  1  0     0  0
  6  1  2  0     0  0
  7 10  2  0     0  0
  8 11  1  0     0  0
  9  5  1  0     0  0
 10  6  1  0     0  0
 11  9  1  0     0  0
 12 14  1  0     0  0
 13  3  1  0     0  0
 14  8  1  0     0  0
 15 12  1  0     0  0
 16  2  2  0     0  0
 17 22  1  0     0  0
 18  5  2  0     0  0
 19  9  1  0     0  0
 20  8  2  0     0  0
 21 17  2  0     0  0
 22 26  1  0     0  0
 23 15  1  0     0  0
 24 13  1  0     0  0
 25 19  1  0     0  0
 26 33  1  0     0  0
 27 36  1  0     0  0
 28 17  1  0     0  0
 29 24  2  0     0  0
 30 25  2  0     0  0
 31 24  1  0     0  0
 32 25  1  0     0  0
 33 32  2  0     0  0
 34 30  1  0     0  0
 35 29  1  0     0  0
 36 31  2  0     0  0
 37 12  2  0     0  0
 38 27  1  0     0  0
 39  6  1  0     0  0
 40 37  1  0     0  0
 41 15  2  0     0  0
 42 40  2  0     0  0
 43 23  2  0     0  0
 44 38  1  0     0  0
 45 41  1  0     0  0
 46 45  2  0     0  0
  3  7  1  0     0  0
 27 35  2  0     0  0
 26 34  2  0     0  0
 42 23  1  0     0  0
 46 43  1  0     0  0
M  END