
          11280715352D 1   1.00000     0.00000     0

 48 51  0     1  0            999 V2000
    4.9750   -8.4042    0.0000 N   0  0  3  0  0  0           0  0  0
    5.3042   -7.6667    0.0000 C   0  0  0  0  0  0           0  0  0
    7.7542   -6.1292    0.0000 C   0  0  0  0  0  0           0  0  0
    3.4667   -6.1292    0.0000 C   0  0  0  0  0  0           0  0  0
    2.7542   -5.7167    0.0000 C   0  0  3  0  0  0           0  0  0
    8.4750   -5.7167    0.0000 N   0  0  3  0  0  0           0  0  0
    6.1167   -7.7542    0.0000 C   0  0  0  0  0  0           0  0  0
    7.0417   -5.7167    0.0000 C   0  0  3  0  0  0           0  0  0
    5.5792   -8.9542    0.0000 C   0  0  0  0  0  0           0  0  0
    5.6167   -5.7167    0.0000 C   0  0  0  0  0  0           0  0  0
    6.3292   -6.1292    0.0000 N   0  0  0  0  0  0           0  0  0
    4.1875   -5.7167    0.0000 N   0  0  0  0  0  0           0  0  0
    4.9000   -6.9542    0.0000 C   0  0  0  0  0  0           0  0  0
    4.9000   -6.1292    0.0000 C   0  0  2  0  0  0           0  0  0
    6.2875   -8.5542    0.0000 C   0  0  0  0  0  0           0  0  0
    4.1667   -8.5792    0.0000 C   0  0  0  0  0  0           0  0  0
    2.0417   -6.1292    0.0000 N   0  0  0  0  0  0           0  0  0
    9.1875   -6.1292    0.0000 C   0  0  3  0  0  0           0  0  0
    1.3292   -5.7167    0.0000 C   0  0  0  0  0  0           0  0  0
    7.7542   -6.9542    0.0000 O   0  0  0  0  0  0           0  0  0
    3.4667   -6.9542    0.0000 O   0  0  0  0  0  0           0  0  0
    7.0417   -4.8917    0.0000 C   0  0  0  0  0  0           0  0  0
    5.6167   -4.8917    0.0000 O   0  0  0  0  0  0           0  0  0
    3.6167   -7.9667    0.0000 O   0  0  0  0  0  0           0  0  0
    2.7542   -4.8917    0.0000 C   0  0  3  0  0  0           0  0  0
    1.3292   -4.8917    0.0000 O   0  0  0  0  0  0           0  0  0
    9.9042   -5.7167    0.0000 C   0  0  0  0  0  0           0  0  0
    6.6292   -4.1750    0.0000 C   0  0  0  0  0  0           0  0  0
    8.4750   -4.8917    0.0000 C   0  0  0  0  0  0           0  0  0
    2.0417   -4.4792    0.0000 O   0  0  0  0  0  0           0  0  0
    5.5750   -9.7667    0.0000 C   0  0  0  0  0  0           0  0  0
    6.9875   -8.9625    0.0000 C   0  0  0  0  0  0           0  0  0
    3.9125   -9.3625    0.0000 C   0  0  0  0  0  0           0  0  0
    9.1875   -6.9542    0.0000 C   0  0  0  0  0  0           0  0  0
    0.6167   -6.1292    0.0000 C   0  0  0  0  0  0           0  0  0
    9.9000   -4.9000    0.0000 C   0  0  0  0  0  0           0  0  0
   10.6167   -6.1292    0.0000 C   0  0  0  0  0  0           0  0  0
    3.4667   -4.4792    0.0000 C   0  0  0  0  0  0           0  0  0
    7.0417   -3.4500    0.0000 C   0  0  0  0  0  0           0  0  0
    5.8000   -4.1750    0.0000 C   0  0  0  0  0  0           0  0  0
    6.2792  -10.1792    0.0000 C   0  0  0  0  0  0           0  0  0
    6.9917   -9.7750    0.0000 C   0  0  0  0  0  0           0  0  0
   11.3292   -5.7250    0.0000 C   0  0  0  0  0  0           0  0  0
   10.6125   -4.4792    0.0000 C   0  0  0  0  0  0           0  0  0
    5.3792   -3.4542    0.0000 C   0  0  0  0  0  0           0  0  0
    6.6292   -2.7292    0.0000 C   0  0  0  0  0  0           0  0  0
   11.3292   -4.8917    0.0000 C   0  0  0  0  0  0           0  0  0
    5.7917   -2.7292    0.0000 C   0  0  0  0  0  0           0  0  0
  2  1  1  0     0  0
  3  8  1  0     0  0
  4 12  1  0     0  0
  5  4  1  0     0  0
  6  3  1  0     0  0
  7  2  2  0     0  0
  8 11  1  0     0  0
  9  1  1  0     0  0
 10 14  1  0     0  0
 11 10  1  0     0  0
 12 14  1  0     0  0
 13  2  1  0     0  0
 14 13  1  1     0  0
 15  9  2  0     0  0
 16  1  1  0     0  0
 17  5  1  0     0  0
 18  6  1  0     0  0
 19 17  1  0     0  0
 20  3  2  0     0  0
 21  4  2  0     0  0
 22  8  1  0     0  0
 23 10  2  0     0  0
 24 16  2  0     0  0
 25  5  1  0     0  0
 26 19  2  0     0  0
 27 18  1  0     0  0
 28 22  1  0     0  0
 29  6  1  0     0  0
 30 25  1  0     0  0
 31  9  1  0     0  0
 32 15  1  0     0  0
 33 16  1  0     0  0
 34 18  1  0     0  0
 35 19  1  0     0  0
 36 27  1  0     0  0
 37 27  2  0     0  0
 38 25  1  0     0  0
 39 28  2  0     0  0
 40 28  1  0     0  0
 41 31  2  0     0  0
 42 41  1  0     0  0
 43 37  1  0     0  0
 44 36  2  0     0  0
 45 40  2  0     0  0
 46 39  1  0     0  0
 47 43  2  0     0  0
 48 45  1  0     0  0
  7 15  1  0     0  0
 32 42  2  0     0  0
 48 46  2  0     0  0
 47 44  1  0     0  0
M  END