
  CDK    9/16/09,10:4

 23 25  0  0  0  0  0  0  0  0999 V2000
   10.6509  -15.4082    0.0000 C   0  0  0  0  0  0  0  0  0  0  0  0
   11.3646  -14.9961    0.0000 N   0  0  0  0  0  0  0  0  0  0  0  0
    9.9372  -14.9961    0.0000 N   0  0  0  0  0  0  0  0  0  0  0  0
   10.6509  -16.2323    0.0000 S   0  0  0  0  0  0  0  0  0  0  0  0
    9.2235  -15.4082    0.0000 C   0  0  0  0  0  0  0  0  0  0  0  0
    8.5104  -14.9930    0.0000 C   0  0  0  0  0  0  0  0  0  0  0  0
    7.7972  -15.4044    0.0000 C   0  0  0  0  0  0  0  0  0  0  0  0
    7.7967  -16.2294    0.0000 C   0  0  0  0  0  0  0  0  0  0  0  0
    8.5154  -16.6412    0.0000 C   0  0  0  0  0  0  0  0  0  0  0  0
    9.2257  -16.2275    0.0000 C   0  0  0  0  0  0  0  0  0  0  0  0
   12.0782  -15.4082    0.0000 C   0  0  0  0  0  0  0  0  0  0  0  0
   12.0757  -16.2334    0.0000 C   0  0  0  0  0  0  0  0  0  0  0  0
   12.7885  -16.6453    0.0000 C   0  0  0  0  0  0  0  0  0  0  0  0
   12.7871  -14.9966    0.0000 C   0  0  0  0  0  0  0  0  0  0  0  0
   13.5006  -15.4049    0.0000 C   0  0  0  0  0  0  0  0  0  0  0  0
   13.5043  -16.2318    0.0000 C   0  0  0  0  0  0  0  0  0  0  0  0
   14.2918  -16.4838    0.0000 C   0  0  0  0  0  0  0  0  0  0  0  0
   14.7749  -15.8126    0.0000 O   0  0  0  0  0  0  0  0  0  0  0  0
   14.2859  -15.1460    0.0000 C   0  0  0  0  0  0  0  0  0  0  0  0
   14.5370  -14.3610    0.0000 O   0  0  0  0  0  0  0  0  0  0  0  0
    8.5120  -14.1689    0.0000 Cl  0  0  0  0  0  0  0  0  0  0  0  0
    7.0836  -16.6423    0.0000 Cl  0  0  0  0  0  0  0  0  0  0  0  0
    8.5183  -17.4653    0.0000 Cl  0  0  0  0  0  0  0  0  0  0  0  0
  5  6  2  0  0  0  0 
 11 12  2  0  0  0  0 
  1  2  1  0  0  0  0 
 12 13  1  0  0  0  0 
 13 16  2  0  0  0  0 
  6  7  1  0  0  0  0 
 15 14  2  0  0  0  0 
 14 11  1  0  0  0  0 
 15 16  1  0  0  0  0 
  1  4  2  0  0  0  0 
  7  8  2  0  0  0  0 
  8  9  1  0  0  0  0 
  3  5  1  0  0  0  0 
 16 17  1  0  0  0  0 
 17 18  1  0  0  0  0 
 18 19  1  0  0  0  0 
 19 15  1  0  0  0  0 
  9 10  2  0  0  0  0 
 19 20  2  0  0  0  0 
 10  5  1  0  0  0  0 
  6 21  1  0  0  0  0 
  1  3  1  0  0  0  0 
  8 22  1  0  0  0  0 
  2 11  1  0  0  0  0 
  9 23  1  0  0  0  0 
M  END