
          11280715112D 1   1.00000     0.00000     0

 19 20  0     0  0            999 V2000
    2.6167   -2.3042    0.0000 C   0  0  0  0  0  0           0  0  0
    3.1042   -1.6417    0.0000 N   0  0  0  0  0  0           0  0  0
    0.1417   -3.7292    0.0000 C   0  0  3  0  0  0           0  0  0
    3.1042   -2.9792    0.0000 N   0  0  0  0  0  0           0  0  0
    3.8875   -1.8917    0.0000 C   0  0  0  0  0  0           0  0  0
    0.5542   -3.0167    0.0000 C   0  0  0  0  0  0           0  0  0
    1.7917   -2.3042    0.0000 C   0  0  0  0  0  0           0  0  0
    3.8875   -2.7167    0.0000 C   0  0  0  0  0  0           0  0  0
    1.3792   -3.0167    0.0000 C   0  0  0  0  0  0           0  0  0
   -0.2458   -4.3792    0.0000 F   0  0  0  0  0  0           0  0  0
   -0.7125   -3.8542    0.0000 F   0  0  0  0  0  0           0  0  0
    0.4375   -4.5417    0.0000 F   0  0  0  0  0  0           0  0  0
    4.5542   -1.4125    0.0000 C   0  0  0  0  0  0           0  0  0
    5.9792   -1.2625    0.0000 N   0  0  0  0  0  0           0  0  0
    0.1500   -2.3125    0.0000 C   0  0  0  0  0  0           0  0  0
    1.3792   -1.5917    0.0000 C   0  0  0  0  0  0           0  0  0
    0.5542   -1.6000    0.0000 C   0  0  0  0  0  0           0  0  0
    5.3042   -1.7500    0.0000 C   0  0  0  0  0  0           0  0  0
    5.8917   -0.4417    0.0000 C   0  0  0  0  0  0           0  0  0
  2  1  2  0     0  0
  3  6  1  0     0  0
  4  1  1  0     0  0
  5  2  1  0     0  0
  6  9  2  0     0  0
  7  1  1  0     0  0
  8  4  1  0     0  0
  9  7  1  0     0  0
 10  3  1  0     0  0
 11  3  1  0     0  0
 12  3  1  0     0  0
 13  5  1  0     0  0
 14 18  1  0     0  0
 15 17  2  0     0  0
 16  7  2  0     0  0
 17 16  1  0     0  0
 18 13  1  0     0  0
 19 14  1  0     0  0
  5  8  2  0     0  0
 15  6  1  0     0  0
M  END