
  SciTegic12191611222D

 30 32  0  0  0  0            999 V2000
   -1.0394    3.6005    0.0000 O   0  0
    0.0000    3.0008    0.0000 S   0  0
   -1.0391    2.4007    0.0000 O   0  0
    3.1544   -7.4094    0.0000 C   0  0
    2.9122   -6.2341    0.0000 C   0  0
    4.0312   -5.2378    0.0000 C   0  0
    3.8933   -3.7570    0.0000 C   0  0
    5.2447   -3.1359    0.0000 N   0  0
    6.2484   -4.2507    0.0000 C   0  0
    5.4984   -5.5497    0.0000 C   0  0
    6.1050   -6.9197    0.0000 C   0  0
    5.3982   -7.8895    0.0000 O   0  0
    7.2982   -7.0472    0.0000 C   0  0
    7.4419   -4.1252    0.0000 C   0  0
    2.5951   -3.0039    0.0000 C   0  0
    2.5973   -1.5031    0.0000 N   0  0
    1.2990   -0.7500    0.0000 C   0  0
    1.2990    0.7500    0.0000 C   0  0
    0.0000    1.5000    0.0000 C   0  0
   -1.2990    0.7500    0.0000 C   0  0
   -1.2990   -0.7500    0.0000 C   0  0
    0.0000   -1.5000    0.0000 C   0  0
   -2.3383    1.3500    0.0000 F   0  0
    1.2993    3.7521    0.0000 N   0  0
    1.5548   -3.6021    0.0000 O   0  0
    2.5988    3.0029    0.0000 C   0  0
    3.8973    3.7537    0.0000 C   0  0
    3.8964    5.2537    0.0000 O   0  0
    2.5969    6.0029    0.0000 C   0  0
    1.2983    5.2521    0.0000 C   0  0
  2  1  2  0
  3  2  2  0
  4  5  1  0
  5  6  1  0
  6  7  2  0
  8  7  1  0
  9  8  1  0
 10  9  2  0
  6 10  1  0
 10 11  1  0
 11 12  2  0
 11 13  1  0
  9 14  1  0
  7 15  1  0
 15 16  1  0
 16 17  1  0
 17 18  2  0
 19 18  1  0
 20 19  2  0
 21 20  1  0
 22 21  2  0
 17 22  1  0
 20 23  1  0
 19  2  1  0
  2 24  1  0
 15 25  2  0
 24 26  1  0
 24 30  1  0
 26 27  1  0
 27 28  1  0
 28 29  1  0
 29 30  1  0
M  END