
          11280715362D 1   1.00000     0.00000     0

 39 42  0     1  0            999 V2000
    4.4917   -5.5125    0.0000 C   0  0  0  0  0  0           0  0  0
    4.4917   -4.3375    0.0000 C   0  0  1  0  0  0           0  0  0
    5.0042   -4.6375    0.0000 C   0  0  2  0  0  0           0  0  0
    3.9917   -4.6292    0.0000 C   0  0  0  0  0  0           0  0  0
    5.5167   -4.3500    0.0000 N   0  0  3  0  0  0           0  0  0
    3.9917   -5.2167    0.0000 C   0  0  0  0  0  0           0  0  0
    5.0042   -5.2250    0.0000 C   0  0  0  0  0  0           0  0  0
    4.5042   -3.7500    0.0000 C   0  0  0  0  0  0           0  0  0
    4.4917   -6.1000    0.0000 C   0  0  0  0  0  0           0  0  0
    3.4792   -6.0875    0.0000 N   0  0  0  0  0  0           0  0  0
    5.0167   -3.4625    0.0000 C   0  0  0  0  0  0           0  0  0
    6.0417   -2.8875    0.0000 C   0  0  0  0  0  0           0  0  0
    5.5292   -3.7625    0.0000 C   0  0  0  0  0  0           0  0  0
    3.4792   -5.5000    0.0000 C   0  0  0  0  0  0           0  0  0
    8.4417   -5.6125    0.0000 C   0  0  0  0  0  0           0  0  0
    7.2292   -5.6042    0.0000 C   0  0  0  0  0  0           0  0  0
    8.1292   -5.0917    0.0000 C   0  0  0  0  0  0           0  0  0
    7.5292   -5.0917    0.0000 C   0  0  0  0  0  0           0  0  0
    5.5417   -2.5792    0.0000 O   0  0  0  0  0  0           0  0  0
    6.5542   -2.6000    0.0000 C   0  0  3  0  0  0           0  0  0
    6.0417   -3.4750    0.0000 O   0  0  0  0  0  0           0  0  0
    7.5292   -6.1292    0.0000 O   0  0  0  0  0  0           0  0  0
    9.0417   -5.6125    0.0000 O   0  0  0  0  0  0           0  0  0
    5.0167   -2.8667    0.0000 C   0  0  0  0  0  0           0  0  0
    7.0667   -2.9042    0.0000 C   0  0  0  0  0  0           0  0  0
    6.5667   -2.0125    0.0000 C   0  0  0  0  0  0           0  0  0
    3.4792   -4.3375    0.0000 C   0  0  0  0  0  0           0  0  0
    6.0292   -4.6500    0.0000 C   0  0  0  0  0  0           0  0  0
    8.1292   -6.1292    0.0000 O   0  0  0  0  0  0           0  0  0
    6.6292   -5.6042    0.0000 O   0  0  0  0  0  0           0  0  0
    7.0792   -1.7250    0.0000 C   0  0  0  0  0  0           0  0  0
    7.5792   -2.6250    0.0000 C   0  0  0  0  0  0           0  0  0
    7.5917   -2.0292    0.0000 C   0  0  3  0  0  0           0  0  0
    8.3417   -1.6000    0.0000 O   0  0  0  0  0  0           0  0  0
    2.9792   -4.6292    0.0000 C   0  0  0  0  0  0           0  0  0
    2.9792   -5.2167    0.0000 C   0  0  0  0  0  0           0  0  0
    8.9667   -1.8125    0.0000 C   0  0  0  0  0  0           0  0  0
    3.7417   -3.7875    0.0000 H   0  0  0  0  0  0           0  0  0
    5.5167   -4.9292    0.0000 H   0  0  0  0  0  0           0  0  0
  2  3  1  0     0  0
  3  7  1  0     0  0
  4  6  2  0     0  0
  5  3  1  0     0  0
  6  1  1  0     0  0
  7  1  1  0     0  0
  8  2  1  0     0  0
  9  1  2  0     0  0
 10  9  1  0     0  0
 11 13  1  0     0  0
 12 19  1  0     0  0
 13  5  1  0     0  0
 14  6  1  0     0  0
 16 18  1  0     0  0
 17 15  1  0     0  0
 18 17  2  0     0  0
 19 24  1  0     0  0
 20 12  1  0     0  0
 21 12  2  0     0  0
 22 16  2  0     0  0
 23 15  2  0     0  0
 24 11  1  0     0  0
 25 20  1  0     0  0
 26 20  1  0     0  0
 27  4  1  0     0  0
 28  5  1  0     0  0
 29 15  1  0     0  0
 30 16  1  0     0  0
 31 26  1  0     0  0
 32 25  1  0     0  0
 33 31  1  0     0  0
 33 34  1  0     0  0
 35 27  2  0     0  0
 36 14  2  0     0  0
 37 34  1  0     0  0
  2 38  1  6     0  0
  3 39  1  1     0  0
  2  4  1  0     0  0
 10 14  1  0     0  0
 36 35  1  0     0  0
  8 11  2  0     0  0
 33 32  1  0     0  0
M  END