
          11280715292D 1   1.00000     0.00000     0

 15 16  0     0  0            999 V2000
    4.3167   -2.5292    0.0000 N   0  0  3  0  0  0           0  0  0
    4.8000   -3.2000    0.0000 C   0  0  0  0  0  0           0  0  0
    3.5250   -2.7875    0.0000 C   0  0  0  0  0  0           0  0  0
    4.3125   -3.8750    0.0000 C   0  0  0  0  0  0           0  0  0
    3.5167   -3.6167    0.0000 C   0  0  0  0  0  0           0  0  0
    4.5667   -1.7417    0.0000 C   0  0  0  0  0  0           0  0  0
    2.8042   -2.3750    0.0000 C   0  0  0  0  0  0           0  0  0
    5.3792   -1.5792    0.0000 C   0  0  0  0  0  0           0  0  0
    2.0917   -3.6167    0.0000 C   0  0  0  0  0  0           0  0  0
    2.8042   -4.0292    0.0000 C   0  0  0  0  0  0           0  0  0
    2.0917   -2.7875    0.0000 C   0  0  0  0  0  0           0  0  0
    2.8042   -1.5500    0.0000 C   0  0  0  0  0  0           0  0  0
    5.5917   -0.7792    0.0000 C   0  0  3  0  0  0           0  0  0
    6.3875   -0.5542    0.0000 C   0  0  0  0  0  0           0  0  0
    5.0042   -0.1917    0.0000 C   0  0  0  0  0  0           0  0  0
  2  1  1  0     0  0
  3  1  1  0     0  0
  4  2  2  0     0  0
  5  3  1  0     0  0
  6  1  1  0     0  0
  7  3  2  0     0  0
  8  6  1  0     0  0
  9 11  2  0     0  0
 10  5  2  0     0  0
 11  7  1  0     0  0
 12  7  1  0     0  0
 13  8  1  0     0  0
 14 13  1  0     0  0
 15 13  1  0     0  0
  5  4  1  0     0  0
 10  9  1  0     0  0
M  END