
          11280715402D 1   1.00000     0.00000     0

 30 33  0     0  0            999 V2000
   -0.1083   -3.4792    0.0000 C   0  0  0  0  0  0           0  0  0
    0.6750   -3.7417    0.0000 N   0  0  0  0  0  0           0  0  0
    1.1667   -3.0792    0.0000 C   0  0  0  0  0  0           0  0  0
    0.6917   -2.4042    0.0000 N   0  0  0  0  0  0           0  0  0
   -0.0958   -2.6542    0.0000 C   0  0  0  0  0  0           0  0  0
   -0.7833   -3.9542    0.0000 C   0  0  0  0  0  0           0  0  0
   -1.5625   -3.6792    0.0000 S   0  0  0  0  0  0           0  0  0
    1.9917   -3.1000    0.0000 C   0  0  0  0  0  0           0  0  0
   -0.7958   -4.7750    0.0000 C   0  0  0  0  0  0           0  0  0
   -2.0583   -4.3417    0.0000 C   0  0  0  0  0  0           0  0  0
   -1.5833   -5.0167    0.0000 C   0  0  0  0  0  0           0  0  0
    2.4167   -2.3917    0.0000 C   0  0  0  0  0  0           0  0  0
    2.3917   -3.8167    0.0000 C   0  0  0  0  0  0           0  0  0
    4.4667   -3.1375    0.0000 O   0  0  0  0  0  0           0  0  0
    3.6417   -3.1250    0.0000 C   0  0  0  0  0  0           0  0  0
    5.6917   -3.8667    0.0000 C   0  0  3  0  0  0           0  0  0
    4.8667   -3.8542    0.0000 C   0  0  0  0  0  0           0  0  0
    3.2417   -2.4042    0.0000 C   0  0  0  0  0  0           0  0  0
    3.2167   -3.8292    0.0000 C   0  0  0  0  0  0           0  0  0
    6.9417   -3.1750    0.0000 N   0  0  0  0  0  0           0  0  0
    6.1000   -4.5917    0.0000 O   0  0  0  0  0  0           0  0  0
    8.6167   -1.7667    0.0000 C   0  0  0  0  0  0           0  0  0
    6.1167   -3.1625    0.0000 C   0  0  0  0  0  0           0  0  0
    7.3667   -2.4667    0.0000 C   0  0  0  0  0  0           0  0  0
    8.1917   -2.4792    0.0000 C   0  0  0  0  0  0           0  0  0
    9.4417   -1.7792    0.0000 C   0  0  0  0  0  0           0  0  0
    8.2125   -1.0542    0.0000 C   0  0  0  0  0  0           0  0  0
    8.6292   -0.3417    0.0000 C   0  0  0  0  0  0           0  0  0
    9.8625   -1.0792    0.0000 C   0  0  0  0  0  0           0  0  0
    9.4625   -0.3542    0.0000 C   0  0  0  0  0  0           0  0  0
  2  1  1  0     0  0
  3  2  2  0     0  0
  4  5  1  0     0  0
  5  1  2  0     0  0
  6  1  1  0     0  0
  7  6  1  0     0  0
  8  3  1  0     0  0
  9  6  2  0     0  0
 10  7  1  0     0  0
 11  9  1  0     0  0
 12  8  2  0     0  0
 13  8  1  0     0  0
 14 15  1  0     0  0
 15 19  1  0     0  0
 16 17  1  0     0  0
 17 14  1  0     0  0
 18 12  1  0     0  0
 19 13  2  0     0  0
 20 23  1  0     0  0
 21 16  1  0     0  0
 22 25  1  0     0  0
 23 16  1  0     0  0
 24 20  1  0     0  0
 25 24  1  0     0  0
 26 22  2  0     0  0
 27 22  1  0     0  0
 28 27  2  0     0  0
 29 26  1  0     0  0
 30 28  1  0     0  0
  4  3  1  0     0  0
 11 10  2  0     0  0
 18 15  2  0     0  0
 30 29  2  0     0  0
M  END