
  CDK    9/16/09,10:4

 34 37  0  0  0  0  0  0  0  0999 V2000
    7.6073   -9.1941    0.0000 C   0  0  0  0  0  0  0  0  0  0  0  0
    8.4374   -9.1735    0.0000 C   0  0  0  0  0  0  0  0  0  0  0  0
    8.8324   -8.4537    0.0000 C   0  0  0  0  0  0  0  0  0  0  0  0
    8.4065   -7.7405    0.0000 C   0  0  0  0  0  0  0  0  0  0  0  0
    7.5761   -7.7612    0.0000 C   0  0  0  0  0  0  0  0  0  0  0  0
    7.1765   -8.4905    0.0000 N   0  0  0  0  0  0  0  0  0  0  0  0
    7.8092   -8.8116    0.0000 C   0  0  0  0  0  0  0  0  0  0  0  0
    8.1340   -8.1185    0.0000 C   0  0  0  0  0  0  0  0  0  0  0  0
    6.3512   -8.5159    0.0000 C   0  0  0  0  0  0  0  0  0  0  0  0
    9.6579   -8.4427    0.0000 C   0  0  0  0  0  0  0  0  0  0  0  0
   10.4833   -8.4272    0.0000 C   0  0  0  0  0  0  0  0  0  0  0  0
    9.6446   -7.6172    0.0000 C   0  0  0  0  0  0  0  0  0  0  0  0
   10.3530   -7.1961    0.0000 C   0  0  0  0  0  0  0  0  0  0  0  0
   10.3446   -6.3716    0.0000 C   0  0  0  0  0  0  0  0  0  0  0  0
    9.6233   -5.9695    0.0000 C   0  0  0  0  0  0  0  0  0  0  0  0
    8.9132   -6.3985    0.0000 C   0  0  0  0  0  0  0  0  0  0  0  0
    8.9253   -7.2214    0.0000 C   0  0  0  0  0  0  0  0  0  0  0  0
   10.9074   -9.1361    0.0000 C   0  0  0  0  0  0  0  0  0  0  0  0
   11.7319   -9.1211    0.0000 C   0  0  0  0  0  0  0  0  0  0  0  0
   12.1321   -8.4031    0.0000 C   0  0  0  0  0  0  0  0  0  0  0  0
   11.7012   -7.6896    0.0000 C   0  0  0  0  0  0  0  0  0  0  0  0
   10.8781   -7.7086    0.0000 C   0  0  0  0  0  0  0  0  0  0  0  0
    5.9129   -7.8169    0.0000 C   0  0  0  0  0  0  0  0  0  0  0  0
    5.0924   -7.8424    0.0000 O   0  0  0  0  0  0  0  0  0  0  0  0
    4.6539   -7.1434    0.0000 C   0  0  0  0  0  0  0  0  0  0  0  0
    3.8291   -7.1732    0.0000 C   0  0  0  0  0  0  0  0  0  0  0  0
    3.3992   -6.4684    0.0000 C   0  0  0  0  0  0  0  0  0  0  0  0
    2.5750   -6.4979    0.0000 C   0  0  0  0  0  0  0  0  0  0  0  0
    2.1875   -7.2272    0.0000 C   0  0  0  0  0  0  0  0  0  0  0  0
    2.6262   -7.9286    0.0000 C   0  0  0  0  0  0  0  0  0  0  0  0
    3.4487   -7.8953    0.0000 C   0  0  0  0  0  0  0  0  0  0  0  0
    9.6521   -9.2654    0.0000 C   0  0  0  0  0  0  0  0  0  0  0  0
    9.6465  -10.0832    0.0000 N   0  0  0  0  0  0  0  0  0  0  0  0
    7.2037   -4.8705    0.0000 Br  0  0  0  0  0  0  0  0  0  0  0  0
 16 17  2  0  0  0  0 
 17 12  1  0  0  0  0 
  7  8  1  0  0  0  0 
 11 18  2  0  0  0  0 
  3  8  1  0  0  0  0 
 18 19  1  0  0  0  0 
  1  2  1  0  0  0  0 
 19 20  2  0  0  0  0 
  6  9  1  0  0  0  0 
 20 21  1  0  0  0  0 
  1  6  1  0  0  0  0 
 21 22  2  0  0  0  0 
 22 11  1  0  0  0  0 
  3 10  1  0  0  0  0 
  9 23  1  0  0  0  0 
  2  3  1  0  0  0  0 
 23 24  1  0  0  0  0 
 10 11  1  0  0  0  0 
 24 25  1  0  0  0  0 
  3  4  1  0  0  0  0 
 25 26  1  0  0  0  0 
 10 12  1  0  0  0  0 
 26 27  2  0  0  0  0 
  4  5  1  0  0  0  0 
 27 28  1  0  0  0  0 
 12 13  2  0  0  0  0 
 28 29  2  0  0  0  0 
  5  6  1  0  0  0  0 
 29 30  1  0  0  0  0 
 13 14  1  0  0  0  0 
 30 31  2  0  0  0  0 
 31 26  1  0  0  0  0 
 14 15  2  0  0  0  0 
  6  7  1  0  0  0  0 
 10 32  1  0  0  0  0 
 15 16  1  0  0  0  0 
 32 33  3  0  0  0  0 
M  CHG  1   6   1
M  CHG  1  34  -1
M  END