
  SciTegic01161211252D

 33 36  0  0  0  0            999 V2000
   -0.2122  -24.9086    0.0000 O   0  0
   -0.9464  -25.2846    0.0000 S   0  0
   -0.2515  -25.7331    0.0000 O   0  0
   -0.1938  -23.2570    0.0000 C   0  0
    0.4664  -22.7593    0.0000 C   0  0
    0.2015  -21.9780    0.0000 C   0  0  1  0  0  0
   -0.6260  -21.9913    0.0000 N   0  0
   -0.8679  -22.7805    0.0000 N   0  0
   -1.0534  -21.2832    0.0000 C   0  0
   -0.6505  -20.5642    0.0000 C   0  0
   -1.0777  -19.8574    0.0000 C   0  0
   -1.9036  -19.8724    0.0000 C   0  0
   -2.3004  -20.6001    0.0000 C   0  0
   -1.8750  -21.3040    0.0000 C   0  0
    0.6385  -21.2812    0.0000 C   0  0
    1.4641  -21.3155    0.0000 C   0  0
    1.9034  -20.6162    0.0000 C   0  0
    1.5140  -19.8860    0.0000 C   0  0
    0.6849  -19.8597    0.0000 C   0  0
    0.2536  -20.5598    0.0000 C   0  0
   -0.1811  -24.0821    0.0000 C   0  0
   -0.9137  -24.4614    0.0000 N   0  0
   -1.6754  -25.6731    0.0000 N   0  0
   -2.3283  -19.1657    0.0000 Cl  0  0
   -2.3699  -25.2319    0.0000 C   0  0
   -3.0968  -25.6170    0.0000 C   0  0
   -3.1305  -26.4412    0.0000 C   0  0
   -2.4312  -26.8789    0.0000 C   0  0
   -1.6984  -26.4965    0.0000 C   0  0
   -3.8239  -25.9865    0.0000 F   0  0
   -3.3915  -27.2221    0.0000 F   0  0
    0.5235  -24.5034    0.0000 N   0  0
    1.2407  -24.1038    0.0000 C   0  0
 16 17  1  0
  3  2  2  0
 17 18  2  0
  9 10  2  0
 18 19  1  0
  4  5  1  0
 19 20  2  0
 20 15  1  0
  6 15  1  1
 10 11  1  0
  4 21  1  0
 21 22  2  0
 22  2  1  0
 11 12  2  0
  2 23  1  0
  5  6  1  0
 12 24  1  0
 23 25  1  0
 12 13  1  0
  6  7  1  0
 13 14  2  0
 14  9  1  0
  7  9  1  0
 23 29  1  0
 25 26  1  0
 26 27  1  0
 27 28  1  0
 28 29  1  0
  7  8  1  0
 27 30  1  0
  8  4  2  0
 27 31  1  0
 15 16  2  0
 21 32  1  0
  2  1  2  0
 32 33  1  0
M  END