
  SciTegic12171313052D

 45 49  0  0  0  0            999 V2000
    8.5033  -12.5090    0.0000 C   0  0
    8.9473  -13.1951    0.0000 C   0  0
    9.3194  -12.4675    0.0000 C   0  0
    1.2831  -11.9223    0.0000 C   0  0
    0.9398  -11.1830    0.0000 C   0  0
    1.4088  -10.5120    0.0000 C   0  0
    2.2248  -10.5847    0.0000 C   0  0
    2.5719  -11.3285    0.0000 C   0  0
    2.0991  -11.9951    0.0000 C   0  0
    3.3879  -11.4012    0.0000 O   0  0
    3.8569  -10.7301    0.0000 C   0  0
    4.6729  -10.8029    0.0000 C   0  0
    5.1460  -10.1322    0.0000 N   0  0
    5.0199  -11.5467    0.0000 O   0  0
    5.9656  -10.1318    0.0000 C   0  0  2  0  0  0
    6.3731  -10.8419    0.0000 C   0  0  1  0  0  0
    7.1924  -10.8419    0.0000 C   0  0
    5.9656  -11.5519    0.0000 O   0  0
    7.5666  -11.5723    0.0000 N   0  0
    6.3731   -9.4218    0.0000 C   0  0
    5.9656   -8.7117    0.0000 C   0  0
    5.1463   -8.7117    0.0000 C   0  0
    4.7346   -8.0017    0.0000 C   0  0
    5.1463   -7.2916    0.0000 C   0  0
    5.9656   -7.2916    0.0000 C   0  0
    6.3731   -8.0017    0.0000 C   0  0
    7.6041  -10.1318    0.0000 O   0  0
    7.1924  -12.2986    0.0000 C   0  0
    7.7729  -12.8791    0.0000 S   0  0
    8.3758  -11.6998    0.0000 C   0  0
    8.9522  -11.1193    0.0000 C   0  0
    9.7315  -11.3712    0.0000 N   0  0
    8.7827  -10.3179    0.0000 O   0  0
   10.3414  -10.8258    0.0000 C   0  0  2  0  0  0
   11.0050   -9.6753    0.0000 C   0  0
   10.2562  -10.0110    0.0000 C   0  0  1  0  0  0
   11.5546  -10.2852    0.0000 C   0  0
   11.1429  -10.9952    0.0000 C   0  0
   11.5546  -11.7053    0.0000 C   0  0
   12.3738  -11.7053    0.0000 C   0  0
   12.7814  -10.9952    0.0000 C   0  0
   12.3738  -10.2852    0.0000 C   0  0
    9.5462   -9.5993    0.0000 O   0  0
    2.6940   -9.9156    0.0000 C   0  0
    2.4417  -12.7370    0.0000 C   0  0
  2  1  1  0
  1  3  1  0
  4  5  2  0
  5  6  1  0
  6  7  2  0
  7  8  1  0
  8  9  2  0
  9  4  1  0
  8 10  1  0
 10 11  1  0
 11 12  1  0
 12 13  1  0
 12 14  2  0
 13 15  1  0
 15 16  1  0
 16 17  1  0
 16 18  1  1
 17 19  1  0
 15 20  1  1
 20 21  1  0
 21 22  2  0
 22 23  1  0
 23 24  2  0
 24 25  1  0
 25 26  2  0
 26 21  1  0
 17 27  2  0
 19 28  1  0
 28 29  1  0
 29  1  1  0
  1 30  1  0
 30 19  1  0
 30 31  1  0
 31 32  1  0
 31 33  2  0
 34 32  1  6
 34 38  1  0
 37 35  1  0
 35 36  1  0
 36 34  1  0
 37 38  2  0
 38 39  1  0
 39 40  2  0
 40 41  1  0
 41 42  2  0
 42 37  1  0
 36 43  1  6
  7 44  1  0
  9 45  1  0
M  END