
  SciTegic12231509382D

 23 24  0  0  0  0            999 V2000
    5.1894   -6.0109    0.0000 N   0  0
    2.5973   -1.5031    0.0000 O   0  0
    3.8933   -3.7570    0.0000 C   0  0
    1.2990   -0.7500    0.0000 C   0  0
    3.8912   -5.2578    0.0000 C   0  0
    2.5951   -3.0039    0.0000 C   0  0
   -1.2990    0.7500    0.0000 C   0  0
    1.2990    0.7500    0.0000 C   0  0
    0.0000   -1.5000    0.0000 C   0  0
    0.0000    1.5000    0.0000 C   0  0
   -1.2990   -0.7500    0.0000 C   0  0
    4.9336   -3.1588    0.0000 O   0  0
   -5.2003    1.4932    0.0000 O   0  0
   -3.8990    0.7455    0.0000 C   0  0
   -6.4990    0.7409    0.0000 C   0  0
    5.1873   -7.5117    0.0000 C   0  0
   -2.6003    1.4977    0.0000 C   0  0
   -7.8525    1.3572    0.0000 C   0  0
   -6.6317   -0.7404    0.0000 C   0  0
    6.2253   -8.1139    0.0000 C   0  0
    4.1470   -8.1099    0.0000 C   0  0
   -8.0978   -1.0574    0.0000 C   0  0
   -8.8524    0.2390    0.0000 C   0  0
  2  4  1  0
  1  5  1  0
  3  5  1  0
  2  6  1  0
  3  6  1  0
  4  8  1  0
  4  9  2  0
  7 10  1  0
  8 10  2  0
  7 11  2  0
  9 11  1  0
  3 12  1  0
 13 14  1  0
 13 15  1  0
  1 16  1  0
  7 17  1  0
 14 17  1  0
 15 18  1  0
 15 19  1  0
 16 20  1  0
 16 21  1  0
 19 22  1  0
 18 23  1  0
 22 23  1  0
M  END