
  SciTegic09261414462D

 17 19  0  0  0  0            999 V2000
    1.8758  -13.3277    0.0000 N   0  0
    1.8608  -14.1460    0.0000 C   0  0
    1.1453  -14.5433    0.0000 N   0  0
    1.1324  -15.3580    0.0000 C   0  0
    1.8329  -15.7789    0.0000 C   0  0
    2.5462  -15.3851    0.0000 C   0  0
    2.5612  -14.5669    0.0000 N   0  0
    3.2467  -15.8060    0.0000 N   0  0
    3.3152  -16.6162    0.0000 C   0  0
    4.1140  -16.8039    0.0000 C   0  0  1  0  0  0
    4.5349  -16.1034    0.0000 C   0  0
    3.9963  -15.4827    0.0000 C   0  0
    4.4317  -17.5549    0.0000 N   0  0
    5.2444  -17.6532    0.0000 C   0  0
    0.4180  -15.7548    0.0000 C   0  0
   -0.4066  -15.7424    0.0000 C   0  0
   -0.0110  -16.4568    0.0000 C   0  0
  2  3  1  0
  3  4  2  0
  4  5  1  0
  5  6  2  0
  6  7  1  0
  2  7  2  0
  1  2  1  0
  8  9  1  0
  9 10  1  0
 10 11  1  0
 11 12  1  0
  8 12  1  0
 13 14  1  0
 10 13  1  1
  6  8  1  0
  4 15  1  0
 16 15  1  0
 17 16  1  0
 15 17  1  0
M  END