
  SciTegic12231509382D

  9  9  0  0  0  0            999 V2000
   -0.7145   -1.6500    0.0000 N   0  0
    0.7145   -1.6500    0.0000 N   0  0
    0.0000   -2.8875    0.0000 C   0  0
    0.0000   -2.0625    0.0000 C   0  0
    0.7145   -3.3000    0.0000 C   0  0
   -0.7145   -3.3000    0.0000 C   0  0
    0.7145   -4.1250    0.0000 C   0  0
   -0.7145   -4.1250    0.0000 C   0  0
    0.0000   -4.5375    0.0000 C   0  0
  1  4  2  0
  4  2  1  0
  3  4  1  0
  3  5  2  0
  3  6  1  0
  5  7  1  0
  6  8  2  0
  7  9  2  0
  8  9  1  0
M  END