
          11280715342D 1   1.00000     0.00000     0

 29 30  0     0  0            999 V2000
    0.1875   -0.7792    0.0000 S   0  0  3  0  0  0           0  0  0
    3.4792   -0.7667    0.0000 C   0  0  0  0  0  0           0  0  0
    6.4125   -2.8667    0.0000 C   0  0  3  0  0  0           0  0  0
    7.2375   -2.8292    0.0000 C   0  0  0  0  0  0           0  0  0
    5.9625   -2.1792    0.0000 N   0  0  0  0  0  0           0  0  0
    1.0125   -0.7792    0.0000 C   0  0  0  0  0  0           0  0  0
    5.1375   -2.1792    0.0000 C   0  0  0  0  0  0           0  0  0
    3.8917   -1.4792    0.0000 N   0  0  0  0  0  0           0  0  0
    0.1792   -1.6042    0.0000 O   0  0  0  0  0  0           0  0  0
    0.1875    0.0458    0.0000 O   0  0  0  0  0  0           0  0  0
    2.6542   -0.7667    0.0000 C   0  0  0  0  0  0           0  0  0
   -0.6375   -0.7750    0.0000 N   0  0  0  0  0  0           0  0  0
    6.0375   -3.6042    0.0000 C   0  0  0  0  0  0           0  0  0
    3.8875   -0.0500    0.0000 O   0  0  0  0  0  0           0  0  0
    7.6125   -2.0917    0.0000 O   0  0  0  0  0  0           0  0  0
    4.7292   -2.9000    0.0000 O   0  0  0  0  0  0           0  0  0
    1.4125   -0.0667    0.0000 C   0  0  0  0  0  0           0  0  0
    1.4250   -1.4917    0.0000 C   0  0  0  0  0  0           0  0  0
    2.2417   -1.4875    0.0000 C   0  0  0  0  0  0           0  0  0
    2.2292   -0.0542    0.0000 C   0  0  0  0  0  0           0  0  0
    4.7167   -1.4667    0.0000 C   0  0  0  0  0  0           0  0  0
    6.4792   -4.3000    0.0000 C   0  0  0  0  0  0           0  0  0
    7.6792   -3.5250    0.0000 O   0  0  0  0  0  0           0  0  0
    7.3792   -5.6792    0.0000 C   0  0  0  0  0  0           0  0  0
    7.8250   -6.3667    0.0000 N   0  0  0  0  0  0           0  0  0
    6.1042   -5.0250    0.0000 C   0  0  0  0  0  0           0  0  0
    7.3042   -4.2542    0.0000 C   0  0  0  0  0  0           0  0  0
    7.7542   -4.9417    0.0000 C   0  0  0  0  0  0           0  0  0
    6.5500   -5.7167    0.0000 C   0  0  0  0  0  0           0  0  0
  2 11  1  0     0  0
  3  5  1  0     0  0
  4  3  1  0     0  0
  5  7  1  0     0  0
  6  1  1  0     0  0
  7 21  1  0     0  0
  8  2  1  0     0  0
  9  1  2  0     0  0
 10  1  2  0     0  0
 11 19  2  0     0  0
 12  1  1  0     0  0
 13  3  1  0     0  0
 14  2  2  0     0  0
 15  4  2  0     0  0
 16  7  2  0     0  0
 17  6  1  0     0  0
 18  6  2  0     0  0
 19 18  1  0     0  0
 20 17  2  0     0  0
 21  8  1  0     0  0
 22 13  1  0     0  0
 23  4  1  0     0  0
 24 28  2  0     0  0
 25 24  1  0     0  0
 26 22  1  0     0  0
 27 22  2  0     0  0
 28 27  1  0     0  0
 29 26  2  0     0  0
 11 20  1  0     0  0
 24 29  1  0     0  0
M  END