
  SciTegic12171313022D

 32 35  0  0  0  0            999 V2000
   31.3518   -3.6099    0.0000 C   0  0
   31.3507   -4.4372    0.0000 C   0  0
   32.0655   -4.8501    0.0000 C   0  0
   32.7819   -4.4368    0.0000 C   0  0
   32.7791   -3.6062    0.0000 C   0  0
   32.0637   -3.1971    0.0000 C   0  0
   30.6359   -4.8492    0.0000 N   0  0
   30.6352   -5.6742    0.0000 C   0  0
   29.9204   -6.0861    0.0000 N   0  0
   31.3494   -6.0872    0.0000 O   0  0
   29.9198   -6.9111    0.0000 C   0  0
   29.2564   -7.3939    0.0000 N   0  0
   29.5107   -8.1788    0.0000 N   0  0
   30.3357   -8.1794    0.0000 C   0  0
   30.5912   -7.3950    0.0000 C   0  0
   30.8202   -8.8472    0.0000 C   0  0
   30.4841   -9.6006    0.0000 C   0  0
   31.6407   -8.7616    0.0000 C   0  0
   31.2283   -9.5557    0.0000 C   0  0
   28.4605   -7.1767    0.0000 C   0  0
   28.2557   -6.3806    0.0000 C   0  0
   27.4606   -6.1634    0.0000 C   0  0
   26.8737   -6.7445    0.0000 C   0  0
   27.0873   -7.5457    0.0000 C   0  0
   27.8820   -7.7592    0.0000 C   0  0
   26.0775   -6.5284    0.0000 C   0  0
   33.4629   -3.1445    0.0000 N   0  0
   34.2377   -3.4238    0.0000 C   0  0
   34.7453   -2.7735    0.0000 N   0  0
   34.2836   -2.0897    0.0000 C   0  0
   33.4907   -2.3176    0.0000 C   0  0
   34.5653   -1.3143    0.0000 C   0  0
  1  2  2  0
  2  3  1  0
  3  4  2  0
  4  5  1  0
  5  6  2  0
  6  1  1  0
  2  7  1  0
  7  8  1  0
  8  9  1  0
  8 10  2  0
  9 11  1  0
 11 12  1  0
 12 13  1  0
 13 14  2  0
 14 15  1  0
 15 11  2  0
 14 16  1  0
 16 17  1  0
 16 18  1  0
 16 19  1  0
 12 20  1  0
 20 21  2  0
 21 22  1  0
 22 23  2  0
 23 24  1  0
 24 25  2  0
 25 20  1  0
 23 26  1  0
  5 27  1  0
 27 28  1  0
 28 29  2  0
 29 30  1  0
 30 31  2  0
 31 27  1  0
 30 32  1  0
M  END