
          03140815512D 1   1.00000     0.00000     0

 34 36  0     1  0            999 V2000
   12.7225  -23.7201    0.0000 C   0  0  0  0  0  0           0  0  0
   12.0016  -24.1297    0.0000 C   0  0  0  0  0  0           0  0  0
   11.9967  -24.9562    0.0000 N   0  0  0  0  0  0           0  0  0
   12.7092  -25.3751    0.0000 C   0  0  0  0  0  0           0  0  0
   13.4301  -24.9655    0.0000 C   0  0  0  0  0  0           0  0  0
   13.4386  -24.1369    0.0000 N   0  0  0  0  0  0           0  0  0
   12.7237  -22.8914    0.0000 C   0  0  0  0  0  0           0  0  0
   12.7007  -26.2057    0.0000 O   0  0  0  0  0  0           0  0  0
   14.1425  -25.3886    0.0000 C   0  0  0  0  0  0           0  0  0
   11.2898  -23.7126    0.0000 C   0  0  0  0  0  0           0  0  0
   14.8561  -24.9771    0.0000 C   0  0  0  0  0  0           0  0  0
   15.5736  -25.3917    0.0000 C   0  0  0  0  0  0           0  0  0
   16.2934  -24.9813    0.0000 N   0  0  0  0  0  0           0  0  0
   17.0056  -25.3977    0.0000 C   0  0  0  0  0  0           0  0  0
   17.7227  -24.1624    0.0000 N   0  0  0  0  0  0           0  0  0
   17.7187  -24.9874    0.0000 C   0  0  1  0  0  0           0  0  0
   18.4325  -25.4034    0.0000 C   0  0  0  0  0  0           0  0  0
   19.1462  -24.9945    0.0000 C   0  0  0  0  0  0           0  0  0
   19.1503  -24.1695    0.0000 C   0  0  0  0  0  0           0  0  0
   19.8682  -23.7605    0.0000 C   0  0  0  0  0  0           0  0  0
   20.5820  -24.1765    0.0000 C   0  0  0  0  0  0           0  0  0
   21.2999  -23.7675    0.0000 O   0  0  0  0  0  0           0  0  0
   20.5779  -25.0015    0.0000 C   0  0  0  0  0  0           0  0  0
   19.8600  -25.4105    0.0000 C   0  0  0  0  0  0           0  0  0
   17.0009  -26.2214    0.0000 O   0  0  0  0  0  0           0  0  0
   19.8560  -26.2355    0.0000 C   0  0  0  0  0  0           0  0  0
   18.4406  -23.7535    0.0000 C   0  0  0  0  0  0           0  0  0
   11.2950  -22.8876    0.0000 C   0  0  0  0  0  0           0  0  0
   10.5856  -22.4741    0.0000 C   0  0  0  0  0  0           0  0  0
   10.5940  -21.6551    0.0000 C   0  0  0  0  0  0           0  0  0
    9.8854  -21.2416    0.0000 C   0  0  0  0  0  0           0  0  0
    9.1716  -21.6493    0.0000 C   0  0  0  0  0  0           0  0  0
    9.1708  -22.4747    0.0000 C   0  0  0  0  0  0           0  0  0
    9.8800  -22.8845    0.0000 C   0  0  0  0  0  0           0  0  0
  2  3  1  0     0  0
  2 10  1  0     0  0
  3  4  1  0     0  0
  9 11  1  0     0  0
  4  5  1  0     0  0
 11 12  1  0     0  0
  5  6  2  0     0  0
 12 13  1  0     0  0
 16 15  1  1     0  0
 14 16  1  0     0  0
 16 17  1  0     0  0
 17 18  1  0     0  0
 18 19  2  0     0  0
 19 20  1  0     0  0
 20 21  2  0     0  0
 21 22  1  0     0  0
 21 23  1  0     0  0
 23 24  2  0     0  0
 18 24  1  0     0  0
 14 25  2  0     0  0
 24 26  1  0     0  0
 19 27  1  0     0  0
 10 28  1  0     0  0
 13 14  1  0     0  0
 29 28  1  0     0  0
  1  7  1  0     0  0
 29 30  2  0     0  0
  1  2  2  0     0  0
 30 31  1  0     0  0
  4  8  2  0     0  0
 31 32  2  0     0  0
  1  6  1  0     0  0
 32 33  1  0     0  0
  5  9  1  0     0  0
 33 34  2  0     0  0
 34 29  1  0     0  0
M  END