
          11280715092D 1   1.00000     0.00000     0

 28 30  0     0  0            999 V2000
    3.0292   -4.0167    0.0000 C   0  0  0  0  0  0           0  0  0
   -1.8833   -5.6167    0.0000 N   0  0  3  0  0  0           0  0  0
    3.6125   -4.1750    0.0000 N   0  0  0  0  0  0           0  0  0
    2.8750   -3.4417    0.0000 O   0  0  0  0  0  0           0  0  0
   -1.2833   -5.6167    0.0000 C   0  0  0  0  0  0           0  0  0
    2.6042   -4.4417    0.0000 N   0  0  0  0  0  0           0  0  0
   -0.9833   -5.1000    0.0000 C   0  0  0  0  0  0           0  0  0
   -0.4000   -5.2542    0.0000 C   0  0  0  0  0  0           0  0  0
    4.0875   -3.8125    0.0000 C   0  0  0  0  0  0           0  0  0
    0.0167   -4.8292    0.0000 C   0  0  0  0  0  0           0  0  0
    4.6417   -4.0417    0.0000 C   0  0  0  0  0  0           0  0  0
    1.6042   -4.7167    0.0000 C   0  0  0  0  0  0           0  0  0
    0.6000   -4.9875    0.0000 O   0  0  0  0  0  0           0  0  0
   -2.1833   -5.1000    0.0000 C   0  0  0  0  0  0           0  0  0
   -2.1875   -6.1292    0.0000 C   0  0  0  0  0  0           0  0  0
   -0.7208   -4.1042    0.0000 C   0  0  0  0  0  0           0  0  0
    2.0292   -4.2917    0.0000 C   0  0  0  0  0  0           0  0  0
   -1.1333   -4.5250    0.0000 C   0  0  0  0  0  0           0  0  0
    1.0250   -4.5625    0.0000 C   0  0  0  0  0  0           0  0  0
   -0.1333   -4.2542    0.0000 C   0  0  0  0  0  0           0  0  0
    4.7125   -4.6417    0.0000 C   0  0  0  0  0  0           0  0  0
    5.1125   -3.6792    0.0000 C   0  0  0  0  0  0           0  0  0
   -2.7875   -6.1292    0.0000 C   0  0  0  0  0  0           0  0  0
   -2.7833   -5.0917    0.0000 C   0  0  0  0  0  0           0  0  0
    5.6667   -3.9042    0.0000 C   0  0  0  0  0  0           0  0  0
    5.2667   -4.8667    0.0000 C   0  0  0  0  0  0           0  0  0
   -3.0833   -5.6042    0.0000 C   0  0  0  0  0  0           0  0  0
    5.7417   -4.5042    0.0000 C   0  0  0  0  0  0           0  0  0
  2  5  1  0     0  0
  3  1  1  0     0  0
  4  1  2  0     0  0
  5  7  1  0     0  0
  6  1  1  0     0  0
  7  8  2  0     0  0
  8 10  1  0     0  0
  9  3  1  0     0  0
 10 13  1  0     0  0
 11  9  1  0     0  0
 12 17  1  0     0  0
 13 19  1  0     0  0
 14  2  1  0     0  0
 15  2  1  0     0  0
 16 20  1  0     0  0
 17  6  1  0     0  0
 18 16  2  0     0  0
 19 12  1  0     0  0
 20 10  2  0     0  0
 21 11  2  0     0  0
 22 11  1  0     0  0
 23 15  1  0     0  0
 24 14  1  0     0  0
 25 22  2  0     0  0
 26 21  1  0     0  0
 27 23  1  0     0  0
 28 25  1  0     0  0
 28 26  2  0     0  0
 18  7  1  0     0  0
 27 24  1  0     0  0
M  END