
  SciTegic04191615122D

 35 39  0  0  0  0            999 V2000
    0.7168   -1.4214    0.0000 C   0  0
    0.7168    1.5915    0.0000 C   0  0
    1.9924    0.8382    0.0000 C   0  0
    1.9924   -0.6682    0.0000 C   0  0
    3.3044   -1.4214    0.0000 C   0  0  1  0  0  0
    4.6043   -0.6682    0.0000 N   0  0
    4.6043    0.8382    0.0000 C   0  0
    3.3044    1.5915    0.0000 C   0  0
   -0.5831   -0.6682    0.0000 C   0  0
   -0.5831    0.8382    0.0000 C   0  0
   -2.0045    1.2999    0.0000 O   0  0
   -2.8792    0.0850    0.0000 C   0  0
   -2.0045   -1.1298    0.0000 O   0  0
    4.2847   -2.5305    0.0000 C   0  0  1  0  0  0
    2.8493   -4.3882    0.0000 C   0  0
    2.8906   -2.8861    0.0000 O   0  0
    4.2577   -4.8848    0.0000 C   0  0
    5.1614   -3.6939    0.0000 C   0  0
    6.6555   -3.8664    0.0000 C   0  0
    7.2383   -5.2700    0.0000 C   0  0
    6.3345   -6.4609    0.0000 C   0  0
    4.8260   -6.2773    0.0000 C   0  0
    1.8604   -5.0679    0.0000 O   0  0
    5.6440   -1.2674    0.0000 C   0  0
    3.9144   -7.4692    0.0000 O   0  0
    4.3746   -8.5775    0.0000 C   0  0
    6.9284   -7.8392    0.0000 O   0  0
    8.1201   -7.9797    0.0000 C   0  0
    0.7316   -2.9221    0.0000 O   0  0
    1.7765   -3.5123    0.0000 C   0  0
    2.4278   -1.9026    0.0000 H   0  0
    5.2691   -2.3548    0.0000 H   0  0
    0.7255    3.0922    0.0000 N   0  3
   -0.3098    3.6990    0.0000 O   0  0
    1.7684    3.6857    0.0000 O   0  5
  9  1  1  0
  1  4  2  0
  3  2  2  0
  2 10  1  0
  3  4  1  0
  3  8  1  0
  4  5  1  0
  5  6  1  0
  6  7  1  0
  7  8  1  0
  9 10  2  0
 10 11  1  0
 11 12  1  0
 12 13  1  0
 13  9  1  0
  5 14  1  0
 14 18  1  0
 17 15  1  0
 15 16  1  0
 16 14  1  0
 17 18  2  0
 18 19  1  0
 19 20  2  0
 20 21  1  0
 21 22  2  0
 22 17  1  0
 15 23  2  0
  6 24  1  0
 25 26  1  0
 22 25  1  0
 27 28  1  0
 21 27  1  0
  1 29  1  0
 29 30  1  0
  5 31  1  6
 14 32  1  1
 33 34  2  0
 33 35  1  0
  2 33  1  0
M  CHG  2  33   1  35  -1
M  END