
  SciTegic04021211102D

 30 33  0  0  0  0            999 V2000
   11.5337   -4.0223    0.0000 C   0  0
   11.5326   -4.8440    0.0000 C   0  0
   12.2453   -5.2540    0.0000 C   0  0
   12.9598   -4.8435    0.0000 C   0  0
   12.9567   -4.0185    0.0000 C   0  0
   12.2434   -3.6080    0.0000 C   0  0
   13.6600   -3.6030    0.0000 C   0  0
   14.3742   -4.0160    0.0000 C   0  0
   15.0845   -3.5999    0.0000 C   0  0
   15.0818   -2.7798    0.0000 N   0  0
   14.3625   -2.3731    0.0000 C   0  0
   13.6553   -2.7873    0.0000 N   0  0
   12.2451   -6.0776    0.0000 C   0  0
   12.9574   -6.4875    0.0000 N   0  0
   13.6655   -6.0781    0.0000 C   0  0
   14.3778   -6.4878    0.0000 C   0  0
   12.2408   -2.7887    0.0000 C   0  0
   14.3561   -1.5495    0.0000 N   0  0
   10.7853   -5.2754    0.0000 C   0  0
   11.4980   -6.5096    0.0000 O   0  0
   14.3790   -7.3507    0.0000 C   0  0
   15.1270   -7.7811    0.0000 C   0  0
   15.8736   -7.3485    0.0000 O   0  0
   16.6033   -6.8927    0.0000 C   0  0
   17.3633   -7.3012    0.0000 C   0  0
   18.0946   -6.8448    0.0000 C   0  0
   18.0650   -5.9815    0.0000 C   0  0
   17.2979   -5.5767    0.0000 C   0  0
   16.5698   -6.0356    0.0000 C   0  0
   17.2647   -4.7145    0.0000 S   0  0
  3  4  2  0
 14 15  1  0
  7  8  2  0
 15 16  1  0
  6 17  1  0
  8  9  1  0
 11 18  1  0
  4  5  1  0
  2 19  1  0
  9 10  2  0
 13 20  2  0
  2  3  1  0
 16 21  1  0
 10 11  1  0
 21 22  1  0
  5  6  2  0
 22 23  1  0
 11 12  2  0
 23 24  1  0
 12  7  1  0
 24 25  2  0
  5  7  1  0
 25 26  1  0
  6  1  1  0
 26 27  2  0
  3 13  1  0
 27 28  1  0
  1  2  2  0
 28 29  2  0
 29 24  1  0
 13 14  1  0
 28 30  1  0
  9 30  1  0
M  END