
  SciTegic09081514192D

 39 43  0  0  0  0            999 V2000
    2.5987   -1.5004    0.0000 N   0  0
    2.7343   -2.9815    0.0000 N   0  0
    4.2010   -3.2956    0.0000 C   0  0
    4.9531   -1.9978    0.0000 C   0  0
    3.9511   -0.8815    0.0000 C   0  0
    4.8111   -4.6641    0.0000 C   0  0
    6.0045   -4.7897    0.0000 O   0  0
    4.1059   -5.6350    0.0000 O   0  0
    1.2990   -0.7500    0.0000 C   0  0
    1.2990    0.7500    0.0000 C   0  0
    0.0000    1.5000    0.0000 C   0  0
   -1.2990    0.7500    0.0000 C   0  0
   -1.2990   -0.7500    0.0000 C   0  0
    0.0000   -1.5000    0.0000 C   0  0
   -2.3383    1.3500    0.0000 Cl  0  0
    0.0000    2.7000    0.0000 Cl  0  0
    4.2567    0.5878    0.0000 C   0  0
    3.2235    1.6679    0.0000 C   0  0
    3.6446    3.1076    0.0000 C   0  0
    5.1019    3.4627    0.0000 C   0  0
    6.1382    2.3782    0.0000 C   0  0
    5.7171    0.9385    0.0000 C   0  0
    2.6100    4.1949    0.0000 C   0  0
    3.0334    5.6347    0.0000 N   0  0
    1.9989    6.7220    0.0000 C   0  0
    2.4223    8.1619    0.0000 C   0  0
    1.3898    9.2501    0.0000 C   0  0
    1.8159   10.6883    0.0000 C   0  0
    3.2745   11.0384    0.0000 C   0  0
    4.3070    9.9502    0.0000 C   0  0
    3.8809    8.5120    0.0000 C   0  0
    2.7834   13.6479    0.0000 O   0  0
    3.7008   12.4773    0.0000 C   0  0
    5.1094   12.9548    0.0000 C   0  0
    5.0726   14.4543    0.0000 C   0  0
    3.6350   14.8827    0.0000 C   0  0
    3.1343   16.2948    0.0000 C   0  0
    1.9544   16.5137    0.0000 O   0  0
    3.9135   17.2074    0.0000 O   0  0
  1  2  1  0
  2  3  2  0
  3  4  1  0
  4  5  2  0
  1  5  1  0
  6  7  2  0
  6  8  1  0
  3  6  1  0
  9 10  1  0
 10 11  2  0
 11 12  1  0
 12 13  2  0
 13 14  1  0
  9 14  2  0
 12 15  1  0
 11 16  1  0
  1  9  1  0
 17 18  1  0
 18 19  2  0
 19 20  1  0
 20 21  2  0
 21 22  1  0
 17 22  2  0
 25 26  1  0
 26 27  1  0
 27 28  2  0
 28 29  1  0
 29 30  2  0
 30 31  1  0
 26 31  2  0
 32 33  1  0
 33 34  2  0
 34 35  1  0
 35 36  2  0
 32 36  1  0
 37 38  2  0
 37 39  1  0
 36 37  1  0
 29 33  1  0
 24 25  1  0
 23 24  1  0
 19 23  1  0
  5 17  1  0
M  END