
          11280715122D 1   1.00000     0.00000     0

 23 24  0     0  0            999 V2000
    2.2750   -5.4500    0.0000 C   0  0  0  0  0  0           0  0  0
    1.7500   -5.1500    0.0000 C   0  0  3  0  0  0           0  0  0
    2.2750   -6.0542    0.0000 C   0  0  0  0  0  0           0  0  0
    1.2292   -5.4500    0.0000 N   0  0  0  0  0  0           0  0  0
    0.6917   -3.3500    0.0000 N   0  3  0  0  0  0           0  0  0
    1.2292   -6.0542    0.0000 C   0  0  0  0  0  0           0  0  0
    1.7500   -6.3625    0.0000 N   0  0  0  0  0  0           0  0  0
    2.7917   -5.1417    0.0000 C   0  0  0  0  0  0           0  0  0
    1.7417   -4.5417    0.0000 C   0  0  0  0  0  0           0  0  0
    1.2167   -3.6417    0.0000 C   0  0  0  0  0  0           0  0  0
    1.2167   -4.2500    0.0000 C   0  0  0  0  0  0           0  0  0
    0.6917   -2.7500    0.0000 O   0  5  0  0  0  0           0  0  0
    0.1792   -3.6542    0.0000 O   0  0  0  0  0  0           0  0  0
    2.7917   -4.5417    0.0000 O   0  0  0  0  0  0           0  0  0
    0.7042   -6.3625    0.0000 O   0  0  0  0  0  0           0  0  0
    3.3167   -5.4417    0.0000 O   0  0  0  0  0  0           0  0  0
    2.8000   -6.3542    0.0000 C   0  0  0  0  0  0           0  0  0
    2.2667   -4.2417    0.0000 C   0  0  0  0  0  0           0  0  0
    1.7417   -3.3417    0.0000 C   0  0  0  0  0  0           0  0  0
    2.2667   -3.6417    0.0000 C   0  0  0  0  0  0           0  0  0
    3.8375   -5.1417    0.0000 C   0  0  0  0  0  0           0  0  0
    0.1792   -6.0625    0.0000 C   0  0  0  0  0  0           0  0  0
    3.8375   -4.5417    0.0000 C   0  0  0  0  0  0           0  0  0
  2  1  1  0     0  0
  3  1  2  0     0  0
  4  2  1  0     0  0
  5 10  1  0     0  0
  6  7  2  0     0  0
  7  3  1  0     0  0
  8  1  1  0     0  0
  9  2  1  0     0  0
 10 11  2  0     0  0
 11  9  1  0     0  0
 12  5  1  0     0  0
 13  5  2  0     0  0
 14  8  2  0     0  0
 15  6  1  0     0  0
 16  8  1  0     0  0
 17  3  1  0     0  0
 18  9  2  0     0  0
 19 20  2  0     0  0
 20 18  1  0     0  0
 21 16  1  0     0  0
 22 15  1  0     0  0
 23 21  1  0     0  0
  4  6  1  0     0  0
 19 10  1  0     0  0
M  CHG  2   5   1  12  -1
M  END