
  SciTegic12121614142D

 30 33  0  0  0  0            999 V2000
    3.3443   -5.3916    0.0000 N   0  0
    1.8565   -5.2005    0.0000 C   0  0
    1.2781   -3.8165    0.0000 C   0  0
    2.1852   -2.6281    0.0000 N   0  0
    3.6753   -2.8147    0.0000 C   0  0
    4.2537   -4.1987    0.0000 C   0  0
    3.9258   -6.7752    0.0000 C   0  0
    3.2000   -7.7307    0.0000 O   0  0
    5.4147   -6.9642    0.0000 O   0  0
    0.2917   -0.7475    0.0000 C   0  0
    0.2917    0.7475    0.0000 C   0  0
   -1.0028    1.5132    0.0000 C   0  0
   -2.3155    0.7475    0.0000 C   0  0
   -2.3155   -0.7475    0.0000 C   0  0
   -1.0028   -1.5132    0.0000 N   0  0
    2.5889    0.0182    0.0000 S   0  0
    1.7138    1.2033    0.0000 N   0  0
    1.7138   -1.2033    0.0000 C   0  0
   -3.6168    1.4950    0.0000 C   0  0
   -4.9144    0.7421    0.0000 C   0  0
   -6.2151    1.4892    0.0000 C   0  0
   -6.2185    2.9892    0.0000 C   0  0
   -4.9211    3.7421    0.0000 C   0  0
   -3.6204    2.9950    0.0000 C   0  0
   -7.5184    3.7394    0.0000 O   0  0
   -7.5193    4.9394    0.0000 C   0  0
   -7.5116    0.7332    0.0000 O   0  0
   -7.5072   -0.4668    0.0000 C   0  0
    5.9963   -8.3478    0.0000 C   0  0
    7.1867   -8.4990    0.0000 C   0  0
  1  2  1  0
  2  3  1  0
  3  4  1  0
  4  5  1  0
  5  6  1  0
  1  6  1  0
  7  8  2  0
  7  9  1  0
  1  7  1  0
 10 11  1  0
 11 12  1  0
 12 13  2  0
 13 14  1  0
 14 15  2  0
 10 15  1  0
 16 17  1  0
 16 18  1  0
 10 18  2  0
 11 17  2  0
 19 20  1  0
 20 21  2  0
 21 22  1  0
 22 23  2  0
 23 24  1  0
 19 24  2  0
 25 26  1  0
 22 25  1  0
 27 28  1  0
 21 27  1  0
 13 19  1  0
  4 18  1  0
 29 30  1  0
  9 29  1  0
M  END