
  Mrv0541 04051115152D          

 10 10  0  0  0  0            999 V2000
   -0.2918   -0.0046    0.0000 C   0  0  0  0  0  0  0  0  0  0  0  0
    0.4227   -0.4171    0.0000 C   0  0  0  0  0  0  0  0  0  0  0  0
    0.4227   -1.2421    0.0000 C   0  0  0  0  0  0  0  0  0  0  0  0
   -0.2918   -1.6546    0.0000 C   0  0  0  0  0  0  0  0  0  0  0  0
   -1.0063   -1.2421    0.0000 C   0  0  0  0  0  0  0  0  0  0  0  0
   -1.0063   -0.4171    0.0000 C   0  0  0  0  0  0  0  0  0  0  0  0
   -0.2918    0.8204    0.0000 C   0  0  0  0  0  0  0  0  0  0  0  0
    0.4227    1.2329    0.0000 C   0  0  0  0  0  0  0  0  0  0  0  0
    0.4227    2.0579    0.0000 C   0  0  0  0  0  0  0  0  0  0  0  0
    1.1372    0.8204    0.0000 C   0  0  0  0  0  0  0  0  0  0  0  0
  1  2  2  0  0  0  0
  1  6  1  0  0  0  0
  1  7  1  0  0  0  0
  2  3  1  0  0  0  0
  3  4  2  0  0  0  0
  4  5  1  0  0  0  0
  5  6  2  0  0  0  0
  7  8  1  0  0  0  0
  8  9  1  0  0  0  0
  8 10  1  0  0  0  0
M  END