
  SciTegic10041218052D

 24 27  0  0  1  0            999 V2000
    9.7988   -5.0703    0.0000 C   0  0  1  0  0  0
    9.8018   -5.8930    0.0000 C   0  0  2  0  0  0
    9.0835   -6.3069    0.0000 C   0  0  1  0  0  0
    8.3708   -5.8896    0.0000 C   0  0  1  0  0  0
    7.6611   -6.3035    0.0000 C   0  0
   10.5862   -4.8190    0.0000 C   0  0  2  0  0  0
   10.5768   -6.1472    0.0000 C   0  0
    7.6584   -7.1261    0.0000 C   0  0
   11.0685   -5.4856    0.0000 C   0  0  1  0  0  0
    9.0889   -4.6531    0.0000 C   0  0
    8.3707   -5.0670    0.0000 C   0  0
    9.0894   -7.1295    0.0000 C   0  0
    6.9427   -5.8948    0.0000 C   0  0
    8.3768   -7.5434    0.0000 C   0  0
    6.9487   -7.5486    0.0000 C   0  0
    6.2360   -7.1399    0.0000 C   0  0
   10.8433   -4.0383    0.0000 O   0  0
    6.2330   -6.3144    0.0000 C   0  0
    9.7958   -4.2477    0.0000 C   0  0
   11.8912   -5.4912    0.0000 O   0  0
    5.5234   -7.5538    0.0000 O   0  0
    8.3667   -6.7167    0.0000 H   0  0
    9.0792   -5.4792    0.0000 H   0  0
    9.7917   -6.7208    0.0000 H   0  0
  2  1  1  0
  3  2  1  0
  4 11  1  0
  5  4  1  0
  6  1  1  0
  7  2  1  0
  8  5  2  0
  9  6  1  0
 10  1  1  0
 11 10  1  0
 12  3  1  0
 13  5  1  0
 14 12  1  0
 15  8  1  0
 16 18  1  0
  6 17  1  1
 18 13  2  0
  1 19  1  1
  9 20  1  6
 21 16  1  0
  9  7  1  0
  3  4  1  0
 14  8  1  0
 16 15  2  0
  4 22  1  6
  3 23  1  1
  2 24  1  6
M  END