
          11280715012D 1   1.00000     0.00000     0

 28 31  0     0  0            999 V2000
    5.8250   -3.2375    0.0000 C   0  0  3  0  0  0           0  0  0
    6.9875   -2.5750    0.0000 C   0  0  0  0  0  0           0  0  0
    4.0125   -4.1917    0.0000 N   0  3  3  0  0  0           0  0  0
    6.3750   -2.0167    0.0000 C   0  0  3  0  0  0           0  0  0
    6.6417   -3.3292    0.0000 O   0  0  0  0  0  0           0  0  0
    5.6625   -2.4292    0.0000 O   0  0  0  0  0  0           0  0  0
    4.8125   -4.4125    0.0000 C   0  0  3  0  0  0           0  0  0
    4.6500   -3.8750    0.0000 C   0  0  3  0  0  0           0  0  0
    5.2250   -3.5292    0.0000 C   0  0  0  0  0  0           0  0  0
    5.0250   -3.0167    0.0000 C   0  0  0  0  0  0           0  0  0
    7.8125   -2.5750    0.0000 O   0  0  0  0  0  0           0  0  0
    5.6625   -1.6042    0.0000 C   0  0  0  0  0  0           0  0  0
    7.0917   -1.6042    0.0000 C   0  0  0  0  0  0           0  0  0
    5.6042   -4.6250    0.0000 C   0  0  0  0  0  0           0  0  0
    5.4417   -4.0875    0.0000 C   0  0  0  0  0  0           0  0  0
    6.1917   -5.8292    0.0000 I   0  5  0  0  0  0           0  0  0
    3.4250   -3.6125    0.0000 C   0  0  0  0  0  0           0  0  0
    3.6000   -4.9125    0.0000 C   0  0  0  0  0  0           0  0  0
    7.0875   -0.7875    0.0000 C   0  0  0  0  0  0           0  0  0
    5.6667   -0.7792    0.0000 C   0  0  0  0  0  0           0  0  0
    4.9542   -2.0167    0.0000 C   0  0  0  0  0  0           0  0  0
    7.8042   -2.0250    0.0000 C   0  0  0  0  0  0           0  0  0
    4.9542   -0.3667    0.0000 C   0  0  0  0  0  0           0  0  0
    4.2417   -1.6042    0.0000 C   0  0  0  0  0  0           0  0  0
    8.5167   -1.6125    0.0000 C   0  0  0  0  0  0           0  0  0
    7.8000   -0.3750    0.0000 C   0  0  0  0  0  0           0  0  0
    4.2375   -0.7792    0.0000 C   0  0  0  0  0  0           0  0  0
    8.5250   -0.7875    0.0000 C   0  0  0  0  0  0           0  0  0
  2  5  1  0     0  0
  3  8  1  0     0  0
  4  6  1  0     0  0
  5  1  1  0     0  0
  6  1  1  0     0  0
  7  9  1  0     0  0
  8 10  1  0     0  0
  9  1  1  0     0  0
 10  1  1  0     0  0
 11  2  2  0     0  0
 12  4  1  0     0  0
 13  4  1  0     0  0
 14  7  1  0     0  0
 15  8  1  0     0  0
 17  3  1  0     0  0
 18  3  1  0     0  0
 19 13  1  0     0  0
 20 12  2  0     0  0
 21 12  1  0     0  0
 22 13  2  0     0  0
 23 20  1  0     0  0
 24 21  2  0     0  0
 25 22  1  0     0  0
 26 19  2  0     0  0
 27 24  1  0     0  0
 28 26  1  0     0  0
  7  3  1  0     0  0
  2  4  1  0     0  0
 15 14  1  0     0  0
 28 25  2  0     0  0
 23 27  2  0     0  0
M  CHG  2   3   1  16  -1
M  END