
          11280714442D 1   1.00000     0.00000     0

 27 29  0     0  0            999 V2000
    2.2917   -3.1125    0.0000 C   0  0  0  0  0  0           0  0  0
    3.0042   -2.7000    0.0000 C   0  0  0  0  0  0           0  0  0
    3.0000   -1.8750    0.0000 C   0  0  0  0  0  0           0  0  0
    1.5792   -2.7042    0.0000 C   0  0  0  0  0  0           0  0  0
    3.7875   -2.9542    0.0000 N   0  0  3  0  0  0           0  0  0
    2.3042   -3.9375    0.0000 C   0  0  0  0  0  0           0  0  0
    1.5792   -1.8792    0.0000 C   0  0  0  0  0  0           0  0  0
    3.7667   -1.6125    0.0000 C   0  0  0  0  0  0           0  0  0
    4.2625   -2.2875    0.0000 C   0  0  0  0  0  0           0  0  0
    2.2875   -1.4667    0.0000 C   0  0  0  0  0  0           0  0  0
    1.5917   -4.3542    0.0000 O   0  0  0  0  0  0           0  0  0
    0.1542   -2.7167    0.0000 N   0  0  0  0  0  0           0  0  0
    0.8542   -1.4750    0.0000 C   0  0  3  0  0  0           0  0  0
    0.1500   -1.8917    0.0000 C   0  0  0  0  0  0           0  0  0
    3.0167   -4.3417    0.0000 N   0  0  0  0  0  0           0  0  0
   -1.9958   -3.1125    0.0000 C   0  0  0  0  0  0           0  0  0
    3.7792   -3.7750    0.0000 C   0  0  0  0  0  0           0  0  0
    0.8542   -0.6500    0.0000 O   0  0  0  0  0  0           0  0  0
   -2.7083   -2.6917    0.0000 C   0  0  0  0  0  0           0  0  0
   -1.2750   -2.7042    0.0000 C   0  0  0  0  0  0           0  0  0
   -0.5708   -3.1250    0.0000 C   0  0  3  0  0  0           0  0  0
   -3.4208   -3.1000    0.0000 C   0  0  0  0  0  0           0  0  0
   -2.6958   -1.8667    0.0000 C   0  0  0  0  0  0           0  0  0
   -0.5750   -3.9417    0.0000 C   0  0  0  0  0  0           0  0  0
   -3.4083   -1.4500    0.0000 C   0  0  0  0  0  0           0  0  0
   -4.1333   -2.6875    0.0000 C   0  0  0  0  0  0           0  0  0
   -4.1250   -1.8542    0.0000 C   0  0  0  0  0  0           0  0  0
  2  1  1  0     0  0
  3  2  2  0     0  0
  4  1  2  0     0  0
  5  2  1  0     0  0
  6  1  1  0     0  0
  7  4  1  0     0  0
  8  3  1  0     0  0
  9  5  1  0     0  0
 10  7  2  0     0  0
 11  6  2  0     0  0
 12 14  1  0     0  0
 13  7  1  0     0  0
 14 13  1  0     0  0
 15  6  1  0     0  0
 16 20  1  0     0  0
 17  5  1  0     0  0
 18 13  1  0     0  0
 19 16  1  0     0  0
 20 21  1  0     0  0
 21 12  1  0     0  0
 22 19  1  0     0  0
 23 19  2  0     0  0
 24 21  1  0     0  0
 25 23  1  0     0  0
 26 22  2  0     0  0
 27 25  2  0     0  0
 10  3  1  0     0  0
  9  8  2  0     0  0
 26 27  1  0     0  0
M  END