
          11280716012D 1   1.00000     0.00000     0

118125  0     1  0            999 V2000
  -19.4333   28.5667    0.0000 N   0  0  3  0  0  0           0  0  0
   -1.3250   10.4667    0.0000 N   0  0  0  0  0  0           0  0  0
  -18.1375   27.8125    0.0000 C   0  0  0  0  0  0           0  0  0
   -1.3167   11.9667    0.0000 C   0  0  0  0  0  0           0  0  0
  -18.4417   31.0375    0.0000 C   0  0  0  0  0  0           0  0  0
   -2.6125   12.7250    0.0000 N   0  0  0  0  0  0           0  0  0
   -2.6292    9.7250    0.0000 C   0  0  0  0  0  0           0  0  0
   -9.0625   21.0167    0.0000 C   0  0  0  0  0  0           0  0  0
  -19.5667   30.0500    0.0000 C   0  0  2  0  0  0           0  0  0
   -3.9167   11.9792    0.0000 C   0  0  1  0  0  0           0  0  0
   -6.4458   24.0042    0.0000 C   0  0  0  0  0  0           0  0  0
  -11.6708   19.5292    0.0000 C   0  0  0  0  0  0           0  0  0
  -14.2625   21.0417    0.0000 C   0  0  0  0  0  0           0  0  0
   -3.8417   25.4917    0.0000 C   0  0  0  0  0  0           0  0  0
  -16.8500   24.0542    0.0000 C   0  0  0  0  0  0           0  0  0
   -1.2458   23.9792    0.0000 C   0  0  0  0  0  0           0  0  0
   -5.2083   12.7417    0.0000 C   0  0  0  0  0  0           0  0  0
   -7.7500   23.2625    0.0000 N   0  0  0  0  0  0           0  0  0
   -7.7583   21.7583    0.0000 C   0  0  1  0  0  0           0  0  0
   -9.0708   19.5167    0.0000 N   0  0  0  0  0  0           0  0  0
  -15.5583   21.7958    0.0000 N   0  0  0  0  0  0           0  0  0
   -1.2417   25.4792    0.0000 N   0  0  0  0  0  0           0  0  0
  -12.9708   18.7833    0.0000 N   0  0  0  0  0  0           0  0  0
   -5.1375   26.2500    0.0000 N   0  0  0  0  0  0           0  0  0
  -16.8458   25.5542    0.0000 N   0  0  0  0  0  0           0  0  0
   -3.9250   10.4792    0.0000 C   0  0  0  0  0  0           0  0  0
  -17.0208   30.5583    0.0000 N   0  0  0  0  0  0           0  0  0
  -14.2708   19.5417    0.0000 C   0  0  2  0  0  0           0  0  0
  -10.3708   18.7708    0.0000 C   0  0  1  0  0  0           0  0  0
   -2.5375   26.2375    0.0000 C   0  0  2  0  0  0           0  0  0
   -6.4375   25.5042    0.0000 C   0  0  2  0  0  0           0  0  0
  -15.5542   23.2958    0.0000 C   0  0  1  0  0  0           0  0  0
  -18.1417   26.3125    0.0000 C   0  0  1  0  0  0           0  0  0
    0.0500   23.2250    0.0000 C   0  0  2  0  0  0           0  0  0
  -14.4708   31.0667    0.0000 C   0  0  0  0  0  0           0  0  0
    1.3500   23.9708    0.0000 N   0  0  0  0  0  0           0  0  0
   -5.2000   14.2417    0.0000 N   0  0  0  0  0  0           0  0  0
    1.3542   25.4708    0.0000 C   0  0  0  0  0  0           0  0  0
  -15.8917   31.5500    0.0000 C   0  0  1  0  0  0           0  0  0
  -14.2708   10.5417    0.0000 C   0  0  0  0  0  0           0  0  0
  -17.0958   28.4083    0.0000 O   0  0  0  0  0  0           0  0  0
   -0.2750   12.5625    0.0000 O   0  0  0  0  0  0           0  0  0
  -18.6750   32.2125    0.0000 O   0  0  0  0  0  0           0  0  0
    0.0458   21.7250    0.0000 C   0  0  0  0  0  0           0  0  0
  -10.0958   21.6208    0.0000 O   0  0  0  0  0  0           0  0  0
  -17.8917   23.4583    0.0000 O   0  0  0  0  0  0           0  0  0
   -3.8458   24.2917    0.0000 O   0  0  0  0  0  0           0  0  0
  -13.2208   21.6375    0.0000 O   0  0  0  0  0  0           0  0  0
  -11.6625   20.7292    0.0000 O   0  0  0  0  0  0           0  0  0
   -5.4125   23.4000    0.0000 O   0  0  0  0  0  0           0  0  0
   -2.2875   23.3833    0.0000 O   0  0  0  0  0  0           0  0  0
   -6.2500   12.1500    0.0000 O   0  0  0  0  0  0           0  0  0
  -14.2750   12.0417    0.0000 N   0  0  0  0  0  0           0  0  0
    3.9500   20.9625    0.0000 C   0  0  0  0  0  0           0  0  0
   -2.6333    8.5250    0.0000 O   0  0  0  0  0  0           0  0  0
  -10.3750   17.2708    0.0000 C   0  0  0  0  0  0           0  0  0
  -15.5708   18.7917    0.0000 C   0  0  0  0  0  0           0  0  0
   -2.5250   27.7375    0.0000 C   0  0  0  0  0  0           0  0  0
    1.3417   20.9667    0.0000 C   0  0  0  0  0  0           0  0  0
   -7.7292   26.2667    0.0000 C   0  0  0  0  0  0           0  0  0
    2.6583   21.7125    0.0000 C   0  0  0  0  0  0           0  0  0
  -13.5667   31.8583    0.0000 O   0  0  0  0  0  0           0  0  0
  -14.2500   24.0417    0.0000 C   0  0  0  0  0  0           0  0  0
   -6.4000   30.0042    0.0000 N   0  0  0  0  0  0           0  0  0
    2.3958   26.0708    0.0000 O   0  0  0  0  0  0           0  0  0
  -13.2333    9.9417    0.0000 O   0  0  0  0  0  0           0  0  0
    3.9500   19.4625    0.0000 C   0  0  0  0  0  0           0  0  0
   -6.4875   15.0000    0.0000 C   0  0  0  0  0  0           0  0  0
    2.6500   18.7167    0.0000 C   0  0  0  0  0  0           0  0  0
  -14.2333   29.8917    0.0000 N   0  0  0  0  0  0           0  0  0
  -20.7833   27.9500    0.0000 C   0  0  0  0  0  0           0  0  0
   -1.2208   28.4792    0.0000 C   0  0  0  0  0  0           0  0  0
   -9.0792   16.5167    0.0000 C   0  0  0  0  0  0           0  0  0
  -15.5750   17.2917    0.0000 C   0  0  0  0  0  0           0  0  0
  -15.5750   12.7917    0.0000 C   0  0  0  0  0  0           0  0  0
    1.3375   19.4708    0.0000 C   0  0  0  0  0  0           0  0  0
    1.3875   29.9583    0.0000 C   0  0  0  0  0  0           0  0  0
  -15.5750   14.2917    0.0000 C   0  0  0  0  0  0           0  0  0
   -7.7208   27.7667    0.0000 C   0  0  0  0  0  0           0  0  0
  -22.0542   21.0667    0.0000 N   0  0  0  0  0  0           0  0  0
    2.4333   30.5500    0.0000 Cl  0  0  0  0  0  0           0  0  0
   -6.4583   21.0042    0.0000 C   0  0  0  0  0  0           0  0  0
   -7.7917   14.2583    0.0000 C   0  0  0  0  0  0           0  0  0
   -6.4792   16.5000    0.0000 C   0  0  0  0  0  0           0  0  0
  -16.8750   16.5417    0.0000 C   0  0  0  0  0  0           0  0  0
   -1.2083   29.9792    0.0000 C   0  0  0  0  0  0           0  0  0
  -14.2750   16.5417    0.0000 C   0  0  0  0  0  0           0  0  0
   -9.0875   15.0167    0.0000 C   0  0  0  0  0  0           0  0  0
    0.0708   27.7208    0.0000 C   0  0  0  0  0  0           0  0  0
   -7.7750   17.2583    0.0000 C   0  0  0  0  0  0           0  0  0
    0.0958   30.7208    0.0000 C   0  0  0  0  0  0           0  0  0
    1.3750   28.4583    0.0000 C   0  0  0  0  0  0           0  0  0
  -16.8750   15.0417    0.0000 C   0  0  0  0  0  0           0  0  0
  -14.2750   15.0417    0.0000 C   0  0  0  0  0  0           0  0  0
  -21.0333   30.3625    0.0000 C   0  0  0  0  0  0           0  0  0
   -5.4208   21.6000    0.0000 O   0  0  0  0  0  0           0  0  0
   -6.4167   28.5042    0.0000 C   0  0  0  0  0  0           0  0  0
  -21.7875   29.0667    0.0000 C   0  0  0  0  0  0           0  0  0
  -19.4417   25.5625    0.0000 C   0  0  0  0  0  0           0  0  0
  -12.9542   23.2833    0.0000 C   0  0  3  0  0  0           0  0  0
    0.3167   26.0750    0.0000 C   0  0  0  0  0  0           0  0  0
  -15.3083    9.9375    0.0000 C   0  0  0  0  0  0           0  0  0
   -7.6958   30.7667    0.0000 C   0  0  0  0  0  0           0  0  0
  -22.0583   19.5667    0.0000 C   0  0  3  0  0  0           0  0  0
  -16.1292   32.7250    0.0000 C   0  0  0  0  0  0           0  0  0
    5.2500   21.7083    0.0000 C   0  0  0  0  0  0           0  0  0
  -20.7500   21.8125    0.0000 C   0  0  0  0  0  0           0  0  0
    5.2417   18.7125    0.0000 C   0  0  0  0  0  0           0  0  0
   -9.0125   28.5292    0.0000 C   0  0  0  0  0  0           0  0  0
  -19.4458   24.0625    0.0000 C   0  0  0  0  0  0           0  0  0
  -20.7500   23.3125    0.0000 C   0  0  0  0  0  0           0  0  0
  -11.9125   23.8750    0.0000 C   0  0  0  0  0  0           0  0  0
  -12.9625   22.0833    0.0000 C   0  0  0  0  0  0           0  0  0
  -21.0208   18.9625    0.0000 C   0  0  0  0  0  0           0  0  0
  -23.0958   18.9667    0.0000 C   0  0  0  0  0  0           0  0  0
   -9.0000   30.0292    0.0000 C   0  0  0  0  0  0           0  0  0
    6.5458   20.9542    0.0000 C   0  0  0  0  0  0           0  0  0
    6.5417   19.4583    0.0000 C   0  0  0  0  0  0           0  0  0
  2  4  1  0     0  0
  3  1  1  0     0  0
  4  6  1  0     0  0
  9  5  1  1     0  0
  6 10  1  0     0  0
  7 26  1  0     0  0
  8 20  1  0     0  0
  9  1  1  0     0  0
 10 17  1  6     0  0
 11 18  1  0     0  0
 12 23  1  0     0  0
 13 21  1  0     0  0
 14 24  1  0     0  0
 15 25  1  0     0  0
 16 22  1  0     0  0
 17 37  1  0     0  0
 18 19  1  0     0  0
 19  8  1  0     0  0
 20 29  1  0     0  0
 21 32  1  0     0  0
 22 30  1  0     0  0
 23 28  1  0     0  0
 24 31  1  0     0  0
 33 25  1  1     0  0
 26 10  1  0     0  0
 27  5  1  0     0  0
 28 13  1  0     0  0
 29 12  1  0     0  0
 30 14  1  0     0  0
 31 11  1  0     0  0
 32 15  1  0     0  0
 33  3  1  0     0  0
 34 16  1  0     0  0
 35 39  1  0     0  0
 36 34  1  0     0  0
 37 68  1  0     0  0
 38 36  1  0     0  0
 39 27  1  0     0  0
 40 53  1  0     0  0
 41  3  2  0     0  0
 42  4  2  0     0  0
 43  5  2  0     0  0
 34 44  1  6     0  0
 45  8  2  0     0  0
 46 15  2  0     0  0
 47 14  2  0     0  0
 48 13  2  0     0  0
 49 12  2  0     0  0
 50 11  2  0     0  0
 51 16  2  0     0  0
 52 17  2  0     0  0
 53 75  1  0     0  0
 54 61  2  0     0  0
 55  7  2  0     0  0
 29 56  1  1     0  0
 28 57  1  6     0  0
 30 58  1  1     0  0
 59 44  1  0     0  0
 31 60  1  1     0  0
 61 59  1  0     0  0
 62 35  2  0     0  0
 32 63  1  6     0  0
 64 97  2  0     0  0
 65 38  2  0     0  0
 66 40  2  0     0  0
 67 54  1  0     0  0
 68 83  1  0     0  0
 69 76  1  0     0  0
 70 35  1  0     0  0
 71  1  1  0     0  0
 72 58  1  0     0  0
 73 56  1  0     0  0
 74 57  1  0     0  0
 75 78  1  0     0  0
 76 59  2  0     0  0
 77 92  1  0     0  0
 78 94  1  0     0  0
 79 60  1  0     0  0
 80107  1  0     0  0
 81 77  1  0     0  0
 19 82  1  1     0  0
 83 88  2  0     0  0
 84 90  1  0     0  0
 85 74  2  0     0  0
 86 72  2  0     0  0
 87 74  1  0     0  0
 88 73  1  0     0  0
 89 72  1  0     0  0
 90 73  2  0     0  0
 91 86  1  0     0  0
 92 89  2  0     0  0
 93 85  1  0     0  0
 94 87  2  0     0  0
 95  9  1  0     0  0
 96 82  1  0     0  0
 97 79  1  0     0  0
 98 71  1  0     0  0
 99 33  1  0     0  0
100 63  1  0     0  0
101 38  1  0     0  0
102 40  1  0     0  0
103 64  1  0     0  0
104 80  1  0     0  0
 39105  1  6     0  0
106 54  1  0     0  0
107111  1  0     0  0
108 67  1  0     0  0
109 79  2  0     0  0
110 99  1  0     0  0
111110  1  0     0  0
112100  1  0     0  0
113100  1  0     0  0
114104  1  0     0  0
115104  1  0     0  0
116109  1  0     0  0
117106  2  0     0  0
118108  2  0     0  0
 95 98  1  0     0  0
 78 93  2  0     0  0
 68 84  2  0     0  0
103116  2  0     0  0
  2  7  1  0     0  0
 77 91  2  0     0  0
 67 69  2  0     0  0
117118  1  0     0  0
M  END