
          11280714572D 1   1.00000     0.00000     0

 55 60  0     0  0            999 V2000
   13.4125    0.5000    0.0000 C   0  0  0  0  0  0           0  0  0
   11.2875    0.0250    0.0000 C   0  0  0  0  0  0           0  0  0
   11.9917    0.4583    0.0000 C   0  0  3  0  0  0           0  0  0
   13.3917    1.3250    0.0000 O   0  0  0  0  0  0           0  0  0
   11.3125   -0.7917    0.0000 C   0  0  0  0  0  0           0  0  0
   12.7125    0.0708    0.0000 C   0  0  3  0  0  0           0  0  0
   12.6667    1.7125    0.0000 C   0  0  0  0  0  0           0  0  0
   11.9667    1.2833    0.0000 C   0  0  0  0  0  0           0  0  0
   14.1375    0.1125    0.0000 C   0  0  0  0  0  0           0  0  0
    4.1625   -0.0667    0.0000 N   0  0  0  0  0  0           0  0  0
    4.8792    0.3458    0.0000 C   0  0  0  0  0  0           0  0  0
   12.7417   -0.7417    0.0000 C   0  0  0  0  0  0           0  0  0
   10.6167   -1.2292    0.0000 C   0  0  0  0  0  0           0  0  0
    4.1667   -0.8917    0.0000 C   0  0  0  0  0  0           0  0  0
   11.7417   -1.4917    0.0000 C   0  0  0  0  0  0           0  0  0
    5.5917    0.7583    0.0000 N   0  0  0  0  0  0           0  0  0
    9.1792   -1.2667    0.0000 C   0  0  0  0  0  0           0  0  0
    9.8792   -0.8375    0.0000 C   0  0  0  0  0  0           0  0  0
   10.5625    0.4208    0.0000 C   0  0  0  0  0  0           0  0  0
   12.6500    2.5333    0.0000 C   0  0  0  0  0  0           0  0  0
   14.1542   -0.7042    0.0000 C   0  0  0  0  0  0           0  0  0
   13.4500   -1.1417    0.0000 C   0  0  0  0  0  0           0  0  0
   -2.9833   -0.9000    0.0000 N   0  0  3  0  0  0           0  0  0
   11.2417    1.6708    0.0000 C   0  0  0  0  0  0           0  0  0
    9.8542   -0.0125    0.0000 C   0  0  0  0  0  0           0  0  0
   12.5625   -1.4625    0.0000 O   0  0  0  0  0  0           0  0  0
    9.2042   -2.0917    0.0000 O   0  0  0  0  0  0           0  0  0
   -2.2708   -1.3125    0.0000 C   0  0  0  0  0  0           0  0  0
   14.8917   -1.0917    0.0000 O   0  0  0  0  0  0           0  0  0
    3.4500   -1.3042    0.0000 N   0  0  0  0  0  0           0  0  0
    4.8792   -1.3042    0.0000 N   0  0  0  0  0  0           0  0  0
   -1.5500   -0.9000    0.0000 C   0  0  0  0  0  0           0  0  0
    8.4542   -0.8792    0.0000 N   0  0  0  0  0  0           0  0  0
   11.9292    2.9208    0.0000 C   0  0  0  0  0  0           0  0  0
   11.3542   -2.2167    0.0000 O   0  0  0  0  0  0           0  0  0
   11.2167    2.4875    0.0000 C   0  0  0  0  0  0           0  0  0
   -0.8333   -1.3125    0.0000 C   0  0  0  0  0  0           0  0  0
   -0.1208   -0.9000    0.0000 C   0  0  0  0  0  0           0  0  0
   11.9042    3.7458    0.0000 O   0  0  0  0  0  0           0  0  0
    2.0167   -1.3125    0.0000 C   0  0  0  0  0  0           0  0  0
    0.5917   -1.3125    0.0000 O   0  0  0  0  0  0           0  0  0
   -2.9833   -0.0667    0.0000 C   0  0  0  0  0  0           0  0  0
   -3.6958   -1.3042    0.0000 C   0  0  0  0  0  0           0  0  0
   -0.8375    0.3375    0.0000 C   0  0  0  0  0  0           0  0  0
    2.7375   -0.8917    0.0000 C   0  0  0  0  0  0           0  0  0
   -1.5500   -0.0750    0.0000 C   0  0  0  0  0  0           0  0  0
    1.3042   -0.9000    0.0000 C   0  0  0  0  0  0           0  0  0
    5.5917   -0.8875    0.0000 C   0  0  0  0  0  0           0  0  0
    7.7417   -1.2917    0.0000 C   0  0  0  0  0  0           0  0  0
   -0.1208   -0.0667    0.0000 C   0  0  0  0  0  0           0  0  0
    7.0250   -0.8792    0.0000 C   0  0  0  0  0  0           0  0  0
    6.3125   -1.3000    0.0000 C   0  0  0  0  0  0           0  0  0
   -4.4083   -0.8917    0.0000 C   0  0  0  0  0  0           0  0  0
   -3.6875    0.3458    0.0000 C   0  0  0  0  0  0           0  0  0
   -4.4083   -0.0667    0.0000 C   0  0  0  0  0  0           0  0  0
  2  3  1  0     0  0
  3  6  1  0     0  0
  4  1  1  0     0  0
  5  2  1  0     0  0
  6  1  1  0     0  0
  7  4  1  0     0  0
  8  3  1  0     0  0
  9  1  2  0     0  0
 10 14  1  0     0  0
 11 10  1  0     0  0
 12  6  1  0     0  0
 13  5  2  0     0  0
 14 31  2  0     0  0
 15  5  1  0     0  0
 16 11  3  0     0  0
 17 18  1  0     0  0
 18 25  2  0     0  0
 19  2  2  0     0  0
 20  7  1  0     0  0
 21  9  1  0     0  0
 22 21  1  0     0  0
 23 28  1  0     0  0
 24  8  1  0     0  0
 25 19  1  0     0  0
 26 15  2  0     0  0
 27 17  2  0     0  0
 28 32  1  0     0  0
 29 21  2  0     0  0
 30 14  1  0     0  0
 31 48  1  0     0  0
 32 37  1  0     0  0
 33 17  1  0     0  0
 34 20  2  0     0  0
 35 15  1  0     0  0
 36 24  2  0     0  0
 37 38  2  0     0  0
 38 41  1  0     0  0
 39 34  1  0     0  0
 40 45  1  0     0  0
 41 47  1  0     0  0
 42 23  1  0     0  0
 43 23  1  0     0  0
 44 50  2  0     0  0
 45 30  1  0     0  0
 46 44  1  0     0  0
 47 40  1  0     0  0
 48 52  1  0     0  0
 49 33  1  0     0  0
 50 38  1  0     0  0
 51 49  1  0     0  0
 52 51  1  0     0  0
 53 43  1  0     0  0
 54 42  1  0     0  0
 55 53  1  0     0  0
 22 12  2  0     0  0
  7  8  2  0     0  0
 36 34  1  0     0  0
 18 13  1  0     0  0
 32 46  2  0     0  0
 55 54  1  0     0  0
M  END