
          11280714452D 1   1.00000     0.00000     0

 38 42  0     0  0            999 V2000
   -0.5333   -1.3917    0.0000 C   0  0  0  0  0  0           0  0  0
   -1.2833   -1.7375    0.0000 N   0  0  0  0  0  0           0  0  0
   -0.6208   -0.5792    0.0000 N   0  0  3  0  0  0           0  0  0
    7.0042    0.7083    0.0000 N   0  0  0  0  0  0           0  0  0
    6.6000   -0.5625    0.0000 C   0  0  0  0  0  0           0  0  0
    6.1792    0.7000    0.0000 N   0  0  0  0  0  0           0  0  0
    7.2625   -0.0792    0.0000 N   0  0  0  0  0  0           0  0  0
    5.8917   -2.6292    0.0000 C   0  0  0  0  0  0           0  0  0
    5.9292   -0.0792    0.0000 N   0  0  0  0  0  0           0  0  0
   -1.4208   -0.4125    0.0000 C   0  0  0  0  0  0           0  0  0
   -1.8458   -1.1250    0.0000 C   0  0  0  0  0  0           0  0  0
    5.8917   -1.8042    0.0000 C   0  0  0  0  0  0           0  0  0
    6.6042   -1.3875    0.0000 C   0  0  0  0  0  0           0  0  0
    5.1750   -3.0417    0.0000 C   0  0  0  0  0  0           0  0  0
    4.4625   -2.6292    0.0000 C   0  0  0  0  0  0           0  0  0
    6.6042   -3.0417    0.0000 C   0  0  0  0  0  0           0  0  0
    3.7417   -3.0417    0.0000 C   0  0  0  0  0  0           0  0  0
    0.1792   -1.8042    0.0000 C   0  0  0  0  0  0           0  0  0
    7.3167   -1.8000    0.0000 C   0  0  0  0  0  0           0  0  0
    5.1750   -3.8667    0.0000 O   0  0  0  0  0  0           0  0  0
    7.3167   -2.6292    0.0000 C   0  0  0  0  0  0           0  0  0
    0.8917   -1.3917    0.0000 O   0  0  0  0  0  0           0  0  0
    3.0292   -2.6292    0.0000 C   0  0  0  0  0  0           0  0  0
   -0.0083   -0.0250    0.0000 C   0  0  0  0  0  0           0  0  0
    1.6125   -1.8042    0.0000 C   0  0  0  0  0  0           0  0  0
    6.6042   -3.8667    0.0000 O   0  0  0  0  0  0           0  0  0
    3.0375   -1.8000    0.0000 C   0  0  0  0  0  0           0  0  0
    2.3167   -3.0375    0.0000 C   0  0  0  0  0  0           0  0  0
    1.6125   -2.6292    0.0000 C   0  0  0  0  0  0           0  0  0
    2.3167   -1.3875    0.0000 C   0  0  0  0  0  0           0  0  0
   -1.8333    0.3083    0.0000 C   0  0  0  0  0  0           0  0  0
   -2.6583   -1.1250    0.0000 C   0  0  0  0  0  0           0  0  0
    1.3917    0.2750    0.0000 O   0  0  0  0  0  0           0  0  0
    0.7792   -0.2792    0.0000 C   0  0  0  0  0  0           0  0  0
    2.1750    0.0208    0.0000 C   0  0  0  0  0  0           0  0  0
   -2.6583    0.3083    0.0000 C   0  0  0  0  0  0           0  0  0
   -3.0708   -0.4125    0.0000 C   0  0  0  0  0  0           0  0  0
    2.7875    0.5750    0.0000 C   0  0  0  0  0  0           0  0  0
  2  1  2  0     0  0
  3  1  1  0     0  0
  4  7  2  0     0  0
  5 13  1  0     0  0
  6  9  1  0     0  0
  7  5  1  0     0  0
  8 14  1  0     0  0
  9  5  2  0     0  0
 10  3  1  0     0  0
 11  2  1  0     0  0
 12  8  2  0     0  0
 13 12  1  0     0  0
 14 15  1  0     0  0
 15 17  2  0     0  0
 16  8  1  0     0  0
 17 23  1  0     0  0
 18  1  1  0     0  0
 19 21  1  0     0  0
 20 14  2  0     0  0
 21 16  2  0     0  0
 22 18  1  0     0  0
 23 27  2  0     0  0
 24  3  1  0     0  0
 25 22  1  0     0  0
 26 16  1  0     0  0
 27 30  1  0     0  0
 28 29  2  0     0  0
 29 25  1  0     0  0
 30 25  2  0     0  0
 31 10  1  0     0  0
 32 11  1  0     0  0
 33 34  1  0     0  0
 34 24  1  0     0  0
 35 33  1  0     0  0
 36 31  2  0     0  0
 37 32  2  0     0  0
 38 35  1  0     0  0
 10 11  2  0     0  0
 37 36  1  0     0  0
 23 28  1  0     0  0
 13 19  2  0     0  0
  6  4  1  0     0  0
M  END