
  SciTegic12171312592D

 29 32  0  0  0  0            999 V2000
   16.6628  -21.2426    0.0000 C   0  0
   16.6628  -22.0687    0.0000 C   0  0
   17.3762  -22.4795    0.0000 C   0  0
   18.0896  -22.0687    0.0000 C   0  0
   18.0896  -21.2426    0.0000 C   0  0
   17.3762  -20.8275    0.0000 C   0  0
   18.8073  -22.4795    0.0000 C   0  0
   19.5207  -22.0687    0.0000 N   0  0
   19.5207  -21.2426    0.0000 C   0  0
   18.8073  -20.8275    0.0000 C   0  0
   18.8073  -23.3052    0.0000 Cl  0  0
   18.8073  -20.0019    0.0000 O   0  0
   20.2337  -20.8277    0.0000 C   0  0
   20.2337  -20.0022    0.0000 O   0  0
   20.9511  -21.2426    0.0000 N   0  0
   21.6641  -20.8277    0.0000 C   0  0  1  0  0  0
   22.3772  -21.2426    0.0000 C   0  0
   21.6641  -20.0022    0.0000 C   0  0
   23.0944  -20.8277    0.0000 O   0  0
   22.3772  -22.0682    0.0000 O   0  0
   22.3773  -19.5904    0.0000 C   0  0
   23.1291  -19.9246    0.0000 C   0  0
   23.6801  -19.3126    0.0000 N   0  0
   22.4629  -18.7707    0.0000 C   0  0
   23.2673  -18.5997    0.0000 C   0  0
   23.5198  -17.8190    0.0000 C   0  0
   22.9690  -17.2086    0.0000 C   0  0
   22.1624  -17.3842    0.0000 C   0  0
   21.9136  -18.1646    0.0000 C   0  0
  1  2  2  0
  2  3  1  0
  3  4  2  0
  4  5  1  0
  5  6  2  0
  6  1  1  0
  4  7  1  0
  7  8  2  0
  8  9  1  0
  9 10  2  0
 10  5  1  0
  7 11  1  0
 10 12  1  0
  9 13  1  0
 13 14  2  0
 13 15  1  0
 15 16  1  0
 16 17  1  0
 16 18  1  6
 17 19  1  0
 17 20  2  0
 18 21  1  0
 21 22  2  0
 22 23  1  0
 23 25  1  0
 24 21  1  0
 24 25  2  0
 25 26  1  0
 26 27  2  0
 27 28  1  0
 28 29  2  0
 29 24  1  0
M  END