
          11280715092D 1   1.00000     0.00000     0

 40 43  0     0  0            999 V2000
    1.3542   -1.1292    0.0000 C   0  0  0  0  0  0           0  0  0
    6.4875   -1.1000    0.0000 C   0  0  0  0  0  0           0  0  0
    5.9667   -1.4042    0.0000 C   0  0  0  0  0  0           0  0  0
    1.8792   -1.4292    0.0000 C   0  0  0  0  0  0           0  0  0
    2.9167   -1.4250    0.0000 C   0  0  0  0  0  0           0  0  0
    4.9292   -1.4042    0.0000 C   0  0  0  0  0  0           0  0  0
    7.0042   -1.3917    0.0000 C   0  0  0  0  0  0           0  0  0
    0.8417   -1.4375    0.0000 C   0  0  0  0  0  0           0  0  0
    1.8792   -2.0292    0.0000 C   0  0  0  0  0  0           0  0  0
    5.9667   -2.0042    0.0000 C   0  0  0  0  0  0           0  0  0
    2.3917   -1.1292    0.0000 C   0  0  0  0  0  0           0  0  0
    5.4500   -1.1042    0.0000 C   0  0  0  0  0  0           0  0  0
    0.8417   -2.0375    0.0000 C   0  0  0  0  0  0           0  0  0
    7.0125   -2.0000    0.0000 C   0  0  0  0  0  0           0  0  0
    6.4917   -2.3042    0.0000 C   0  0  0  0  0  0           0  0  0
    1.3542   -2.3375    0.0000 C   0  0  0  0  0  0           0  0  0
    4.9292   -2.0042    0.0000 C   0  0  0  0  0  0           0  0  0
    2.9167   -2.0292    0.0000 C   0  0  0  0  0  0           0  0  0
    5.4500   -2.3042    0.0000 C   0  0  0  0  0  0           0  0  0
    2.4000   -2.3292    0.0000 C   0  0  0  0  0  0           0  0  0
    1.3542   -0.5292    0.0000 C   0  0  0  0  0  0           0  0  0
    6.4792   -0.5000    0.0000 C   0  0  0  0  0  0           0  0  0
    0.8292   -0.2375    0.0000 O   0  0  0  0  0  0           0  0  0
    7.0000   -0.1917    0.0000 O   0  0  0  0  0  0           0  0  0
    0.3167   -1.1292    0.0000 O   0  0  0  0  0  0           0  0  0
    7.5292   -1.0917    0.0000 O   0  0  0  0  0  0           0  0  0
    2.3917   -0.5292    0.0000 O   0  0  0  0  0  0           0  0  0
    5.4542   -0.5042    0.0000 O   0  0  0  0  0  0           0  0  0
    7.5375   -2.3042    0.0000 O   0  0  0  0  0  0           0  0  0
    0.3167   -2.3375    0.0000 O   0  0  0  0  0  0           0  0  0
    6.4917   -2.9042    0.0000 C   0  0  3  0  0  0           0  0  0
    1.3625   -2.9375    0.0000 C   0  0  3  0  0  0           0  0  0
    1.8750   -0.2292    0.0000 O   0  0  0  0  0  0           0  0  0
    5.9625   -0.2042    0.0000 O   0  0  0  0  0  0           0  0  0
    4.4125   -2.3042    0.0000 C   0  0  0  0  0  0           0  0  0
    3.4417   -2.3292    0.0000 C   0  0  0  0  0  0           0  0  0
    5.9750   -3.2042    0.0000 C   0  0  0  0  0  0           0  0  0
    7.0167   -3.2042    0.0000 C   0  0  0  0  0  0           0  0  0
    1.8792   -3.2375    0.0000 C   0  0  0  0  0  0           0  0  0
    0.8417   -3.2375    0.0000 C   0  0  0  0  0  0           0  0  0
  2  3  1  0     0  0
  3 12  2  0     0  0
  4  1  2  0     0  0
  5 11  2  0     0  0
  6  5  1  0     0  0
  7  2  2  0     0  0
  8  1  1  0     0  0
  9  4  1  0     0  0
 10 19  2  0     0  0
 11  4  1  0     0  0
 12  6  1  0     0  0
 13  8  2  0     0  0
 14 15  2  0     0  0
 15 10  1  0     0  0
 16 13  1  0     0  0
 17  6  2  0     0  0
 18  5  1  0     0  0
 19 17  1  0     0  0
 20  9  1  0     0  0
 21  1  1  0     0  0
 22  2  1  0     0  0
 23 21  2  0     0  0
 24 22  2  0     0  0
 25  8  1  0     0  0
 26  7  1  0     0  0
 27 11  1  0     0  0
 28 12  1  0     0  0
 29 14  1  0     0  0
 30 13  1  0     0  0
 31 15  1  0     0  0
 32 16  1  0     0  0
 33 21  1  0     0  0
 34 22  1  0     0  0
 35 17  1  0     0  0
 36 18  1  0     0  0
 37 31  1  0     0  0
 38 31  1  0     0  0
 39 32  1  0     0  0
 40 32  1  0     0  0
  9 16  2  0     0  0
 18 20  2  0     0  0
 10  3  1  0     0  0
 14  7  1  0     0  0
M  END