
  SciTegic12171313022D

 12 13  0  0  0  0            999 V2000
   20.2608   -2.4857    0.0000 N   0  0
   20.2596   -3.3131    0.0000 C   0  0
   20.9744   -3.7260    0.0000 C   0  0
   21.6909   -3.3126    0.0000 C   0  0
   21.6880   -2.4821    0.0000 C   0  0
   20.9726   -2.0730    0.0000 C   0  0
   22.3576   -2.0000    0.0000 C   0  0
   20.9742   -4.5510    0.0000 Br  0  0
   23.1405   -2.2559    0.0000 N   0  0
   23.6284   -1.5906    0.0000 N   0  0
   23.1463   -0.9210    0.0000 N   0  0
   22.3607   -1.1726    0.0000 N   0  0
  1  2  2  0
  2  3  1  0
  3  4  2  0
  4  5  1  0
  5  6  2  0
  6  1  1  0
  5  7  1  0
  3  8  1  0
  7  9  2  0
  9 10  1  0
 10 11  2  0
 11 12  1  0
 12  7  1  0
M  END