
  SciTegic09171211542D

 21 22  0  0  0  0            999 V2000
    5.8152  -19.3625    0.0000 C   0  0
    5.8141  -20.1898    0.0000 C   0  0
    6.5289  -20.6027    0.0000 C   0  0
    6.5271  -18.9497    0.0000 C   0  0
    7.2425  -19.3588    0.0000 C   0  0
    7.2473  -20.1853    0.0000 C   0  0
    8.0348  -20.4361    0.0000 N   0  0
    8.5167  -19.7646    0.0000 C   0  0
    8.0270  -19.0989    0.0000 S   0  0
    9.3417  -19.7597    0.0000 S   0  0
    5.1007  -18.9501    0.0000 N   0  0
    5.1005  -18.1251    0.0000 C   0  0
    4.3859  -17.7128    0.0000 C   0  0
    5.8148  -17.7125    0.0000 O   0  0
    3.6715  -18.1255    0.0000 C   0  0
    2.9570  -17.7131    0.0000 C   0  0
    2.2426  -18.1258    0.0000 O   0  0
    2.9568  -16.8881    0.0000 O   0  0
    9.7584  -20.4718    0.0000 C   0  0
   10.5834  -20.4669    0.0000 C   0  0
   11.0001  -21.1789    0.0000 C   0  0
  8 10  1  0
  5  6  1  0
  1 11  1  0
 11 12  1  0
  2  3  1  0
 12 13  1  0
  3  6  2  0
 12 14  2  0
  1  2  2  0
 13 15  1  0
  5  4  2  0
 15 16  1  0
  6  7  1  0
 16 17  1  0
  7  8  2  0
 16 18  2  0
  8  9  1  0
 10 19  1  0
  9  5  1  0
 19 20  1  0
  4  1  1  0
 20 21  2  0
M  END