
  CDK    9/16/09,9:46

 22 24  0  0  0  0  0  0  0  0999 V2000
   11.8197   -0.8141    0.0000 C   0  0  0  0  0  0  0  0  0  0  0  0
   11.8149   -1.6391    0.0000 C   0  0  0  0  0  0  0  0  0  0  0  0
   12.5283   -2.0557    0.0000 C   0  0  0  0  0  0  0  0  0  0  0  0
   12.5379   -0.4058    0.0000 C   0  0  0  0  0  0  0  0  0  0  0  0
   13.2514   -0.8224    0.0000 C   0  0  0  0  0  0  0  0  0  0  0  0
   13.2466   -1.6474    0.0000 C   0  0  0  0  0  0  0  0  0  0  0  0
   13.9559   -2.0640    0.0000 C   0  0  0  0  0  0  0  0  0  0  0  0
   14.6741   -1.6556    0.0000 C   0  0  0  0  0  0  0  0  0  0  0  0
   14.6789   -0.8307    0.0000 C   0  0  0  0  0  0  0  0  0  0  0  0
   13.9654   -0.4140    0.0000 C   0  0  0  0  0  0  0  0  0  0  0  0
   12.5427    0.4192    0.0000 N   0  0  0  0  0  0  0  0  0  0  0  0
   11.8292    0.8359    0.0000 C   0  0  0  0  0  0  0  0  0  0  0  0
   13.9702    0.4110    0.0000 O   0  0  0  0  0  0  0  0  0  0  0  0
   14.6885    0.8193    0.0000 S   0  0  0  0  0  0  0  0  0  0  0  0
   15.0968    0.1011    0.0000 O   0  0  0  0  0  0  0  0  0  0  0  0
   14.2801    1.5376    0.0000 O   0  0  0  0  0  0  0  0  0  0  0  0
   15.4067    1.2277    0.0000 O   0  0  0  0  0  0  0  0  0  0  0  0
   11.8340    1.6609    0.0000 C   0  0  0  0  0  0  0  0  0  0  0  0
   11.1247    2.0775    0.0000 C   0  0  0  0  0  0  0  0  0  0  0  0
   10.4065    1.6691    0.0000 C   0  0  0  0  0  0  0  0  0  0  0  0
   10.4017    0.8441    0.0000 C   0  0  0  0  0  0  0  0  0  0  0  0
   11.1151    0.4275    0.0000 C   0  0  0  0  0  0  0  0  0  0  0  0
  1  2  2  0  0  0  0 
  2  3  1  0  0  0  0 
  3  6  2  0  0  0  0 
  5  4  2  0  0  0  0 
  4  1  1  0  0  0  0 
  5  6  1  0  0  0  0 
  6  7  1  0  0  0  0 
  7  8  2  0  0  0  0 
  8  9  1  0  0  0  0 
  9 10  2  0  0  0  0 
 10  5  1  0  0  0  0 
  4 11  1  0  0  0  0 
 11 12  1  0  0  0  0 
 10 13  1  0  0  0  0 
 13 14  1  0  0  0  0 
 14 15  2  0  0  0  0 
 14 16  2  0  0  0  0 
 14 17  1  0  0  0  0 
 12 18  2  0  0  0  0 
 18 19  1  0  0  0  0 
 19 20  2  0  0  0  0 
 20 21  1  0  0  0  0 
 21 22  2  0  0  0  0 
 22 12  1  0  0  0  0 
M  END