
  SciTegic01161211242D

 21 20  0  0  0  0            999 V2000
    2.5951   -3.0039    0.0000 C   0  0
    2.5973   -1.5031    0.0000 C   0  0
    3.8912   -5.2578    0.0000 N   0  0
    3.8933   -3.7570    0.0000 C   0  0
    7.7815  -10.5187    0.0000 N   0  0
    5.1894   -6.0109    0.0000 O   0  0
    6.4855   -8.2648    0.0000 C   0  0
    5.1873   -7.5117    0.0000 C   0  0
    6.4833   -9.7656    0.0000 C   0  0
    1.2990   -0.7500    0.0000 C   0  0
   11.5776   -5.6363    0.0000 Cl  0  0
    7.5257   -7.6666    0.0000 O   0  0
    7.7794  -12.0195    0.0000 C   0  0
    4.9336   -3.1588    0.0000 C   0  0
    1.2990    0.7500    0.0000 C   0  0
    0.0000   -1.5000    0.0000 C   0  0
    8.8174  -12.6217    0.0000 C   0  0
    6.7391  -12.6177    0.0000 C   0  0
    0.0000    1.5000    0.0000 C   0  0
   -1.2990   -0.7500    0.0000 C   0  0
   -1.2990    0.7500    0.0000 C   0  0
  1  2  2  0
  1  4  1  0
  3  4  2  0
  3  6  1  0
  6  8  1  0
  7  8  1  0
  5  9  1  0
  7  9  1  0
  2 10  1  0
  7 12  1  0
  5 13  1  0
  4 14  1  0
 10 15  2  0
 10 16  1  0
 13 17  1  0
 13 18  1  0
 15 19  1  0
 16 20  2  0
 19 21  2  0
 20 21  1  0
M  END