
          11280715352D 1   1.00000     0.00000     0

 17 17  0     0  0            999 V2000
   -2.5625    0.1875    0.0000 C   0  0  0  0  0  0           0  0  0
   -3.0833    0.4875    0.0000 C   0  0  0  0  0  0           0  0  0
   -2.0458    0.4875    0.0000 C   0  0  0  0  0  0           0  0  0
   -3.6083    0.1958    0.0000 S   0  0  0  0  0  0           0  0  0
   -4.1208    0.4958    0.0000 C   0  0  0  0  0  0           0  0  0
   -3.0833    1.0875    0.0000 C   0  0  0  0  0  0           0  0  0
   -4.1208    1.0958    0.0000 C   0  0  0  0  0  0           0  0  0
   -2.0458    1.0875    0.0000 O   0  0  0  0  0  0           0  0  0
   -1.5250    0.1875    0.0000 O   0  0  0  0  0  0           0  0  0
    0.5542    0.1875    0.0000 N   0  0  0  0  0  0           0  0  0
   -0.4875    0.1875    0.0000 C   0  0  3  0  0  0           0  0  0
    0.0292    0.4875    0.0000 C   0  0  0  0  0  0           0  0  0
   -1.0083    0.4875    0.0000 C   0  0  0  0  0  0           0  0  0
   -0.4875   -0.4125    0.0000 O   0  0  0  0  0  0           0  0  0
    1.0667    0.4875    0.0000 C   0  0  3  0  0  0           0  0  0
    1.0667    1.0875    0.0000 C   0  0  0  0  0  0           0  0  0
    1.5917    0.1875    0.0000 C   0  0  0  0  0  0           0  0  0
  2  1  1  0     0  0
  3  1  1  0     0  0
  4  2  1  0     0  0
  5  4  1  0     0  0
  6  2  2  0     0  0
  7  6  1  0     0  0
  8  3  2  0     0  0
  9  3  1  0     0  0
 10 12  1  0     0  0
 11 13  1  0     0  0
 12 11  1  0     0  0
 13  9  1  0     0  0
 14 11  1  0     0  0
 15 10  1  0     0  0
 16 15  1  0     0  0
 17 15  1  0     0  0
  7  5  2  0     0  0
M  END