
  SciTegic01161211252D

 29 28  0  0  0  0            999 V2000
    2.5167   -6.4792    0.0000 C   0  0
    2.5042   -8.1292    0.0000 C   0  0
    1.8000   -7.7167    0.0000 C   0  0
    1.8042   -6.8917    0.0000 C   0  0
    1.1000   -3.6917    0.0000 C   0  0
    0.3917   -4.0917    0.0000 C   0  0
    2.5375   -3.6917    0.0000 N   0  0
    3.2250   -7.7250    0.0000 O   0  0
    3.2292   -6.8917    0.0000 O   0  0
    6.1125   -4.1125    0.0000 N   0  0
    1.8167   -4.1042    0.0000 C   0  0
    2.5042   -8.9542    0.0000 O   0  0
    2.5167   -5.6542    0.0000 O   0  0
    6.8250   -3.7000    0.0000 C   0  0
    3.2500   -4.1042    0.0000 O   0  0
    4.6875   -4.1125    0.0000 C   0  0
    5.4000   -3.7000    0.0000 C   0  0
    3.9667   -3.6917    0.0000 C   0  0
   -0.3208   -3.6792    0.0000 C   0  0
    4.6875   -4.9375    0.0000 O   0  0
    7.5375   -4.1125    0.0000 C   0  0
    6.8250   -2.8750    0.0000 C   0  0
    7.5375   -3.2792    0.0000 C   0  0
    1.8167   -4.9292    0.0000 C   0  0
   -0.3208   -2.8542    0.0000 C   0  0
   -1.0375   -4.0917    0.0000 C   0  0
   -1.0375   -2.4417    0.0000 C   0  0
   -1.7500   -3.6792    0.0000 C   0  0
   -1.7500   -2.8542    0.0000 C   0  0
  2  3  1  0
  3  4  2  0
  4  1  1  0
  6  5  2  0
  7 11  2  0
  8  2  1  0
  9  1  1  0
 10 17  1  0
 11  5  1  0
 12  2  2  0
 13  1  2  0
 14 10  1  0
 15  7  1  0
 16 18  1  0
 17 16  1  0
 18 15  1  0
 19  6  1  0
 20 16  1  0
 21 14  1  0
 22 14  1  0
 23 14  1  0
 24 11  1  0
 25 19  1  0
 26 19  2  0
 27 25  2  0
 28 26  1  0
 29 28  2  0
 27 29  1  0
M  END