
  CDK    9/16/09,9:56

 58 60  0  0  0  0  0  0  0  0999 V2000
   15.9048   -5.4833    0.0000 N   0  0  0  0  0  0  0  0  0  0  0  0
   16.6232   -5.9000    0.0000 C   0  0  0  0  0  0  0  0  0  0  0  0
   17.3377   -5.4875    0.0000 C   0  0  0  0  0  0  0  0  0  0  0  0
   16.6232   -6.7250    0.0000 C   0  0  0  0  0  0  0  0  0  0  0  0
   18.0521   -5.9000    0.0000 N   0  0  0  0  0  0  0  0  0  0  0  0
   17.3377   -4.6625    0.0000 O   0  0  0  0  0  0  0  0  0  0  0  0
   17.3377   -7.1375    0.0000 C   0  0  0  0  0  0  0  0  0  0  0  0
   17.3377   -7.9625    0.0000 C   0  0  0  0  0  0  0  0  0  0  0  0
   18.0521   -8.3750    0.0000 N   0  0  0  0  0  0  0  0  0  0  0  0
   18.0521   -9.2000    0.0000 C   0  0  0  0  0  0  0  0  0  0  0  0
   18.7666   -9.6125    0.0000 N   0  0  0  0  0  0  0  0  0  0  0  0
   17.3377   -9.6125    0.0000 N   0  0  0  0  0  0  0  0  0  0  0  0
   15.1903   -5.8958    0.0000 C   0  0  0  0  0  0  0  0  0  0  0  0
    3.7887   -5.8915    0.0000 O   0  0  0  0  0  0  0  0  0  0  0  0
    3.7852   -6.7140    0.0000 C   0  0  0  0  0  0  0  0  0  0  0  0
    3.0500   -7.0883    0.0000 C   0  0  0  0  0  0  0  0  0  0  0  0
    2.3168   -6.7118    0.0000 C   0  0  0  0  0  0  0  0  0  0  0  0
    2.1875   -5.8955    0.0000 O   0  0  0  0  0  0  0  0  0  0  0  0
    1.7319   -7.2954    0.0000 C   0  0  0  0  0  0  0  0  0  0  0  0
    0.9159   -7.1630    0.0000 O   0  0  0  0  0  0  0  0  0  0  0  0
    2.1063   -8.0307    0.0000 C   0  0  0  0  0  0  0  0  0  0  0  0
    2.9175   -7.9043    0.0000 O   0  0  0  0  0  0  0  0  0  0  0  0
    1.7298   -8.7639    0.0000 N   0  0  0  0  0  0  0  0  0  0  0  0
    0.9134   -8.8932    0.0000 C   0  0  0  0  0  0  0  0  0  0  0  0
    0.7810   -9.7092    0.0000 N   0  0  0  0  0  0  0  0  0  0  0  0
    1.5193  -10.0828    0.0000 C   0  0  0  0  0  0  0  0  0  0  0  0
    1.7310  -10.8814    0.0000 C   0  0  0  0  0  0  0  0  0  0  0  0
    1.1461  -11.4650    0.0000 N   0  0  0  0  0  0  0  0  0  0  0  0
    2.5274  -11.0964    0.0000 N   0  0  0  0  0  0  0  0  0  0  0  0
    3.1123  -10.5128    0.0000 C   0  0  0  0  0  0  0  0  0  0  0  0
    2.8995   -9.7182    0.0000 N   0  0  0  0  0  0  0  0  0  0  0  0
    2.1031   -9.5032    0.0000 C   0  0  0  0  0  0  0  0  0  0  0  0
    4.4877   -7.1466    0.0000 N   0  0  0  0  0  0  0  0  0  0  0  0
    8.0417   -5.8958    0.0000 C   0  0  0  0  0  0  0  0  0  0  0  0
    8.7561   -5.4833    0.0000 N   0  0  0  0  0  0  0  0  0  0  0  0
    7.3230   -5.4833    0.0000 C   0  0  0  0  0  0  0  0  0  0  0  0
    8.0417   -6.7250    0.0000 O   0  0  0  0  0  0  0  0  0  0  0  0
    6.6044   -5.8958    0.0000 C   0  0  0  0  0  0  0  0  0  0  0  0
    5.8858   -5.4833    0.0000 C   0  0  0  0  0  0  0  0  0  0  0  0
    5.1700   -5.8891    0.0000 C   0  0  0  0  0  0  0  0  0  0  0  0
    5.1910   -6.7175    0.0000 C   0  0  0  0  0  0  0  0  0  0  0  0
    9.4706   -5.8958    0.0000 C   0  0  0  0  0  0  0  0  0  0  0  0
   10.1851   -5.4833    0.0000 C   0  0  0  0  0  0  0  0  0  0  0  0
   10.8996   -5.8958    0.0000 C   0  0  0  0  0  0  0  0  0  0  0  0
   11.6140   -5.4833    0.0000 C   0  0  0  0  0  0  0  0  0  0  0  0
   12.3285   -5.8958    0.0000 C   0  0  0  0  0  0  0  0  0  0  0  0
   13.0430   -5.4833    0.0000 C   0  0  0  0  0  0  0  0  0  0  0  0
   13.7574   -5.8958    0.0000 N   0  0  0  0  0  0  0  0  0  0  0  0
   14.4719   -5.4833    0.0000 C   0  0  0  0  0  0  0  0  0  0  0  0
   13.0430   -4.6583    0.0000 O   0  0  0  0  0  0  0  0  0  0  0  0
   14.4719   -4.6583    0.0000 C   0  0  0  0  0  0  0  0  0  0  0  0
   15.1864   -4.2458    0.0000 C   0  0  0  0  0  0  0  0  0  0  0  0
   15.1864   -3.4208    0.0000 C   0  0  0  0  0  0  0  0  0  0  0  0
   15.9008   -3.0083    0.0000 N   0  0  0  0  0  0  0  0  0  0  0  0
   15.9008   -2.1833    0.0000 C   0  0  0  0  0  0  0  0  0  0  0  0
   16.6153   -1.7708    0.0000 N   0  0  0  0  0  0  0  0  0  0  0  0
   15.1864   -1.7708    0.0000 N   0  0  0  0  0  0  0  0  0  0  0  0
   15.1864   -6.7208    0.0000 O   0  0  0  0  0  0  0  0  0  0  0  0
 26 27  1  0  0  0  0 
 27 28  1  0  0  0  0 
 27 29  2  0  0  0  0 
 29 30  1  0  0  0  0 
 30 31  2  0  0  0  0 
 31 32  1  0  0  0  0 
 26 32  2  0  0  0  0 
 23 32  1  0  0  0  0 
  9 10  1  0  0  0  0 
 15 33  1  0  0  0  0 
  2  3  1  0  0  0  0 
 10 11  1  0  0  0  0 
 34 35  1  0  0  0  0 
  3  6  2  0  0  0  0 
 34 36  1  0  0  0  0 
 10 12  2  0  0  0  0 
 34 37  2  0  0  0  0 
  1  2  1  0  0  0  0 
 36 38  1  0  0  0  0 
 13  1  1  0  0  0  0 
 38 39  1  0  0  0  0 
  4  7  1  0  0  0  0 
 39 40  1  0  0  0  0 
  2  4  1  1  0  0  0 
 40 41  1  0  0  0  0 
 41 33  1  0  0  0  0 
  7  8  1  0  0  0  0 
 35 42  1  0  0  0  0 
 42 43  1  0  0  0  0 
  8  9  1  0  0  0  0 
 43 44  1  0  0  0  0 
  3  5  1  0  0  0  0 
 44 45  1  0  0  0  0 
 14 15  2  0  0  0  0 
 45 46  1  0  0  0  0 
 16 15  1  1  0  0  0 
 46 47  1  0  0  0  0 
 16 17  1  0  0  0  0 
 47 48  1  0  0  0  0 
 17 18  1  6  0  0  0 
 48 49  1  0  0  0  0 
 49 13  1  0  0  0  0 
 17 19  1  0  0  0  0 
 47 50  2  0  0  0  0 
 19 20  1  6  0  0  0 
 49 51  1  6  0  0  0 
 19 21  1  0  0  0  0 
 51 52  1  0  0  0  0 
 21 22  1  0  0  0  0 
 52 53  1  0  0  0  0 
 16 22  1  0  0  0  0 
 53 54  1  0  0  0  0 
 21 23  1  1  0  0  0 
 54 55  1  0  0  0  0 
 23 24  1  0  0  0  0 
 55 56  2  0  0  0  0 
 24 25  2  0  0  0  0 
 55 57  1  0  0  0  0 
 25 26  1  0  0  0  0 
 13 58  2  0  0  0  0 
M  END