
          11280714522D 1   1.00000     0.00000     0

 58 63  0     1  0            999 V2000
    2.4000   -9.0667    0.0000 N   0  0  0  0  0  0           0  0  0
    2.7542   -8.3125    0.0000 C   0  0  2  0  0  0           0  0  0
    1.5792   -7.3792    0.0000 N   0  0  3  0  0  0           0  0  0
    2.3917   -7.5542    0.0000 C   0  0  0  0  0  0           0  0  0
    1.5875   -9.2542    0.0000 C   0  0  0  0  0  0           0  0  0
    0.9292   -8.7292    0.0000 C   0  0  0  0  0  0           0  0  0
    3.5792   -8.3042    0.0000 N   0  0  0  0  0  0           0  0  0
    0.9292   -7.9042    0.0000 C   0  0  0  0  0  0           0  0  0
    3.9917   -9.0167    0.0000 C   0  0  0  0  0  0           0  0  0
    2.4167   -4.6417    0.0000 C   0  0  0  0  0  0           0  0  0
    4.8167   -9.0167    0.0000 N   0  0  0  0  0  0           0  0  0
   12.8917   -4.9542    0.0000 N   0  0  3  0  0  0           0  0  0
    2.9042   -6.9125    0.0000 O   0  0  0  0  0  0           0  0  0
    5.9875   -4.2375    0.0000 C   0  0  0  0  0  0           0  0  0
    1.4042  -10.0542    0.0000 C   0  0  0  0  0  0           0  0  0
    3.5875   -9.7375    0.0000 O   0  0  0  0  0  0           0  0  0
    2.2292   -3.8417    0.0000 O   0  0  0  0  0  0           0  0  0
    5.2375   -9.7292    0.0000 C   0  0  0  0  0  0           0  0  0
    6.1750   -5.0417    0.0000 O   0  0  0  0  0  0           0  0  0
   12.2417   -4.4542    0.0000 C   0  0  0  0  0  0           0  0  0
    3.2042   -4.8792    0.0000 N   0  0  0  0  0  0           0  0  0
   11.4792   -4.7667    0.0000 C   0  0  0  0  0  0           0  0  0
    1.3917   -6.5750    0.0000 C   0  0  0  0  0  0           0  0  0
    6.5917   -3.6750    0.0000 N   0  0  0  0  0  0           0  0  0
    1.8125   -5.2042    0.0000 O   0  0  0  0  0  0           0  0  0
    4.8250  -10.4417    0.0000 C   0  0  0  0  0  0           0  0  0
   10.8292   -4.2542    0.0000 C   0  0  0  0  0  0           0  0  0
    0.2167   -9.1417    0.0000 C   0  0  0  0  0  0           0  0  0
   10.0667   -4.5750    0.0000 C   0  0  0  0  0  0           0  0  0
    0.2167   -7.4917    0.0000 C   0  0  0  0  0  0           0  0  0
    5.2375  -11.1542    0.0000 C   0  0  0  0  0  0           0  0  0
    2.0000   -6.0125    0.0000 C   0  0  0  0  0  0           0  0  0
    8.0042   -3.8667    0.0000 C   0  0  0  0  0  0           0  0  0
    9.4167   -4.0667    0.0000 O   0  0  0  0  0  0           0  0  0
   12.7792   -5.7750    0.0000 C   0  0  0  0  0  0           0  0  0
   13.6542   -4.6417    0.0000 C   0  0  0  0  0  0           0  0  0
    6.4750  -10.4375    0.0000 C   0  0  0  0  0  0           0  0  0
   10.6042   -5.8917    0.0000 C   0  0  0  0  0  0           0  0  0
    5.2000   -3.9917    0.0000 C   0  0  0  0  0  0           0  0  0
    7.2417   -4.1792    0.0000 C   0  0  0  0  0  0           0  0  0
    6.0542   -9.7292    0.0000 C   0  0  0  0  0  0           0  0  0
   11.3667   -5.5875    0.0000 C   0  0  0  0  0  0           0  0  0
    0.6167  -10.3000    0.0000 C   0  0  0  0  0  0           0  0  0
    2.0042  -10.6125    0.0000 C   0  0  0  0  0  0           0  0  0
    8.6542   -4.3792    0.0000 C   0  0  0  0  0  0           0  0  0
    3.8042   -4.3167    0.0000 C   0  0  0  0  0  0           0  0  0
    9.9542   -5.3917    0.0000 C   0  0  0  0  0  0           0  0  0
    6.0625  -11.1542    0.0000 C   0  0  0  0  0  0           0  0  0
    4.8250  -11.8750    0.0000 C   0  0  0  0  0  0           0  0  0
    4.5917   -4.5625    0.0000 C   0  0  0  0  0  0           0  0  0
   -0.4958   -8.7292    0.0000 C   0  0  0  0  0  0           0  0  0
   -0.4958   -7.9042    0.0000 C   0  0  0  0  0  0           0  0  0
   13.4292   -6.2792    0.0000 C   0  0  0  0  0  0           0  0  0
   14.3042   -5.1500    0.0000 C   0  0  0  0  0  0           0  0  0
    1.8292  -11.4125    0.0000 C   0  0  0  0  0  0           0  0  0
    0.4292  -11.1000    0.0000 C   0  0  0  0  0  0           0  0  0
   14.1917   -5.9667    0.0000 C   0  0  0  0  0  0           0  0  0
    1.0375  -11.6625    0.0000 C   0  0  0  0  0  0           0  0  0
  2  1  1  0     0  0
  3  4  1  0     0  0
  4  2  1  0     0  0
  5  1  2  0     0  0
  6  5  1  0     0  0
  2  7  1  6     0  0
  8  6  1  0     0  0
  9  7  1  0     0  0
 10 25  1  0     0  0
 11  9  1  0     0  0
 12 20  1  0     0  0
 13  4  2  0     0  0
 14 39  1  0     0  0
 15  5  1  0     0  0
 16  9  2  0     0  0
 17 10  2  0     0  0
 18 11  1  0     0  0
 19 14  2  0     0  0
 20 22  1  0     0  0
 21 10  1  0     0  0
 22 27  2  0     0  0
 23  3  1  0     0  0
 24 14  1  0     0  0
 25 32  1  0     0  0
 26 18  2  0     0  0
 27 29  1  0     0  0
 28  6  2  0     0  0
 29 34  1  0     0  0
 30  8  2  0     0  0
 31 26  1  0     0  0
 32 23  1  0     0  0
 33 40  1  0     0  0
 34 45  1  0     0  0
 35 12  1  0     0  0
 36 12  1  0     0  0
 37 41  2  0     0  0
 38 47  1  0     0  0
 39 50  1  0     0  0
 40 24  1  0     0  0
 41 18  1  0     0  0
 42 38  2  0     0  0
 43 15  2  0     0  0
 44 15  1  0     0  0
 45 33  1  0     0  0
 46 21  1  0     0  0
 47 29  2  0     0  0
 48 37  1  0     0  0
 49 31  1  0     0  0
 50 46  1  0     0  0
 51 28  1  0     0  0
 52 51  2  0     0  0
 53 35  1  0     0  0
 54 36  1  0     0  0
 55 44  2  0     0  0
 56 43  1  0     0  0
 57 54  1  0     0  0
 58 55  1  0     0  0
  8  3  1  0     0  0
 56 58  2  0     0  0
 30 52  1  0     0  0
 31 48  2  0     0  0
 22 42  1  0     0  0
 53 57  1  0     0  0
M  END