
  SciTegic09291413392D

 12 13  0  0  0  0            999 V2000
    2.7886   -2.1998    0.0000 C   0  0
    2.7874   -3.0193    0.0000 C   0  0
    3.4955   -3.4283    0.0000 C   0  0
    4.2052   -3.0188    0.0000 C   0  0
    4.2023   -2.1962    0.0000 C   0  0
    3.4937   -1.7909    0.0000 C   0  0
    4.9085   -1.7849    0.0000 N   0  0
    2.0848   -1.7871    0.0000 C   0  0
    1.9991   -0.9744    0.0000 O   0  0
    1.1998   -0.8047    0.0000 C   0  0
    0.7913   -1.5126    0.0000 N   0  0
    1.3383   -2.1196    0.0000 C   0  0
  1  2  2  0
  2  3  1  0
  3  4  2  0
  4  5  1  0
  5  6  2  0
  6  1  1  0
  5  7  1  0
  8  9  1  0
  9 10  1  0
 10 11  2  0
 11 12  1  0
 12  8  2  0
  1  8  1  0
M  END