
  SciTegic05071317032D

 23 21  0  0  0  0            999 V2000
    9.0441   -2.7915    0.0000 C   0  0
    9.0429   -3.6188    0.0000 C   0  0
    9.7577   -4.0317    0.0000 C   0  0
   10.4741   -3.6184    0.0000 C   0  0
   10.4712   -2.7879    0.0000 C   0  0
    9.7559   -2.3787    0.0000 C   0  0
   11.1841   -2.3727    0.0000 O   0  0
   11.9001   -2.7825    0.0000 C   0  0
   12.6130   -2.3673    0.0000 C   0  0
   13.3290   -2.7771    0.0000 C   0  0
   14.0419   -2.3620    0.0000 N   0  0
   14.7577   -2.7749    0.0000 C   0  0
   15.4685   -2.3633    0.0000 C   0  0
   15.4696   -1.5379    0.0000 N   0  0
   14.7538   -1.1259    0.0000 C   0  0
   14.0368   -1.5393    0.0000 C   0  0
   16.1841   -1.1254    0.0000 C   0  0
   16.8985   -1.5379    0.0000 C   0  0
   17.6130   -1.1255    0.0000 C   0  0
   18.3275   -1.5380    0.0000 N   0  0
   14.8498   -4.0989    0.0000 Cl  0  0
   16.6179   -3.3884    0.0000 Cl  0  0
   16.6768   -4.9500    0.0000 Cl  0  0
  1  2  2  0
  2  3  1  0
  3  4  2  0
  4  5  1  0
  5  6  2  0
  6  1  1  0
  5  7  1  0
  7  8  1  0
  8  9  1  0
  9 10  1  0
 10 11  1  0
 11 12  1  0
 11 16  1  0
 12 13  1  0
 13 14  1  0
 14 15  1  0
 15 16  1  0
 14 17  1  0
 17 18  1  0
 18 19  1  0
 19 20  1  0
M  END