
          11280714452D 1   1.00000     0.00000     0

 33 35  0     0  0            999 V2000
    0.5542   -2.6000    0.0000 C   0  0  0  0  0  0           0  0  0
   -0.2083   -2.2667    0.0000 N   0  0  0  0  0  0           0  0  0
    0.4667   -3.4167    0.0000 N   0  0  0  0  0  0           0  0  0
   -0.3458   -3.5917    0.0000 C   0  0  0  0  0  0           0  0  0
   -0.7583   -2.8792    0.0000 C   0  0  0  0  0  0           0  0  0
    1.2667   -2.1875    0.0000 C   0  0  0  0  0  0           0  0  0
    9.1292   -2.5667    0.0000 C   0  0  0  0  0  0           0  0  0
    9.8417   -2.1500    0.0000 C   0  0  0  0  0  0           0  0  0
    8.4167   -2.1542    0.0000 C   0  0  0  0  0  0           0  0  0
    1.9792   -2.6000    0.0000 C   0  0  0  0  0  0           0  0  0
    1.2667   -1.3542    0.0000 C   0  0  0  0  0  0           0  0  0
    9.8292   -1.3167    0.0000 C   0  0  0  0  0  0           0  0  0
    3.4042   -0.9417    0.0000 O   0  0  0  0  0  0           0  0  0
    2.6917   -1.3542    0.0000 C   0  0  0  0  0  0           0  0  0
   -0.6833   -4.3417    0.0000 C   0  0  0  0  0  0           0  0  0
    8.4042   -1.3292    0.0000 C   0  0  0  0  0  0           0  0  0
    4.8417   -0.9375    0.0000 C   0  0  3  0  0  0           0  0  0
    4.1292   -1.3500    0.0000 C   0  0  0  0  0  0           0  0  0
    2.6917   -2.1875    0.0000 C   0  0  0  0  0  0           0  0  0
    1.9792   -0.9417    0.0000 C   0  0  0  0  0  0           0  0  0
    9.1167   -0.9167    0.0000 C   0  0  0  0  0  0           0  0  0
    9.1292   -3.3917    0.0000 O   0  0  0  0  0  0           0  0  0
    6.2667   -0.9292    0.0000 N   0  0  0  0  0  0           0  0  0
   10.5542   -2.5625    0.0000 O   0  0  0  0  0  0           0  0  0
    4.8292   -0.1125    0.0000 O   0  0  0  0  0  0           0  0  0
   -1.9833   -3.7625    0.0000 O   0  0  0  0  0  0           0  0  0
    5.5542   -1.3417    0.0000 C   0  0  0  0  0  0           0  0  0
   -1.4958   -4.4292    0.0000 C   0  0  0  0  0  0           0  0  0
    6.9792   -1.3417    0.0000 C   0  0  0  0  0  0           0  0  0
    7.6917   -0.9250    0.0000 C   0  0  0  0  0  0           0  0  0
    8.4167   -3.8042    0.0000 C   0  0  0  0  0  0           0  0  0
   10.5667   -3.3875    0.0000 C   0  0  0  0  0  0           0  0  0
   -1.6583   -3.0042    0.0000 C   0  0  0  0  0  0           0  0  0
  2  1  1  0     0  0
  3  1  2  0     0  0
  4  3  1  0     0  0
  5  2  1  0     0  0
  6  1  1  0     0  0
  7  9  1  0     0  0
  8 12  1  0     0  0
  9 16  2  0     0  0
 10  6  2  0     0  0
 11  6  1  0     0  0
 12 21  2  0     0  0
 13 14  1  0     0  0
 14 20  1  0     0  0
 15  4  1  0     0  0
 16 30  1  0     0  0
 17 18  1  0     0  0
 18 13  1  0     0  0
 19 10  1  0     0  0
 20 11  2  0     0  0
 21 16  1  0     0  0
 22  7  1  0     0  0
 23 27  1  0     0  0
 24  8  1  0     0  0
 25 17  1  0     0  0
 26 28  1  0     0  0
 27 17  1  0     0  0
 28 15  1  0     0  0
 29 23  1  0     0  0
 30 29  1  0     0  0
 31 22  1  0     0  0
 32 24  1  0     0  0
 33 26  1  0     0  0
  5  4  2  0     0  0
 14 19  2  0     0  0
  7  8  2  0     0  0
M  END