
          11280715062D 1   1.00000     0.00000     0

 24 26  0     0  0            999 V2000
    4.2167   -3.0792    0.0000 N   0  0  0  0  0  0           0  0  0
    3.7000   -3.3792    0.0000 C   0  0  3  0  0  0           0  0  0
    4.7417   -3.3792    0.0000 C   0  0  0  0  0  0           0  0  0
    4.7417   -3.9792    0.0000 O   0  0  0  0  0  0           0  0  0
    3.1792   -3.0792    0.0000 C   0  0  0  0  0  0           0  0  0
    5.7792   -3.3792    0.0000 N   0  0  0  0  0  0           0  0  0
    3.7000   -3.9792    0.0000 C   0  0  3  0  0  0           0  0  0
    5.2542   -3.0792    0.0000 C   0  0  0  0  0  0           0  0  0
    6.3000   -3.0750    0.0000 C   0  0  3  0  0  0           0  0  0
    2.6625   -3.3792    0.0000 C   0  0  0  0  0  0           0  0  0
    3.1792   -2.4792    0.0000 C   0  0  0  0  0  0           0  0  0
    4.2167   -4.2792    0.0000 C   0  0  0  0  0  0           0  0  0
    3.1875   -4.2792    0.0000 C   0  0  0  0  0  0           0  0  0
    6.8167   -3.3750    0.0000 C   0  0  0  0  0  0           0  0  0
    6.2917   -2.4750    0.0000 C   0  0  0  0  0  0           0  0  0
    2.6625   -2.1792    0.0000 C   0  0  0  0  0  0           0  0  0
    2.1417   -3.0875    0.0000 C   0  0  0  0  0  0           0  0  0
    3.1875   -4.8792    0.0000 C   0  0  0  0  0  0           0  0  0
    4.2167   -4.8792    0.0000 C   0  0  0  0  0  0           0  0  0
    6.8167   -2.1750    0.0000 C   0  0  0  0  0  0           0  0  0
    7.3292   -3.0792    0.0000 C   0  0  0  0  0  0           0  0  0
    7.3292   -2.4792    0.0000 C   0  0  0  0  0  0           0  0  0
    2.1417   -2.4792    0.0000 C   0  0  0  0  0  0           0  0  0
    3.7000   -5.1792    0.0000 C   0  0  0  0  0  0           0  0  0
  2  1  1  0     0  0
  3  1  1  0     0  0
  4  3  2  0     0  0
  5  2  1  0     0  0
  6  8  1  0     0  0
  7  2  1  0     0  0
  8  3  1  0     0  0
  9  6  1  0     0  0
 10  5  1  0     0  0
 11  5  2  0     0  0
 12  7  1  0     0  0
 13  7  1  0     0  0
 14  9  1  0     0  0
 15  9  1  0     0  0
 16 11  1  0     0  0
 17 10  2  0     0  0
 18 13  1  0     0  0
 19 12  1  0     0  0
 20 15  1  0     0  0
 21 14  1  0     0  0
 22 20  1  0     0  0
 23 16  2  0     0  0
 24 18  1  0     0  0
 19 24  1  0     0  0
 23 17  1  0     0  0
 21 22  1  0     0  0
M  END