
  SciTegic12121614132D

 18 19  0  0  0  0            999 V2000
    1.2990   -0.7500    0.0000 C   0  0
    1.2990    0.7500    0.0000 C   0  0
    0.0000    1.5000    0.0000 C   0  0
   -1.2990    0.7500    0.0000 C   0  0
   -1.2990   -0.7500    0.0000 C   0  0
    0.0000   -1.5000    0.0000 C   0  0
    0.0000    3.0008    0.0000 C   0  0
    1.2121    3.8625    0.0000 C   0  0
    0.7463    5.2884    0.0000 O   0  0
   -0.7537    5.2860    0.0000 N   0  0
   -1.2149    3.8587    0.0000 C   0  0
   -2.3383   -1.3500    0.0000 N   0  0
    2.5973   -1.5031    0.0000 C   0  0
    3.6375   -0.9049    0.0000 O   0  0
    2.5951   -3.0039    0.0000 O   0  0
    3.6331   -3.6060    0.0000 C   0  0
    2.3518    3.4868    0.0000 C   0  0
   -2.3534    3.4793    0.0000 C   0  0
  1  2  2  0
  2  3  1  0
  3  4  2  0
  4  5  1  0
  5  6  2  0
  6  1  1  0
  7  8  2  0
  8  9  1  0
  9 10  1  0
 10 11  2  0
 11  7  1  0
  3  7  1  0
  5 12  1  0
  1 13  1  0
 13 14  2  0
 13 15  1  0
 15 16  1  0
  8 17  1  0
 11 18  1  0
M  END