
          11280715102D 1   1.00000     0.00000     0

 22 25  0     0  0            999 V2000
    3.5042   -3.2292    0.0000 N   0  0  3  0  0  0           0  0  0
    2.7917   -3.6417    0.0000 C   0  0  0  0  0  0           0  0  0
    4.2542   -3.5625    0.0000 C   0  0  0  0  0  0           0  0  0
    5.6042   -3.1167    0.0000 C   0  0  0  0  0  0           0  0  0
    4.8042   -2.9500    0.0000 C   0  0  0  0  0  0           0  0  0
    5.8667   -3.8917    0.0000 C   0  0  0  0  0  0           0  0  0
    6.6875   -3.8875    0.0000 N   0  0  3  0  0  0           0  0  0
    6.2667   -2.6292    0.0000 C   0  0  0  0  0  0           0  0  0
    6.9292   -3.1042    0.0000 C   0  0  0  0  0  0           0  0  0
    2.0667   -3.2375    0.0000 N   0  0  0  0  0  0           0  0  0
    3.5875   -2.4042    0.0000 C   0  0  0  0  0  0           0  0  0
    4.3917   -2.2375    0.0000 C   0  0  0  0  0  0           0  0  0
    4.5042   -4.3417    0.0000 C   0  0  0  0  0  0           0  0  0
    5.3167   -4.5042    0.0000 C   0  0  0  0  0  0           0  0  0
    2.7917   -4.4667    0.0000 O   0  0  0  0  0  0           0  0  0
    0.6417   -4.8917    0.0000 N   0  0  0  0  0  0           0  0  0
    1.3625   -3.6542    0.0000 C   0  0  0  0  0  0           0  0  0
    7.1792   -4.5500    0.0000 C   0  0  0  0  0  0           0  0  0
    1.3625   -4.4792    0.0000 C   0  0  0  0  0  0           0  0  0
   -0.0708   -4.4792    0.0000 C   0  0  0  0  0  0           0  0  0
    0.6417   -3.2417    0.0000 C   0  0  0  0  0  0           0  0  0
   -0.0708   -3.6542    0.0000 C   0  0  0  0  0  0           0  0  0
  2  1  1  0     0  0
  3  1  1  0     0  0
  4  5  1  0     0  0
  5  3  2  0     0  0
  6 14  1  0     0  0
  7  6  1  0     0  0
  8  4  1  0     0  0
  9  8  2  0     0  0
 10  2  1  0     0  0
 11  1  1  0     0  0
 12 11  1  0     0  0
 13  3  1  0     0  0
 14 13  2  0     0  0
 15  2  2  0     0  0
 16 19  2  0     0  0
 17 10  1  0     0  0
 18  7  1  0     0  0
 19 17  1  0     0  0
 20 22  2  0     0  0
 21 17  2  0     0  0
 22 21  1  0     0  0
 12  5  1  0     0  0
  6  4  2  0     0  0
  9  7  1  0     0  0
 20 16  1  0     0  0
M  END