
          11280715492D 1   1.00000     0.00000     0

 24 25  0     1  0            999 V2000
    6.1000  -22.3500    0.0000 C   0  0  0  0  0  0           0  0  0
    6.1000  -23.1750    0.0000 C   0  0  0  0  0  0           0  0  0
    6.8120  -23.5833    0.0000 N   0  0  3  0  0  0           0  0  0
    7.5240  -23.1750    0.0000 C   0  0  0  0  0  0           0  0  0
    7.5240  -22.3500    0.0000 N   0  0  3  0  0  0           0  0  0
    6.8120  -21.9333    0.0000 C   0  0  0  0  0  0           0  0  0
    6.8120  -21.1083    0.0000 O   0  0  0  0  0  0           0  0  0
    8.2379  -23.5885    0.0000 O   0  0  0  0  0  0           0  0  0
    8.2383  -21.9346    0.0000 C   0  0  0  0  0  0           0  0  0
    8.9541  -22.3448    0.0000 C   0  0  0  0  0  0           0  0  0
    8.9540  -23.1678    0.0000 C   0  0  0  0  0  0           0  0  0
    9.6690  -23.5779    0.0000 C   0  0  0  0  0  0           0  0  0
   10.3831  -23.1630    0.0000 C   0  0  0  0  0  0           0  0  0
   10.3778  -22.3338    0.0000 C   0  0  0  0  0  0           0  0  0
    9.6623  -21.9274    0.0000 C   0  0  0  0  0  0           0  0  0
    6.8120  -24.4083    0.0000 C   0  0  0  0  0  0           0  0  0
    6.0975  -24.8208    0.0000 C   0  0  1  0  0  0           0  0  0
    6.0975  -25.6458    0.0000 C   0  0  0  0  0  0           0  0  0
    5.3831  -24.4083    0.0000 N   0  0  0  0  0  0           0  0  0
    5.3831  -26.0583    0.0000 O   0  0  0  0  0  0           0  0  0
    6.8120  -26.0583    0.0000 O   0  0  0  0  0  0           0  0  0
   11.0895  -21.9165    0.0000 C   0  0  0  0  0  0           0  0  0
   11.8067  -22.3241    0.0000 O   0  0  0  0  0  0           0  0  0
   11.0839  -21.0915    0.0000 O   0  0  0  0  0  0           0  0  0
 11 12  1  0     0  0
  5  6  1  0     0  0
 12 13  2  0     0  0
 13 14  1  0     0  0
  6  7  2  0     0  0
 14 15  2  0     0  0
 15 10  1  0     0  0
  1  2  2  0     0  0
  3 16  1  0     0  0
  4  8  2  0     0  0
 16 17  1  0     0  0
  1  6  1  0     0  0
 17 18  1  0     0  0
  5  9  1  0     0  0
 17 19  1  1     0  0
  2  3  1  0     0  0
 18 20  1  0     0  0
  9 10  1  0     0  0
 18 21  2  0     0  0
  3  4  1  0     0  0
 14 22  1  0     0  0
 10 11  2  0     0  0
 22 23  1  0     0  0
  4  5  1  0     0  0
 22 24  2  0     0  0
M  END