
          11280715492D 1   1.00000     0.00000     0

 23 25  0     0  0            999 V2000
    2.6319    3.2667    0.0000 N   0  0  0  0  0  0           0  0  0
    2.6307    2.4393    0.0000 C   0  0  0  0  0  0           0  0  0
    3.3456    2.0265    0.0000 C   0  0  0  0  0  0           0  0  0
    4.0620    2.4398    0.0000 C   0  0  0  0  0  0           0  0  0
    4.0591    3.2703    0.0000 C   0  0  0  0  0  0           0  0  0
    3.3438    3.6795    0.0000 C   0  0  0  0  0  0           0  0  0
    4.7771    2.0284    0.0000 C   0  0  0  0  0  0           0  0  0
    5.6686    1.0326    0.0000 N   0  0  0  0  0  0           0  0  0
    6.0802    1.7441    0.0000 C   0  0  0  0  0  0           0  0  0
    5.5195    2.3666    0.0000 N   0  0  0  0  0  0           0  0  0
    4.8615    1.2110    0.0000 C   0  0  0  0  0  0           0  0  0
    4.2458    0.6629    0.0000 C   0  0  0  0  0  0           0  0  0
    3.5244    1.0654    0.0000 C   0  0  0  0  0  0           0  0  0
    2.8172    0.6420    0.0000 C   0  0  0  0  0  0           0  0  0
    2.8303   -0.1838    0.0000 C   0  0  0  0  0  0           0  0  0
    3.5565   -0.5843    0.0000 C   0  0  0  0  0  0           0  0  0
    4.2606   -0.1586    0.0000 C   0  0  0  0  0  0           0  0  0
    2.1233   -0.6089    0.0000 Cl  0  0  0  0  0  0           0  0  0
    3.5729   -1.4092    0.0000 O   0  0  0  0  0  0           0  0  0
    6.9050    1.7637    0.0000 C   0  0  3  0  0  0           0  0  0
    7.7292    1.7667    0.0000 C   0  0  0  0  0  0           0  0  0
    6.8937    2.5887    0.0000 C   0  0  0  0  0  0           0  0  0
    6.9171    0.9388    0.0000 C   0  0  0  0  0  0           0  0  0
 11  8  1  0     0  0
  5  6  1  0     0  0
  6  1  2  0     0  0
 12 13  2  0     0  0
  1  2  1  0     0  0
 13 14  1  0     0  0
  4  7  1  0     0  0
 14 15  2  0     0  0
  3  4  1  0     0  0
 15 16  1  0     0  0
 16 17  2  0     0  0
 17 12  1  0     0  0
 11 12  1  0     0  0
  4  5  2  0     0  0
 15 18  1  0     0  0
  2  3  2  0     0  0
 16 19  1  0     0  0
  8  9  2  0     0  0
  9 20  1  0     0  0
  9 10  1  0     0  0
 20 21  1  0     0  0
 10  7  1  0     0  0
 20 22  1  0     0  0
  7 11  2  0     0  0
 20 23  1  0     0  0
M  END