
  SciTegic05171617282D

 30 33  0  0  0  0            999 V2000
   -5.2115   -0.4502    0.0000 C   0  0
   -5.2109    0.7498    0.0000 N   0  0
   -6.5106    1.5004    0.0000 C   0  0
   -7.8109    0.7510    0.0000 C   0  0
   -7.8115   -0.4490    0.0000 O   0  0
   -9.1106    1.5016    0.0000 N   0  0
  -10.4109    0.7522    0.0000 C   0  0
  -11.7391    1.3640    0.0000 N   0  0
  -12.7521    0.2668    0.0000 C   0  0
  -14.2558    0.2953    0.0000 C   0  0
  -15.0208   -1.0178    0.0000 C   0  0
  -14.2842   -2.3187    0.0000 C   0  0
  -14.8953   -3.3515    0.0000 Cl  0  0
  -12.7647   -2.3383    0.0000 C   0  0
  -12.0155   -1.0342    0.0000 C   0  0
  -10.5534   -0.7302    0.0000 S   0  0
   -3.9106    1.4992    0.0000 S   0  0
   -3.9101    2.6992    0.0000 O   0  0
   -4.9495    2.0999    0.0000 O   0  0
   -2.6111    0.7486    0.0000 C   0  0
   -2.6111   -0.7486    0.0000 C   0  0
   -1.2964   -1.4973    0.0000 C   0  0
    0.0000   -0.7486    0.0000 C   0  0
    1.2964   -1.4973    0.0000 N   0  0
    2.5929   -0.7486    0.0000 C   0  0
    3.6321   -1.3486    0.0000 O   0  0
    2.5929    0.7486    0.0000 C   0  0
    1.2964    1.4973    0.0000 C   0  0
    0.0000    0.7486    0.0000 C   0  0
   -1.2964    1.4973    0.0000 C   0  0
  1  2  1  0
  2  3  1  0
  3  4  1  0
  4  5  2  0
  4  6  1  0
  6  7  1  0
  7  8  2  0
  8  9  1  0
  9 10  2  0
 10 11  1  0
 11 12  2  0
 12 13  1  0
 12 14  1  0
 14 15  2  0
  9 15  1  0
 15 16  1  0
  7 16  1  0
  2 17  1  0
 17 18  2  0
 17 19  2  0
 17 20  1  0
 20 21  2  0
 21 22  1  0
 22 23  2  0
 23 24  1  0
 24 25  1  0
 25 26  2  0
 25 27  1  0
 27 28  2  0
 28 29  1  0
 23 29  1  0
 29 30  2  0
 20 30  1  0
M  END