
  SciTegic04021211102D

 19 21  0  0  0  0            999 V2000
   -4.4556   -6.5916    0.0000 N   0  0
   -4.4568   -7.4190    0.0000 C   0  0
   -3.7419   -7.8319    0.0000 N   0  0
   -3.7437   -6.1789    0.0000 C   0  0
   -3.0284   -6.5880    0.0000 C   0  0
   -3.0281   -7.4144    0.0000 C   0  0
   -2.2420   -7.6696    0.0000 N   0  0
   -1.7564   -7.0008    0.0000 C   0  0
   -2.2424   -6.3324    0.0000 N   0  0
   -3.7462   -5.3539    0.0000 N   0  0
   -3.0330   -4.9392    0.0000 C   0  0
   -2.3194   -5.3520    0.0000 C   0  0
   -1.6067   -4.9381    0.0000 C   0  0
   -1.6087   -4.1122    0.0000 C   0  0
   -2.3294   -3.7020    0.0000 C   0  0
   -3.0392   -4.1183    0.0000 C   0  0
   -5.1716   -7.8309    0.0000 N   0  0
   -2.3348   -2.8770    0.0000 Cl  0  0
   -0.8960   -3.6966    0.0000 F   0  0
  9  5  1  0
  4  1  1  0
  4 10  1  0
  5  6  1  0
 10 11  1  0
 11 12  2  0
  2  3  1  0
 12 13  1  0
  3  6  2  0
 13 14  2  0
  1  2  2  0
 14 15  1  0
  5  4  2  0
 15 16  2  0
 16 11  1  0
  6  7  1  0
  2 17  1  0
  7  8  1  0
 15 18  1  0
  8  9  2  0
 14 19  1  0
M  END