
          11280715472D 1   1.00000     0.00000     0

 28 30  0     0  0            999 V2000
    6.0667   -2.6167    0.0000 S   0  0  3  0  0  0           0  0  0
    5.3417   -3.0125    0.0000 N   0  0  0  0  0  0           0  0  0
    4.0167   -1.2292    0.0000 N   0  0  0  0  0  0           0  0  0
    4.6667   -1.7417    0.0000 N   0  0  3  0  0  0           0  0  0
    4.6417   -2.5750    0.0000 C   0  0  0  0  0  0           0  0  0
    4.3125   -0.4625    0.0000 C   0  0  0  0  0  0           0  0  0
    5.1250   -0.4917    0.0000 C   0  0  3  0  0  0           0  0  0
    5.3417   -1.2917    0.0000 C   0  0  0  0  0  0           0  0  0
    6.4667   -3.3500    0.0000 N   0  0  3  0  0  0           0  0  0
    5.6792   -1.8917    0.0000 O   0  0  0  0  0  0           0  0  0
    6.8000   -2.2292    0.0000 O   0  0  0  0  0  0           0  0  0
    3.8167    0.2083    0.0000 C   0  0  0  0  0  0           0  0  0
    5.6667    0.1250    0.0000 C   0  0  0  0  0  0           0  0  0
    3.9167   -2.9542    0.0000 N   0  0  0  0  0  0           0  0  0
    4.1542    0.9625    0.0000 C   0  0  0  0  0  0           0  0  0
    3.0042    0.1125    0.0000 C   0  0  0  0  0  0           0  0  0
    2.8375    1.5250    0.0000 C   0  0  0  0  0  0           0  0  0
    3.6667    1.6250    0.0000 C   0  0  0  0  0  0           0  0  0
    2.5042    0.7833    0.0000 C   0  0  0  0  0  0           0  0  0
    2.3375    2.1708    0.0000 Cl  0  0  0  0  0  0           0  0  0
    6.0292   -4.0542    0.0000 C   0  0  0  0  0  0           0  0  0
    7.2917   -3.3750    0.0000 C   0  0  0  0  0  0           0  0  0
    5.3917    0.9083    0.0000 C   0  0  0  0  0  0           0  0  0
    6.4792   -0.0292    0.0000 C   0  0  0  0  0  0           0  0  0
    3.8875   -3.7875    0.0000 C   0  0  0  0  0  0           0  0  0
    5.9292    1.5333    0.0000 C   0  0  0  0  0  0           0  0  0
    7.0167    0.5958    0.0000 C   0  0  0  0  0  0           0  0  0
    6.7417    1.3708    0.0000 C   0  0  0  0  0  0           0  0  0
  2  1  1  0     0  0
  3  4  1  0     0  0
  4  5  1  0     0  0
  5  2  1  0     0  0
  6  3  2  0     0  0
  7  8  1  0     0  0
  8  4  1  0     0  0
  9  1  1  0     0  0
 10  1  2  0     0  0
 11  1  2  0     0  0
 12  6  1  0     0  0
 13  7  1  0     0  0
 14  5  2  0     0  0
 15 12  1  0     0  0
 16 12  2  0     0  0
 17 19  2  0     0  0
 18 15  2  0     0  0
 19 16  1  0     0  0
 20 17  1  0     0  0
 21  9  1  0     0  0
 22  9  1  0     0  0
 23 13  1  0     0  0
 24 13  2  0     0  0
 25 14  1  0     0  0
 26 23  2  0     0  0
 27 24  1  0     0  0
 28 27  2  0     0  0
  7  6  1  0     0  0
 18 17  1  0     0  0
 26 28  1  0     0  0
M  END