
  Mrv0541 04051115152D          

 23 25  0  0  0  0            999 V2000
    2.3830   -2.5907    0.0000 C   0  0  0  0  0  0  0  0  0  0  0  0
    2.3830   -1.7657    0.0000 C   0  0  0  0  0  0  0  0  0  0  0  0
    1.6685   -1.3532    0.0000 C   0  0  0  0  0  0  0  0  0  0  0  0
    0.9541   -1.7657    0.0000 C   0  0  0  0  0  0  0  0  0  0  0  0
    0.9541   -2.5907    0.0000 C   0  0  0  0  0  0  0  0  0  0  0  0
    1.6685   -3.0032    0.0000 C   0  0  0  0  0  0  0  0  0  0  0  0
    0.2396   -1.3532    0.0000 C   0  0  0  0  0  0  0  0  0  0  0  0
   -0.4749   -1.7657    0.0000 N   0  0  0  0  0  0  0  0  0  0  0  0
   -1.1893   -1.3532    0.0000 C   0  0  0  0  0  0  0  0  0  0  0  0
   -1.1893   -0.5282    0.0000 C   0  0  0  0  0  0  0  0  0  0  0  0
   -0.4749   -0.1157    0.0000 C   0  0  0  0  0  0  0  0  0  0  0  0
    0.2396   -0.5282    0.0000 C   0  0  0  0  0  0  0  0  0  0  0  0
   -0.4749    0.7093    0.0000 C   0  0  0  0  0  0  0  0  0  0  0  0
    0.2396    1.1218    0.0000 C   0  0  0  0  0  0  0  0  0  0  0  0
    0.2396    1.9468    0.0000 C   0  0  0  0  0  0  0  0  0  0  0  0
   -0.4749    2.3593    0.0000 C   0  0  0  0  0  0  0  0  0  0  0  0
   -1.1893    1.9468    0.0000 C   0  0  0  0  0  0  0  0  0  0  0  0
   -1.1893    1.1218    0.0000 C   0  0  0  0  0  0  0  0  0  0  0  0
   -1.9038   -0.1157    0.0000 C   0  0  0  0  0  0  0  0  0  0  0  0
   -2.6183    0.2968    0.0000 N   0  0  0  0  0  0  0  0  0  0  0  0
   -1.9038   -1.7657    0.0000 O   0  0  0  0  0  0  0  0  0  0  0  0
    1.6685   -0.5282    0.0000 O   0  0  0  0  0  0  0  0  0  0  0  0
    1.6685   -3.8282    0.0000 Br  0  0  0  0  0  0  0  0  0  0  0  0
  1  6  1  0  0  0  0
  1  2  2  0  0  0  0
  2  3  1  0  0  0  0
  3  4  2  0  0  0  0
  3 22  1  0  0  0  0
  4  5  1  0  0  0  0
  4  7  1  0  0  0  0
  5  6  2  0  0  0  0
 23  6  1  0  0  0  0
 12  7  2  0  0  0  0
  7  8  1  0  0  0  0
  9  8  1  0  0  0  0
 10  9  1  0  0  0  0
  9 21  2  0  0  0  0
 10 11  2  0  0  0  0
 10 19  1  0  0  0  0
 11 13  1  0  0  0  0
 11 12  1  0  0  0  0
 13 18  2  0  0  0  0
 13 14  1  0  0  0  0
 14 15  2  0  0  0  0
 15 16  1  0  0  0  0
 16 17  2  0  0  0  0
 17 18  1  0  0  0  0
 19 20  3  0  0  0  0
M  END