
  SciTegic01161211242D

 19 20  0  0  0  0            999 V2000
   12.9861    1.5834    0.0000 C   0  0
   12.9849    0.7560    0.0000 C   0  0
   13.6997    0.3431    0.0000 C   0  0
   14.4162    0.7565    0.0000 C   0  0
   14.4133    1.5870    0.0000 C   0  0
   13.6979    1.9961    0.0000 C   0  0
   15.1262    2.0022    0.0000 C   0  0
   15.8429    1.5926    0.0000 C   0  0
   16.0893    0.8059    0.0000 S   0  0
   16.9142    0.7979    0.0000 C   0  0
   17.1774    1.5805    0.0000 N   0  0
   16.5140    2.0713    0.0000 C   0  0
   17.3927    0.1258    0.0000 O   0  0
   16.5215    2.8963    0.0000 O   0  0
   17.8937    1.9900    0.0000 C   0  0
   18.6064    1.5744    0.0000 C   0  0
   19.3226    1.9838    0.0000 N   0  0
   12.2701    0.3441    0.0000 O   0  0
   11.5560    0.7571    0.0000 C   0  0
  4  5  1  0
  2  3  1  0
  5  6  2  0
  9 10  1  0
 10 11  1  0
 11 12  1  0
 12  8  1  0
  6  1  1  0
 10 13  2  0
  1  2  2  0
 12 14  2  0
  5  7  1  0
 11 15  1  0
  3  4  2  0
 15 16  1  0
  7  8  2  0
 16 17  1  0
  8  9  1  0
  2 18  1  0
 18 19  1  0
M  END