
  CDK    9/16/09,9:57

 27 29  0  0  0  0  0  0  0  0999 V2000
    8.9084    3.3590    0.0000 C   0  0  0  0  0  0  0  0  0  0  0  0
    8.5163    2.6332    0.0000 N   0  0  0  0  0  0  0  0  0  0  0  0
    9.0842    2.0346    0.0000 C   0  0  0  0  0  0  0  0  0  0  0  0
    9.8306    2.3922    0.0000 C   0  0  0  0  0  0  0  0  0  0  0  0
    9.7183    3.2086    0.0000 N   0  0  0  0  0  0  0  0  0  0  0  0
   10.5570    2.0012    0.0000 C   0  0  0  0  0  0  0  0  0  0  0  0
   10.5817    1.1766    0.0000 C   0  0  0  0  0  0  0  0  0  0  0  0
   11.3082    0.7856    0.0000 N   0  0  0  0  0  0  0  0  0  0  0  0
   12.0100    1.2193    0.0000 C   0  0  0  0  0  0  0  0  0  0  0  0
   12.7365    0.8284    0.0000 N   0  0  0  0  0  0  0  0  0  0  0  0
   11.9853    2.0439    0.0000 N   0  0  0  0  0  0  0  0  0  0  0  0
   13.4383    1.2620    0.0000 C   0  0  0  0  0  0  0  0  0  0  0  0
   14.1648    0.8711    0.0000 C   0  0  0  0  0  0  0  0  0  0  0  0
   13.4136    2.0867    0.0000 O   0  0  0  0  0  0  0  0  0  0  0  0
   14.8666    1.3048    0.0000 C   0  0  0  0  0  0  0  0  0  0  0  0
   15.5931    0.9138    0.0000 C   0  0  0  0  0  0  0  0  0  0  0  0
   14.8419    2.1294    0.0000 C   0  0  0  0  0  0  0  0  0  0  0  0
   15.5430    2.5590    0.0000 C   0  0  0  0  0  0  0  0  0  0  0  0
   15.5187    3.3829    0.0000 C   0  0  0  0  0  0  0  0  0  0  0  0
   14.7916    3.7746    0.0000 C   0  0  0  0  0  0  0  0  0  0  0  0
   14.0875    3.3364    0.0000 C   0  0  0  0  0  0  0  0  0  0  0  0
   14.1153    2.5140    0.0000 C   0  0  0  0  0  0  0  0  0  0  0  0
   15.6135    0.0908    0.0000 C   0  0  0  0  0  0  0  0  0  0  0  0
   16.3392   -0.3001    0.0000 C   0  0  0  0  0  0  0  0  0  0  0  0
   17.0420    0.1337    0.0000 C   0  0  0  0  0  0  0  0  0  0  0  0
   17.0145    0.9625    0.0000 C   0  0  0  0  0  0  0  0  0  0  0  0
   16.2884    1.3497    0.0000 C   0  0  0  0  0  0  0  0  0  0  0  0
 12 14  2  0  0  0  0 
  6  7  1  0  0  0  0 
 13 15  1  0  0  0  0 
  2  3  1  0  0  0  0 
 15 16  1  0  0  0  0 
  7  8  1  0  0  0  0 
 15 17  1  0  0  0  0 
  3  4  2  0  0  0  0 
 17 18  2  0  0  0  0 
  8  9  1  0  0  0  0 
 18 19  1  0  0  0  0 
  4  5  1  0  0  0  0 
 19 20  2  0  0  0  0 
  9 10  1  0  0  0  0 
 20 21  1  0  0  0  0 
  5  1  2  0  0  0  0 
 21 22  2  0  0  0  0 
 22 17  1  0  0  0  0 
  9 11  2  0  0  0  0 
 16 23  2  0  0  0  0 
  1  2  1  0  0  0  0 
 23 24  1  0  0  0  0 
 10 12  1  0  0  0  0 
 24 25  2  0  0  0  0 
  4  6  1  0  0  0  0 
 25 26  1  0  0  0  0 
 12 13  1  0  0  0  0 
 26 27  2  0  0  0  0 
 27 16  1  0  0  0  0 
M  END