
  SciTegic04021211102D

 39 43  0  0  0  0            999 V2000
   -0.2245    2.5243    0.0000 C   0  0
    0.1854    1.8056    0.0000 C   0  0
    1.0109    1.8023    0.0000 C   0  0
    1.4274    2.5169    0.0000 C   0  0
    1.0124    3.2363    0.0000 C   0  0
    0.1883    3.2361    0.0000 C   0  0
   -0.2304    1.0930    0.0000 C   0  0
    1.4205    1.0862    0.0000 S   0  0
    2.2455    1.0829    0.0000 C   0  0
    2.6533    0.3650    0.0000 C   0  0
    3.4797    1.7932    0.0000 C   0  0
    2.6568    1.7933    0.0000 C   0  0
    4.6974    0.8965    0.0000 N   0  0
    3.8937    1.0747    0.0000 C   0  0
    3.4766    0.3642    0.0000 N   0  0
    4.0246   -0.2512    0.0000 C   0  0
    4.7785    0.0810    0.0000 N   0  0
    3.8493   -1.0574    0.0000 C   0  0
    3.0635   -1.3086    0.0000 C   0  0
    4.4598   -1.6123    0.0000 C   0  0
   -1.0553    1.0968    0.0000 N   0  0
   -1.4711    0.3842    0.0000 C   0  0
   -2.2961    0.3880    0.0000 N   0  0
   -1.0619   -0.3321    0.0000 O   0  0
   -2.7122   -0.3246    0.0000 C   0  0
   -3.5318   -0.3411    0.0000 C   0  0
   -3.7685   -1.1318    0.0000 C   0  0
   -3.0889   -1.6013    0.0000 N   0  0
   -2.4337   -1.0984    0.0000 N   0  0
   -4.4811   -1.5476    0.0000 C   0  0
   -5.1974   -1.1384    0.0000 C   0  0
   -4.4773   -2.3726    0.0000 C   0  0
   -1.7199   -1.5117    0.0000 C   0  0
   -1.7219   -2.3342    0.0000 C   0  0
   -1.0082   -2.7466    0.0000 C   0  0
   -0.2928   -2.3340    0.0000 C   0  0
   -0.2955   -1.5047    0.0000 C   0  0
   -1.0097   -1.0961    0.0000 C   0  0
   -5.1514   -2.0326    0.0000 C   0  0
  8  9  1  0
 18 19  1  0
  4  5  1  0
 18 20  1  0
  9 10  2  0
  7 21  1  0
 10 15  1  0
 21 22  1  0
  2  3  1  0
 22 23  1  0
 14 11  1  0
 22 24  2  0
  5  6  2  0
 23 25  1  0
 26 27  1  0
 11 12  2  0
 12  9  1  0
 14 15  1  0
  6  1  1  0
 25 26  2  0
 27 28  2  0
 28 29  1  0
 29 25  1  0
  1  2  2  0
 27 30  1  0
  2  7  1  0
 30 31  1  0
  3  4  2  0
 30 32  1  0
  3  8  1  0
 29 33  1  0
 13 14  2  0
 33 34  2  0
 15 16  1  0
 34 35  1  0
 16 17  2  0
 35 36  2  0
 17 13  1  0
 36 37  1  0
 37 38  2  0
 38 33  1  0
 16 18  1  0
 30 39  1  0
M  END