
          11280714512D 1   1.00000     0.00000     0

 24 25  0     0  0            999 V2000
    4.6917   -5.6500    0.0000 C   0  0  0  0  0  0           0  0  0
    4.6875   -4.8250    0.0000 C   0  0  0  0  0  0           0  0  0
    1.1042   -1.9542    0.0000 O   0  0  0  0  0  0           0  0  0
    0.3917   -2.3667    0.0000 C   0  0  0  0  0  0           0  0  0
    5.4042   -6.0625    0.0000 O   0  0  0  0  0  0           0  0  0
    0.3917   -3.2000    0.0000 C   0  0  0  0  0  0           0  0  0
    3.9667   -4.4167    0.0000 C   0  0  0  0  0  0           0  0  0
    5.4000   -4.4042    0.0000 C   0  0  0  0  0  0           0  0  0
    3.9625   -1.9417    0.0000 N   0  0  0  0  0  0           0  0  0
    1.8167   -2.3625    0.0000 C   0  0  0  0  0  0           0  0  0
    2.5292   -1.9500    0.0000 C   0  0  3  0  0  0           0  0  0
    3.9792   -6.0667    0.0000 O   0  0  0  0  0  0           0  0  0
    5.3917   -3.5792    0.0000 C   0  0  0  0  0  0           0  0  0
    3.9667   -3.5917    0.0000 C   0  0  0  0  0  0           0  0  0
    4.6792   -3.1792    0.0000 C   0  0  0  0  0  0           0  0  0
    2.5292   -1.1250    0.0000 O   0  0  0  0  0  0           0  0  0
    3.2500   -2.3542    0.0000 C   0  0  0  0  0  0           0  0  0
    4.6792   -2.3542    0.0000 C   0  0  0  0  0  0           0  0  0
   -0.3250   -1.9542    0.0000 C   0  0  0  0  0  0           0  0  0
    1.1042   -3.6125    0.0000 C   0  0  0  0  0  0           0  0  0
   -0.3250   -3.6125    0.0000 C   0  0  0  0  0  0           0  0  0
    3.2625   -5.6542    0.0000 C   0  0  0  0  0  0           0  0  0
   -1.0375   -2.3750    0.0000 C   0  0  0  0  0  0           0  0  0
   -1.0375   -3.2000    0.0000 C   0  0  0  0  0  0           0  0  0
  2  1  1  0     0  0
  3 10  1  0     0  0
  4  3  1  0     0  0
  5  1  2  0     0  0
  6  4  1  0     0  0
  7  2  2  0     0  0
  8  2  1  0     0  0
  9 18  1  0     0  0
 10 11  1  0     0  0
 11 17  1  0     0  0
 12  1  1  0     0  0
 13  8  2  0     0  0
 14  7  1  0     0  0
 15 13  1  0     0  0
 16 11  1  0     0  0
 17  9  1  0     0  0
 18 15  1  0     0  0
 19  4  2  0     0  0
 20  6  1  0     0  0
 21  6  2  0     0  0
 22 12  1  0     0  0
 23 19  1  0     0  0
 24 23  2  0     0  0
 15 14  2  0     0  0
 24 21  1  0     0  0
M  END