
  SciTegic01161211242D

 31 32  0  0  0  0            999 V2000
    4.2010   -3.2956    0.0000 C   0  0
    2.5987   -1.5004    0.0000 C   0  0
    2.7343   -2.9815    0.0000 N   0  0
    3.9511   -0.8815    0.0000 N   0  0
    4.9531   -1.9978    0.0000 N   0  0
    4.8111   -4.6641    0.0000 C   0  0
    1.2990   -0.7500    0.0000 C   0  0
    1.2990    0.7500    0.0000 C   0  0
    6.3037   -4.8211    0.0000 N   0  0
    4.2567    0.5878    0.0000 C   0  0
    6.9148   -6.1919    0.0000 N   0  0
    0.0000   -1.5000    0.0000 C   0  0
    0.0000    1.5000    0.0000 C   0  0
    4.1059   -5.6350    0.0000 O   0  0
    3.2235    1.6679    0.0000 C   0  0
    5.7171    0.9385    0.0000 C   0  0
   -1.2990    0.7500    0.0000 C   0  0
    2.3383    1.3500    0.0000 Cl  0  0
   -1.2990   -0.7500    0.0000 C   0  0
    5.1019    3.4627    0.0000 C   0  0
    3.6446    3.1076    0.0000 C   0  0
    6.1382    2.3782    0.0000 C   0  0
   -2.3383    1.3500    0.0000 Cl  0  0
    5.4388    4.6145    0.0000 Cl  0  0
   14.0143   -2.0157    0.0000 Cl  0  0
   11.5143   -2.0157    0.0000 Cl  0  0
    8.4063   -6.3511    0.0000 C   0  0
    6.0313   -7.4042    0.0000 C   0  0
    9.0143   -7.7224    0.0000 C   0  0
    6.6393   -8.7754    0.0000 C   0  0
    8.1308   -8.9345    0.0000 C   0  0
  1  3  1  0
  2  3  2  0
  2  4  1  0
  1  5  2  0
  4  5  1  0
  1  6  1  0
  2  7  1  0
  7  8  2  0
  6  9  1  0
  4 10  1  0
  9 11  1  0
  7 12  1  0
  8 13  1  0
  6 14  2  0
 10 15  1  0
 10 16  2  0
 13 17  2  0
  8 18  1  0
 12 19  2  0
 17 19  1  0
 15 21  2  0
 20 21  1  0
 16 22  1  0
 20 22  2  0
 17 23  1  0
 20 24  1  0
 11 27  1  0
 11 28  1  0
 27 29  1  0
 28 30  1  0
 29 31  1  0
 30 31  1  0
M  END