
  SciTegic12231509382D

 33 34  0  0  0  0            999 V2000
    3.5250   -3.8667    0.0000 N   0  0
    4.3000   -3.6542    0.0000 C   0  0
    2.8542   -2.5917    0.0000 C   0  0
    3.5542   -2.1792    0.0000 N   0  0
    2.8542   -3.4042    0.0000 C   0  0  2  0  0  0
    4.8667   -4.2042    0.0000 C   0  0  2  0  0  0
    3.5542   -1.3667    0.0000 C   0  0  2  0  0  0
    4.2542   -0.9667    0.0000 B   0  0
   -0.4000   -1.2042    0.0000 C   0  0
    4.6542   -5.0042    0.0000 N   0  0
    4.8667   -5.7792    0.0000 C   0  0
    0.4042   -1.2042    0.0000 N   0  0
    5.0042   -3.2292    0.0000 O   0  0
    2.1625   -2.1792    0.0000 O   0  0
    5.6500   -4.0042    0.0000 C   0  0
    4.1417   -6.4292    0.0000 O   0  0
   -0.8083   -0.4917    0.0000 N   0  0
   -0.8083   -1.8917    0.0000 N   0  0
    3.2667   -4.6417    0.0000 C   0  0
    4.9500   -1.3667    0.0000 O   0  0
    4.4667   -0.1792    0.0000 O   0  0
    6.2167   -4.5917    0.0000 C   0  0
    2.2167   -3.8667    0.0000 C   0  0
    2.8542   -0.9792    0.0000 C   0  0
    2.4542   -4.6417    0.0000 C   0  0
    1.4542   -0.9792    0.0000 C   0  0
    5.6375   -5.9917    0.0000 C   0  0
    6.9917   -4.3667    0.0000 C   0  0
    6.0125   -5.3667    0.0000 C   0  0
    2.1625   -1.3792    0.0000 C   0  0
    6.5792   -5.9292    0.0000 C   0  0
    7.5625   -4.9292    0.0000 C   0  0
    7.3542   -5.7167    0.0000 C   0  0
  2  1  1  0
  5  3  1  1
  4  3  1  0
  5  1  1  0
  6  2  1  0
  7  4  1  1
  8  7  1  0
  9 12  2  0
  6 10  1  1
 11 10  1  0
 12 26  1  0
 13  2  2  0
 14  3  2  0
 15  6  1  0
 16 11  2  0
 17  9  1  0
 18  9  1  0
 19  1  1  0
 20  8  1  0
 21  8  1  0
 22 15  1  0
 23  5  1  0
 24  7  1  0
 25 19  1  0
 26 30  1  0
 27 11  1  0
 28 22  1  0
 29 22  2  0
 30 24  1  0
 31 29  1  0
 32 28  2  0
 33 32  1  0
 23 25  1  0
 31 33  2  0
M  END