
  SciTegic01161211242D

 44 48  0  0  0  0            999 V2000
   -0.0083   -3.5167    0.0000 N   0  3
    6.4167   -6.3750    0.0000 C   0  0
    2.8500   -5.9833    0.0000 C   0  0
    9.2833   -7.1792    0.0000 N   0  0
    7.1250   -5.9583    0.0000 C   0  0
   -0.0125   -5.1625    0.0000 N   0  0
    3.5667   -6.3917    0.0000 N   0  0
    2.1375   -6.4000    0.0000 C   0  0
    6.4250   -7.2042    0.0000 C   0  0
    9.3083   -8.8292    0.0000 N   0  0
    7.8417   -6.3708    0.0000 C   0  0
    5.7000   -5.9708    0.0000 C   0  0
    1.4208   -5.9875    0.0000 C   0  0
    2.8458   -5.1583    0.0000 O   0  0
    9.2708   -6.3583    0.0000 C   0  0
    8.5542   -5.9542    0.0000 C   0  0
    0.7042   -6.4000    0.0000 C   0  0
   -0.0083   -5.9875    0.0000 C   0  0
    8.5708   -7.6083    0.0000 C   0  0
    0.7042   -3.9333    0.0000 C   0  0
   -0.7250   -3.9292    0.0000 C   0  0
    5.7083   -7.6208    0.0000 C   0  0
    0.7000   -4.7542    0.0000 C   0  0
   -0.7292   -4.7542    0.0000 C   0  0
    4.9958   -6.3875    0.0000 C   0  0
    4.2792   -5.9792    0.0000 C   0  0
    8.5875   -8.4292    0.0000 C   0  0  2  0  0  0
    7.1417   -7.6167    0.0000 F   0  0
   10.0167   -8.4042    0.0000 C   0  0
    4.9958   -7.2125    0.0000 C   0  0
   -0.7292   -3.1125    0.0000 C   0  0
    0.7042   -3.0958    0.0000 C   0  0
   10.0042   -7.5750    0.0000 C   0  0
    7.1167   -5.1375    0.0000 C   0  0
    2.1375   -7.2292    0.0000 C   0  0
    7.8250   -4.7208    0.0000 C   0  0
    1.4208   -7.6417    0.0000 C   0  0
    0.7083   -7.2292    0.0000 C   0  0
    8.5500   -5.1250    0.0000 C   0  0
    7.8792   -8.8542    0.0000 C   0  0
    0.6958   -2.2792    0.0000 C   0  0
   -0.7292   -2.2833    0.0000 C   0  0
   -0.0167   -1.8667    0.0000 C   0  0
    6.3917   -2.0917    0.0000 I   0  5
  2 12  2  0
  3  8  1  0
  4 15  1  0
  5  2  1  0
  6 24  1  0
  7  3  1  0
  8 13  2  0
  9 22  2  0
 10 29  1  0
 11  5  2  0
 12 25  1  0
 13 17  1  0
 14  3  2  0
 15 16  1  0
 16 11  1  0
 17 18  1  0
 18  6  1  0
 19  4  1  0
 20  1  1  0
 21  1  1  0
 22 30  1  0
 23 20  1  0
 24 21  1  0
 25 26  1  0
 26  7  1  0
 27 19  1  0
 28  9  1  0
 29 33  1  0
 30 25  2  0
 31  1  1  0
 32  1  1  0
 33  4  1  0
 34  5  1  0
 35 37  2  0
 36 34  2  0
 37 38  1  0
 38 17  2  0
 39 36  1  0
 27 40  1  1
 41 32  1  0
 42 31  1  0
 43 42  1  0
 23  6  1  0
 43 41  1  0
  8 35  1  0
  2  9  1  0
 39 16  2  0
 10 27  1  0
M  CHG  2   1   1  44  -1
M  END