
  SciTegic12171313022D

 15 16  0  0  0  0            999 V2000
    5.1740   -3.3565    0.0000 O   0  0
    5.0878   -2.5360    0.0000 C   0  0
    5.8415   -2.2005    0.0000 N   0  0
    6.3935   -2.8136    0.0000 N   0  0
    5.9810   -3.5281    0.0000 C   0  0
    4.3733   -2.1235    0.0000 C   0  0
    3.6588   -2.5360    0.0000 C   0  0
    2.9444   -2.1235    0.0000 C   0  0
    2.9444   -1.2985    0.0000 C   0  0
    3.6588   -0.8860    0.0000 C   0  0
    4.3733   -1.2985    0.0000 C   0  0
    2.2299   -2.5360    0.0000 C   0  0
    2.2004   -3.3684    0.0000 F   0  0
    1.5154   -2.9485    0.0000 F   0  0
    1.5817   -2.1162    0.0000 F   0  0
  1  2  1  0
  2  3  2  0
  3  4  1  0
  4  5  2  0
  1  5  1  0
  6  7  1  0
  7  8  2  0
  8  9  1  0
  9 10  2  0
 10 11  1  0
  6 11  2  0
 12 13  1  0
 12 14  1  0
 12 15  1  0
  8 12  1  0
  2  6  1  0
M  END