
          11280714522D 1   1.00000     0.00000     0

 32 36  0     0  0            999 V2000
    6.4542   -5.3042    0.0000 C   0  0  0  0  0  0           0  0  0
    5.7375   -4.8917    0.0000 O   0  0  0  0  0  0           0  0  0
    5.0250   -5.3125    0.0000 C   0  0  0  0  0  0           0  0  0
    7.1625   -4.8917    0.0000 C   0  0  0  0  0  0           0  0  0
    5.0250   -6.1375    0.0000 C   0  0  0  0  0  0           0  0  0
    6.4542   -6.1292    0.0000 C   0  0  0  0  0  0           0  0  0
    5.7375   -6.5500    0.0000 C   0  0  0  0  0  0           0  0  0
    7.1542   -4.0667    0.0000 C   0  0  0  0  0  0           0  0  0
    0.0292   -4.0625    0.0000 N   0  0  0  0  0  0           0  0  0
    4.3125   -4.9000    0.0000 C   0  0  0  0  0  0           0  0  0
   -0.6833   -3.6500    0.0000 C   0  0  0  0  0  0           0  0  0
    1.4542   -4.0625    0.0000 C   0  0  0  0  0  0           0  0  0
    2.1750   -3.6542    0.0000 C   0  0  0  0  0  0           0  0  0
    5.7417   -7.3750    0.0000 O   0  0  0  0  0  0           0  0  0
    0.7417   -3.6500    0.0000 C   0  0  0  0  0  0           0  0  0
    6.4417   -3.6542    0.0000 O   0  0  0  0  0  0           0  0  0
   -0.6833   -2.8250    0.0000 C   0  0  0  0  0  0           0  0  0
    3.6000   -5.3125    0.0000 C   0  0  0  0  0  0           0  0  0
    4.3125   -4.0667    0.0000 C   0  0  0  0  0  0           0  0  0
    0.0292   -2.4167    0.0000 C   0  0  0  0  0  0           0  0  0
    2.8875   -4.0667    0.0000 C   0  0  0  0  0  0           0  0  0
    7.8667   -3.6500    0.0000 O   0  0  0  0  0  0           0  0  0
    7.8792   -5.3000    0.0000 C   0  0  0  0  0  0           0  0  0
    0.7500   -2.8292    0.0000 C   0  0  0  0  0  0           0  0  0
    7.1667   -6.5417    0.0000 C   0  0  0  0  0  0           0  0  0
    2.8792   -4.8917    0.0000 C   0  0  0  0  0  0           0  0  0
    3.6042   -3.6542    0.0000 C   0  0  0  0  0  0           0  0  0
    7.8792   -6.1292    0.0000 C   0  0  0  0  0  0           0  0  0
   -1.3958   -4.0667    0.0000 C   0  0  0  0  0  0           0  0  0
   -1.3875   -2.4042    0.0000 C   0  0  0  0  0  0           0  0  0
   -2.1083   -3.6417    0.0000 C   0  0  0  0  0  0           0  0  0
   -2.1083   -2.8250    0.0000 C   0  0  0  0  0  0           0  0  0
  2  1  1  0     0  0
  3  2  1  0     0  0
  4  1  1  0     0  0
  5  7  1  0     0  0
  6  1  2  0     0  0
  7  6  1  0     0  0
  8  4  1  0     0  0
  9 15  2  0     0  0
 10  3  1  0     0  0
 11  9  1  0     0  0
 12 13  2  0     0  0
 13 21  1  0     0  0
 14  7  2  0     0  0
 15 12  1  0     0  0
 16  8  2  0     0  0
 17 20  1  0     0  0
 18 10  2  0     0  0
 19 10  1  0     0  0
 20 24  2  0     0  0
 21 27  1  0     0  0
 22  8  1  0     0  0
 23  4  2  0     0  0
 24 15  1  0     0  0
 25  6  1  0     0  0
 26 18  1  0     0  0
 27 19  2  0     0  0
 28 25  2  0     0  0
 29 11  1  0     0  0
 30 17  1  0     0  0
 31 29  2  0     0  0
 32 30  2  0     0  0
 28 23  1  0     0  0
  3  5  2  0     0  0
 26 21  2  0     0  0
 17 11  2  0     0  0
 32 31  1  0     0  0
M  END