
  SciTegic10311316262D

 28 30  0  0  0  0            999 V2000
    1.7847   -8.7874    0.0000 C   0  0
    1.7835   -9.6147    0.0000 C   0  0
    2.4983  -10.0276    0.0000 C   0  0
    3.2148   -9.6142    0.0000 C   0  0
    3.2119   -8.7837    0.0000 C   0  0
    2.4965   -8.3746    0.0000 C   0  0
    3.9248   -8.3685    0.0000 N   0  0
    4.6408   -8.7783    0.0000 C   0  0
    5.3537   -8.3631    0.0000 C   0  0
    4.6439   -9.6033    0.0000 O   0  0
    6.0698   -8.7730    0.0000 S   0  0
    6.7827   -8.3578    0.0000 C   0  0
    7.4986   -8.7707    0.0000 N   0  0
    8.2094   -8.3591    0.0000 C   0  0
    8.2105   -7.5337    0.0000 C   0  0
    7.4946   -7.1217    0.0000 C   0  0
    6.7776   -7.5351    0.0000 N   0  0
    7.4943   -6.2967    0.0000 O   0  0
    8.9257   -7.1255    0.0000 C   0  0
    9.6402   -6.7130    0.0000 N   0  0
    8.9222   -8.7707    0.0000 C   0  0
    8.9208   -9.5968    0.0000 C   0  0
    9.6344  -10.0092    0.0000 C   0  0
   10.3499   -9.5967    0.0000 C   0  0
   10.3472   -8.7674    0.0000 C   0  0
    9.6330   -8.3587    0.0000 C   0  0
   11.0649  -10.0082    0.0000 Cl  0  0
    1.0687  -10.0267    0.0000 Cl  0  0
  1  2  2  0
  2  3  1  0
  3  4  2  0
  4  5  1  0
  5  6  2  0
  6  1  1  0
  5  7  1  0
  7  8  1  0
  8  9  1  0
  8 10  2  0
  9 11  1  0
 11 12  1  0
 12 13  2  0
 12 17  1  0
 13 14  1  0
 14 15  2  0
 15 16  1  0
 16 17  1  0
 16 18  2  0
 19 20  3  0
 15 19  1  0
 21 22  2  0
 22 23  1  0
 23 24  2  0
 24 25  1  0
 25 26  2  0
 26 21  1  0
 14 21  1  0
 24 27  1  0
  2 28  1  0
M  END