
          11280714492D 1   1.00000     0.00000     0

 19 19  0     0  0            999 V2000
    3.9042   -5.4750    0.0000 C   0  0  3  0  0  0           0  0  0
    7.0292   -6.6667    0.0000 N   0  0  0  0  0  0           0  0  0
    7.5500   -6.3667    0.0000 C   0  0  3  0  0  0           0  0  0
    4.4292   -6.3667    0.0000 C   0  0  3  0  0  0           0  0  0
    4.4292   -5.7667    0.0000 C   0  0  0  0  0  0           0  0  0
    3.3917   -5.7750    0.0000 C   0  0  0  0  0  0           0  0  0
    4.9500   -6.6667    0.0000 O   0  0  0  0  0  0           0  0  0
    3.3917   -6.3750    0.0000 C   0  0  3  0  0  0           0  0  0
    5.9875   -6.6667    0.0000 C   0  0  3  0  0  0           0  0  0
    3.9167   -6.6750    0.0000 C   0  0  0  0  0  0           0  0  0
    6.5042   -6.3667    0.0000 C   0  0  0  0  0  0           0  0  0
    5.4667   -6.3667    0.0000 C   0  0  0  0  0  0           0  0  0
    5.9875   -7.2667    0.0000 O   0  0  0  0  0  0           0  0  0
    3.9042   -4.8750    0.0000 C   0  0  0  0  0  0           0  0  0
    4.3292   -5.0500    0.0000 C   0  0  0  0  0  0           0  0  0
    8.0625   -6.0667    0.0000 C   0  0  0  0  0  0           0  0  0
    8.0667   -6.6667    0.0000 C   0  0  0  0  0  0           0  0  0
    7.5500   -5.7667    0.0000 C   0  0  0  0  0  0           0  0  0
    2.8750   -6.6792    0.0000 C   0  0  0  0  0  0           0  0  0
  2 11  1  0     0  0
  3  2  1  0     0  0
  4  5  1  0     0  0
  5  1  1  0     0  0
  6  1  1  0     0  0
  7  4  1  0     0  0
  8  6  1  0     0  0
  9 12  1  0     0  0
 10  8  1  0     0  0
 11  9  1  0     0  0
 12  7  1  0     0  0
 13  9  1  0     0  0
 14  1  1  0     0  0
 15  1  1  0     0  0
 16  3  1  0     0  0
 17  3  1  0     0  0
 18  3  1  0     0  0
 19  8  1  0     0  0
 10  4  1  0     0  0
M  END