
  SciTegic09261414462D

 30 33  0  0  0  0            999 V2000
   33.8020  -12.6087    0.0000 O   0  0
   33.0137  -12.8233    0.0000 S   0  0
   33.5937  -13.3987    0.0000 O   0  0
   30.1975  -14.4700    0.0000 C   0  0
   30.1964  -15.2896    0.0000 C   0  0
   30.9044  -15.6985    0.0000 C   0  0
   30.9026  -14.0612    0.0000 C   0  0
   31.6112  -14.4664    0.0000 C   0  0
   31.6120  -15.2854    0.0000 C   0  0
   32.3205  -15.6925    0.0000 C   0  0
   33.0288  -15.2817    0.0000 C   0  0
   33.0241  -14.4596    0.0000 C   0  0
   32.3150  -14.0562    0.0000 C   0  0
   32.3222  -16.5097    0.0000 O   0  0
   33.7381  -15.6875    0.0000 S   0  0
   32.3106  -13.2390    0.0000 N   0  0
   33.0118  -12.0095    0.0000 C   0  0
   33.7214  -11.6006    0.0000 C   0  0
   33.7175  -10.7841    0.0000 C   0  0
   33.0071  -10.3815    0.0000 C   0  0
   32.2992  -10.7952    0.0000 C   0  0
   32.3067  -11.6103    0.0000 C   0  0
   33.7413  -16.5047    0.0000 C   0  0
   33.0016   -9.5643    0.0000 C   0  0
   33.0857  -16.9904    0.0000 N   0  0
   33.3413  -17.7666    0.0000 C   0  0
   34.1585  -17.7634    0.0000 N   0  0
   34.4079  -16.9853    0.0000 N   0  0
   34.4300  -12.0077    0.0000 C   0  0
   31.5885  -10.3918    0.0000 C   0  0
  2  1  2  0
  3  2  2  0
  4  5  2  0
  5  6  1  0
  6  9  2  0
  8  7  2  0
  7  4  1  0
  8  9  1  0
  9 10  1  0
 10 11  2  0
 11 12  1  0
 12 13  2  0
 13  8  1  0
 10 14  1  0
 11 15  1  0
 13 16  1  0
 16  2  1  0
  2 17  1  0
 17 18  2  0
 18 19  1  0
 19 20  2  0
 20 21  1  0
 21 22  2  0
 22 17  1  0
 15 23  1  0
 20 24  1  0
 23 25  1  0
 25 26  2  0
 26 27  1  0
 27 28  1  0
 28 23  2  0
 18 29  1  0
 21 30  1  0
M  END