
  SciTegic09291412002D

 71 73  0  0  0  0            999 V2000
   11.2266   -5.9543    0.0000 S   0  0
   11.9377   -5.5397    0.0000 S   0  0
    7.6136   -5.3082    0.0000 O   0  0
    8.3654   -5.9543    0.0000 O   0  0
    6.2440   -1.9867    0.0000 O   0  0
    8.3654   -6.7791    0.0000 O   0  0
   11.9377  -10.4896    0.0000 O   0  0
    9.0807   -9.6645    0.0000 O   0  0
   14.7947   -9.6645    0.0000 O   0  0
    7.6543   -7.1897    0.0000 O   0  0
   14.0837   -6.7791    0.0000 O   0  0
    4.0775   -4.0063    0.0000 O   0  0
   10.5114  -12.1394    0.0000 O   0  0
    9.0807   -4.7147    0.0000 N   0  0
   13.3683   -9.6645    0.0000 N   0  0
    8.4119   -4.2316    0.0000 C   0  0  1  0  0  0
    8.6704   -3.4440    0.0000 C   0  0
    9.4953   -3.4440    0.0000 C   0  0
    9.7495   -4.2316    0.0000 C   0  0
    7.6316   -4.4857    0.0000 C   0  0
    9.0807   -5.5397    0.0000 C   0  0
    9.7960   -5.9543    0.0000 C   0  0  2  0  0  0
    6.9369   -3.2382    0.0000 C   0  0  1  0  0  0
    7.6595   -2.8313    0.0000 C   0  0
   10.5113   -5.5397    0.0000 C   0  0
    7.6543   -2.0087    0.0000 C   0  0
    6.2301   -2.8093    0.0000 C   0  0
    9.0807   -7.1897    0.0000 C   0  0
    9.0807   -8.0146    0.0000 C   0  0  2  0  0  0
   12.6572  -10.5690    0.0000 C   0  0  2  0  0  0
   12.6572   -9.2541    0.0000 C   0  0  1  0  0  0
    8.3642   -1.5934    0.0000 C   0  0
    6.9378   -1.6004    0.0000 C   0  0
   10.5114   -9.6645    0.0000 C   0  0  2  0  0  0
   13.3683  -10.9879    0.0000 C   0  0
    8.3654   -8.4291    0.0000 C   0  0
   11.9377   -9.6645    0.0000 C   0  0
    9.7960   -9.2541    0.0000 C   0  0
   11.7202  -11.1092    0.0000 C   0  0
   10.5114  -10.4896    0.0000 C   0  0
   14.0837   -8.4291    0.0000 C   0  0  2  0  0  0
   14.0837   -9.2541    0.0000 C   0  0
    4.8150   -2.7851    0.0000 C   0  0
   13.3683  -11.8128    0.0000 C   0  0
    9.7962  -10.9041    0.0000 C   0  0
   14.7947   -8.0146    0.0000 C   0  0
   12.6572   -5.9543    0.0000 C   0  0
   12.6572   -6.7791    0.0000 C   0  0
    7.6543   -8.0146    0.0000 C   0  0
   13.3683   -7.1897    0.0000 C   0  0
   15.5099   -8.4291    0.0000 C   0  0
    4.0914   -3.1838    0.0000 C   0  0
    9.7962  -11.7290    0.0000 C   0  0
   16.2296   -8.0146    0.0000 C   0  0
   15.5100   -9.2541    0.0000 C   0  0
   16.9407   -8.4291    0.0000 C   0  0
   16.2296   -9.6645    0.0000 C   0  0
   16.9407   -9.2541    0.0000 C   0  0
   17.6401   -9.6639    0.0000 O   0  0
   11.2108   -9.2535    0.0000 N   0  0
    9.7964   -6.7793    0.0000 N   0  0
   13.3703   -8.0147    0.0000 N   0  0
    5.5153   -3.2212    0.0000 N   0  0
    6.9309   -8.4243    0.0000 N   0  0
    6.9230   -4.0631    0.0000 N   0  0
    3.3846   -2.7590    0.0000 N   0  0
    9.7940   -8.4292    0.0000 N   0  0
    9.0809  -12.1394    0.0000 N   0  0
   13.0663   -5.2303    0.0000 C   0  0
   13.4850   -5.9506    0.0000 C   0  0
   13.1573  -10.1201    0.0000 H   0  0
 10 49  2  0
 11 50  2  0
 12 52  2  0
 13 53  2  0
 59 58  1  0
 14 16  1  0
 14 19  1  0
 14 21  1  0
 65 20  1  0
 23 65  1  6
 61 22  1  0
 61 28  1  0
 63 27  1  0
 63 43  1  0
 67 29  1  0
 67 38  1  0
 31 15  1  0
 15 42  1  0
 60 34  1  0
 60 37  1  0
 62 41  1  0
 62 50  1  0
 64 49  1  0
 66 52  1  0
 68 53  1  0
 16 17  1  0
 16 20  1  6
 17 18  1  0
 18 19  1  0
 22 21  1  6
 22 25  1  0
 23 24  1  0
 23 27  1  0
 24 26  1  0
 26 32  1  0
 26 33  1  0
 28 29  1  0
 29 36  1  1
 30 31  1  0
 30 35  1  0
 30 39  1  6
 31 37  1  0
 34 38  1  0
 34 40  1  1
 35 44  1  0
 36 49  1  0
 40 45  1  0
 41 42  1  0
 41 46  1  1
 43 52  1  0
 45 53  1  0
 46 51  1  0
 47 48  1  0
 48 50  1  0
 51 54  2  0
 51 55  1  0
 54 56  1  0
 55 57  2  0
 56 58  2  0
 57 58  1  0
  1  2  1  0
  1 25  1  0
  2 47  1  0
  3 20  2  0
  4 21  2  0
  5 27  2  0
  6 28  2  0
  7 37  2  0
  8 38  2  0
  9 42  2  0
 47 69  1  0
 47 70  1  0
 31 71  1  6
M  END