
          11280715112D 1   1.00000     0.00000     0

 17 18  0     0  0            999 V2000
    7.0292   -3.6875    0.0000 C   0  0  0  0  0  0           0  0  0
    7.5125   -3.0167    0.0000 N   0  0  0  0  0  0           0  0  0
    7.5125   -4.3542    0.0000 N   0  0  0  0  0  0           0  0  0
    8.2917   -3.2750    0.0000 C   0  0  0  0  0  0           0  0  0
    8.2917   -4.1000    0.0000 C   0  0  0  0  0  0           0  0  0
    6.2042   -3.6875    0.0000 C   0  0  0  0  0  0           0  0  0
    5.7917   -4.4000    0.0000 C   0  0  0  0  0  0           0  0  0
    8.9625   -2.7917    0.0000 C   0  0  0  0  0  0           0  0  0
   10.3875   -2.6417    0.0000 N   0  0  3  0  0  0           0  0  0
    4.9667   -4.4000    0.0000 C   0  0  0  0  0  0           0  0  0
    9.7167   -3.1292    0.0000 C   0  0  0  0  0  0           0  0  0
    4.5500   -5.1125    0.0000 Br  0  0  0  0  0  0           0  0  0
    5.7917   -2.9750    0.0000 C   0  0  0  0  0  0           0  0  0
    4.9667   -2.9792    0.0000 C   0  0  0  0  0  0           0  0  0
    4.5542   -3.6917    0.0000 C   0  0  0  0  0  0           0  0  0
   10.3000   -1.8167    0.0000 C   0  0  0  0  0  0           0  0  0
   11.1375   -2.9792    0.0000 C   0  0  0  0  0  0           0  0  0
  2  1  2  0     0  0
  3  1  1  0     0  0
  4  2  1  0     0  0
  5  3  1  0     0  0
  6  1  1  0     0  0
  7  6  1  0     0  0
  8  4  1  0     0  0
  9 11  1  0     0  0
 10  7  2  0     0  0
 11  8  1  0     0  0
 12 10  1  0     0  0
 13  6  2  0     0  0
 14 13  1  0     0  0
 15 14  2  0     0  0
 16  9  1  0     0  0
 17  9  1  0     0  0
  4  5  2  0     0  0
 10 15  1  0     0  0
M  END