
  SciTegic11201309402D

 41 45  0  0  1  0            999 V2000
    9.8201   -2.4287    0.0000 C   0  0
    8.3926   -2.4033    0.0000 N   0  0
    9.1164   -2.0006    0.0000 C   0  0  1  0  0  0
    9.1304   -1.1775    0.0000 C   0  0
    8.4226   -0.7536    0.0000 C   0  0
    7.7009   -1.1486    0.0000 C   0  0
    6.9931   -0.7246    0.0000 C   0  0
    7.0069    0.0985    0.0000 C   0  0
    6.2992    0.5265    0.0000 O   0  0
    7.7307    0.5013    0.0000 C   0  0
    8.4386    0.0732    0.0000 C   0  0
    9.1618    0.4744    0.0000 C   0  0
    7.6844   -1.9759    0.0000 C   0  0
   10.5432   -2.0271    0.0000 N   0  0
    9.8048   -3.2542    0.0000 O   0  0
   11.2480   -2.4567    0.0000 C   0  0  1  0  0  0
   11.9689   -2.0628    0.0000 C   0  0
   10.5538   -1.2023    0.0000 C   0  0
   11.2810   -0.8068    0.0000 C   0  0
   11.9861   -1.2322    0.0000 C   0  0
   12.7070   -0.8379    0.0000 C   0  0
   12.7241   -0.0142    0.0000 C   0  0
   12.0142    0.4136    0.0000 C   0  0
   11.2961    0.0127    0.0000 C   0  0
   11.2303   -3.2822    0.0000 C   0  0
   10.5061   -3.6775    0.0000 O   0  0
   11.9369   -3.7123    0.0000 N   0  0
   12.6612   -3.3128    0.0000 C   0  0
   13.3676   -3.7430    0.0000 C   0  0
   13.4363   -4.5613    0.0000 N   0  0
   14.1297   -3.4166    0.0000 N   0  0
   14.6661   -4.0428    0.0000 C   0  0
   14.2374   -4.7469    0.0000 C   0  0
   14.6293   -5.4702    0.0000 C   0  0
   15.4538   -5.4905    0.0000 C   0  0
   15.8849   -4.7817    0.0000 C   0  0
   15.4864   -4.0612    0.0000 C   0  0
   14.3158   -2.6123    0.0000 C   0  0
   15.1059   -2.3734    0.0000 C   0  0
   15.2920   -1.5691    0.0000 O   0  0
   15.7099   -2.9387    0.0000 N   0  0
 19 20  2  0
  8 10  1  0
 20 21  1  0
 10 11  2  0
 21 22  2  0
  5 11  1  0
 22 23  1  0
 23 24  2  0
 24 19  1  0
 11 12  1  0
 16 25  1  1
  6 13  1  0
 25 26  2  0
  3  2  1  1
 25 27  1  0
  1  3  1  0
 27 28  1  0
  1 14  1  0
 28 29  1  0
 29 30  2  0
  3  4  1  0
  1 15  2  0
 30 33  1  0
 32 31  1  0
 31 29  1  0
 16 14  1  0
  4  5  1  0
 32 33  2  0
  5  6  2  0
 33 34  1  0
  6  7  1  0
 34 35  2  0
 14 18  1  0
 35 36  1  0
 16 17  1  0
 36 37  2  0
 37 32  1  0
 17 20  1  0
 31 38  1  0
 19 18  1  0
 38 39  1  0
  7  8  2  0
 39 40  2  0
  8  9  1  0
 39 41  1  0
M  END