
          08180812492D 1   1.00000     0.00000     0

 29 32  0     0  0            999 V2000
   12.1069  -16.2333    0.0000 C   0  0  0  0  0  0           0  0  0
   12.1057  -17.0607    0.0000 C   0  0  0  0  0  0           0  0  0
   12.8206  -17.4735    0.0000 C   0  0  0  0  0  0           0  0  0
   13.5370  -17.0602    0.0000 C   0  0  0  0  0  0           0  0  0
   13.5341  -16.2297    0.0000 C   0  0  0  0  0  0           0  0  0
   12.8188  -15.8205    0.0000 C   0  0  0  0  0  0           0  0  0
   11.3909  -17.4726    0.0000 C   0  0  0  0  0  0           0  0  0
   10.6768  -17.0595    0.0000 N   0  0  3  0  0  0           0  0  0
   11.3903  -18.2976    0.0000 O   0  0  0  0  0  0           0  0  0
   10.6768  -16.2349    0.0000 C   0  0  0  0  0  0           0  0  0
    9.9668  -15.8219    0.0000 C   0  0  0  0  0  0           0  0  0
    9.2496  -16.2303    0.0000 N   0  0  3  0  0  0           0  0  0
    9.2470  -17.0563    0.0000 C   0  0  0  0  0  0           0  0  0
    9.9615  -17.4738    0.0000 C   0  0  0  0  0  0           0  0  0
   14.2471  -15.8145    0.0000 O   0  0  0  0  0  0           0  0  0
   14.2439  -14.9895    0.0000 C   0  0  0  0  0  0           0  0  0
   14.9586  -14.5791    0.0000 C   0  0  0  0  0  0           0  0  0
   14.9559  -13.7549    0.0000 C   0  0  0  0  0  0           0  0  0
   14.2393  -13.3443    0.0000 C   0  0  0  0  0  0           0  0  0
   13.5240  -13.7639    0.0000 C   0  0  0  0  0  0           0  0  0
   13.5303  -14.5867    0.0000 C   0  0  0  0  0  0           0  0  0
   14.2521  -17.4716    0.0000 C   0  0  0  0  0  0           0  0  0
   14.9659  -17.0579    0.0000 N   0  0  0  0  0  0           0  0  0
   15.6811  -17.4693    0.0000 C   0  0  0  0  0  0           0  0  0
    8.5370  -15.8146    0.0000 C   0  0  3  0  0  0           0  0  0
   15.6690  -13.3400    0.0000 Cl  0  0  0  0  0  0           0  0  0
   14.2351  -12.5193    0.0000 Cl  0  0  0  0  0  0           0  0  0
    8.1278  -15.1029    0.0000 C   0  0  0  0  0  0           0  0  0
    7.7121  -15.8154    0.0000 C   0  0  0  0  0  0           0  0  0
 13 14  1  0     0  0
  2  7  1  0     0  0
  5 15  1  0     0  0
  3  4  2  0     0  0
 15 16  1  0     0  0
  7  8  1  0     0  0
 16 17  2  0     0  0
 17 18  1  0     0  0
  7  9  2  0     0  0
 18 19  2  0     0  0
  8 10  1  0     0  0
 19 20  1  0     0  0
  4  5  1  0     0  0
 20 21  2  0     0  0
 21 16  1  0     0  0
  2  3  1  0     0  0
  4 22  1  0     0  0
  5  6  2  0     0  0
 22 23  1  0     0  0
  6  1  1  0     0  0
 23 24  1  0     0  0
  1  2  2  0     0  0
 12 25  1  0     0  0
  8 14  1  0     0  0
 18 26  1  0     0  0
 10 11  1  0     0  0
 19 27  1  0     0  0
 28 25  1  0     0  0
 29 28  1  0     0  0
 25 29  1  0     0  0
 11 12  1  0     0  0
 12 13  1  0     0  0
M  END