
  SciTegic01091216402D

 27 29  0  0  0  0            999 V2000
    5.5398   -3.3122    0.0000 N   0  0
    5.6102   -4.1357    0.0000 N   0  0
    6.4154   -4.3170    0.0000 C   0  0
    6.8416   -3.6092    0.0000 C   0  0
    6.3001   -2.9878    0.0000 C   0  0
    4.8320   -2.8860    0.0000 C   0  0
    4.1104   -3.2859    0.0000 N   0  0
    4.8478   -2.0636    0.0000 N   0  0
    6.4835   -2.1862    0.0000 C   0  0
    7.2757   -1.9443    0.0000 C   0  0
    7.4590   -1.1427    0.0000 C   0  0
    6.8574   -0.5790    0.0000 C   0  0
    6.0688   -0.8189    0.0000 C   0  0
    5.8819   -1.6225    0.0000 C   0  0
    7.0444    0.2246    0.0000 F   0  0
    4.1400   -1.6374    0.0000 C   0  0
    4.1538   -0.8113    0.0000 C   0  0
    3.4046   -2.8634    0.0000 S   0  0
    3.8308   -2.1556    0.0000 O   0  0
    2.6905   -3.2773    0.0000 C   0  0
    1.9734   -2.8669    0.0000 C   0  0
    1.2630   -3.2816    0.0000 C   0  0
    1.2655   -4.1066    0.0000 C   0  0
    1.9784   -4.5169    0.0000 C   0  0
    2.6931   -4.1022    0.0000 C   0  0
    0.5459   -2.8713    0.0000 Cl  0  0
    2.8167   -2.2750    0.0000 O   0  0
  1  2  1  0
  2  3  2  0
  3  4  1  0
  4  5  1  0
  1  5  1  0
  6  7  2  0
  6  8  1  0
  1  6  1  0
  9 10  1  0
 10 11  2  0
 11 12  1  0
 12 13  2  0
 13 14  1  0
  9 14  2  0
 12 15  1  0
  5  9  1  0
 16 17  1  0
  8 16  1  0
 18 19  2  0
 20 21  1  0
 21 22  2  0
 22 23  1  0
 23 24  2  0
 24 25  1  0
 20 25  2  0
 18 20  1  0
 22 26  1  0
  7 18  1  0
 18 27  2  0
M  END