
  SciTegic01161211252D

 40 46  0  0  0  0            999 V2000
    6.5631  -21.0480    0.0000 N   0  0
    5.8770  -21.4981    0.0000 C   0  0
    5.9273  -22.3182    0.0000 C   0  0
    6.6642  -22.6855    0.0000 C   0  0
    7.2979  -21.4081    0.0000 C   0  0
    7.3517  -22.2253    0.0000 C   0  0
    8.1456  -22.4267    0.0000 N   0  0
    8.5825  -21.7339    0.0000 S   0  0
    8.0585  -21.1045    0.0000 N   0  0
    0.9163  -20.1141    0.0000 N   0  0
    2.3428  -20.1212    0.0000 C   0  0
    1.6314  -19.7039    0.0000 C   0  0
   -0.4576  -18.4209    0.0000 C   0  0
    0.2432  -18.8569    0.0000 C   0  0
    0.2195  -19.6837    0.0000 C   0  0
    3.0777  -19.7654    0.0000 C   0  0
    3.7785  -20.1973    0.0000 N   0  0
    3.0971  -18.9386    0.0000 O   0  0
    3.7505  -21.0205    0.0000 C   0  0
    4.4471  -21.4561    0.0000 C   0  0
    5.1737  -21.0647    0.0000 N   0  0
    5.2034  -20.2369    0.0000 C   0  0
    4.4984  -19.8006    0.0000 C   0  0
    0.9675  -18.4618    0.0000 C   0  0
   -1.1818  -18.8160    0.0000 C   0  0
   -1.8832  -18.3778    0.0000 C   0  0
   -1.9253  -20.0317    0.0000 C   0  0
   -1.2002  -19.6391    0.0000 C   0  0
    0.9121  -20.9413    0.0000 C   0  0
    2.3386  -20.9485    0.0000 C   0  0
    1.6204  -21.3597    0.0000 C   0  0
    1.6159  -22.1813    0.0000 C   0  0
    2.3279  -22.5978    0.0000 C   0  0
    3.0462  -22.1908    0.0000 C   0  0
    3.0523  -21.3630    0.0000 C   0  0
   -2.6281  -19.6059    0.0000 C   0  0
   -2.6078  -18.7740    0.0000 C   0  0
   -3.3927  -18.4974    0.0000 O   0  0
   -3.8982  -19.1586    0.0000 C   0  0
   -3.4257  -19.8436    0.0000 O   0  0
  8  9  1  0
  9  5  2  0
  5  1  1  0
  5  6  1  0
  2  3  1  0
 17 19  1  0
 14 24  1  0
 13 25  1  0
 13 14  1  0
 25 26  2  0
 26 37  1  0
 10 12  1  0
 36 27  1  0
 14 15  1  0
 27 28  2  0
 28 25  1  0
 15 10  1  0
 17 23  1  0
 31 29  1  0
 19 20  1  0
 20 21  1  0
 30 31  1  0
 21 22  1  0
 22 23  1  0
 30 11  1  0
 11 16  1  0
 11 12  1  0
 30 35  1  0
 31 32  1  0
 32 33  1  0
 33 34  1  0
 34 35  1  0
 16 17  1  0
 10 29  1  0
 16 18  2  0
 36 37  2  0
  1  2  2  0
  3  4  2  0
  4  6  1  0
  6  7  2  0
  7  8  1  0
 37 38  1  0
 38 39  1  0
 39 40  1  0
 40 36  1  0
 21  2  1  0
M  END