
          11280715302D 1   1.00000     0.00000     0

 39 43  0     0  0            999 V2000
   -5.5708    1.2458    0.0000 C   0  0  0  0  0  0           0  0  0
   -6.2292    0.7583    0.0000 N   0  0  3  0  0  0           0  0  0
   -6.9042    1.2375    0.0000 N   0  0  0  0  0  0           0  0  0
   -5.8333    2.0333    0.0000 C   0  0  0  0  0  0           0  0  0
   -6.6542    2.0250    0.0000 C   0  0  0  0  0  0           0  0  0
   -4.7833    0.9958    0.0000 N   0  0  0  0  0  0           0  0  0
   -4.1750    1.5500    0.0000 C   0  0  0  0  0  0           0  0  0
   -2.7833    1.8583    0.0000 C   0  0  0  0  0  0           0  0  0
   -3.3875    1.3000    0.0000 N   0  0  0  0  0  0           0  0  0
   -1.9958    1.6000    0.0000 C   0  0  0  0  0  0           0  0  0
   -1.3833    2.1583    0.0000 C   0  0  0  0  0  0           0  0  0
   -6.2292   -0.0667    0.0000 C   0  0  0  0  0  0           0  0  0
   -7.1417    2.6958    0.0000 C   0  0  3  0  0  0           0  0  0
   -1.5583    2.9583    0.0000 C   0  0  0  0  0  0           0  0  0
   -4.3500    2.3583    0.0000 O   0  0  0  0  0  0           0  0  0
   -2.9583    2.6500    0.0000 C   0  0  0  0  0  0           0  0  0
    2.8042    3.0500    0.0000 N   0  0  0  0  0  0           0  0  0
   -2.3458    3.2083    0.0000 C   0  0  0  0  0  0           0  0  0
   -5.5208   -0.4667    0.0000 C   0  0  0  0  0  0           0  0  0
   -6.9500   -0.4750    0.0000 C   0  0  0  0  0  0           0  0  0
   -0.9458    3.5208    0.0000 O   0  0  0  0  0  0           0  0  0
   -6.9417   -1.3000    0.0000 C   0  0  0  0  0  0           0  0  0
   -5.5208   -1.2917    0.0000 C   0  0  0  0  0  0           0  0  0
   -6.2292   -1.7125    0.0000 C   0  0  0  0  0  0           0  0  0
   -0.1583    3.2583    0.0000 C   0  0  0  0  0  0           0  0  0
    1.2375    3.5583    0.0000 C   0  0  0  0  0  0           0  0  0
   -1.8208    0.7958    0.0000 C   0  0  0  0  0  0           0  0  0
   -0.5958    1.9083    0.0000 C   0  0  0  0  0  0           0  0  0
   -6.8042    3.4458    0.0000 C   0  0  0  0  0  0           0  0  0
   -7.7292    3.2833    0.0000 C   0  0  0  0  0  0           0  0  0
   -7.9625    2.6000    0.0000 C   0  0  0  0  0  0           0  0  0
    2.1917    2.4958    0.0000 C   0  0  0  0  0  0           0  0  0
    2.6292    3.8583    0.0000 C   0  0  0  0  0  0           0  0  0
    0.4542    3.8125    0.0000 C   0  0  0  0  0  0           0  0  0
   -6.2292   -2.5375    0.0000 C   0  0  0  0  0  0           0  0  0
    1.8417    4.1042    0.0000 C   0  0  0  0  0  0           0  0  0
    1.4125    2.7500    0.0000 C   0  0  0  0  0  0           0  0  0
   -1.0333    0.5375    0.0000 C   0  0  0  0  0  0           0  0  0
   -0.4208    1.0958    0.0000 C   0  0  0  0  0  0           0  0  0
  2  1  1  0     0  0
  3  2  1  0     0  0
  4  1  2  0     0  0
  5  4  1  0     0  0
  6  1  1  0     0  0
  7  6  1  0     0  0
  8  9  1  0     0  0
  9  7  1  0     0  0
 10  8  2  0     0  0
 11 10  1  0     0  0
 12  2  1  0     0  0
 13  5  1  0     0  0
 14 18  1  0     0  0
 15  7  2  0     0  0
 16  8  1  0     0  0
 17 32  2  0     0  0
 18 16  2  0     0  0
 19 12  1  0     0  0
 20 12  2  0     0  0
 21 14  1  0     0  0
 22 20  1  0     0  0
 23 19  2  0     0  0
 24 22  2  0     0  0
 25 21  1  0     0  0
 26 34  1  0     0  0
 27 10  1  0     0  0
 28 11  1  0     0  0
 29 13  1  0     0  0
 30 13  1  0     0  0
 31 13  1  0     0  0
 32 37  1  0     0  0
 33 36  2  0     0  0
 34 25  1  0     0  0
 35 24  1  0     0  0
 36 26  1  0     0  0
 37 26  2  0     0  0
 38 27  2  0     0  0
 39 38  1  0     0  0
  5  3  2  0     0  0
 23 24  1  0     0  0
 11 14  2  0     0  0
 39 28  2  0     0  0
 33 17  1  0     0  0
M  END