
  SciTegic04191613082D

 29 28  0  0  0  0            999 V2000
    1.2990   -0.7500    0.0000 C   0  0
    1.2990    0.7500    0.0000 C   0  0
    0.0000    1.5000    0.0000 C   0  0
   -1.2990    0.7500    0.0000 C   0  0
   -1.2990   -0.7500    0.0000 C   0  0
    0.0000   -1.5000    0.0000 N   0  3
   -2.6003   -1.4978    0.0000 C   0  0
   -3.8990   -0.7455    0.0000 C   0  0
   -5.2003   -1.4932    0.0000 C   0  0
   -6.4990   -0.7410    0.0000 C   0  0
   -7.8003   -1.4887    0.0000 C   0  0
   -9.0990   -0.7365    0.0000 C   0  0
    2.6003   -1.4977    0.0000 C   0  0
    3.8990   -0.7455    0.0000 C   0  0
    5.2003   -1.4932    0.0000 C   0  0
    6.4990   -0.7409    0.0000 C   0  0
    7.8003   -1.4887    0.0000 C   0  0
    9.0990   -0.7364    0.0000 C   0  0
    0.0000   -2.7000    0.0000 C   0  0
  -10.1394   -1.3343    0.0000 C   0  0
   10.1394   -1.3343    0.0000 C   0  0
   14.2003   -0.3754    0.0000 C   0  0
   15.5003   -1.1254    0.0000 S   0  0
   13.1608   -0.9750    0.0000 F   0  0
   14.2003    0.8246    0.0000 F   0  0
   13.1611    0.2248    0.0000 F   0  0
   15.5003   -2.3254    0.0000 O   0  5
   16.5397   -0.5257    0.0000 O   0  0
   16.5394   -1.7255    0.0000 O   0  0
  1  2  2  0
  2  3  1  0
  3  4  2  0
  4  5  1  0
  5  6  2  0
  6  1  1  0
  5  7  1  0
  7  8  1  0
  8  9  1  0
  9 10  1  0
 10 11  1  0
 11 12  1  0
  1 13  1  0
 13 14  1  0
 14 15  1  0
 15 16  1  0
 16 17  1  0
 17 18  1  0
  6 19  1  0
 12 20  1  0
 18 21  1  0
 22 23  1  0
 22 24  1  0
 22 25  1  0
 22 26  1  0
 23 27  1  0
 23 28  2  0
 23 29  2  0
M  CHG  2   6   1  27  -1
M  END