
          11280715012D 1   1.00000     0.00000     0

 34 37  0     1  0            999 V2000
    9.4792   -7.3875    0.0000 S   0  0  3  0  0  0           0  0  0
    4.5792   -6.1292    0.0000 C   0  0  0  0  0  0           0  0  0
    4.8375   -5.3417    0.0000 C   0  0  0  0  0  0           0  0  0
    5.2417   -6.6125    0.0000 S   0  0  0  0  0  0           0  0  0
    5.9167   -6.1292    0.0000 C   0  0  0  0  0  0           0  0  0
    3.7542   -6.1292    0.0000 S   0  0  0  0  0  0           0  0  0
    8.7667   -6.9667    0.0000 N   0  0  0  0  0  0           0  0  0
    5.6625   -5.3417    0.0000 C   0  0  0  0  0  0           0  0  0
    8.7750   -6.1417    0.0000 C   0  0  2  0  0  0           0  0  0
    6.6292   -5.7250    0.0000 C   0  0  0  0  0  0           0  0  0
    4.1667   -4.8542    0.0000 C   0  0  0  0  0  0           0  0  0
    3.5042   -5.3417    0.0000 C   0  0  0  0  0  0           0  0  0
    9.4875   -5.7375    0.0000 C   0  0  0  0  0  0           0  0  0
    7.3417   -6.1417    0.0000 N   0  0  0  0  0  0           0  0  0
    9.6917   -8.1792    0.0000 O   0  0  0  0  0  0           0  0  0
    8.7667   -7.7917    0.0000 O   0  0  0  0  0  0           0  0  0
   10.3042   -7.3875    0.0000 C   0  0  0  0  0  0           0  0  0
    8.0625   -5.7292    0.0000 C   0  0  0  0  0  0           0  0  0
    0.2917   -3.2792    0.0000 N   0  0  0  0  0  0           0  0  0
    6.6292   -4.9000    0.0000 O   0  0  0  0  0  0           0  0  0
    9.4917   -4.9125    0.0000 O   0  0  0  0  0  0           0  0  0
    2.7167   -5.0792    0.0000 C   0  0  0  0  0  0           0  0  0
   10.2042   -6.1500    0.0000 O   0  0  0  0  0  0           0  0  0
    2.5500   -4.2750    0.0000 C   0  0  0  0  0  0           0  0  0
    1.7625   -4.0167    0.0000 C   0  0  3  0  0  0           0  0  0
    0.3375   -4.1042    0.0000 C   0  0  0  0  0  0           0  0  0
    0.9792   -2.8292    0.0000 C   0  0  0  0  0  0           0  0  0
   10.7042   -6.6750    0.0000 C   0  0  0  0  0  0           0  0  0
   10.7167   -8.1000    0.0000 C   0  0  0  0  0  0           0  0  0
    1.0792   -4.4750    0.0000 C   0  0  0  0  0  0           0  0  0
    1.7167   -3.1917    0.0000 C   0  0  0  0  0  0           0  0  0
   11.5375   -8.1000    0.0000 C   0  0  0  0  0  0           0  0  0
   11.5292   -6.6667    0.0000 C   0  0  0  0  0  0           0  0  0
   11.9500   -7.3875    0.0000 C   0  0  0  0  0  0           0  0  0
  2  4  1  0     0  0
  3  8  1  0     0  0
  4  5  1  0     0  0
  5 10  1  0     0  0
  6  2  1  0     0  0
  7  1  1  0     0  0
  8  5  2  0     0  0
  9  7  1  1     0  0
 10 14  1  0     0  0
 11  3  1  0     0  0
 12 11  2  0     0  0
 13  9  1  0     0  0
 14 18  1  0     0  0
 15  1  2  0     0  0
 16  1  2  0     0  0
 17  1  1  0     0  0
 18  9  1  0     0  0
 19 27  1  0     0  0
 20 10  2  0     0  0
 21 13  2  0     0  0
 22 12  1  0     0  0
 23 13  1  0     0  0
 24 22  1  0     0  0
 25 24  1  0     0  0
 26 30  1  0     0  0
 27 31  1  0     0  0
 28 17  1  0     0  0
 29 17  2  0     0  0
 30 25  1  0     0  0
 31 25  1  0     0  0
 32 29  1  0     0  0
 33 28  2  0     0  0
 34 32  2  0     0  0
 34 33  1  0     0  0
  3  2  2  0     0  0
 12  6  1  0     0  0
 19 26  1  0     0  0
M  END