
  SciTegic09171211542D

 33 35  0  0  0  0            999 V2000
   -3.6378   -6.4069    0.0000 C   0  0
   -2.9213   -5.9935    0.0000 C   0  0
   -2.9242   -5.1630    0.0000 C   0  0
   -3.6396   -4.7539    0.0000 C   0  0
   -4.3526   -5.9940    0.0000 C   0  0
   -4.3513   -5.1651    0.0000 C   0  0
   -5.1393   -4.9077    0.0000 S   0  0
   -5.6276   -5.5776    0.0000 C   0  0
   -5.1413   -6.2489    0.0000 N   0  0
   -2.2113   -4.7478    0.0000 N   0  0
   -1.4953   -5.1576    0.0000 C   0  0
   -0.7823   -4.7424    0.0000 C   0  0
   -1.4921   -5.9826    0.0000 O   0  0
   -0.0663   -5.1522    0.0000 C   0  0
    0.6466   -4.7370    0.0000 N   0  0
    1.3626   -5.1468    0.0000 C   0  0
    2.0755   -4.7317    0.0000 N   0  0
    1.3657   -5.9718    0.0000 O   0  0
    2.7915   -5.1415    0.0000 C   0  0
    3.5044   -4.7263    0.0000 C   0  0
    4.2205   -5.1361    0.0000 O   0  0
    4.9334   -4.7209    0.0000 C   0  0
    5.6489   -5.1337    0.0000 C   0  0
    6.3613   -4.7192    0.0000 C   0  0
    6.3586   -3.8933    0.0000 C   0  0
    5.6376   -3.4837    0.0000 C   0  0
    4.9281   -3.9005    0.0000 C   0  0
    7.0710   -3.4771    0.0000 C   0  0
    7.0668   -2.6521    0.0000 C   0  0
    7.7792   -2.2390    0.0000 C   0  0
    8.4965   -2.6481    0.0000 O   0  0
    7.7770   -1.4204    0.0000 O   0  0
   -6.4557   -5.5764    0.0000 C   0  0
 15 16  1  0
  6  7  1  0
 16 17  1  0
  7  8  1  0
 16 18  2  0
  8  9  2  0
 17 19  1  0
  9  5  1  0
 19 20  1  0
  4  6  1  0
 20 21  1  0
  3 10  1  0
 21 22  1  0
  5  6  2  0
 22 23  2  0
 10 11  1  0
 23 24  1  0
  1  2  2  0
 24 25  2  0
 11 12  1  0
 25 26  1  0
  5  1  1  0
 26 27  2  0
 27 22  1  0
 11 13  2  0
 25 28  1  0
  2  3  1  0
 28 29  1  0
 12 14  1  0
 29 30  1  0
 14 15  1  0
 30 31  1  0
 30 32  2  0
  3  4  2  0
  8 33  1  0
M  END