
          11280715522D 1   1.00000     0.00000     0

 49 52  0     1  0            999 V2000
   -4.4866  -13.3256    0.0000 C   0  0  0  0  0  0           0  0  0
   -4.4905  -14.1530    0.0000 C   0  0  0  0  0  0           0  0  0
   -3.7771  -14.5683    0.0000 C   0  0  0  0  0  0           0  0  0
   -3.7734  -12.9153    0.0000 C   0  0  0  0  0  0           0  0  0
   -3.0593  -13.3268    0.0000 C   0  0  0  0  0  0           0  0  0
   -3.0613  -14.1536    0.0000 C   0  0  0  0  0  0           0  0  0
   -2.3474  -14.5670    0.0000 N   0  0  0  0  0  0           0  0  0
   -1.6310  -14.1546    0.0000 C   0  0  0  0  0  0           0  0  0
   -1.6330  -13.3247    0.0000 C   0  0  0  0  0  0           0  0  0
   -2.3476  -12.9150    0.0000 C   0  0  0  0  0  0           0  0  0
   -3.7780  -15.3933    0.0000 O   0  0  0  0  0  0           0  0  0
   -3.0638  -15.8065    0.0000 C   0  0  0  0  0  0           0  0  0
   -3.0647  -16.6315    0.0000 C   0  0  0  0  0  0           0  0  0
   -3.7822  -17.0389    0.0000 C   0  0  0  0  0  0           0  0  0
   -3.7834  -17.8631    0.0000 C   0  0  0  0  0  0           0  0  0
   -3.0688  -18.2772    0.0000 C   0  0  0  0  0  0           0  0  0
   -2.3515  -17.8610    0.0000 C   0  0  0  0  0  0           0  0  0
   -2.3538  -17.0381    0.0000 C   0  0  0  0  0  0           0  0  0
   -4.4949  -16.6233    0.0000 Cl  0  0  0  0  0  0           0  0  0
   -1.6408  -16.6231    0.0000 Cl  0  0  0  0  0  0           0  0  0
   -0.9163  -14.5668    0.0000 C   0  0  0  0  0  0           0  0  0
   -1.6361  -18.2717    0.0000 S   0  0  3  0  0  0           0  0  0
   -0.9280  -18.6834    0.0000 N   0  0  0  0  0  0           0  0  0
   -1.2545  -17.7136    0.0000 O   0  0  0  0  0  0           0  0  0
   -2.0748  -18.9265    0.0000 O   0  0  0  0  0  0           0  0  0
   -0.0873  -18.1482    0.0000 C   0  0  3  0  0  0           0  0  0
    0.4997  -17.8549    0.0000 C   0  0  0  0  0  0           0  0  0
    0.1394  -18.9555    0.0000 C   0  0  0  0  0  0           0  0  0
   -0.3771  -17.4663    0.0000 C   0  0  0  0  0  0           0  0  0
    0.4935  -17.0299    0.0000 O   0  0  0  0  0  0           0  0  0
    1.2173  -18.2619    0.0000 N   0  0  3  0  0  0           0  0  0
    1.2191  -19.0873    0.0000 C   0  0  0  0  0  0           0  0  0
    1.9327  -19.4943    0.0000 C   0  0  0  0  0  0           0  0  0
    2.6464  -19.0799    0.0000 N   0  0  3  0  0  0           0  0  0
    2.6421  -18.2540    0.0000 C   0  0  0  0  0  0           0  0  0
    1.9240  -17.8425    0.0000 C   0  0  0  0  0  0           0  0  0
    3.3624  -19.4897    0.0000 C   0  0  0  0  0  0           0  0  0
    4.0753  -19.0745    0.0000 O   0  0  0  0  0  0           0  0  0
    3.3656  -20.3147    0.0000 C   0  0  0  0  0  0           0  0  0
    4.0817  -20.7244    0.0000 C   0  0  2  0  0  0           0  0  0
    4.0848  -21.5494    0.0000 C   0  0  0  0  0  0           0  0  0
    4.7946  -20.3092    0.0000 N   0  0  0  0  0  0           0  0  0
    4.8008  -21.9592    0.0000 C   0  0  0  0  0  0           0  0  0
    5.5137  -21.5440    0.0000 C   0  0  0  0  0  0           0  0  0
    6.2298  -21.9537    0.0000 C   0  0  0  0  0  0           0  0  0
    6.9427  -21.5385    0.0000 N   0  0  0  0  0  0           0  0  0
    7.6587  -21.9483    0.0000 C   0  0  0  0  0  0           0  0  0
    7.6618  -22.7733    0.0000 N   0  0  0  0  0  0           0  0  0
    8.3716  -21.5330    0.0000 N   0  0  0  0  0  0           0  0  0
  3 11  1  0     0  0
 22 24  2  0     0  0
  2  3  1  0     0  0
 22 25  2  0     0  0
 11 12  1  0     0  0
 23 26  1  0     0  0
  5  6  1  0     0  0
 26 27  1  0     0  0
 12 13  1  0     0  0
 26 28  1  0     0  0
  3  6  2  0     0  0
 26 29  1  0     0  0
 13 14  2  0     0  0
 27 30  2  0     0  0
  6  7  1  0     0  0
 27 31  1  0     0  0
 31 32  1  0     0  0
 14 15  1  0     0  0
  1  2  2  0     0  0
 15 16  2  0     0  0
  7  8  2  0     0  0
 16 17  1  0     0  0
 31 36  1  0     0  0
 32 33  1  0     0  0
 33 34  1  0     0  0
 34 35  1  0     0  0
 35 36  1  0     0  0
  5  4  2  0     0  0
 34 37  1  0     0  0
 17 18  2  0     0  0
 37 38  2  0     0  0
 18 13  1  0     0  0
 37 39  1  0     0  0
  8  9  1  0     0  0
 39 40  1  0     0  0
 14 19  1  0     0  0
 40 41  1  0     0  0
  4  1  1  0     0  0
 40 42  1  1     0  0
 18 20  1  0     0  0
 41 43  1  0     0  0
  9 10  2  0     0  0
 43 44  1  0     0  0
  8 21  1  0     0  0
 44 45  1  0     0  0
 10  5  1  0     0  0
 45 46  1  0     0  0
 17 22  1  0     0  0
 46 47  2  0     0  0
 47 48  1  0     0  0
 22 23  1  0     0  0
 47 49  1  0     0  0
M  END