
          11280715372D 1   1.00000     0.00000     0

 28 30  0     0  0            999 V2000
    3.6417   -3.9292    0.0000 C   0  0  0  0  0  0           0  0  0
    2.9292   -4.3417    0.0000 C   0  0  0  0  0  0           0  0  0
    2.2167   -3.9292    0.0000 C   0  0  0  0  0  0           0  0  0
    3.6417   -3.1042    0.0000 C   0  0  0  0  0  0           0  0  0
    2.9292   -2.6917    0.0000 O   0  0  0  0  0  0           0  0  0
    2.2167   -3.1042    0.0000 C   0  0  0  0  0  0           0  0  0
    1.5042   -4.3417    0.0000 C   0  0  0  0  0  0           0  0  0
    1.5042   -2.6917    0.0000 C   0  0  0  0  0  0           0  0  0
    0.7875   -3.9292    0.0000 C   0  0  0  0  0  0           0  0  0
    4.3625   -2.6917    0.0000 C   0  0  0  0  0  0           0  0  0
    2.9292   -5.1667    0.0000 O   0  0  0  0  0  0           0  0  0
    0.7875   -3.1042    0.0000 C   0  0  0  0  0  0           0  0  0
    4.3625   -4.3417    0.0000 O   0  0  0  0  0  0           0  0  0
    4.3625   -1.8667    0.0000 C   0  0  0  0  0  0           0  0  0
    5.0750   -3.1042    0.0000 C   0  0  0  0  0  0           0  0  0
    1.5042   -5.1667    0.0000 O   0  0  0  0  0  0           0  0  0
    5.7917   -2.6917    0.0000 C   0  0  0  0  0  0           0  0  0
    5.0750   -1.4542    0.0000 C   0  0  0  0  0  0           0  0  0
    5.7917   -1.8667    0.0000 C   0  0  0  0  0  0           0  0  0
    0.0750   -2.6917    0.0000 O   0  0  0  0  0  0           0  0  0
    6.5042   -1.4542    0.0000 C   0  0  0  0  0  0           0  0  0
    7.2167   -1.8667    0.0000 C   0  0  0  0  0  0           0  0  0
   10.7917   -1.4542    0.0000 C   0  0  0  0  0  0           0  0  0
   10.0792   -1.8667    0.0000 C   0  0  0  0  0  0           0  0  0
    9.3625   -1.4542    0.0000 C   0  0  0  0  0  0           0  0  0
    7.9292   -1.4542    0.0000 C   0  0  0  0  0  0           0  0  0
    8.6500   -1.8667    0.0000 C   0  0  0  0  0  0           0  0  0
   11.5042   -1.8667    0.0000 C   0  0  0  0  0  0           0  0  0
  2  1  1  0     0  0
  3  2  1  0     0  0
  4  1  2  0     0  0
  5  4  1  0     0  0
  6  5  1  0     0  0
  7  3  1  0     0  0
  8  6  1  0     0  0
  9  7  2  0     0  0
 10  4  1  0     0  0
 11  2  2  0     0  0
 12  8  2  0     0  0
 13  1  1  0     0  0
 14 10  1  0     0  0
 15 10  2  0     0  0
 16  7  1  0     0  0
 17 15  1  0     0  0
 18 14  2  0     0  0
 19 17  2  0     0  0
 20 12  1  0     0  0
 21 19  1  0     0  0
 22 21  1  0     0  0
 23 24  1  0     0  0
 24 25  1  0     0  0
 25 27  1  0     0  0
 26 22  1  0     0  0
 27 26  1  0     0  0
 28 23  1  0     0  0
  3  6  2  0     0  0
 18 19  1  0     0  0
  9 12  1  0     0  0
M  END