
  SciTegic12231509382D

 23 25  0  0  0  0            999 V2000
    2.1543    4.9000    0.0000 C   0  0
    5.7916    2.8000    0.0000 C   0  0
    7.0041   11.9000    0.0000 N   0  0
    4.5793    9.1000    0.0000 O   0  0
    7.0041   10.5000    0.0000 C   0  0
    0.0000    1.4000    0.0000 C   0  0
    4.5793    0.7000    0.0000 C   0  0
    0.8229    2.5326    0.0000 C   0  0
    7.0041    9.1000    0.0000 C   0  0
    7.0041    6.3000    0.0000 C   0  0
    7.0041    4.9000    0.0000 C   0  0
    4.5793    6.3000    0.0000 C   0  0
    4.5793    2.1000    0.0000 N   0  0
    3.3668    0.0000    0.0000 N   0  0
    0.8229    0.2674    0.0000 N   0  0
    5.7916    8.4000    0.0000 C   0  0
    3.3668    2.8000    0.0000 C   0  0
    2.1543    2.1000    0.0000 C   0  0
    2.1543    0.7000    0.0000 C   0  0
    3.3668    4.2000    0.0000 N   0  0
    5.7916    7.0000    0.0000 N   0  0
    5.7916    4.2000    0.0000 C   0  0  1  0  0  0
    4.5793    4.9000    0.0000 C   0  0  1  0  0  0
  1 20  1  0
 22  2  1  6
  3  5  3  0
  4 16  2  0
  5  9  1  0
  6  8  2  0
  6 15  1  0
  7 13  1  0
  7 14  2  0
  8 18  1  0
  9 16  1  0
 10 11  1  0
 10 21  1  0
 11 22  1  0
 12 21  1  0
 12 23  1  0
 13 17  2  0
 14 19  1  0
 15 19  1  0
 16 21  1  0
 17 18  1  0
 17 20  1  0
 18 19  2  0
 23 20  1  6
 22 23  1  0
M  END