
  SciTegic01311317052D

 17 18  0  0  0  0            999 V2000
   -5.7810    1.5056    0.0000 C   0  0
   -5.7823    0.6793    0.0000 C   0  0
   -5.0705    0.2670    0.0000 C   0  0
   -5.0725    1.9177    0.0000 C   0  0
   -4.3555    1.5095    0.0000 C   0  0
   -4.3517    0.6773    0.0000 C   0  0
   -3.6331    0.2666    0.0000 N   0  0
   -2.9135    0.6837    0.0000 C   0  0
   -2.9172    1.5159    0.0000 N   0  0
   -3.6406    1.9312    0.0000 C   0  0
   -3.6453    2.7548    0.0000 C   0  0
   -2.1990    0.2740    0.0000 N   0  0
   -1.4869    0.6881    0.0000 C   0  0
   -0.7722    0.2784    0.0000 C   0  0
   -0.0603    0.6924    0.0000 F   0  0
   -0.7697   -0.5453    0.0000 F   0  0
   -5.0764    2.7413    0.0000 Cl  0  0
  5 10  1  0
  6  7  1  0
  7  8  2  0
  8  9  1  0
  9 10  1  0
  5  6  1  0
 10 11  1  0
  8 12  1  0
  2  3  1  0
 12 13  1  0
  3  6  2  0
 13 14  1  0
  1  2  2  0
 14 15  1  0
  5  4  2  0
 14 16  1  0
  4  1  1  0
  4 17  1  0
M  END