
          11280714452D 1   1.00000     0.00000     0

 20 22  0     0  0            999 V2000
    0.4500   -0.6250    0.0000 C   0  0  3  0  0  0           0  0  0
   -0.0750   -0.3167    0.0000 O   0  0  0  0  0  0           0  0  0
    1.0292   -0.7792    0.0000 C   0  0  0  0  0  0           0  0  0
    1.4792   -0.3792    0.0000 N   0  0  0  0  0  0           0  0  0
   -0.0750   -1.5167    0.0000 O   0  0  0  0  0  0           0  0  0
   -0.5958   -0.6167    0.0000 C   0  0  0  0  0  0           0  0  0
    0.4500   -1.2167    0.0000 C   0  0  0  0  0  0           0  0  0
    1.2667   -1.3292    0.0000 N   0  0  0  0  0  0           0  0  0
   -0.5958   -1.2167    0.0000 C   0  0  0  0  0  0           0  0  0
    0.4250   -0.0292    0.0000 O   0  0  0  0  0  0           0  0  0
    1.9917   -0.6875    0.0000 C   0  0  0  0  0  0           0  0  0
    1.8625   -1.2667    0.0000 C   0  0  0  0  0  0           0  0  0
   -1.1083   -0.3167    0.0000 C   0  0  0  0  0  0           0  0  0
   -1.1083   -1.5167    0.0000 C   0  0  0  0  0  0           0  0  0
   -0.1083    0.2500    0.0000 C   0  0  0  0  0  0           0  0  0
   -0.1333    0.8458    0.0000 C   0  0  0  0  0  0           0  0  0
   -0.6583    1.1250    0.0000 C   0  0  0  0  0  0           0  0  0
   -1.6333   -0.6250    0.0000 C   0  0  0  0  0  0           0  0  0
   -0.6833    1.7208    0.0000 C   0  0  0  0  0  0           0  0  0
   -1.6333   -1.2167    0.0000 C   0  0  0  0  0  0           0  0  0
  2  1  1  0     0  0
  3  1  1  0     0  0
  4  3  2  0     0  0
  5  7  1  0     0  0
  6  2  1  0     0  0
  7  1  1  0     0  0
  8  3  1  0     0  0
  9  5  1  0     0  0
 10  1  1  0     0  0
 11  4  1  0     0  0
 12  8  1  0     0  0
 13  6  2  0     0  0
 14  9  2  0     0  0
 15 10  1  0     0  0
 16 15  1  0     0  0
 17 16  1  0     0  0
 18 13  1  0     0  0
 19 17  1  0     0  0
 20 14  1  0     0  0
  6  9  1  0     0  0
 12 11  1  0     0  0
 18 20  2  0     0  0
M  END