
  SciTegic10191216002D

 25 26  0  0  0  0            999 V2000
    2.3486  -25.5659    0.0000 C   0  0
    1.6333  -25.9750    0.0000 C   0  0
    1.6318  -26.7992    0.0000 C   0  0
    2.3462  -27.2136    0.0000 C   0  0
    3.0636  -26.7977    0.0000 C   0  0
    3.0617  -25.9748    0.0000 C   0  0
   -1.9292  -23.0875    0.0000 O   0  0
   -1.9292  -23.9125    0.0000 C   0  0
   -1.2171  -24.3208    0.0000 C   0  0
   -0.5051  -23.9125    0.0000 N   0  0
   -0.5051  -23.0875    0.0000 C   0  0
   -1.2171  -22.6708    0.0000 C   0  0
    0.2105  -22.6771    0.0000 C   0  0
    0.9238  -23.0917    0.0000 O   0  0
    1.6395  -22.6813    0.0000 C   0  0
    0.2130  -21.8521    0.0000 O   0  0
    0.2087  -24.3260    0.0000 C   0  0
    0.2075  -25.1510    0.0000 C   0  0
    0.9238  -23.9146    0.0000 O   0  0
    0.9214  -25.5646    0.0000 S   0  0
    0.5102  -26.2761    0.0000 O   0  0
    1.3354  -24.8547    0.0000 O   0  0
    3.7827  -27.2108    0.0000 C   0  0
    3.7844  -28.0401    0.0000 C   0  0
    4.5000  -26.7947    0.0000 C   0  0
  6  1  1  0
 11 13  1  0
  7  8  1  0
 13 14  1  0
  1  2  2  0
 14 15  1  0
  3  4  2  0
 13 16  2  0
 10 17  1  0
  4  5  1  0
 17 18  1  0
  2  3  1  0
 17 19  2  0
  5  6  2  0
 18 20  1  0
 20  2  1  0
  7 12  1  0
 20 21  2  0
  8  9  1  0
 20 22  2  0
  9 10  1  0
  5 23  1  0
 10 11  1  0
 23 24  1  0
 11 12  1  0
 23 25  1  0
M  END