
          05080814042D 1   1.00000     0.00000     0

 29 31  0     0  0            999 V2000
    8.8611    2.4375    0.0000 C   0  0  0  0  0  0           0  0  0
    8.8599    1.6102    0.0000 C   0  0  0  0  0  0           0  0  0
    9.5747    1.1973    0.0000 C   0  0  0  0  0  0           0  0  0
   10.2912    1.6106    0.0000 C   0  0  0  0  0  0           0  0  0
   10.2883    2.4412    0.0000 C   0  0  0  0  0  0           0  0  0
    9.5729    2.8503    0.0000 C   0  0  0  0  0  0           0  0  0
   11.0063    1.1993    0.0000 N   0  0  0  0  0  0           0  0  0
   11.0076    0.3743    0.0000 C   0  0  0  0  0  0           0  0  0
   11.7227   -0.0371    0.0000 O   0  0  0  0  0  0           0  0  0
   10.2938   -0.0393    0.0000 C   0  0  0  0  0  0           0  0  0
    9.5817    0.3759    0.0000 C   0  0  0  0  0  0           0  0  0
    8.8684   -0.0371    0.0000 C   0  0  0  0  0  0           0  0  0
    8.8692   -0.8630    0.0000 C   0  0  0  0  0  0           0  0  0
    9.5894   -1.2742    0.0000 C   0  0  0  0  0  0           0  0  0
   10.2998   -0.8589    0.0000 C   0  0  0  0  0  0           0  0  0
    9.5936   -2.0991    0.0000 S   0  0  3  0  0  0           0  0  0
    9.5875   -2.9208    0.0000 N   0  0  3  0  0  0           0  0  0
   10.4186   -2.1001    0.0000 O   0  0  0  0  0  0           0  0  0
    8.7686   -2.1015    0.0000 O   0  0  0  0  0  0           0  0  0
    8.8710   -3.3252    0.0000 C   0  0  0  0  0  0           0  0  0
    8.8630   -4.1432    0.0000 C   0  0  0  0  0  0           0  0  0
    9.5697   -4.5632    0.0000 O   0  0  0  0  0  0           0  0  0
   10.2862   -4.1589    0.0000 C   0  0  0  0  0  0           0  0  0
   10.2959   -3.3346    0.0000 C   0  0  0  0  0  0           0  0  0
   11.0012    2.8564    0.0000 C   0  0  0  0  0  0           0  0  0
   11.7188    2.4468    0.0000 O   0  0  0  0  0  0           0  0  0
   10.9997    3.6816    0.0000 O   0  0  0  0  0  0           0  0  0
    8.1465    2.8499    0.0000 O   0  0  0  0  0  0           0  0  0
    8.1463    3.6749    0.0000 C   0  0  0  0  0  0           0  0  0
  4  7  1  0     0  0
 14 15  2  0     0  0
 15 10  1  0     0  0
  3  4  2  0     0  0
 14 16  1  0     0  0
  7  8  1  0     0  0
 16 17  1  0     0  0
 16 18  2  0     0  0
  8  9  2  0     0  0
 16 19  2  0     0  0
 17 20  1  0     0  0
  4  5  1  0     0  0
  8 10  1  0     0  0
  2  3  1  0     0  0
 10 11  2  0     0  0
  5  6  2  0     0  0
 17 24  1  0     0  0
 20 21  1  0     0  0
 21 22  1  0     0  0
 22 23  1  0     0  0
 23 24  1  0     0  0
 11 12  1  0     0  0
  5 25  1  0     0  0
  6  1  1  0     0  0
 12 13  2  0     0  0
 25 26  1  0     0  0
 25 27  2  0     0  0
  1  2  2  0     0  0
  1 28  1  0     0  0
 13 14  1  0     0  0
 28 29  1  0     0  0
M  END