
          08180812482D 1   1.00000     0.00000     0

 37 41  0     1  0            999 V2000
    5.1633   -6.2418    0.0000 C   0  0  0  0  0  0           0  0  0
    5.5979   -6.9458    0.0000 C   0  0  0  0  0  0           0  0  0
    6.4230   -6.9205    0.0000 C   0  0  0  0  0  0           0  0  0
    6.8145   -6.1919    0.0000 C   0  0  0  0  0  0           0  0  0
    6.3749   -5.4873    0.0000 C   0  0  0  0  0  0           0  0  0
    5.5512   -5.5161    0.0000 C   0  0  0  0  0  0           0  0  0
    5.1148   -4.8160    0.0000 O   0  0  0  0  0  0           0  0  0
    7.6391   -6.1652    0.0000 C   0  0  0  0  0  0           0  0  0
    5.2071   -7.6724    0.0000 C   0  0  0  0  0  0           0  0  0
    6.8572   -7.6221    0.0000 C   0  0  0  0  0  0           0  0  0
    6.8500   -8.4458    0.0000 C   0  0  1  0  0  0           0  0  0
    7.5609   -8.8645    0.0000 C   0  0  0  0  0  0           0  0  0
    6.1320   -8.8521    0.0000 N   0  0  0  0  0  0           0  0  0
    8.2789   -8.4583    0.0000 N   0  0  3  0  0  0           0  0  0
    7.5537   -9.6895    0.0000 O   0  0  0  0  0  0           0  0  0
    8.9835   -8.8805    0.0000 C   0  0  1  0  0  0           0  0  0
    9.6994   -8.4778    0.0000 C   0  0  0  0  0  0           0  0  0
    8.2780   -7.6360    0.0000 C   0  0  0  0  0  0           0  0  0
    9.0002   -7.2316    0.0000 C   0  0  0  0  0  0           0  0  0
    9.7102   -7.6532    0.0000 C   0  0  0  0  0  0           0  0  0
   10.4283   -7.2491    0.0000 C   0  0  0  0  0  0           0  0  0
   10.4375   -6.4236    0.0000 C   0  0  0  0  0  0           0  0  0
    9.7226   -6.0038    0.0000 C   0  0  0  0  0  0           0  0  0
    9.0075   -6.4103    0.0000 C   0  0  0  0  0  0           0  0  0
    8.9722   -9.7055    0.0000 C   0  0  0  0  0  0           0  0  0
    8.2522  -10.1081    0.0000 O   0  0  0  0  0  0           0  0  0
    9.6810  -10.1277    0.0000 N   0  0  0  0  0  0           0  0  0
   10.4010   -9.7250    0.0000 C   0  0  0  0  0  0           0  0  0
   11.1098  -10.1473    0.0000 C   0  0  0  0  0  0           0  0  0
   11.1862  -10.9670    0.0000 N   0  0  0  0  0  0           0  0  0
   11.8694   -9.8203    0.0000 C   0  0  0  0  0  0           0  0  0
   12.4130  -10.4408    0.0000 C   0  0  0  0  0  0           0  0  0
   11.9901  -11.1475    0.0000 C   0  0  0  0  0  0           0  0  0
   12.3906  -11.8651    0.0000 C   0  0  0  0  0  0           0  0  0
   13.2139  -11.8771    0.0000 C   0  0  0  0  0  0           0  0  0
   13.6350  -11.1656    0.0000 C   0  0  0  0  0  0           0  0  0
   13.2321  -10.4510    0.0000 C   0  0  0  0  0  0           0  0  0
 17 20  1  0     0  0
 19 18  1  0     0  0
  2  9  1  0     0  0
  4  5  1  0     0  0
 19 20  2  0     0  0
  3 10  1  0     0  0
 20 21  1  0     0  0
  2  3  1  0     0  0
 21 22  2  0     0  0
 11 10  1  1     0  0
 22 23  1  0     0  0
  5  6  2  0     0  0
 23 24  2  0     0  0
 24 19  1  0     0  0
 11 12  1  0     0  0
 16 25  1  1     0  0
  6  1  1  0     0  0
 25 26  2  0     0  0
 11 13  1  0     0  0
 25 27  1  0     0  0
  1  2  2  0     0  0
 27 28  1  0     0  0
 12 14  1  0     0  0
 28 29  1  0     0  0
 29 30  1  0     0  0
  6  7  1  0     0  0
 12 15  2  0     0  0
 30 33  1  0     0  0
 32 31  1  0     0  0
 31 29  2  0     0  0
 14 16  1  0     0  0
  3  4  2  0     0  0
 32 33  2  0     0  0
  4  8  1  0     0  0
 33 34  1  0     0  0
 34 35  2  0     0  0
 14 18  1  0     0  0
 35 36  1  0     0  0
 16 17  1  0     0  0
 36 37  2  0     0  0
 37 32  1  0     0  0
M  END