
  CDK    9/16/09,10:2

 85 89  0  0  0  0  0  0  0  0999 V2000
   10.8022   -5.3864    0.0000 C   0  0  0  0  0  0  0  0  0  0  0  0
   10.0992   -4.1422    0.0000 O   0  0  0  0  0  0  0  0  0  0  0  0
   10.8105   -4.5625    0.0000 C   0  0  0  0  0  0  0  0  0  0  0  0
   11.5116   -5.8055    0.0000 C   0  0  0  0  0  0  0  0  0  0  0  0
   12.2308   -5.3999    0.0000 C   0  0  0  0  0  0  0  0  0  0  0  0
   12.9391   -5.8185    0.0000 C   0  0  0  0  0  0  0  0  0  0  0  0
   13.6568   -5.4126    0.0000 O   0  0  0  0  0  0  0  0  0  0  0  0
   11.5349   -3.3314    0.0000 C   0  0  0  0  0  0  0  0  0  0  0  0
   12.9616   -3.3458    0.0000 O   0  0  0  0  0  0  0  0  0  0  0  0
   12.2524   -2.9268    0.0000 C   0  0  0  0  0  0  0  0  0  0  0  0
   12.9824   -1.6983    0.0000 C   0  0  0  0  0  0  0  0  0  0  0  0
   12.2794   -0.4519    0.0000 O   0  0  0  0  0  0  0  0  0  0  0  0
   12.9907   -0.8722    0.0000 C   0  0  0  0  0  0  0  0  0  0  0  0
   13.6917   -2.1174    0.0000 C   0  0  0  0  0  0  0  0  0  0  0  0
   14.4113   -1.7115    0.0000 C   0  0  0  0  0  0  0  0  0  0  0  0
   15.1135   -2.1265    0.0000 C   0  0  0  0  0  0  0  0  0  0  0  0
   14.4197   -0.8853    0.0000 C   0  0  0  0  0  0  0  0  0  0  0  0
   13.7177    0.3581    0.0000 C   0  0  0  0  0  0  0  0  0  0  0  0
   15.1444    0.3437    0.0000 O   0  0  0  0  0  0  0  0  0  0  0  0
   14.4352    0.7628    0.0000 C   0  0  0  0  0  0  0  0  0  0  0  0
   13.0064    0.7784    0.0000 C   0  0  0  0  0  0  0  0  0  0  0  0
    8.6526   -5.7778    0.0000 C   0  0  0  0  0  0  0  0  0  0  0  0
    9.3723   -5.3719    0.0000 C   0  0  0  0  0  0  0  0  0  0  0  0
    9.3806   -4.5483    0.0000 O   0  0  0  0  0  0  0  0  0  0  0  0
    8.6443   -6.6040    0.0000 C   0  0  0  0  0  0  0  0  0  0  0  0
    9.3556   -7.0243    0.0000 C   0  0  0  0  0  0  0  0  0  0  0  0
    9.3435   -7.8505    0.0000 C   0  0  0  0  0  0  0  0  0  0  0  0
   10.0636   -8.2678    0.0000 C   0  0  0  0  0  0  0  0  0  0  0  0
   10.7810   -7.8559    0.0000 C   0  0  0  0  0  0  0  0  0  0  0  0
   10.7798   -7.0285    0.0000 C   0  0  0  0  0  0  0  0  0  0  0  0
   10.0666   -6.6158    0.0000 C   0  0  0  0  0  0  0  0  0  0  0  0
   11.4906   -8.2752    0.0000 O   0  0  0  0  0  0  0  0  0  0  0  0
   11.4783   -9.0952    0.0000 P   0  0  0  0  0  0  0  0  0  0  0  0
   10.6658   -9.0896    0.0000 O   0  0  0  0  0  0  0  0  0  0  0  0
    7.2243   -5.7624    0.0000 C   0  0  0  0  0  0  0  0  0  0  0  0
    7.2159   -6.5887    0.0000 O   0  0  0  0  0  0  0  0  0  0  0  0
    6.5150   -5.3433    0.0000 C   0  0  0  0  0  0  0  0  0  0  0  0
    5.7953   -5.7493    0.0000 C   0  0  0  0  0  0  0  0  0  0  0  0
    6.5294   -4.5198    0.0000 N   0  0  0  0  0  0  0  0  0  0  0  0
   14.4435    1.5925    0.0000 N   0  0  0  0  0  0  0  0  0  0  0  0
   13.0146    1.6057    0.0000 O   0  0  0  0  0  0  0  0  0  0  0  0
   12.2628   -2.1018    0.0000 N   0  0  0  0  0  0  0  0  0  0  0  0
   11.5286   -4.1563    0.0000 N   0  0  0  0  0  0  0  0  0  0  0  0
   12.9324   -6.6411    0.0000 N   0  0  0  0  0  0  0  0  0  0  0  0
   10.0830   -5.7908    0.0000 N   0  0  0  0  0  0  0  0  0  0  0  0
    7.9429   -5.3573    0.0000 N   0  0  0  0  0  0  0  0  0  0  0  0
   11.4708   -9.9195    0.0000 O   0  0  0  0  0  0  0  0  0  0  0  0
   12.3098   -9.1017    0.0000 O   0  0  0  0  0  0  0  0  0  0  0  0
   13.7093   -0.4669    0.0000 N   0  0  0  0  0  0  0  0  0  0  0  0
    5.7871   -6.5742    0.0000 C   0  0  0  0  0  0  0  0  0  0  0  0
    5.0685   -6.9796    0.0000 C   0  0  0  0  0  0  0  0  0  0  0  0
    6.4974   -6.9939    0.0000 C   0  0  0  0  0  0  0  0  0  0  0  0
   -0.3350   -3.0688    0.0000 C   0  0  0  0  0  0  0  0  0  0  0  0
   -0.8619   -3.7020    0.0000 C   0  0  0  0  0  0  0  0  0  0  0  0
   -0.5762   -4.4753    0.0000 C   0  0  0  0  0  0  0  0  0  0  0  0
    0.2334   -4.6215    0.0000 C   0  0  0  0  0  0  0  0  0  0  0  0
    0.5188   -5.3944    0.0000 C   0  0  0  0  0  0  0  0  0  0  0  0
   -1.1182   -5.1059    0.0000 O   0  0  0  0  0  0  0  0  0  0  0  0
   -0.8305   -5.8857    0.0000 C   0  0  0  0  0  0  0  0  0  0  0  0
   -0.0194   -6.0293    0.0000 C   0  0  0  0  0  0  0  0  0  0  0  0
    0.2638   -6.8012    0.0000 C   0  0  0  0  0  0  0  0  0  0  0  0
   -0.2681   -7.4341    0.0000 C   0  0  0  0  0  0  0  0  0  0  0  0
   -1.0796   -7.2876    0.0000 C   0  0  0  0  0  0  0  0  0  0  0  0
   -1.3582   -6.5117    0.0000 C   0  0  0  0  0  0  0  0  0  0  0  0
   -0.6181   -2.2939    0.0000 O   0  0  0  0  0  0  0  0  0  0  0  0
    1.5266   -5.7614    0.0000 C   0  0  0  0  0  0  0  0  0  0  0  0
    2.2433   -5.3447    0.0000 C   0  0  0  0  0  0  0  0  0  0  0  0
    2.9538   -6.5834    0.0000 C   0  0  0  0  0  0  0  0  0  0  0  0
    2.2380   -6.9960    0.0000 C   0  0  0  0  0  0  0  0  0  0  0  0
    1.5245   -6.5862    0.0000 C   0  0  0  0  0  0  0  0  0  0  0  0
    3.6680   -6.9964    0.0000 N   0  0  0  0  0  0  0  0  0  0  0  0
    4.3822   -7.4094    0.0000 C   0  0  0  0  0  0  0  0  0  0  0  0
    5.0963   -7.8225    0.0000 S   0  0  0  0  0  0  0  0  0  0  0  0
    2.2439   -4.5184    0.0000 C   0  0  0  0  0  0  0  0  0  0  0  0
    0.7652   -3.9848    0.0000 C   0  0  0  0  0  0  0  0  0  0  0  0
    1.5308   -4.1060    0.0000 O   0  0  0  0  0  0  0  0  0  0  0  0
    0.4853   -3.2150    0.0000 C   0  0  0  0  0  0  0  0  0  0  0  0
    2.9516   -5.7546    0.0000 C   0  0  0  0  0  0  0  0  0  0  0  0
    3.6718   -4.5194    0.0000 C   0  0  0  0  0  0  0  0  0  0  0  0
    4.3876   -4.1068    0.0000 C   0  0  0  0  0  0  0  0  0  0  0  0
    2.9581   -4.1055    0.0000 N   0  0  0  0  0  0  0  0  0  0  0  0
   -1.6126   -7.9173    0.0000 O   0  0  0  0  0  0  0  0  0  0  0  0
    5.1018   -4.5198    0.0000 C   0  0  0  0  0  0  0  0  0  0  0  0
    5.8165   -4.1078    0.0000 C   0  0  0  0  0  0  0  0  0  0  0  0
    5.8171   -3.2828    0.0000 O   0  0  0  0  0  0  0  0  0  0  0  0
 21 41  1  0  0  0  0 
 11 42  1  0  0  0  0 
 10 42  1  0  0  0  0 
  8 43  1  0  0  0  0 
  3 43  1  0  0  0  0 
  6 44  1  0  0  0  0 
 23 45  1  0  0  0  0 
  1 45  1  0  0  0  0 
 22 46  1  0  0  0  0 
 35 46  1  0  0  0  0 
 33 47  1  0  0  0  0 
 33 48  1  0  0  0  0 
 18 49  1  0  0  0  0 
 13 49  1  0  0  0  0 
 38 50  1  0  0  0  0 
  6  7  2  0  0  0  0 
 50 51  1  0  0  0  0 
  8 10  1  0  0  0  0 
 50 52  1  0  0  0  0 
 10  9  2  0  0  0  0 
 11 13  1  0  0  0  0 
 13 12  2  0  0  0  0 
 11 14  1  6  0  0  0 
 14 15  1  0  0  0  0 
 15 16  1  0  0  0  0 
 15 17  1  0  0  0  0 
 18 20  1  0  0  0  0 
 20 19  2  0  0  0  0 
 18 21  1  1  0  0  0 
 22 23  1  0  0  0  0 
 23 24  2  0  0  0  0 
 22 25  1  6  0  0  0 
 25 26  1  0  0  0  0 
 26 27  2  0  0  0  0 
 27 28  1  0  0  0  0 
 28 29  2  0  0  0  0 
 29 30  1  0  0  0  0 
 30 31  2  0  0  0  0 
 31 26  1  0  0  0  0 
 29 32  1  0  0  0  0 
 32 33  1  0  0  0  0 
 33 34  2  0  0  0  0 
  1  3  1  0  0  0  0 
  3  2  2  0  0  0  0 
  1  4  1  6  0  0  0 
  4  5  1  0  0  0  0 
  5  6  1  0  0  0  0 
 35 36  2  0  0  0  0 
 37 35  1  0  0  0  0 
 53 77  1  0  0  0  0 
 77 75  2  0  0  0  0 
 75 56  1  0  0  0  0 
 55 54  2  0  0  0  0 
 54 53  1  0  0  0  0 
 55 56  1  0  0  0  0 
 55 58  1  0  0  0  0 
 56 57  2  0  0  0  0 
 57 60  1  0  0  0  0 
 59 58  1  0  0  0  0 
 59 60  2  0  0  0  0 
 60 61  1  0  0  0  0 
 61 62  2  0  0  0  0 
 62 63  1  0  0  0  0 
 63 64  2  0  0  0  0 
 64 59  1  0  0  0  0 
 53 65  2  0  0  0  0 
 66 67  2  0  0  0  0 
 67 78  1  0  0  0  0 
 78 68  2  0  0  0  0 
 68 69  1  0  0  0  0 
 69 70  2  0  0  0  0 
 70 66  1  0  0  0  0 
 57 66  1  0  0  0  0 
 68 71  1  0  0  0  0 
 71 72  2  0  0  0  0 
 72 73  2  0  0  0  0 
 67 74  1  0  0  0  0 
 74 76  2  0  0  0  0 
 79 80  1  0  0  0  0 
 74 81  1  0  0  0  0 
 79 81  1  0  0  0  0 
 63 82  1  0  0  0  0 
 37 38  1  6  0  0  0 
 80 83  1  0  0  0  0 
 37 39  1  0  0  0  0 
 83 84  1  0  0  0  0 
 84 39  1  0  0  0  0 
 20 40  1  0  0  0  0 
 84 85  2  0  0  0  0 
M  END