
          11280715052D 1   1.00000     0.00000     0

 30 32  0     0  0            999 V2000
    1.9167   -0.8792    0.0000 N   0  0  3  0  0  0           0  0  0
    2.4000   -0.5292    0.0000 C   0  0  0  0  0  0           0  0  0
    1.6125    0.0458    0.0000 N   0  0  0  0  0  0           0  0  0
    2.2125    0.0458    0.0000 N   0  0  3  0  0  0           0  0  0
    1.4292   -0.5292    0.0000 C   0  0  0  0  0  0           0  0  0
    4.5125   -2.3792    0.0000 C   0  0  0  0  0  0           0  0  0
    3.9917   -2.6792    0.0000 C   0  0  0  0  0  0           0  0  0
    4.5042   -1.7792    0.0000 C   0  0  0  0  0  0           0  0  0
    1.9167   -1.4792    0.0000 C   0  0  0  0  0  0           0  0  0
    2.9667   -0.7125    0.0000 O   0  0  0  0  0  0           0  0  0
    3.4750   -2.3792    0.0000 C   0  0  0  0  0  0           0  0  0
    3.9875   -1.4792    0.0000 O   0  0  0  0  0  0           0  0  0
    2.9625   -2.6792    0.0000 C   0  0  0  0  0  0           0  0  0
    3.4792   -1.7792    0.0000 C   0  0  0  0  0  0           0  0  0
    2.4375   -1.7792    0.0000 C   0  0  0  0  0  0           0  0  0
    5.0292   -1.4792    0.0000 O   0  0  0  0  0  0           0  0  0
    2.5667    0.5333    0.0000 C   0  0  0  0  0  0           0  0  0
    0.8625   -0.7167    0.0000 C   0  0  0  0  0  0           0  0  0
    2.4417   -2.3792    0.0000 C   0  0  0  0  0  0           0  0  0
    2.9542   -1.4792    0.0000 C   0  0  0  0  0  0           0  0  0
    5.0292   -2.6792    0.0000 C   0  0  0  0  0  0           0  0  0
    3.9917   -3.2792    0.0000 C   0  0  0  0  0  0           0  0  0
    3.1625    0.4708    0.0000 C   0  0  0  0  0  0           0  0  0
    0.4125   -0.3167    0.0000 C   0  0  0  0  0  0           0  0  0
   -0.1583   -0.5042    0.0000 C   0  0  0  0  0  0           0  0  0
    3.5125    0.9583    0.0000 C   0  0  0  0  0  0           0  0  0
    4.5125   -3.5792    0.0000 C   0  0  0  0  0  0           0  0  0
    5.0292   -3.2792    0.0000 C   0  0  0  0  0  0           0  0  0
   -0.6083   -0.1042    0.0000 C   0  0  0  0  0  0           0  0  0
    4.1125    0.8958    0.0000 C   0  0  0  0  0  0           0  0  0
  2  1  1  0     0  0
  3  5  2  0     0  0
  4  2  1  0     0  0
  5  1  1  0     0  0
  6  7  1  0     0  0
  7 11  1  0     0  0
  8  6  1  0     0  0
  9  1  1  0     0  0
 10  2  2  0     0  0
 11 14  2  0     0  0
 12  8  2  0     0  0
 13 19  2  0     0  0
 14 20  1  0     0  0
 15  9  1  0     0  0
 16  8  1  0     0  0
 17  4  1  0     0  0
 18  5  1  0     0  0
 19 15  1  0     0  0
 20 15  2  0     0  0
 21  6  2  0     0  0
 22  7  2  0     0  0
 23 17  1  0     0  0
 24 18  1  0     0  0
 25 24  1  0     0  0
 26 23  1  0     0  0
 27 22  1  0     0  0
 28 27  2  0     0  0
 29 25  1  0     0  0
 30 26  1  0     0  0
  4  3  1  0     0  0
 13 11  1  0     0  0
 28 21  1  0     0  0
M  END