
  SciTegic05061409512D

 39 41  0  0  0  0            999 V2000
    4.2433   -8.3391    0.0000 C   0  0
    4.9627   -7.9464    0.0000 C   0  0
    4.9793   -7.1295    0.0000 C   0  0
    4.2808   -6.7022    0.0000 C   0  0
    3.5606   -7.0998    0.0000 C   0  0
    3.5439   -7.9174    0.0000 C   0  0
    5.6997   -6.7352    0.0000 C   0  0
    6.4035   -7.1615    0.0000 N   0  0
    5.7201   -5.9126    0.0000 O   0  0
    7.1240   -6.7672    0.0000 C   0  0
    7.8242   -7.1955    0.0000 O   0  0
    7.1407   -5.9466    0.0000 N   0  0
    7.8612   -5.5523    0.0000 C   0  0  1  0  0  0
    7.8815   -4.7298    0.0000 C   0  0
    6.3832   -7.9841    0.0000 C   0  0
    7.0870   -8.4104    0.0000 C   0  0
    7.0698   -9.2274    0.0000 C   0  0
    8.5991   -4.3388    0.0000 S   0  0
    8.6193   -3.5218    0.0000 C   0  0
    8.5622   -5.9785    0.0000 C   0  0
    8.5427   -6.7955    0.0000 O   0  0
    9.2794   -5.5869    0.0000 O   0  0
    4.2258   -9.1560    0.0000 C   0  0
    4.2322   -9.9706    0.0000 C   0  0
    4.2386  -10.7878    0.0000 C   0  0
    3.5328  -11.1970    0.0000 C   0  0
    3.5388  -12.0134    0.0000 C   0  0
    4.2503  -12.4173    0.0000 C   0  0
    4.9571  -11.9988    0.0000 C   0  0
    4.9476  -11.1838    0.0000 C   0  0
    9.3361   -3.1344    0.0000 C   0  0
    5.6499  -10.7660    0.0000 F   0  0
    4.2577  -13.2345    0.0000 F   0  0
   10.0278   -3.5636    0.0000 C   0  0
   10.7441   -3.1768    0.0000 C   0  0
   10.7674   -2.3615    0.0000 C   0  0
   10.0685   -1.9345    0.0000 C   0  0
    9.3551   -2.3237    0.0000 C   0  0
   11.4858   -1.9719    0.0000 Br  0  0
  1  2  2  0
  2  3  1  0
  3  4  2  0
  4  5  1  0
  5  6  2  0
  6  1  1  0
  3  7  1  0
  7  8  1  0
  7  9  2  0
  8 10  1  0
 10 11  2  0
 10 12  1  0
 12 13  1  0
 13 14  1  1
  8 15  1  0
 15 16  1  0
 16 17  1  0
 14 18  1  0
 18 19  1  0
 20 21  2  0
 20 22  1  0
 13 20  1  0
  1 23  1  0
 23 24  3  0
 24 25  1  0
 25 26  2  0
 26 27  1  0
 27 28  2  0
 28 29  1  0
 29 30  2  0
 30 25  1  0
 19 31  1  0
 30 32  1  0
 28 33  1  0
 31 34  2  0
 34 35  1  0
 35 36  2  0
 36 37  1  0
 37 38  2  0
 38 31  1  0
 36 39  1  0
M  END