
  Mrv0541 04051115152D          

 24 24  0  0  0  0            999 V2000
    0.9967    0.1076    0.0000 C   0  0  2  0  0  0  0  0  0  0  0  0
    0.9967   -0.7174    0.0000 C   0  0  1  0  0  0  0  0  0  0  0  0
    0.2822   -1.1299    0.0000 C   0  0  1  0  0  0  0  0  0  0  0  0
   -0.4322   -0.7174    0.0000 C   0  0  2  0  0  0  0  0  0  0  0  0
   -0.4322    0.1076    0.0000 C   0  0  1  0  0  0  0  0  0  0  0  0
    0.2822    0.5201    0.0000 C   0  0  1  0  0  0  0  0  0  0  0  0
    1.7112    0.5201    0.0000 O   0  0  0  0  0  0  0  0  0  0  0  0
    1.7112   -1.1299    0.0000 O   0  0  0  0  0  0  0  0  0  0  0  0
    0.2822   -1.9549    0.0000 O   0  0  0  0  0  0  0  0  0  0  0  0
   -1.1467   -1.1299    0.0000 O   0  0  0  0  0  0  0  0  0  0  0  0
   -1.1467    0.5201    0.0000 O   0  0  0  0  0  0  0  0  0  0  0  0
    0.2822    1.3451    0.0000 O   0  0  0  0  0  0  0  0  0  0  0  0
    1.7112    1.3451    0.0000 P   0  0  0  0  0  0  0  0  0  0  0  0
    1.7112    2.1701    0.0000 O   0  0  0  0  0  0  0  0  0  0  0  0
    0.8862    1.3451    0.0000 O   0  0  0  0  0  0  0  0  0  0  0  0
    2.5362    1.3451    0.0000 O   0  0  0  0  0  0  0  0  0  0  0  0
   -1.1467   -1.9549    0.0000 P   0  0  0  0  0  0  0  0  0  0  0  0
   -1.1467   -2.7799    0.0000 O   0  0  0  0  0  0  0  0  0  0  0  0
   -1.9717   -1.9549    0.0000 O   0  0  0  0  0  0  0  0  0  0  0  0
   -0.3217   -1.9549    0.0000 O   0  0  0  0  0  0  0  0  0  0  0  0
   -1.1467    1.3451    0.0000 P   0  0  0  0  0  0  0  0  0  0  0  0
   -0.3217    1.3451    0.0000 O   0  0  0  0  0  0  0  0  0  0  0  0
   -1.9717    1.3451    0.0000 O   0  0  0  0  0  0  0  0  0  0  0  0
   -1.1467    2.1701    0.0000 O   0  0  0  0  0  0  0  0  0  0  0  0
  1  2  1  0  0  0  0
  1  6  1  0  0  0  0
  1  7  1  6  0  0  0
  2  3  1  0  0  0  0
  2  8  1  6  0  0  0
  3  4  1  0  0  0  0
  3  9  1  6  0  0  0
  4  5  1  0  0  0  0
  4 10  1  1  0  0  0
  5  6  1  0  0  0  0
  5 11  1  6  0  0  0
  6 12  1  1  0  0  0
  7 13  1  0  0  0  0
 10 17  1  0  0  0  0
 11 21  1  0  0  0  0
 14 13  2  0  0  0  0
 15 13  1  0  0  0  0
 16 13  1  0  0  0  0
 18 17  2  0  0  0  0
 19 17  1  0  0  0  0
 20 17  1  0  0  0  0
 22 21  2  0  0  0  0
 23 21  1  0  0  0  0
 24 21  1  0  0  0  0
M  END