
          11280715332D 1   1.00000     0.00000     0

 30 32  0     0  0            999 V2000
    3.5667    1.3458    0.0000 N   0  0  0  0  0  0           0  0  0
    3.5667    0.5208    0.0000 C   0  0  0  0  0  0           0  0  0
    2.1417    1.3375    0.0000 C   0  0  0  0  0  0           0  0  0
    2.8500    1.7583    0.0000 C   0  0  0  0  0  0           0  0  0
    2.8542    0.1000    0.0000 N   0  0  0  0  0  0           0  0  0
    2.1417    0.5125    0.0000 C   0  0  0  0  0  0           0  0  0
    8.5667    0.1333    0.0000 C   0  0  0  0  0  0           0  0  0
    1.4250    1.7500    0.0000 C   0  0  0  0  0  0           0  0  0
    9.2792    0.5500    0.0000 C   0  0  0  0  0  0           0  0  0
    1.4250    0.0958    0.0000 C   0  0  0  0  0  0           0  0  0
    0.7125    1.3375    0.0000 C   0  0  0  0  0  0           0  0  0
    0.7125    0.5083    0.0000 C   0  0  0  0  0  0           0  0  0
    4.2875    0.1083    0.0000 N   0  0  3  0  0  0           0  0  0
   10.0375    0.2208    0.0000 O   0  0  0  0  0  0           0  0  0
    7.8542    0.5458    0.0000 N   0  0  3  0  0  0           0  0  0
    8.5750   -0.6917    0.0000 O   0  0  0  0  0  0           0  0  0
    9.3667    1.3750    0.0000 C   0  0  0  0  0  0           0  0  0
   10.5792    0.8375    0.0000 C   0  0  0  0  0  0           0  0  0
   10.1750    1.5500    0.0000 C   0  0  0  0  0  0           0  0  0
    2.8417    2.5833    0.0000 N   0  0  0  0  0  0           0  0  0
   -0.0083    1.7458    0.0000 O   0  0  0  0  0  0           0  0  0
    0.0000    0.0958    0.0000 O   0  0  0  0  0  0           0  0  0
    5.0000    0.5208    0.0000 C   0  0  0  0  0  0           0  0  0
    7.1417    0.1250    0.0000 C   0  0  0  0  0  0           0  0  0
    4.2917   -0.7167    0.0000 C   0  0  0  0  0  0           0  0  0
    7.8542    1.3708    0.0000 C   0  0  0  0  0  0           0  0  0
    0.0000   -0.7292    0.0000 C   0  0  0  0  0  0           0  0  0
   -0.7208    1.3333    0.0000 C   0  0  0  0  0  0           0  0  0
    6.4292    0.5333    0.0000 C   0  0  0  0  0  0           0  0  0
    5.7167    0.1125    0.0000 C   0  0  0  0  0  0           0  0  0
  2  1  1  0     0  0
  3  4  1  0     0  0
  4  1  2  0     0  0
  5  2  2  0     0  0
  6  3  1  0     0  0
  7 15  1  0     0  0
  8  3  2  0     0  0
  9  7  1  0     0  0
 10  6  2  0     0  0
 11  8  1  0     0  0
 12 11  2  0     0  0
 13  2  1  0     0  0
 14  9  1  0     0  0
 15 24  1  0     0  0
 16  7  2  0     0  0
 17  9  2  0     0  0
 18 14  1  0     0  0
 19 17  1  0     0  0
 20  4  1  0     0  0
 21 11  1  0     0  0
 22 12  1  0     0  0
 23 13  1  0     0  0
 24 29  1  0     0  0
 25 13  1  0     0  0
 26 15  1  0     0  0
 27 22  1  0     0  0
 28 21  1  0     0  0
 29 30  1  0     0  0
 30 23  1  0     0  0
  6  5  1  0     0  0
 10 12  1  0     0  0
 18 19  2  0     0  0
M  END