
  SciTegic01161211252D

 39 44  0  0  0  0            999 V2000
   -0.9051    0.8020    0.0000 N   0  0
    0.5213    0.7949    0.0000 C   0  0
   -0.1901    1.2122    0.0000 C   0  0
   -2.2790    2.4952    0.0000 C   0  0
   -1.5783    2.0593    0.0000 C   0  0
   -1.6020    1.2325    0.0000 C   0  0
    1.2563    1.1507    0.0000 C   0  0
    1.9570    0.7189    0.0000 N   0  0
    1.2757    1.9775    0.0000 O   0  0
    1.9290   -0.1043    0.0000 C   0  0
    2.6257   -0.5400    0.0000 C   0  0
    3.3522   -0.1486    0.0000 N   0  0
    3.3819    0.6793    0.0000 C   0  0
    2.6769    1.1155    0.0000 C   0  0
    4.0484   -0.5863    0.0000 C   0  0
   -0.8540    2.4543    0.0000 C   0  0
   -3.0033    2.1002    0.0000 C   0  0
   -3.7047    2.5383    0.0000 C   0  0
   -3.7468    0.8844    0.0000 C   0  0
   -3.0217    1.2771    0.0000 C   0  0
   -0.9093   -0.0252    0.0000 C   0  0
    0.5171   -0.0324    0.0000 C   0  0
   -0.2011   -0.4436    0.0000 C   0  0
   -0.2056   -1.2652    0.0000 C   0  0
    0.5064   -1.6816    0.0000 C   0  0
    1.2248   -1.2747    0.0000 C   0  0
    1.2309   -0.4469    0.0000 C   0  0
   -4.4496    1.3101    0.0000 C   0  0
   -4.4292    2.1421    0.0000 C   0  0
   -5.2142    2.4186    0.0000 O   0  0
   -5.7198    1.7574    0.0000 C   0  0
   -5.2471    1.0724    0.0000 O   0  0
    4.0136   -1.4062    0.0000 C   0  0
    4.7089   -1.8439    0.0000 C   0  0
    5.4371   -1.4598    0.0000 C   0  0
    5.4656   -0.6337    0.0000 C   0  0
    4.7696   -0.1998    0.0000 N   0  0
    4.7967    0.6250    0.0000 C   0  0
    6.1941   -0.2458    0.0000 O   0  0
 20 17  1  0
  6  1  1  0
  8 14  1  0
 23 21  1  0
 10 11  1  0
 11 12  1  0
 22 23  1  0
 12 13  1  0
 13 14  1  0
 22  2  1  0
  2  7  1  0
  2  3  1  0
 22 27  1  0
 23 24  1  0
 24 25  1  0
 25 26  1  0
 26 27  1  0
  7  8  1  0
  1 21  1  0
  7  9  2  0
 28 29  2  0
 12 15  1  0
  8 10  1  0
  5 16  1  0
  4 17  1  0
 29 30  1  0
 30 31  1  0
 31 32  1  0
 32 28  1  0
  4  5  1  0
 15 33  2  0
 17 18  2  0
 33 34  1  0
 18 29  1  0
 34 35  2  0
  1  3  1  0
 35 36  1  0
 28 19  1  0
 36 37  1  0
 37 15  1  0
  5  6  1  0
 37 38  1  0
 19 20  2  0
 36 39  2  0
M  END