
  SciTegic02131210002D

 30 32  0  0  0  0            999 V2000
   17.0417  -21.8167    0.0000 O   0  0
   17.4583  -21.1042    0.0000 S   0  0
   16.6330  -21.0996    0.0000 O   0  0
   14.6167  -17.8042    0.0000 C   0  0
   14.6167  -18.6292    0.0000 C   0  0
   15.3287  -19.0688    0.0000 N   0  0
   16.0407  -18.6292    0.0000 C   0  0
   16.0407  -17.8042    0.0000 N   0  0
   15.3287  -17.3875    0.0000 C   0  0
   16.7527  -19.0416    0.0000 C   0  0
   16.7502  -19.8677    0.0000 C   0  0
   17.4632  -20.2812    0.0000 C   0  0
   18.1793  -19.8697    0.0000 C   0  0
   18.1778  -19.0404    0.0000 C   0  0
   17.4642  -18.6307    0.0000 C   0  0
   18.1753  -21.5201    0.0000 N   0  0
   18.1714  -22.3423    0.0000 C   0  0
   18.8810  -22.7561    0.0000 C   0  0
   19.5987  -22.3485    0.0000 N   0  0
   19.6022  -21.5225    0.0000 C   0  0
   18.8881  -21.1042    0.0000 C   0  0
   15.3287  -16.5625    0.0000 O   0  0
   13.9028  -19.0427    0.0000 C   0  0
   13.9040  -19.8677    0.0000 C   0  0
   17.4631  -17.8057    0.0000 O   0  0
   18.1771  -17.3923    0.0000 C   0  0
   18.8921  -17.8038    0.0000 C   0  0
   19.6060  -17.3904    0.0000 C   0  0
   20.3108  -22.7651    0.0000 C   0  0
   13.9010  -17.3938    0.0000 I   0  0
  7 10  1  0
 12  2  1  0
  6  7  2  0
  2 16  1  0
 16 17  1  0
  7  8  1  0
  8  9  1  0
  3  2  2  0
  4  5  2  0
 10 11  2  0
 16 21  1  0
 17 18  1  0
 18 19  1  0
 19 20  1  0
 20 21  1  0
  9 22  2  0
 11 12  1  0
  5 23  1  0
  2  1  2  0
 23 24  1  0
 12 13  2  0
 15 25  1  0
  4  9  1  0
 25 26  1  0
 13 14  1  0
 26 27  1  0
  5  6  1  0
 27 28  1  0
 14 15  2  0
 19 29  1  0
 15 10  1  0
  4 30  1  0
M  END