
          11280715362D 1   1.00000     0.00000     0

 25 27  0     0  0            999 V2000
    4.5750   -6.7792    0.0000 C   0  0  0  0  0  0           0  0  0
    4.0542   -6.4792    0.0000 C   0  0  3  0  0  0           0  0  0
    4.5750   -7.3792    0.0000 C   0  0  0  0  0  0           0  0  0
    4.0542   -7.6792    0.0000 O   0  0  0  0  0  0           0  0  0
    3.5292   -7.3875    0.0000 C   0  0  3  0  0  0           0  0  0
    3.5292   -6.7792    0.0000 C   0  0  3  0  0  0           0  0  0
    5.0917   -6.4792    0.0000 C   0  0  0  0  0  0           0  0  0
    3.0042   -6.4792    0.0000 C   0  0  0  0  0  0           0  0  0
    4.0542   -5.8750    0.0000 C   0  0  0  0  0  0           0  0  0
    3.0042   -5.8750    0.0000 C   0  0  0  0  0  0           0  0  0
    3.5417   -5.5750    0.0000 C   0  0  0  0  0  0           0  0  0
    5.0917   -7.6792    0.0000 C   0  0  0  0  0  0           0  0  0
    5.6167   -6.7792    0.0000 C   0  0  0  0  0  0           0  0  0
    5.6167   -7.3792    0.0000 C   0  0  0  0  0  0           0  0  0
    6.6542   -7.3625    0.0000 C   0  0  0  0  0  0           0  0  0
    7.1792   -7.6542    0.0000 C   0  0  0  0  0  0           0  0  0
    5.0792   -5.8792    0.0000 O   0  0  0  0  0  0           0  0  0
    3.3292   -7.9542    0.0000 C   0  0  0  0  0  0           0  0  0
    2.9667   -7.1875    0.0000 C   0  0  0  0  0  0           0  0  0
    6.1417   -7.6667    0.0000 C   0  0  0  0  0  0           0  0  0
    9.2542   -7.6167    0.0000 O   0  0  0  0  0  0           0  0  0
    3.5542   -4.9750    0.0000 C   0  0  0  0  0  0           0  0  0
    7.6917   -7.3417    0.0000 C   0  0  0  0  0  0           0  0  0
    8.7292   -7.3292    0.0000 C   0  0  0  0  0  0           0  0  0
    8.2167   -7.6375    0.0000 C   0  0  0  0  0  0           0  0  0
  2  1  1  0     0  0
  3  1  1  0     0  0
  4  3  1  0     0  0
  5  4  1  0     0  0
  6  2  1  0     0  0
  7  1  2  0     0  0
  8  6  1  0     0  0
  9  2  1  0     0  0
 10 11  2  0     0  0
 11  9  1  0     0  0
 12  3  2  0     0  0
 13  7  1  0     0  0
 14 13  2  0     0  0
 15 20  1  0     0  0
 16 15  2  0     0  0
 17  7  1  0     0  0
 18  5  1  0     0  0
 19  5  1  0     0  0
 20 14  1  0     0  0
 21 24  1  0     0  0
 22 11  1  0     0  0
 23 16  1  0     0  0
 24 25  1  0     0  0
 25 23  1  0     0  0
  5  6  1  0     0  0
 14 12  1  0     0  0
 10  8  1  0     0  0
M  END