
          11280715572D 1   1.00000     0.00000     0

 93 99  0     1  0            999 V2000
    0.0000    1.5042    0.0000 C   0  0  0  0  0  0           0  0  0
    3.8917    8.2583    0.0000 N   0  0  3  0  0  0           0  0  0
   -1.3000   -0.7500    0.0000 C   0  0  0  0  0  0           0  0  0
   -1.3000    0.7542    0.0000 C   0  0  0  0  0  0           0  0  0
   25.3833    9.9417    0.0000 N   0  0  3  0  0  0           0  0  0
    0.0042    3.0042    0.0000 C   0  0  0  0  0  0           0  0  0
   25.1625   11.4250    0.0000 C   0  0  0  0  0  0           0  0  0
    0.0000   -1.5000    0.0000 O   0  0  0  0  0  0           0  0  0
    1.3000    3.7542    0.0000 C   0  0  0  0  0  0           0  0  0
    2.5958    7.5042    0.0000 O   0  0  0  0  0  0           0  0  0
    1.2792   -0.7500    0.0000 C   0  0  0  0  0  0           0  0  0
    1.2792    0.7542    0.0000 C   0  0  0  0  0  0           0  0  0
    2.5958    6.0042    0.0000 C   0  0  0  0  0  0           0  0  0
   22.8500    9.1583    0.0000 C   0  0  0  0  0  0           0  0  0
   11.0792    7.2917    0.0000 N   0  0  0  0  0  0           0  0  0
   -2.6000   -1.5000    0.0000 C   0  0  0  0  0  0           0  0  0
    4.0292    9.7417    0.0000 C   0  0  0  0  0  0           0  0  0
    5.2417    7.6375    0.0000 C   0  0  0  0  0  0           0  0  0
   24.3250    8.8958    0.0000 C   0  0  2  0  0  0           0  0  0
   12.5583    7.0292    0.0000 C   0  0  0  0  0  0           0  0  0
   -2.6000    1.5042    0.0000 C   0  0  0  0  0  0           0  0  0
   19.8917    9.6833    0.0000 C   0  0  0  0  0  0           0  0  0
    1.3000    5.2500    0.0000 C   0  0  0  0  0  0           0  0  0
   15.9667    9.0625    0.0000 C   0  0  0  0  0  0           0  0  0
   22.3375   10.5708    0.0000 N   0  0  0  0  0  0           0  0  0
   28.9125   12.7417    0.0000 C   0  0  0  0  0  0           0  0  0
   27.7375   11.8083    0.0000 N   0  0  0  0  0  0           0  0  0
   15.0000    7.9125    0.0000 N   0  0  0  0  0  0           0  0  0
   18.4125    9.9458    0.0000 N   0  0  0  0  0  0           0  0  0
    2.7792    3.4917    0.0000 C   0  0  0  0  0  0           0  0  0
   10.1125    6.1417    0.0000 C   0  0  3  0  0  0           0  0  0
   20.8583   10.8333    0.0000 C   0  0  1  0  0  0           0  0  0
   26.3417   12.3583    0.0000 C   0  0  1  0  0  0           0  0  0
   28.0375   18.6750    0.0000 C   0  0  0  0  0  0           0  0  0
   10.6250    4.7333    0.0000 C   0  0  0  0  0  0           0  0  0
   13.5250    8.1750    0.0000 C   0  0  1  0  0  0           0  0  0
    2.5958   -1.5000    0.0000 C   0  0  0  0  0  0           0  0  0
   -3.9000    0.7542    0.0000 C   0  0  0  0  0  0           0  0  0
   -3.9000   -0.7500    0.0000 C   0  0  0  0  0  0           0  0  0
   17.4458    8.8000    0.0000 C   0  0  1  0  0  0           0  0  0
    2.5958    1.5042    0.0000 C   0  0  0  0  0  0           0  0  0
   13.4750   12.1458    0.0000 C   0  0  0  0  0  0           0  0  0
   28.9792   19.4208    0.0000 N   0  0  0  0  0  0           0  0  0
   24.0500   11.8667    0.0000 O   0  0  0  0  0  0           0  0  0
    3.6375    5.4083    0.0000 O   0  0  0  0  0  0           0  0  0
   22.0750    8.2417    0.0000 O   0  0  0  0  0  0           0  0  0
   12.9667    5.9000    0.0000 O   0  0  0  0  0  0           0  0  0
   20.3000    8.5542    0.0000 O   0  0  0  0  0  0           0  0  0
    5.4958   10.0542    0.0000 C   0  0  0  0  0  0           0  0  0
    6.2458    8.7542    0.0000 C   0  0  0  0  0  0           0  0  0
   15.5583   10.1917    0.0000 O   0  0  0  0  0  0           0  0  0
   28.7333   13.9292    0.0000 O   0  0  0  0  0  0           0  0  0
    5.4875    6.4625    0.0000 O   0  0  0  0  0  0           0  0  0
    3.1333   10.5375    0.0000 O   0  0  0  0  0  0           0  0  0
   20.3500   12.2458    0.0000 C   0  0  0  0  0  0           0  0  0
    3.1875    2.3625    0.0000 O   0  0  0  0  0  0           0  0  0
   11.8083    4.5250    0.0000 O   0  0  0  0  0  0           0  0  0
   14.2500   13.0625    0.0000 O   0  0  0  0  0  0           0  0  0
   30.3083   12.1917    0.0000 C   0  0  1  0  0  0           0  0  0
   -4.9375   -1.3500    0.0000 O   0  0  0  0  0  0           0  0  0
   13.0167    9.5875    0.0000 C   0  0  0  0  0  0           0  0  0
   28.2583   17.1917    0.0000 N   0  0  0  0  0  0           0  0  0
    3.7458    4.6333    0.0000 N   0  0  0  0  0  0           0  0  0
   26.9208   19.1167    0.0000 N   0  0  0  0  0  0           0  0  0
    3.8958   -0.7500    0.0000 C   0  0  0  0  0  0           0  0  0
   26.7083    9.2375    0.0000 C   0  0  0  0  0  0           0  0  0
   13.9833   10.7333    0.0000 C   0  0  0  0  0  0           0  0  0
    8.6333    6.4042    0.0000 C   0  0  3  0  0  0           0  0  0
   12.2958   12.3583    0.0000 N   0  0  0  0  0  0           0  0  0
    3.8958    0.7542    0.0000 C   0  0  0  0  0  0           0  0  0
    9.8542    3.8167    0.0000 O   0  0  0  0  0  0           0  0  0
   -1.2958    3.7500    0.0000 C   0  0  0  0  0  0           0  0  0
   31.2500   12.9375    0.0000 N   0  0  0  0  0  0           0  0  0
   21.3167   13.3917    0.0000 C   0  0  0  0  0  0           0  0  0
    0.0000    6.0000    0.0000 C   0  0  0  0  0  0           0  0  0
   24.9625    7.5542    0.0000 C   0  0  0  0  0  0           0  0  0
    4.9333   -1.3500    0.0000 O   0  0  0  0  0  0           0  0  0
   26.4500    7.7625    0.0000 C   0  0  0  0  0  0           0  0  0
   -1.3000    5.2458    0.0000 C   0  0  0  0  0  0           0  0  0
   26.1208   13.8417    0.0000 C   0  0  0  0  0  0           0  0  0
   17.8542    7.6708    0.0000 C   0  0  0  0  0  0           0  0  0
   27.0792   16.2583    0.0000 C   0  0  0  0  0  0           0  0  0
    5.2250    4.3708    0.0000 C   0  0  0  0  0  0           0  0  0
    7.6667    5.2583    0.0000 C   0  0  0  0  0  0           0  0  0
   30.4875   11.0042    0.0000 C   0  0  0  0  0  0           0  0  0
    8.2250    7.5333    0.0000 C   0  0  0  0  0  0           0  0  0
   20.8125   14.8042    0.0000 C   0  0  0  0  0  0           0  0  0
   22.7958   13.1208    0.0000 C   0  0  0  0  0  0           0  0  0
   27.3000   14.7750    0.0000 C   0  0  0  0  0  0           0  0  0
    6.1917    5.5208    0.0000 C   0  0  0  0  0  0           0  0  0
   21.7833   15.9458    0.0000 C   0  0  0  0  0  0           0  0  0
   23.7625   14.2667    0.0000 C   0  0  0  0  0  0           0  0  0
   23.2583   15.6792    0.0000 C   0  0  0  0  0  0           0  0  0
  2 10  1  0     0  0
  3  4  1  0     0  0
  4  1  2  0     0  0
  5 19  1  0     0  0
  6  1  1  0     0  0
  7  5  1  0     0  0
  8 11  1  0     0  0
  9  6  2  0     0  0
 10 13  1  0     0  0
 11 12  2  0     0  0
 12  1  1  0     0  0
 13 23  1  0     0  0
 14 25  1  0     0  0
 15 31  1  0     0  0
 16  3  2  0     0  0
 17  2  1  0     0  0
 18  2  1  0     0  0
 19 14  1  1     0  0
 20 15  1  0     0  0
 21  4  1  0     0  0
 22 29  1  0     0  0
 23  9  1  0     0  0
 24 28  1  0     0  0
 32 25  1  6     0  0
 26 27  1  0     0  0
 33 27  1  6     0  0
 36 28  1  6     0  0
 29 40  1  0     0  0
 30  9  1  0     0  0
 31 68  1  0     0  0
 32 22  1  0     0  0
 33  7  1  0     0  0
 34 62  2  0     0  0
 35 31  1  0     0  0
 36 20  1  0     0  0
 37 11  1  0     0  0
 38 21  2  0     0  0
 39 16  1  0     0  0
 40 24  1  0     0  0
 41 12  1  0     0  0
 42 67  1  0     0  0
 43 34  1  0     0  0
 44  7  2  0     0  0
 45 13  2  0     0  0
 46 14  2  0     0  0
 47 20  2  0     0  0
 48 22  2  0     0  0
 49 17  1  0     0  0
 50 18  1  0     0  0
 51 24  2  0     0  0
 52 26  2  0     0  0
 53 18  2  0     0  0
 54 17  2  0     0  0
 55 32  1  0     0  0
 56 30  2  0     0  0
 57 35  2  0     0  0
 58 42  2  0     0  0
 59 26  1  0     0  0
 60 39  2  0     0  0
 61 36  1  0     0  0
 62 82  1  0     0  0
 63 30  1  0     0  0
 64 34  1  0     0  0
 65 37  2  0     0  0
 66  5  1  0     0  0
 67 61  1  0     0  0
 68 84  1  0     0  0
 69 42  1  0     0  0
 70 41  2  0     0  0
 71 35  1  0     0  0
 72  6  1  0     0  0
 73 59  1  0     0  0
 74 55  1  0     0  0
 75 23  2  0     0  0
 76 19  1  0     0  0
 77 65  1  0     0  0
 78 76  1  0     0  0
 79 72  2  0     0  0
 80 33  1  0     0  0
 40 81  1  1     0  0
 82 89  1  0     0  0
 83 63  1  0     0  0
 84 90  1  0     0  0
 59 85  1  1     0  0
 86 68  1  0     0  0
 87 74  2  0     0  0
 88 74  1  0     0  0
 89 80  1  0     0  0
 90 83  1  0     0  0
 91 87  1  0     0  0
 92 88  2  0     0  0
 93 92  1  0     0  0
  8  3  1  0     0  0
 70 65  1  0     0  0
 79 75  1  0     0  0
 39 38  1  0     0  0
 50 49  1  0     0  0
 93 91  2  0     0  0
 78 66  1  0     0  0
M  END