
  SciTegic01231714202D

 26 25  0  0  0  0            999 V2000
    1.2990   -0.7500    0.0000 C   0  0
    1.2990    0.7500    0.0000 C   0  0
    0.0000    1.5000    0.0000 N   0  3
   -1.2990    0.7500    0.0000 C   0  0
   -1.2990   -0.7500    0.0000 C   0  0
    0.0000   -1.5000    0.0000 C   0  0
    2.5973   -1.5031    0.0000 N   0  0
    2.5951   -3.0039    0.0000 C   0  0
    1.5548   -3.6021    0.0000 O   0  0
    3.8933   -3.7570    0.0000 C   0  0
    3.8912   -5.2578    0.0000 N   0  0
    2.8515   -5.8570    0.0000 O   0  0
   -0.0031    3.0008    0.0000 C   0  0
   -1.3039    3.7494    0.0000 C   0  0
   -1.3070    5.2502    0.0000 C   0  0
   -2.6078    5.9988    0.0000 N   0  3
   -2.6131    7.4988    0.0000 C   0  0
   -3.9148    8.2443    0.0000 C   0  0
   -5.2112    7.4898    0.0000 C   0  0
   -5.2060    5.9898    0.0000 C   0  0
   -3.9044    5.2443    0.0000 C   0  0
   -6.5151    8.2330    0.0000 C   0  0
   -7.5514    7.6279    0.0000 O   0  0
   -6.5213    9.4330    0.0000 N   0  0
   10.1894    1.8614    0.0000 Br  0  5
    7.6894    1.8614    0.0000 Br  0  5
  1  2  2  0
  2  3  1  0
  3  4  2  0
  4  5  1  0
  5  6  2  0
  6  1  1  0
  1  7  1  0
  7  8  1  0
  8  9  2  0
  8 10  1  0
 10 11  2  0
 11 12  1  0
  3 13  1  0
 13 14  1  0
 14 15  1  0
 15 16  1  0
 16 17  2  0
 17 18  1  0
 18 19  2  0
 19 20  1  0
 20 21  2  0
 21 16  1  0
 19 22  1  0
 22 23  2  0
 22 24  1  0
M  CHG  4   3   1  16   1  25  -1  26  -1
M  END