
  SciTegic05221516342D

 18 20  0  0  0  0            999 V2000
   24.3300   -4.0860    0.0000 N   0  0
   25.1472   -4.0860    0.0000 N   0  0
   25.4022   -3.3086    0.0000 C   0  0
   24.7386   -2.8272    0.0000 N   0  0
   24.0792   -3.3095    0.0000 C   0  0
   23.3574   -2.9326    0.0000 C   0  0
   23.3259   -2.1149    0.0000 C   0  0
   22.6032   -1.7351    0.0000 C   0  0
   21.9115   -2.1718    0.0000 C   0  0
   21.9471   -2.9925    0.0000 C   0  0
   22.6702   -3.3686    0.0000 C   0  0
   26.1027   -2.8939    0.0000 C   0  0
   26.8139   -3.2985    0.0000 C   0  0
   27.5179   -2.8850    0.0000 C   0  0
   27.5118   -2.0670    0.0000 C   0  0
   26.7959   -1.6642    0.0000 C   0  0
   26.0949   -2.0801    0.0000 C   0  0
   28.2286   -3.2883    0.0000 N   0  0
  1  2  1  0
  2  3  2  0
  3  4  1  0
  4  5  2  0
  5  1  1  0
  6  7  2  0
  7  8  1  0
  8  9  2  0
  9 10  1  0
 10 11  2  0
 11  6  1  0
  5  6  1  0
 12 13  2  0
 13 14  1  0
 14 15  2  0
 15 16  1  0
 16 17  2  0
 17 12  1  0
  3 12  1  0
 14 18  1  0
M  END