
          11280715122D 1   1.00000     0.00000     0

 34 37  0     0  0            999 V2000
    7.6250   -3.6125    0.0000 N   0  3  0  0  0  0           0  0  0
    8.3542   -3.9375    0.0000 C   0  0  0  0  0  0           0  0  0
    7.6250   -2.7792    0.0000 C   0  0  0  0  0  0           0  0  0
    8.3375   -2.3667    0.0000 C   0  0  0  0  0  0           0  0  0
    6.9125   -4.0250    0.0000 N   0  0  0  0  0  0           0  0  0
    8.1417   -4.7375    0.0000 C   0  0  0  0  0  0           0  0  0
    8.3292   -1.5417    0.0000 C   0  0  0  0  0  0           0  0  0
    9.0542   -3.6125    0.0000 N   0  0  0  0  0  0           0  0  0
    7.3167   -4.7375    0.0000 C   0  0  0  0  0  0           0  0  0
    3.3292   -2.8375    0.0000 N   0  0  3  0  0  0           0  0  0
    9.0542   -2.7792    0.0000 C   0  0  0  0  0  0           0  0  0
    2.6167   -2.4292    0.0000 C   0  0  0  0  0  0           0  0  0
    2.6167   -1.6000    0.0000 C   0  0  0  0  0  0           0  0  0
    4.7667   -3.6292    0.0000 N   0  0  3  0  0  0           0  0  0
    1.9000   -1.1875    0.0000 C   0  0  0  0  0  0           0  0  0
    9.0500   -1.1292    0.0000 N   0  0  3  0  0  0           0  0  0
    1.9000   -2.8417    0.0000 C   0  0  0  0  0  0           0  0  0
    7.6167   -1.1375    0.0000 O   0  0  0  0  0  0           0  0  0
    6.9125   -2.3750    0.0000 N   0  0  0  0  0  0           0  0  0
    4.0375   -2.4125    0.0000 C   0  0  0  0  0  0           0  0  0
    3.3417   -3.6625    0.0000 C   0  0  0  0  0  0           0  0  0
    8.6417   -5.3875    0.0000 Cl  0  0  0  0  0  0           0  0  0
    1.1875   -1.6042    0.0000 C   0  0  0  0  0  0           0  0  0
    4.7542   -2.8125    0.0000 C   0  0  0  0  0  0           0  0  0
    4.0667   -4.0625    0.0000 C   0  0  0  0  0  0           0  0  0
    1.1875   -2.4292    0.0000 C   0  0  0  0  0  0           0  0  0
    3.3250   -1.1875    0.0000 O   0  0  0  0  0  0           0  0  0
    0.4750   -1.1917    0.0000 F   0  0  0  0  0  0           0  0  0
    5.4917   -4.0292    0.0000 C   0  0  0  0  0  0           0  0  0
    6.2042   -3.6125    0.0000 C   0  0  0  0  0  0           0  0  0
    6.2000   -2.7875    0.0000 C   0  0  0  0  0  0           0  0  0
    9.0417   -0.3042    0.0000 C   0  0  0  0  0  0           0  0  0
    9.7625   -1.5375    0.0000 C   0  0  0  0  0  0           0  0  0
    4.0417   -1.6000    0.0000 C   0  0  0  0  0  0           0  0  0
  2  1  1  0     0  0
  3  1  2  0     0  0
  4  3  1  0     0  0
  5  1  1  0     0  0
  6  2  2  0     0  0
  7  4  1  0     0  0
  8  2  1  0     0  0
  9  5  2  0     0  0
 10 21  1  0     0  0
 11  4  2  0     0  0
 12 10  1  0     0  0
 13 12  1  0     0  0
 14 29  1  0     0  0
 15 13  2  0     0  0
 16  7  1  0     0  0
 17 12  2  0     0  0
 18  7  2  0     0  0
 19  3  1  0     0  0
 20 24  1  0     0  0
 21 25  1  0     0  0
 22  6  1  0     0  0
 23 26  2  0     0  0
 24 14  1  0     0  0
 25 14  1  0     0  0
 26 17  1  0     0  0
 27 13  1  0     0  0
 28 23  1  0     0  0
 29 30  1  0     0  0
 30 31  1  0     0  0
 31 19  1  0     0  0
 32 16  1  0     0  0
 33 16  1  0     0  0
 34 27  1  0     0  0
  9  6  1  0     0  0
 11  8  1  0     0  0
 10 20  1  0     0  0
 15 23  1  0     0  0
M  CHG  1   1   1
M  END