
          11280715492D 1   1.00000     0.00000     0

 26 29  0     0  0            999 V2000
   16.0937   -2.5190    0.0000 C   0  0  0  0  0  0           0  0  0
   15.2982   -2.3945    0.0000 N   0  0  3  0  0  0           0  0  0
   15.7481   -1.8437    0.0000 C   0  0  0  0  0  0           0  0  0
   14.6054   -2.9571    0.0000 C   0  0  0  0  0  0           0  0  0
   15.1528   -1.3819    0.0000 C   0  0  0  0  0  0           0  0  0
   14.9647   -1.7291    0.0000 C   0  0  3  0  0  0           0  0  0
   14.3045   -2.2760    0.0000 C   0  0  3  0  0  0           0  0  0
   14.7620   -0.8775    0.0000 C   0  0  0  0  0  0           0  0  0
   13.8743   -1.5677    0.0000 O   0  0  0  0  0  0           0  0  0
   13.0513   -1.5859    0.0000 C   0  0  0  0  0  0           0  0  0
   13.5903   -2.6986    0.0000 C   0  0  0  0  0  0           0  0  0
   12.8803   -3.1206    0.0000 C   0  0  0  0  0  0           0  0  0
   12.1703   -3.5427    0.0000 C   0  0  3  0  0  0           0  0  0
   11.4603   -3.9647    0.0000 C   0  0  0  0  0  0           0  0  0
   12.5909   -4.2503    0.0000 C   0  0  0  0  0  0           0  0  0
   11.7496   -2.8350    0.0000 O   0  0  0  0  0  0           0  0  0
   10.7382   -3.5615    0.0000 C   0  0  0  0  0  0           0  0  0
   10.0320   -3.9819    0.0000 C   0  0  0  0  0  0           0  0  0
   10.0420   -4.8087    0.0000 C   0  0  0  0  0  0           0  0  0
   10.7647   -5.2131    0.0000 C   0  0  0  0  0  0           0  0  0
   11.4707   -4.7896    0.0000 C   0  0  0  0  0  0           0  0  0
   13.4133   -4.2377    0.0000 N   0  0  0  0  0  0           0  0  0
   12.1884   -4.9632    0.0000 C   0  0  0  0  0  0           0  0  0
   12.6073   -5.6723    0.0000 C   0  0  0  0  0  0           0  0  0
   13.4313   -5.6619    0.0000 C   0  0  0  0  0  0           0  0  0
   13.8367   -4.9422    0.0000 C   0  0  0  0  0  0           0  0  0
  2  5  1  0     0  0
 12 13  1  0     0  0
  3  6  1  0     0  0
 13 14  1  0     0  0
  4  7  1  0     0  0
 13 15  1  0     0  0
  5  8  1  0     0  0
 13 16  1  0     0  0
  6  7  1  0     0  0
 14 17  2  0     0  0
  6  8  1  0     0  0
 17 18  1  0     0  0
 18 19  2  0     0  0
  7  9  1  0     0  0
 19 20  1  0     0  0
  1  2  1  0     0  0
 20 21  2  0     0  0
 21 14  1  0     0  0
  9 10  1  0     0  0
  1  3  1  0     0  0
  7 11  1  0     0  0
  2  4  1  0     0  0
 11 12  3  0     0  0
 22 26  2  0     0  0
 22 15  1  0     0  0
 15 23  2  0     0  0
 23 24  1  0     0  0
 24 25  2  0     0  0
 25 26  1  0     0  0
M  END