
  SciTegic01161211252D

 17 17  0  0  0  0            999 V2000
    5.1000   -8.1750    0.0000 N   0  0
    1.7542   -6.8542    0.0000 C   0  0
    0.5417   -7.6042    0.0000 C   0  0
    0.4917   -6.1792    0.0000 C   0  0
    2.5792   -6.8250    0.0000 O   0  0
    4.2750   -8.2000    0.0000 C   0  0
    1.3667   -7.5792    0.0000 C   0  0
    1.3167   -6.1542    0.0000 C   0  0
    0.1042   -6.9042    0.0000 C   0  0
    3.8417   -7.5000    0.0000 C   0  0
    3.0167   -7.5292    0.0000 C   0  0
    5.8917   -7.9375    0.0000 C   0  0
    4.2292   -6.7750    0.0000 O   0  0
    0.0542   -5.4792    0.0000 C   0  0
    0.1542   -8.3375    0.0000 C   0  0
    6.4917   -8.5000    0.0000 C   0  0
    6.0792   -7.1292    0.0000 C   0  0
  2  5  1  0
  3  7  1  0
  4  8  2  0
  5 11  1  0
  6  1  1  0
  7  2  2  0
  8  2  1  0
  9  4  1  0
 10  6  1  0
 11 10  1  0
 12  1  1  0
 13 10  1  0
 14  4  1  0
 15  3  1  0
 16 12  1  0
 17 12  1  0
  9  3  2  0
M  END