
  SciTegic11201309402D

 61 67  0  0  0  0            999 V2000
   -1.9849   -4.0215    0.0000 N   0  0
   -0.9038   -1.8877    0.0000 N   0  0
   -1.8534   -3.2091    0.0000 C   0  0
   -1.4872   -2.4712    0.0000 C   0  0  1  0  0  0
   -1.8534   -4.8394    0.0000 C   0  0  2  0  0  0
   -0.1658   -1.5159    0.0000 C   0  0
   -1.4872   -5.5774    0.0000 C   0  0
   -0.9038   -6.1494    0.0000 N   0  0
    1.4645   -1.5159    0.0000 N   0  0
    2.2024   -1.8877    0.0000 C   0  0
    3.6725   -1.1841    0.0000 C   0  0
    4.4676   -1.0011    0.0000 N   0  0
   -1.1097   -1.0869    0.0000 C   0  0
   -2.7973   -3.8956    0.0000 C   0  0
    3.1634   -3.2091    0.0000 N   0  0
    2.7859   -2.4712    0.0000 C   0  0  1  0  0  0
    0.6521   -1.3787    0.0000 C   0  0  1  0  0  0
   -2.5913   -5.2056    0.0000 C   0  0
   -2.2767   -2.2539    0.0000 C   0  0
    0.6521   -6.6585    0.0000 C   0  0
    3.2492   -0.4691    0.0000 C   0  0
   -3.1748   -4.6221    0.0000 C   0  0
    1.2414   -9.1526    0.0000 C   0  0
    3.4551   -1.9793    0.0000 C   0  0
   -0.1658   -6.5270    0.0000 C   0  0  2  0  0  0
    4.5477   -0.1774    0.0000 C   0  0
    3.2949   -4.0215    0.0000 C   0  0
   -1.9049   -0.8752    0.0000 C   0  0
   -2.4998   -1.4587    0.0000 C   0  0
    3.7926    0.1487    0.0000 C   0  0
   -2.6428   -2.9517    0.0000 O   0  0
    1.4645   -6.5270    0.0000 N   0  0
    1.7905   -9.7704    0.0000 N   0  0
   -0.4119   -0.7265    0.0000 O   0  0
   -2.1451   -6.0579    0.0000 O   0  0
    2.6943   -1.2184    0.0000 O   0  0
    0.6521   -7.4880    0.0000 O   0  0
    4.1187   -4.0215    0.0000 O   0  0
    0.4348   -9.3242    0.0000 N   0  0
    1.7562   -8.5692    0.0000 N   0  0
   -3.2548   -3.1977    0.0000 C   0  0
    0.6521   -0.5549    0.0000 C   0  0
   -3.9985   -4.6736    0.0000 C   0  0
    3.1634   -4.8394    0.0000 C   0  0
    2.2024   -6.1494    0.0000 C   0  0
    5.2170    0.3089    0.0000 C   0  0
   -0.4119   -7.3164    0.0000 C   0  0
   -2.1222   -0.0744    0.0000 C   0  0
   -3.2892   -1.2414    0.0000 C   0  0
    3.6954    0.9724    0.0000 C   0  0
   -0.1144   -8.7178    0.0000 C   0  0
    0.1373   -7.9284    0.0000 C   0  0
    2.7859   -5.5774    0.0000 C   0  0
   -4.0786   -3.2434    0.0000 C   0  0
   -4.4447   -3.9814    0.0000 C   0  0
    5.1198    1.1326    0.0000 C   0  0
    4.3647    1.4587    0.0000 C   0  0
   -3.5009   -0.4462    0.0000 C   0  0
   -2.9174    0.1315    0.0000 C   0  0
   -2.1725   -5.7871    0.0000 H   0  0
   -2.4000   -2.8797    0.0000 H   0  0
  4  2  1  0
  3  1  1  0
  4  3  1  0
  5  1  1  0
  6  2  1  0
  7  5  1  0
  8  7  1  0
  9 17  1  0
 10  9  1  0
 11 24  1  0
 12 11  1  0
 13  2  1  0
 14  1  1  0
 15 16  1  0
 16 10  1  0
 17  6  1  0
 18  5  1  0
 19  4  1  0
 20 25  1  0
 21 11  2  0
 22 14  1  0
 23 39  2  0
 16 24  1  6
 25  8  1  0
 26 12  1  0
 27 44  1  0
 28 29  2  0
 29 19  1  0
 30 21  1  0
 31  3  2  0
 32 20  1  0
 33 23  1  0
 34  6  2  0
 35  7  2  0
 36 10  2  0
 37 20  2  0
 38 27  2  0
 39 51  1  0
 40 23  1  0
 41 14  1  0
 17 42  1  6
 43 22  1  0
 44 53  1  0
 45 32  1  0
 46 26  1  0
 25 47  1  6
 48 28  1  0
 49 29  1  0
 50 30  1  0
 51 52  1  0
 52 47  1  0
 53 45  1  0
 54 41  1  0
 55 54  1  0
 56 46  2  0
 57 50  2  0
 58 49  2  0
 59 58  1  0
 18 22  1  0
 43 55  1  0
 13 28  1  0
 48 59  2  0
 15 27  1  0
 30 26  2  0
 56 57  1  0
  5 60  1  1
  4 61  1  6
M  END