
  SciTegic01161211252D

 35 38  0  0  0  0            999 V2000
   15.5715  -14.4849    0.0000 O   0  0
   14.8524  -14.8893    0.0000 S   0  0
   15.5643  -15.3104    0.0000 O   0  0
   15.5584  -12.8413    0.0000 C   0  0
   16.2185  -12.3436    0.0000 C   0  0
   15.9536  -11.5622    0.0000 C   0  0  1  0  0  0
   15.1260  -11.5757    0.0000 N   0  0
   14.8884  -12.3647    0.0000 N   0  0
   14.6987  -10.8674    0.0000 C   0  0
   15.1016  -10.1444    0.0000 C   0  0
   14.6744   -9.4375    0.0000 C   0  0
   13.8484   -9.4566    0.0000 C   0  0
   13.4517  -10.1802    0.0000 C   0  0
   13.8770  -10.8841    0.0000 C   0  0
   16.3905  -10.8654    0.0000 C   0  0
   17.2163  -10.8957    0.0000 C   0  0
   17.6555  -10.1962    0.0000 C   0  0
   17.2702   -9.4703    0.0000 C   0  0
   16.4413   -9.4398    0.0000 C   0  0
   16.0057  -10.1400    0.0000 C   0  0
   15.5710  -13.6663    0.0000 C   0  0
   14.8531  -14.0654    0.0000 N   0  0
   14.1391  -15.3058    0.0000 N   0  0
   13.4238   -8.7499    0.0000 Cl  0  0
   13.4321  -14.8920    0.0000 C   0  0
   12.7208  -15.3050    0.0000 C   0  0
   12.7191  -16.1300    0.0000 C   0  0
   13.4349  -16.5402    0.0000 C   0  0
   14.1523  -16.1296    0.0000 C   0  0
   12.0037  -16.5400    0.0000 C   0  0
   11.2888  -16.1290    0.0000 F   0  0
   12.0031  -17.3650    0.0000 F   0  0
   11.2775  -16.9361    0.0000 F   0  0
   16.2817  -14.0771    0.0000 N   0  0
   16.9930  -13.6670    0.0000 C   0  0
 17 18  2  0
  9 10  2  0
 18 19  1  0
  4  5  1  0
 19 20  2  0
 20 15  1  0
  6 15  1  1
 10 11  1  0
  4 21  1  0
 21 22  2  0
 22  2  1  0
 11 12  2  0
  2 23  1  0
  5  6  1  0
 12 24  1  0
 23 25  1  0
 12 13  1  0
  6  7  1  0
 13 14  2  0
 14  9  1  0
  7  9  1  0
 23 29  1  0
 25 26  1  0
 26 27  1  0
 27 28  1  0
 28 29  1  0
  7  8  1  0
 27 30  1  0
  8  4  2  0
 30 31  1  0
 15 16  2  0
 30 32  1  0
  2  1  2  0
 30 33  1  0
 16 17  1  0
 21 34  1  0
  3  2  2  0
 34 35  1  0
M  END