
  SciTegic11201309402D

 81 87  0  0  1  0            999 V2000
    1.6152  -10.2972    0.0000 C   0  0  2  0  0  0
    0.9099   -9.8692    0.0000 C   0  0  2  0  0  0
    0.1913  -10.2662    0.0000 C   0  0  1  0  0  0
    0.1712  -11.0868    0.0000 C   0  0  1  0  0  0
    0.8765  -11.5147    0.0000 C   0  0  2  0  0  0
    1.6020  -11.1221    0.0000 O   0  0
    2.3373   -9.8982    0.0000 C   0  0
    3.0439  -10.3240    0.0000 O   0  0
    0.9265   -9.0444    0.0000 O   0  0
   -0.5140   -9.8383    0.0000 O   0  0
   -0.5527  -11.4825    0.0000 O   0  0
    0.8562  -12.3394    0.0000 O   0  0
    1.5602  -12.7695    0.0000 C   0  0  2  0  0  0
    1.5419  -13.5974    0.0000 C   0  0  1  0  0  0
    2.2419  -14.0273    0.0000 C   0  0  2  0  0  0
    2.9686  -13.6361    0.0000 O   0  0
    2.9910  -12.8105    0.0000 C   0  0  1  0  0  0
    2.2865  -12.3759    0.0000 C   0  0  1  0  0  0
    2.2184  -14.8519    0.0000 O   0  0
    0.8174  -13.9922    0.0000 O   0  0
    3.7168  -12.4181    0.0000 C   0  0
    4.4194  -12.8506    0.0000 O   0  0
    2.3098  -11.5512    0.0000 O   0  0
    4.3475  -15.3108    0.0000 C   0  0  2  0  0  0
    3.6422  -14.8829    0.0000 C   0  0  2  0  0  0
    2.9238  -15.2799    0.0000 C   0  0  1  0  0  0
    2.9035  -16.1004    0.0000 C   0  0  1  0  0  0
    3.6089  -16.5283    0.0000 C   0  0  2  0  0  0
    4.3344  -16.1357    0.0000 O   0  0
    5.0696  -14.9118    0.0000 C   0  0
    5.7762  -15.3377    0.0000 O   0  0
    3.6589  -14.0581    0.0000 O   0  0
    2.1797  -16.4962    0.0000 O   0  0
    3.5885  -17.3531    0.0000 O   0  0
    4.2926  -17.7830    0.0000 C   0  0  2  0  0  0
    4.2742  -18.6111    0.0000 C   0  0  1  0  0  0
    4.9742  -19.0409    0.0000 C   0  0  2  0  0  0
    5.7010  -18.6497    0.0000 O   0  0
    5.7233  -17.8241    0.0000 C   0  0  1  0  0  0
    5.0189  -17.3896    0.0000 C   0  0  1  0  0  0
    4.9507  -19.8656    0.0000 O   0  0
    3.5498  -19.0060    0.0000 O   0  0
    6.4491  -17.4318    0.0000 C   0  0
    7.1517  -17.8642    0.0000 O   0  0
    5.0421  -16.5649    0.0000 O   0  0
    5.6532  -20.2982    0.0000 C   0  0  2  0  0  0
    5.6239  -21.1273    0.0000 C   0  0  2  0  0  0
    6.3222  -21.5597    0.0000 O   0  0
    7.0505  -21.1713    0.0000 C   0  0  1  0  0  0
    7.0760  -20.3457    0.0000 C   0  0  2  0  0  0
    6.3732  -19.9085    0.0000 C   0  0  2  0  0  0
    6.3981  -19.0840    0.0000 O   0  0
    7.8032  -19.9562    0.0000 O   0  0
    4.8962  -21.5159    0.0000 N   0  0
    7.7513  -21.6066    0.0000 C   0  0
    7.7247  -22.4312    0.0000 O   0  0
    4.8688  -22.3405    0.0000 C   0  0
    4.1412  -22.7291    0.0000 C   0  0
    5.5693  -22.7764    0.0000 O   0  0
    3.4407  -22.2932    0.0000 C   0  0
    2.7130  -22.6818    0.0000 C   0  0
    2.0126  -22.2459    0.0000 C   0  0
    1.2848  -22.6346    0.0000 C   0  0
    0.5844  -22.1987    0.0000 N   0  0
   -0.1433  -22.5873    0.0000 C   0  0
   -0.8438  -22.1514    0.0000 C   0  0
   -0.1707  -23.4119    0.0000 O   0  0
   -0.8165  -21.3269    0.0000 C   0  0
   -1.5169  -20.8909    0.0000 C   0  0
   -1.4897  -20.0664    0.0000 C   0  0
   -2.1900  -19.6304    0.0000 C   0  0  2  0  0  0
   -3.4890  -19.3111    0.0000 C   0  0
   -2.9575  -19.9421    0.0000 S   0  0
   -3.0531  -18.6107    0.0000 C   0  0  1  0  0  0
   -2.2529  -18.8052    0.0000 C   0  0  2  0  0  0
   -1.8205  -18.1043    0.0000 N   0  0
   -2.3535  -17.4765    0.0000 C   0  0
   -3.1152  -17.7895    0.0000 N   0  0
   -2.1586  -16.6748    0.0000 O   0  0
   -1.2812  -19.0413    0.0000 H   0  0
   -4.0243  -18.3724    0.0000 H   0  0
  1  2  1  0
 30 31  1  0
  7  8  1  0
 25 32  1  6
 26 19  1  1
  1  6  1  0
 27 33  1  1
 13 18  1  0
 28 34  1  6
 14 15  1  0
 35 34  1  1
 35 36  1  0
 15 16  1  0
 16 17  1  0
 17 18  1  0
  2  9  1  6
 15 19  1  6
 35 40  1  0
 36 37  1  0
 37 38  1  0
 38 39  1  0
 39 40  1  0
  2  3  1  0
 37 41  1  6
 14 20  1  1
 36 42  1  1
  3 10  1  1
 39 43  1  1
 17 21  1  1
 43 44  1  0
  3  4  1  0
 40 45  1  6
 21 22  1  0
 46 41  1  1
 46 47  1  0
  4 11  1  1
 18 23  1  6
 24 25  1  0
  4  5  1  0
  5 12  1  6
 54 57  1  0
 46 51  1  0
 57 58  1  0
 47 48  1  0
 48 49  1  0
 49 50  1  0
 50 51  1  0
 57 59  2  0
  5  6  1  0
 58 60  1  0
 51 52  1  1
 60 61  1  0
 13 12  1  1
 61 62  1  0
 50 53  1  6
 62 63  1  0
 13 14  1  0
 63 64  1  0
 47 54  1  6
 64 65  1  0
 65 66  1  0
 49 55  1  1
 65 67  2  0
 24 29  1  0
 66 68  1  0
 55 56  1  0
 68 69  1  0
 25 26  1  0
 69 70  1  0
 71 70  1  6
 71 75  1  0
 26 27  1  0
 74 72  1  0
 72 73  1  0
 73 71  1  0
 74 75  1  0
 27 28  1  0
 28 29  1  0
  1  7  1  1
 75 76  1  0
 76 77  1  0
 77 78  1  0
 78 74  1  0
 77 79  2  0
 24 30  1  1
 75 80  1  1
 74 81  1  1
M  END