
          11280715422D 1   1.00000     0.00000     0

 46 48  0     1  0            999 V2000
   -3.2500   -3.6417    0.0000 P   0  0  3  0  0  0           0  0  0
    3.6000    2.5833    0.0000 C   0  0  0  0  0  0           0  0  0
    2.8625    2.1958    0.0000 C   0  0  1  0  0  0           0  0  0
    2.1625    2.6333    0.0000 C   0  0  0  0  0  0           0  0  0
    1.2792   -1.1667    0.0000 C   0  0  0  0  0  0           0  0  0
    2.8292    1.3708    0.0000 N   0  0  0  0  0  0           0  0  0
    0.6875   -1.7417    0.0000 C   0  0  1  0  0  0           0  0  0
    3.0375    0.5708    0.0000 C   0  0  0  0  0  0           0  0  0
    4.3000    2.1458    0.0000 C   0  0  0  0  0  0           0  0  0
    0.8042   -3.3917    0.0000 C   0  0  0  0  0  0           0  0  0
   -3.0333   -2.8542    0.0000 O   0  0  0  0  0  0           0  0  0
    0.7417   -2.5667    0.0000 C   0  0  0  0  0  0           0  0  0
   -2.1375    2.7958    0.0000 C   0  0  0  0  0  0           0  0  0
    2.4417    0.0083    0.0000 C   0  0  0  0  0  0           0  0  0
   -0.1208   -1.5292    0.0000 C   0  0  0  0  0  0           0  0  0
   -2.4500   -3.8542    0.0000 C   0  0  0  0  0  0           0  0  0
    2.1875    3.4708    0.0000 O   0  0  0  0  0  0           0  0  0
    1.0625   -0.3667    0.0000 O   0  0  0  0  0  0           0  0  0
    3.8417    0.3708    0.0000 O   0  0  0  0  0  0           0  0  0
    4.2625    1.3208    0.0000 O   0  0  0  0  0  0           0  0  0
    0.1250   -3.8667    0.0000 O   0  0  0  0  0  0           0  0  0
    2.0792   -1.3792    0.0000 N   0  0  0  0  0  0           0  0  0
   -1.4375    2.3458    0.0000 C   0  0  0  0  0  0           0  0  0
   -3.4708   -4.4417    0.0000 O   0  0  0  0  0  0           0  0  0
   -4.0500   -3.4292    0.0000 O   0  0  0  0  0  0           0  0  0
    1.4250    2.2458    0.0000 N   0  0  0  0  0  0           0  0  0
   -2.8750    2.4083    0.0000 C   0  0  0  0  0  0           0  0  0
    5.0250    2.5333    0.0000 N   0  0  0  0  0  0           0  0  0
   -0.7000   -2.1167    0.0000 C   0  0  0  0  0  0           0  0  0
    2.6500   -0.7917    0.0000 C   0  0  0  0  0  0           0  0  0
   -1.8750   -3.2792    0.0000 C   0  0  0  0  0  0           0  0  0
    1.5500   -3.7417    0.0000 O   0  0  0  0  0  0           0  0  0
   -1.4958   -1.8917    0.0000 C   0  0  0  0  0  0           0  0  0
   -0.4833   -2.9042    0.0000 C   0  0  0  0  0  0           0  0  0
   -2.0875   -2.4792    0.0000 C   0  0  0  0  0  0           0  0  0
   -1.0708   -3.4917    0.0000 C   0  0  0  0  0  0           0  0  0
   -2.2000    1.1333    0.0000 C   0  0  0  0  0  0           0  0  0
   -1.4708    1.5208    0.0000 C   0  0  0  0  0  0           0  0  0
   -2.1000    3.6208    0.0000 C   0  0  0  0  0  0           0  0  0
   -2.9000    1.5833    0.0000 C   0  0  0  0  0  0           0  0  0
   -0.7000    2.7333    0.0000 C   0  0  0  0  0  0           0  0  0
    0.7250    2.6833    0.0000 C   0  0  0  0  0  0           0  0  0
   -3.5750    2.8583    0.0000 C   0  0  0  0  0  0           0  0  0
    0.0000    2.2958    0.0000 C   0  0  0  0  0  0           0  0  0
   -2.8125    4.0417    0.0000 C   0  0  0  0  0  0           0  0  0
   -3.5375    3.6708    0.0000 C   0  0  0  0  0  0           0  0  0
  3  2  1  6     0  0
  3  6  1  0     0  0
  4  3  1  0     0  0
  5  7  1  0     0  0
  6  8  1  0     0  0
  7 15  1  0     0  0
  8 14  1  0     0  0
  9  2  1  0     0  0
 10 12  1  0     0  0
 11  1  2  0     0  0
  7 12  1  1     0  0
 13 23  1  0     0  0
 14 30  1  0     0  0
 15 29  1  0     0  0
 16  1  1  0     0  0
 17  4  2  0     0  0
 18  5  2  0     0  0
 19  8  2  0     0  0
 20  9  2  0     0  0
 21 10  2  0     0  0
 22  5  1  0     0  0
 23 41  1  0     0  0
 24  1  1  0     0  0
 25  1  1  0     0  0
 26  4  1  0     0  0
 27 13  1  0     0  0
 28  9  1  0     0  0
 29 34  1  0     0  0
 30 22  1  0     0  0
 31 16  1  0     0  0
 32 10  1  0     0  0
 33 35  1  0     0  0
 34 36  2  0     0  0
 35 31  2  0     0  0
 36 31  1  0     0  0
 37 38  1  0     0  0
 38 23  2  0     0  0
 39 13  2  0     0  0
 40 37  2  0     0  0
 41 44  1  0     0  0
 42 26  1  0     0  0
 43 27  2  0     0  0
 44 42  1  0     0  0
 45 39  1  0     0  0
 46 45  2  0     0  0
 33 29  2  0     0  0
 40 27  1  0     0  0
 46 43  1  0     0  0
M  END