
  Mrv0541 04051115152D          

 20 21  0  0  0  0            999 V2000
    0.0072   -0.7634    0.0000 C   0  0  0  0  0  0  0  0  0  0  0  0
    0.0072   -1.5884    0.0000 C   0  0  0  0  0  0  0  0  0  0  0  0
   -0.7073   -2.0009    0.0000 C   0  0  0  0  0  0  0  0  0  0  0  0
   -1.4217   -1.5884    0.0000 C   0  0  0  0  0  0  0  0  0  0  0  0
   -1.4217   -0.7634    0.0000 C   0  0  0  0  0  0  0  0  0  0  0  0
   -0.7073   -0.3509    0.0000 C   0  0  0  0  0  0  0  0  0  0  0  0
   -0.7073    0.4741    0.0000 C   0  0  0  0  0  0  0  0  0  0  0  0
   -1.4217    0.8866    0.0000 O   0  0  0  0  0  0  0  0  0  0  0  0
    0.0072    0.8866    0.0000 N   0  0  0  0  0  0  0  0  0  0  0  0
    0.0072    1.7116    0.0000 C   0  0  0  0  0  0  0  0  0  0  0  0
   -0.7073   -2.8259    0.0000 S   0  0  0  0  0  0  0  0  0  0  0  0
   -0.7073   -3.6509    0.0000 N   0  0  0  0  0  0  0  0  0  0  0  0
    0.1177   -2.8259    0.0000 O   0  0  0  0  0  0  0  0  0  0  0  0
   -1.5323   -2.8259    0.0000 O   0  0  0  0  0  0  0  0  0  0  0  0
    0.7217    2.1241    0.0000 C   0  0  0  0  0  0  0  0  0  0  0  0
    0.7217    2.9491    0.0000 C   0  0  0  0  0  0  0  0  0  0  0  0
    1.4361    3.3616    0.0000 C   0  0  0  0  0  0  0  0  0  0  0  0
    2.1506    2.9491    0.0000 C   0  0  0  0  0  0  0  0  0  0  0  0
    2.1506    2.1241    0.0000 C   0  0  0  0  0  0  0  0  0  0  0  0
    1.4361    1.7116    0.0000 C   0  0  0  0  0  0  0  0  0  0  0  0
  1  2  2  0  0  0  0
  1  6  1  0  0  0  0
  2  3  1  0  0  0  0
  3  4  2  0  0  0  0
  3 11  1  0  0  0  0
  4  5  1  0  0  0  0
  5  6  2  0  0  0  0
  6  7  1  0  0  0  0
  7  8  2  0  0  0  0
  7  9  1  0  0  0  0
 10  9  1  0  0  0  0
 10 15  1  0  0  0  0
 12 11  1  0  0  0  0
 13 11  2  0  0  0  0
 14 11  2  0  0  0  0
 15 16  2  0  0  0  0
 15 20  1  0  0  0  0
 16 17  1  0  0  0  0
 17 18  2  0  0  0  0
 18 19  1  0  0  0  0
 19 20  2  0  0  0  0
M  END