
  SciTegic04091416462D

 17 18  0  0  0  0            999 V2000
    7.0905  -22.1236    0.0000 C   0  0
    6.3204  -21.8415    0.0000 C   0  0
    2.8693  -20.5130    0.0000 C   0  0
    4.2915  -20.5126    0.0000 C   0  0
    6.3545  -21.0215    0.0000 C   0  0
    5.7142  -19.6900    0.0000 O   0  0
    2.8704  -19.6903    0.0000 C   0  0
    7.1405  -20.7977    0.0000 N   0  0
    4.2886  -19.6867    0.0000 C   0  0
    5.0062  -20.9238    0.0000 N   0  0
    3.5795  -20.9257    0.0000 C   0  0
    3.5778  -19.2818    0.0000 N   0  0
    7.5969  -21.4787    0.0000 N   0  0
    7.4244  -20.0277    0.0000 C   0  0
    5.7149  -20.5108    0.0000 C   0  0
    7.3141  -22.9096    0.0000 C   0  0
    6.7451  -23.4962    0.0000 C   0  0
  7  3  2  0
 15  6  2  0
  9 12  2  0
  3 11  1  0
  8 14  1  0
  4 10  1  0
 13  8  1  0
 15  5  1  0
  4  9  1  0
 11  4  2  0
  1 13  2  0
 10 15  1  0
 12  7  1  0
  2  1  1  0
  5  2  2  0
  8  5  1  0
  1 16  1  0
 16 17  1  0
M  END