
  SciTegic01181116592D

 30 33  0  0  0  0            999 V2000
   -3.0389  -12.1625    0.0000 N   0  0
   -3.0401  -12.9898    0.0000 C   0  0
   -2.3253  -13.4027    0.0000 N   0  0
   -2.3271  -11.7497    0.0000 C   0  0
   -1.6117  -12.1588    0.0000 C   0  0
   -1.6069  -12.9853    0.0000 C   0  0
   -0.8194  -13.2361    0.0000 S   0  0
   -0.3374  -12.5646    0.0000 C   0  0
   -0.8272  -11.8989    0.0000 C   0  0
   -2.3295  -10.9247    0.0000 N   0  0
   -3.0452  -10.5143    0.0000 C   0  0
   -3.0443   -9.6901    0.0000 C   0  0
   -3.7592   -9.2798    0.0000 C   0  0
   -4.4734   -9.6945    0.0000 C   0  0
   -4.4683  -10.5237    0.0000 C   0  0
   -3.7529  -10.9303    0.0000 C   0  0
   -5.1897   -9.2851    0.0000 O   0  0
   -5.1932   -8.4601    0.0000 C   0  0
   -5.9095   -8.0507    0.0000 F   0  0
   -4.4805   -8.0445    0.0000 F   0  0
   -5.2000   -7.6333    0.0000 F   0  0
    0.4875  -12.5597    0.0000 C   0  0
    0.8958  -11.8429    0.0000 O   0  0
    0.9042  -13.2718    0.0000 N   0  0
    0.4942  -13.9876    0.0000 C   0  0
    0.9074  -14.6975    0.0000 C   0  0
    1.7327  -14.6969    0.0000 N   0  0
    2.1432  -13.9801    0.0000 C   0  0
    1.7283  -13.2640    0.0000 C   0  0
    2.1467  -15.4105    0.0000 C   0  0
  1  2  2  0
 14 15  1  0
  5  4  2  0
 15 16  2  0
 16 11  1  0
  6  7  1  0
 14 17  1  0
  7  8  1  0
 17 18  1  0
  8  9  2  0
 18 19  1  0
  9  5  1  0
 18 20  1  0
  4  1  1  0
 18 21  1  0
  4 10  1  0
  8 22  1  0
  5  6  1  0
 22 23  2  0
 10 11  1  0
 22 24  1  0
 24 25  1  0
 11 12  2  0
  2  3  1  0
 12 13  1  0
  3  6  2  0
 24 29  1  0
 25 26  1  0
 26 27  1  0
 27 28  1  0
 28 29  1  0
 13 14  2  0
 27 30  1  0
M  END