
  SciTegic05171617272D

 55 61  0  0  0  0            999 V2000
    5.8814    2.1657    0.0000 C   0  0
    5.8722    0.9657    0.0000 N   0  0
    6.9070    0.3581    0.0000 C   0  0
    4.5671    0.2243    0.0000 C   0  0
    4.5671   -1.2660    0.0000 C   0  0
    3.2691   -2.0191    0.0000 C   0  0
    1.9711   -1.2660    0.0000 C   0  0
    0.6891   -2.0191    0.0000 C   0  0
   -0.6089   -1.2660    0.0000 C   0  0
   -1.9070   -2.0191    0.0000 C   0  0
   -3.2050   -1.2660    0.0000 C   0  0
   -4.5030   -2.0191    0.0000 C   0  0
   -5.8010   -1.2660    0.0000 C   0  0
   -5.8010    0.2243    0.0000 C   0  0
   -4.5030    0.9935    0.0000 N   0  3
   -4.5061    2.4940    0.0000 C   0  0
   -5.8069    3.2426    0.0000 C   0  0
   -5.8100    4.7434    0.0000 C   0  0
   -7.1108    5.4919    0.0000 C   0  0
   -8.1490    4.8901    0.0000 O   0  0
   -7.1139    6.9928    0.0000 N   0  0
   -8.4147    7.7413    0.0000 C   0  0
   -8.4178    9.2421    0.0000 C   0  0
   -9.7186    9.9907    0.0000 C   0  0
   -9.7217   11.4915    0.0000 C   0  0
  -11.0225   12.2401    0.0000 C   0  0
  -11.0256   13.7409    0.0000 C   0  0
  -12.3265   14.4894    0.0000 N   0  0
  -12.3296   15.9903    0.0000 C   0  0
  -13.6304   16.7388    0.0000 C   0  0
  -14.6686   16.1370    0.0000 O   0  0
  -13.6335   18.2397    0.0000 N   0  0
  -14.9343   18.9882    0.0000 C   0  0
  -14.9778   20.5312    0.0000 C   0  0
  -16.2935   21.2409    0.0000 C   0  0
  -17.5840   20.4557    0.0000 C   0  0
  -18.8814   21.1659    0.0000 N   0  0
  -20.1537   20.3812    0.0000 C   0  0
  -21.2099   20.9508    0.0000 O   0  0
  -20.1088   18.8321    0.0000 C   0  0
  -21.4009   18.1015    0.0000 C   0  0
  -21.3576   16.6071    0.0000 C   0  0
  -20.0232   15.8797    0.0000 C   0  0
  -18.7514   16.6826    0.0000 C   0  0
  -18.7948   18.1771    0.0000 C   0  0
  -17.5391   18.9066    0.0000 C   0  0
  -16.2068   18.2521    0.0000 C   0  0
   -3.2050    0.2243    0.0000 C   0  0
   -1.9070    0.9935    0.0000 C   0  0
   -0.6089    0.2243    0.0000 C   0  0
    0.6891    0.9935    0.0000 C   0  0
    1.7431    1.5672    0.0000 C   0  0
   -0.3617    1.5731    0.0000 C   0  0
    1.9711    0.2243    0.0000 C   0  0
    3.2691    0.9935    0.0000 C   0  0
  1  2  1  0
  2  3  1  0
  2  4  1  0
  4  5  2  0
  5  6  1  0
  6  7  2  0
  7  8  1  0
  8  9  2  0
  9 10  1  0
 10 11  2  0
 11 12  1  0
 12 13  1  0
 13 14  1  0
 14 15  1  0
 15 16  1  0
 16 17  1  0
 17 18  1  0
 18 19  1  0
 19 20  2  0
 19 21  1  0
 21 22  1  0
 22 23  1  0
 23 24  1  0
 24 25  1  0
 25 26  1  0
 26 27  1  0
 27 28  1  0
 28 29  1  0
 29 30  1  0
 30 31  2  0
 30 32  1  0
 32 33  1  0
 33 34  2  0
 34 35  1  0
 35 36  2  0
 36 37  1  0
 37 38  1  0
 38 39  2  0
 38 40  1  0
 40 41  2  0
 41 42  1  0
 42 43  2  0
 43 44  1  0
 44 45  2  0
 40 45  1  0
 45 46  1  0
 36 46  1  0
 46 47  2  0
 33 47  1  0
 15 48  2  0
 11 48  1  0
 48 49  1  0
 49 50  2  0
  9 50  1  0
 50 51  1  0
 51 52  1  0
 51 53  1  0
 51 54  1  0
  7 54  1  0
 54 55  2  0
  4 55  1  0
M  CHG  1  15   1
M  END