
  Mrv0541 04051115152D          

 44 48  0  0  0  0            999 V2000
   -0.4963    0.5109    0.0000 N   0  0  0  0  0  0  0  0  0  0  0  0
    0.2181   -0.7266    0.0000 N   0  0  0  0  0  0  0  0  0  0  0  0
    0.9326    0.5109    0.0000 C   0  0  0  0  0  0  0  0  0  0  0  0
    1.6471    1.7484    0.0000 C   0  0  0  0  0  0  0  0  0  0  0  0
    1.6471    2.5734    0.0000 C   0  0  0  0  0  0  0  0  0  0  0  0
    1.6471   -0.7266    0.0000 C   0  0  0  0  0  0  0  0  0  0  0  0
    2.3616   -1.1391    0.0000 C   0  0  0  0  0  0  0  0  0  0  0  0
    3.0760    0.0984    0.0000 C   0  0  0  0  0  0  0  0  0  0  0  0
    4.7871   -1.5019    0.0000 C   0  0  0  0  0  0  0  0  0  0  0  0
    4.5050    0.0984    0.0000 C   0  0  0  0  0  0  0  0  0  0  0  0
    4.5050    1.7484    0.0000 C   0  0  0  0  0  0  0  0  0  0  0  0
   -0.4963   -1.1391    0.0000 C   0  0  0  0  0  0  0  0  0  0  0  0
   -0.4963   -1.9641    0.0000 C   0  0  0  0  0  0  0  0  0  0  0  0
    5.3174   -0.5834    0.0000 C   0  0  0  0  0  0  0  0  0  0  0  0
    0.2181   -5.6766    0.0000 C   0  0  0  0  0  0  0  0  0  0  0  0
   -1.2108   -5.6766    0.0000 C   0  0  0  0  0  0  0  0  0  0  0  0
   -0.4963   -6.9141    0.0000 C   0  0  0  0  0  0  0  0  0  0  0  0
   -0.3858   -3.2016    0.0000 O   0  0  0  0  0  0  0  0  0  0  0  0
   -1.2108   -3.2016    0.0000 S   0  0  0  0  0  0  0  0  0  0  0  0
   -2.0358   -3.2016    0.0000 O   0  0  0  0  0  0  0  0  0  0  0  0
   -1.2108   -4.0266    0.0000 C   0  0  0  0  0  0  0  0  0  0  0  0
   -0.4963   -4.4391    0.0000 C   0  0  0  0  0  0  0  0  0  0  0  0
   -0.4963   -5.2641    0.0000 C   0  0  0  0  0  0  0  0  0  0  0  0
   -1.9253   -4.4391    0.0000 C   0  0  0  0  0  0  0  0  0  0  0  0
   -1.9253   -5.2641    0.0000 C   0  0  0  0  0  0  0  0  0  0  0  0
   -1.2108   -6.5016    0.0000 C   0  0  0  0  0  0  0  0  0  0  0  0
    0.2181   -6.5016    0.0000 C   0  0  0  0  0  0  0  0  0  0  0  0
   -1.2108   -2.3766    0.0000 N   0  0  0  0  0  0  0  0  0  0  0  0
    0.2181    0.0984    0.0000 C   0  0  0  0  0  0  0  0  0  0  0  0
    0.9326    1.3359    0.0000 C   0  0  0  0  0  0  0  0  0  0  0  0
    0.2181    1.7484    0.0000 N   0  0  0  0  0  0  0  0  0  0  0  0
   -0.4963    1.3359    0.0000 C   0  0  0  0  0  0  0  0  0  0  0  0
   -1.2108    1.7484    0.0000 N   0  0  0  0  0  0  0  0  0  0  0  0
    1.6471    0.0984    0.0000 C   0  0  0  0  0  0  0  0  0  0  0  0
    2.3616    0.5109    0.0000 C   0  0  0  0  0  0  0  0  0  0  0  0
    3.7905    0.5109    0.0000 N   0  0  0  0  0  0  0  0  0  0  0  0
    3.7905    1.3359    0.0000 C   0  0  0  0  0  0  0  0  0  0  0  0
    4.5050    2.5734    0.0000 C   0  0  0  0  0  0  0  0  0  0  0  0
    5.2194    2.9859    0.0000 O   0  0  0  0  0  0  0  0  0  0  0  0
    5.2194    3.8109    0.0000 C   0  0  0  0  0  0  0  0  0  0  0  0
    5.2194    0.5109    0.0000 O   0  0  0  0  0  0  0  0  0  0  0  0
    4.5050   -0.7266    0.0000 C   0  0  0  0  0  0  0  0  0  0  0  0
    3.7905   -1.1391    0.0000 O   0  0  0  0  0  0  0  0  0  0  0  0
    3.0760   -0.7266    0.0000 C   0  0  0  0  0  0  0  0  0  0  0  0
 29  1  2  0  0  0  0
 32  1  1  0  0  0  0
 29  2  1  0  0  0  0
 12  2  1  0  0  0  0
 34  3  1  0  0  0  0
 30  3  2  0  0  0  0
 29  3  1  0  0  0  0
  4  5  1  0  0  0  0
 30  4  1  0  0  0  0
  6  7  2  0  0  0  0
 34  6  1  0  0  0  0
  7 44  1  0  0  0  0
  8 36  1  0  0  0  0
  8 44  2  0  0  0  0
  8 35  1  0  0  0  0
  9 42  1  0  0  0  0
 10 41  2  0  0  0  0
 42 10  1  0  0  0  0
 10 36  1  0  0  0  0
 11 38  1  0  0  0  0
 37 11  1  0  0  0  0
 12 13  1  0  0  0  0
 13 28  1  0  0  0  0
 42 14  1  0  0  0  0
 15 23  2  0  0  0  0
 27 15  1  0  0  0  0
 16 25  1  0  0  0  0
 16 26  2  0  0  0  0
 23 16  1  0  0  0  0
 26 17  1  0  0  0  0
 27 17  2  0  0  0  0
 18 19  2  0  0  0  0
 20 19  2  0  0  0  0
 21 19  1  0  0  0  0
 28 19  1  0  0  0  0
 21 24  1  0  0  0  0
 22 21  2  0  0  0  0
 23 22  1  0  0  0  0
 24 25  2  0  0  0  0
 30 31  1  0  0  0  0
 32 31  2  0  0  0  0
 32 33  1  0  0  0  0
 35 34  2  0  0  0  0
 37 36  1  0  0  0  0
 38 39  1  0  0  0  0
 40 39  1  0  0  0  0
 42 43  1  0  0  0  0
 44 43  1  0  0  0  0
M  END