
  SciTegic05061116452D

 23 25  0  0  0  0            999 V2000
   15.7944   -8.0166    0.0000 C   0  0
   15.7932   -8.8440    0.0000 C   0  0
   16.5081   -9.2569    0.0000 C   0  0
   16.5063   -7.6039    0.0000 C   0  0
   17.2216   -8.0130    0.0000 C   0  0
   17.2224   -8.8398    0.0000 C   0  0
   17.9377   -9.2508    0.0000 N   0  0
   18.6527   -8.8360    0.0000 C   0  0
   18.6480   -8.0061    0.0000 C   0  0
   17.9321   -7.5988    0.0000 N   0  0
   19.3688   -9.2458    0.0000 O   0  0
   19.3720  -10.0708    0.0000 C   0  0
   20.0881  -10.4805    0.0000 C   0  0
   19.3599   -7.5892    0.0000 C   0  0
   20.0769   -7.9974    0.0000 N   0  0
   20.0779   -8.8262    0.0000 C   0  0
   20.7907   -9.2343    0.0000 C   0  0
   21.5051   -8.8210    0.0000 N   0  0
   21.5021   -7.9950    0.0000 C   0  0
   20.7846   -7.5824    0.0000 C   0  0
   19.3549   -6.7642    0.0000 O   0  0
   22.2206   -9.2318    0.0000 C   0  0
   22.2225  -10.0568    0.0000 C   0  0
  8 11  1  0
  2  3  1  0
 11 12  1  0
  5  6  1  0
 12 13  1  0
  3  6  2  0
  9 14  1  0
  6  7  1  0
 14 15  1  0
 15 16  1  0
  1  2  2  0
  7  8  2  0
  5  4  2  0
  8  9  1  0
  4  1  1  0
 15 20  1  0
 16 17  1  0
 17 18  1  0
 18 19  1  0
 19 20  1  0
  9 10  2  0
 14 21  2  0
 10  5  1  0
 18 22  1  0
 22 23  1  0
M  END