
          11280715512D 1   1.00000     0.00000     0

 23 24  0     1  0            999 V2000
    1.6313   -4.3828    0.0000 C   0  0  0  0  0  0           0  0  0
    2.3428   -4.7953    0.0000 N   0  0  3  0  0  0           0  0  0
    2.3428   -5.6201    0.0000 C   0  0  0  0  0  0           0  0  0
    1.6313   -6.0326    0.0000 C   0  0  0  0  0  0           0  0  0
    0.9155   -5.6201    0.0000 C   0  0  0  0  0  0           0  0  0
    0.9155   -4.7953    0.0000 N   0  0  3  0  0  0           0  0  0
    1.6313   -3.5580    0.0000 O   0  0  0  0  0  0           0  0  0
    3.0586   -6.0326    0.0000 O   0  0  0  0  0  0           0  0  0
    3.0586   -4.3828    0.0000 C   0  0  0  0  0  0           0  0  0
    4.5245   -4.4619    0.0000 C   0  0  0  0  0  0           0  0  0
    3.7743   -4.7953    0.0000 C   0  0  0  0  0  0           0  0  0
    3.8592   -5.6176    0.0000 C   0  0  0  0  0  0           0  0  0
    4.6651   -5.7898    0.0000 C   0  0  0  0  0  0           0  0  0
    5.0775   -5.0741    0.0000 S   0  0  0  0  0  0           0  0  0
    4.6969   -3.6560    0.0000 C   0  0  0  0  0  0           0  0  0
    4.1131   -3.0722    0.0000 O   0  0  0  0  0  0           0  0  0
    5.4959   -3.4409    0.0000 O   0  0  0  0  0  0           0  0  0
    0.2039   -4.3828    0.0000 C   0  0  0  0  0  0           0  0  0
   -0.5118   -4.7953    0.0000 C   0  0  1  0  0  0           0  0  0
   -0.5118   -5.6201    0.0000 C   0  0  0  0  0  0           0  0  0
   -1.2276   -6.0326    0.0000 O   0  0  0  0  0  0           0  0  0
    0.2039   -6.0326    0.0000 O   0  0  0  0  0  0           0  0  0
   -1.2276   -4.3828    0.0000 N   0  0  0  0  0  0           0  0  0
  1  2  1  0     0  0
  2  3  1  0     0  0
  3  4  1  0     0  0
  4  5  2  0     0  0
  5  6  1  0     0  0
  1  6  1  0     0  0
  1  7  2  0     0  0
  3  8  2  0     0  0
 10 11  2  0     0  0
 11 12  1  0     0  0
 12 13  2  0     0  0
 13 14  1  0     0  0
 10 14  1  0     0  0
 15 16  2  0     0  0
 15 17  1  0     0  0
 10 15  1  0     0  0
  9 11  1  0     0  0
  2  9  1  0     0  0
 18 19  1  0     0  0
 20 21  2  0     0  0
 20 22  1  0     0  0
 19 20  1  0     0  0
 19 23  1  1     0  0
  6 18  1  0     0  0
M  END