
  SciTegic01161211212D

 19 21  0  0  0  0            999 V2000
   -5.3027  -16.2859    0.0000 C   0  0
   -5.3039  -17.1109    0.0000 C   0  0
   -4.5910  -17.5225    0.0000 C   0  0
   -4.5928  -15.8743    0.0000 C   0  0
   -3.8796  -16.2823    0.0000 C   0  0
   -3.8762  -17.1083    0.0000 C   0  0
   -3.1630  -17.5162    0.0000 C   0  0
   -3.1698  -15.8640    0.0000 C   0  0
   -2.4521  -16.2764    0.0000 C   0  0  1  0  0  0
   -2.4462  -17.1043    0.0000 C   0  0  1  0  0  0
   -1.6571  -17.3546    0.0000 C   0  0
   -1.1751  -16.6814    0.0000 C   0  0
   -1.6666  -16.0151    0.0000 N   0  0
   -2.4595  -15.4508    0.0000 H   0  0
   -2.4512  -17.9228    0.0000 H   0  0
   -1.2762  -15.2920    0.0000 C   0  0
   -0.4540  -15.2687    0.0000 C   0  0
   -0.0629  -14.5450    0.0000 C   0  0
   -4.5905  -18.3451    0.0000 O   0  0
  9 10  1  0
  5  4  2  0
  4  1  1  0
  5  6  1  0
  2  3  1  0
 10 11  1  0
 11 12  1  0
 12 13  1  0
 13  9  1  0
  3  6  2  0
  9 14  1  1
  1  2  2  0
 10 15  1  6
  5  8  1  0
 13 16  1  0
  6  7  1  0
 16 17  1  0
  7 10  1  0
 17 18  1  0
  9  8  1  0
  3 19  1  0
M  END