
  SciTegic05161214222D

 56 59  0  0  0  0            999 V2000
   30.7835  -20.2671    0.0000 C   0  0
   31.4983  -19.8551    0.0000 C   0  0
   26.5042  -19.4500    0.0000 C   0  0
   26.5042  -20.2750    0.0000 C   0  0
   27.2162  -20.6833    0.0000 O   0  0
   27.9282  -20.2750    0.0000 C   0  0
   27.9282  -19.4500    0.0000 C   0  0
   27.2162  -19.0333    0.0000 C   0  0
   25.7865  -19.0448    0.0000 S   0  0
   25.3782  -19.7617    0.0000 O   0  0
   26.2031  -19.7568    0.0000 O   0  0
   22.9194  -14.1083    0.0000 C   0  0
   22.9182  -14.9357    0.0000 C   0  0
   23.6331  -15.3485    0.0000 C   0  0
   23.6313  -13.6955    0.0000 C   0  0
   24.3466  -14.1047    0.0000 C   0  0
   24.3474  -14.9315    0.0000 C   0  0
   25.0627  -15.3425    0.0000 N   0  0
   25.7777  -14.9277    0.0000 C   0  0
   25.7730  -14.0977    0.0000 C   0  0
   25.0571  -13.6905    0.0000 C   0  0
   26.4938  -15.3374    0.0000 C   0  0
   25.0527  -12.8655    0.0000 C   0  0
   23.6350  -16.1735    0.0000 O   0  0
   24.3504  -16.5844    0.0000 C   0  0
   24.3523  -17.4094    0.0000 C   0  0
   23.6362  -17.8192    0.0000 C   0  0
   23.6378  -18.6434    0.0000 C   0  0
   24.3537  -19.0551    0.0000 C   0  0
   25.0696  -18.6365    0.0000 C   0  0
   25.0645  -17.8136    0.0000 C   0  0
   22.9221  -17.4060    0.0000 Cl  0  0
   25.7762  -17.3963    0.0000 Cl  0  0
   26.4985  -18.6281    0.0000 N   0  0
   27.9274  -18.6198    0.0000 C   0  0
   28.6432  -19.0301    0.0000 N   0  0
   27.9249  -17.7948    0.0000 O   0  0
   28.6421  -19.8550    0.0000 C   0  0
   29.3537  -20.2653    0.0000 C   0  0
   30.0694  -19.8541    0.0000 N   0  0
   30.0688  -19.0281    0.0000 C   0  0
   29.3526  -18.6133    0.0000 C   0  0
   30.7830  -21.0921    0.0000 O   0  0
   32.2125  -20.2681    0.0000 C   0  0
   32.9272  -19.8561    0.0000 C   0  0
   33.6414  -20.2691    0.0000 C   0  0
   34.3562  -19.8571    0.0000 N   0  0
   35.0704  -20.2701    0.0000 C   0  0
   34.3568  -19.0321    0.0000 C   0  0
   34.9722  -18.3051    0.0000 F   0  0
   35.6866  -17.8926    0.0000 C   0  0
   36.4011  -18.3051    0.0000 F   0  0
   35.6805  -18.7134    0.0000 F   0  0
   35.6897  -17.0676    0.0000 C   0  0
   36.4057  -16.6578    0.0000 O   0  0
   34.9768  -16.6524    0.0000 O   0  0
 24 25  1  0
 13 14  1  0
 25 26  1  0
 14 17  2  0
 26 27  2  0
  6  7  1  0
 27 28  1  0
 16 15  2  0
 28 29  2  0
 15 12  1  0
 29 30  1  0
  7  8  1  0
 30 31  2  0
 31 26  1  0
 10  9  2  0
 27 32  1  0
 16 17  1  0
 31 33  1  0
 30  9  1  0
  9 11  2  0
  9 34  1  0
 34  8  1  0
 17 18  1  0
  8 35  1  0
 35 36  1  0
 18 19  2  0
 35 37  2  0
 36 38  1  0
  1  2  1  0
 19 20  1  0
  3  4  1  0
 20 21  2  0
 21 16  1  0
 36 42  1  0
 38 39  1  0
 39 40  1  0
 40 41  1  0
 41 42  1  0
 40  1  1  0
  3  8  1  0
  1 43  2  0
 19 22  1  0
  2 44  1  0
  4  5  1  0
 44 45  1  0
 21 23  1  0
 45 46  1  0
 12 13  2  0
 46 47  1  0
 14 24  1  0
 47 48  1  0
  5  6  1  0
 47 49  1  0
 50 51  1  0
 51 53  1  0
 51 54  1  0
 51 52  1  0
 54 55  1  0
 54 56  2  0
M  END