
          11280715122D 1   1.00000     0.00000     0

 34 37  0     0  0            999 V2000
    8.7875   -8.6917    0.0000 C   0  0  0  0  0  0           0  0  0
    5.7792   -4.3667    0.0000 C   0  0  0  0  0  0           0  0  0
    8.2542   -9.9250    0.0000 N   0  0  0  0  0  0           0  0  0
    5.7792   -3.5375    0.0000 C   0  0  0  0  0  0           0  0  0
    8.9667   -9.5042    0.0000 N   0  0  0  0  0  0           0  0  0
    7.6417   -9.3917    0.0000 N   0  0  0  0  0  0           0  0  0
    5.0625   -4.7792    0.0000 N   0  0  0  0  0  0           0  0  0
    7.9667   -8.6167    0.0000 N   0  0  0  0  0  0           0  0  0
    9.3375   -8.0792    0.0000 C   0  0  0  0  0  0           0  0  0
    6.4917   -3.1167    0.0000 C   0  0  0  0  0  0           0  0  0
    9.3375   -7.2542    0.0000 C   0  0  0  0  0  0           0  0  0
    5.0625   -3.1250    0.0000 C   0  0  0  0  0  0           0  0  0
    4.3500   -3.5417    0.0000 N   0  0  0  0  0  0           0  0  0
    4.3500   -4.3667    0.0000 C   0  0  0  0  0  0           0  0  0
    6.4875   -4.7792    0.0000 N   0  0  0  0  0  0           0  0  0
    8.6292   -6.8417    0.0000 C   0  0  0  0  0  0           0  0  0
    6.4875   -2.2917    0.0000 O   0  0  0  0  0  0           0  0  0
    8.6250   -6.0125    0.0000 C   0  0  0  0  0  0           0  0  0
    7.9125   -7.2542    0.0000 C   0  0  0  0  0  0           0  0  0
    6.4875   -5.6042    0.0000 C   0  0  0  0  0  0           0  0  0
    7.2042   -3.5292    0.0000 O   0  0  0  0  0  0           0  0  0
    7.2042   -6.0167    0.0000 C   0  0  0  0  0  0           0  0  0
    7.9125   -5.6042    0.0000 C   0  0  0  0  0  0           0  0  0
    7.2000   -6.8417    0.0000 C   0  0  0  0  0  0           0  0  0
   10.0500   -8.4917    0.0000 C   0  0  0  0  0  0           0  0  0
   10.0500   -6.8417    0.0000 C   0  0  0  0  0  0           0  0  0
    3.6292   -4.7792    0.0000 C   0  0  0  0  0  0           0  0  0
    8.0000   -3.3125    0.0000 C   0  0  0  0  0  0           0  0  0
    2.9167   -4.3667    0.0000 C   0  0  0  0  0  0           0  0  0
    2.1917   -4.7792    0.0000 C   0  0  0  0  0  0           0  0  0
   10.7625   -7.2500    0.0000 C   0  0  0  0  0  0           0  0  0
   10.7667   -8.0792    0.0000 C   0  0  0  0  0  0           0  0  0
    8.5875   -3.8875    0.0000 C   0  0  0  0  0  0           0  0  0
    1.4792   -4.3667    0.0000 C   0  0  0  0  0  0           0  0  0
  2 15  1  0     0  0
  3  5  2  0     0  0
  4  2  1  0     0  0
  5  1  1  0     0  0
  6  8  1  0     0  0
  7  2  2  0     0  0
  8  1  2  0     0  0
  9  1  1  0     0  0
 10  4  1  0     0  0
 11  9  2  0     0  0
 12  4  2  0     0  0
 13 14  2  0     0  0
 14  7  1  0     0  0
 15 20  1  0     0  0
 16 11  1  0     0  0
 17 10  2  0     0  0
 18 16  2  0     0  0
 19 16  1  0     0  0
 20 22  1  0     0  0
 21 10  1  0     0  0
 22 24  1  0     0  0
 23 18  1  0     0  0
 24 19  2  0     0  0
 25  9  1  0     0  0
 26 11  1  0     0  0
 27 14  1  0     0  0
 28 21  1  0     0  0
 29 27  1  0     0  0
 30 29  1  0     0  0
 31 32  1  0     0  0
 32 25  2  0     0  0
 33 28  1  0     0  0
 34 30  1  0     0  0
  3  6  1  0     0  0
 26 31  2  0     0  0
 22 23  2  0     0  0
 13 12  1  0     0  0
M  END