
  SciTegic06051315212D

 25 26  0  0  0  0            999 V2000
   19.4585  -15.4647    0.0000 C   0  0
   19.4573  -16.2842    0.0000 C   0  0
   20.1654  -16.6932    0.0000 C   0  0
   20.8750  -16.2838    0.0000 C   0  0
   20.8722  -15.4611    0.0000 C   0  0
   20.1636  -15.0558    0.0000 C   0  0
   20.1611  -14.2386    0.0000 S   0  0
   20.8676  -13.8279    0.0000 N   0  0
   19.3650  -14.4453    0.0000 O   0  0
   19.7447  -13.5249    0.0000 O   0  0
   21.5784  -15.0498    0.0000 F   0  0
   18.7507  -15.0563    0.0000 F   0  0
   18.7493  -16.6923    0.0000 F   0  0
   21.5834  -16.6912    0.0000 F   0  0
   20.1652  -17.5104    0.0000 S   0  0
   19.4574  -17.9188    0.0000 C   0  0
   19.4572  -18.7360    0.0000 C   0  0
   18.7493  -19.1444    0.0000 C   0  0
   18.0439  -18.7345    0.0000 C   0  0
   17.3366  -19.1422    0.0000 C   0  0
   17.3359  -19.9603    0.0000 C   0  0
   18.0485  -20.3689    0.0000 C   0  0
   18.7529  -19.9588    0.0000 C   0  0
   20.9498  -17.2931    0.0000 O   0  0
   20.7393  -18.0855    0.0000 O   0  0
  1  2  2  0
  2  3  1  0
  3  4  2  0
  4  5  1  0
  5  6  2  0
  6  1  1  0
  6  7  1  0
  7  8  1  0
  7  9  2  0
  7 10  2  0
  5 11  1  0
  1 12  1  0
  2 13  1  0
  4 14  1  0
  3 15  1  0
 15 16  1  0
 16 17  1  0
 17 18  1  0
 18 19  2  0
 19 20  1  0
 20 21  2  0
 21 22  1  0
 22 23  2  0
 23 18  1  0
 15 24  2  0
 15 25  2  0
M  END