
  CDK    9/16/09,9:46

 28 30  0  0  0  0  0  0  0  0999 V2000
   10.8406   -9.2603    0.0000 C   0  0  0  0  0  0  0  0  0  0  0  0
   10.1419   -9.7037    0.0000 C   0  0  0  0  0  0  0  0  0  0  0  0
   10.1765  -10.5269    0.0000 C   0  0  0  0  0  0  0  0  0  0  0  0
   10.9116  -10.9115    0.0000 C   0  0  0  0  0  0  0  0  0  0  0  0
   11.5699   -9.6372    0.0000 C   0  0  0  0  0  0  0  0  0  0  0  0
   11.6145  -10.4617    0.0000 C   0  0  0  0  0  0  0  0  0  0  0  0
   12.9947   -9.5603    0.0000 N   0  0  0  0  0  0  0  0  0  0  0  0
   12.2577   -9.1843    0.0000 C   0  0  0  0  0  0  0  0  0  0  0  0
   13.0393  -10.3847    0.0000 C   0  0  0  0  0  0  0  0  0  0  0  0
   12.3452  -10.8389    0.0000 N   0  0  0  0  0  0  0  0  0  0  0  0
   12.5627  -11.6394    0.0000 C   0  0  0  0  0  0  0  0  0  0  0  0
   13.3913  -11.6800    0.0000 N   0  0  0  0  0  0  0  0  0  0  0  0
   13.6857  -10.9046    0.0000 C   0  0  0  0  0  0  0  0  0  0  0  0
   12.2120   -8.3606    0.0000 O   0  0  0  0  0  0  0  0  0  0  0  0
   14.4818  -10.6883    0.0000 C   0  0  0  0  0  0  0  0  0  0  0  0
   15.0671  -11.2696    0.0000 O   0  0  0  0  0  0  0  0  0  0  0  0
   14.6926   -9.8908    0.0000 O   0  0  0  0  0  0  0  0  0  0  0  0
   13.6864   -9.1105    0.0000 C   0  0  0  0  0  0  0  0  0  0  0  0
    9.4108   -9.3216    0.0000 C   0  0  0  0  0  0  0  0  0  0  0  0
    8.6940   -8.9047    0.0000 C   0  0  0  0  0  0  0  0  0  0  0  0
    8.3850   -7.6673    0.0000 C   0  0  0  0  0  0  0  0  0  0  0  0
    7.5147   -9.2799    0.0000 C   0  0  0  0  0  0  0  0  0  0  0  0
   15.4886   -9.6745    0.0000 C   0  0  0  0  0  0  0  0  0  0  0  0
   16.2788   -9.4547    0.0000 C   0  0  0  0  0  0  0  0  0  0  0  0
   15.7072  -10.4699    0.0000 C   0  0  0  0  0  0  0  0  0  0  0  0
   15.2746   -8.8778    0.0000 C   0  0  0  0  0  0  0  0  0  0  0  0
    7.9790   -8.4922    0.0000 Si  0  0  0  0  0  0  0  0  0  0  0  0
    7.2645   -8.0797    0.0000 C   0  0  0  0  0  0  0  0  0  0  0  0
 12 13  1  0  0  0  0 
 13  9  2  0  0  0  0 
  1  2  2  0  0  0  0 
  8 14  2  0  0  0  0 
  3  4  2  0  0  0  0 
 13 15  1  0  0  0  0 
  5  8  1  0  0  0  0 
 15 16  2  0  0  0  0 
  6 10  1  0  0  0  0 
 15 17  1  0  0  0  0 
  9  7  1  0  0  0  0 
  7 18  1  0  0  0  0 
  7  8  1  0  0  0  0 
  2 19  1  0  0  0  0 
  9 10  1  0  0  0  0 
 19 20  3  0  0  0  0 
  4  6  1  0  0  0  0 
 20 27  1  0  0  0  0 
  5  1  1  0  0  0  0 
 27 21  1  0  0  0  0 
  5  6  2  0  0  0  0 
 27 22  1  0  0  0  0 
 17 23  1  0  0  0  0 
  2  3  1  0  0  0  0 
 23 24  1  0  0  0  0 
 10 11  1  0  0  0  0 
 23 25  1  0  0  0  0 
 11 12  2  0  0  0  0 
 23 26  1  0  0  0  0 
 27 28  1  0  0  0  0 
M  END