
          11280715312D 1   1.00000     0.00000     0

 36 39  0     0  0            999 V2000
    4.1417   -2.0792    0.0000 C   0  0  0  0  0  0           0  0  0
    4.1375   -1.4792    0.0000 C   0  0  0  0  0  0           0  0  0
    3.6167   -2.3792    0.0000 N   0  0  3  0  0  0           0  0  0
    3.1042   -1.4792    0.0000 N   0  0  3  0  0  0           0  0  0
    3.1042   -2.0792    0.0000 C   0  0  0  0  0  0           0  0  0
    4.7125   -2.2625    0.0000 N   0  0  0  0  0  0           0  0  0
    3.6167   -1.1792    0.0000 C   0  0  0  0  0  0           0  0  0
    4.7042   -1.2917    0.0000 N   0  0  0  0  0  0           0  0  0
    5.0667   -1.7750    0.0000 C   0  0  0  0  0  0           0  0  0
    0.4917   -5.9667    0.0000 S   0  0  3  0  0  0           0  0  0
    2.5750   -4.7750    0.0000 C   0  0  0  0  0  0           0  0  0
    1.0125   -5.6667    0.0000 C   0  0  0  0  0  0           0  0  0
    2.5792   -2.3792    0.0000 O   0  0  0  0  0  0           0  0  0
   -0.0250   -5.6625    0.0000 O   0  0  0  0  0  0           0  0  0
    0.4875   -6.5667    0.0000 O   0  0  0  0  0  0           0  0  0
    3.6167   -0.5792    0.0000 O   0  0  0  0  0  0           0  0  0
    2.0542   -5.0750    0.0000 C   0  0  0  0  0  0           0  0  0
   -0.0333   -6.2625    0.0000 F   0  0  0  0  0  0           0  0  0
    5.6667   -1.7667    0.0000 C   0  0  3  0  0  0           0  0  0
    3.6167   -2.9792    0.0000 C   0  0  0  0  0  0           0  0  0
    3.0917   -5.0750    0.0000 O   0  0  0  0  0  0           0  0  0
    2.5792   -1.1792    0.0000 C   0  0  0  0  0  0           0  0  0
    1.5292   -5.9667    0.0000 C   0  0  0  0  0  0           0  0  0
    1.0167   -5.0667    0.0000 C   0  0  0  0  0  0           0  0  0
    2.0542   -5.6667    0.0000 C   0  0  0  0  0  0           0  0  0
    1.5375   -4.7667    0.0000 C   0  0  0  0  0  0           0  0  0
    2.5750   -4.1750    0.0000 N   0  0  0  0  0  0           0  0  0
    3.1000   -3.2750    0.0000 C   0  0  0  0  0  0           0  0  0
    3.1000   -3.8750    0.0000 C   0  0  0  0  0  0           0  0  0
    5.9667   -2.2875    0.0000 C   0  0  0  0  0  0           0  0  0
    5.9542   -1.2500    0.0000 C   0  0  0  0  0  0           0  0  0
    2.5792   -0.5792    0.0000 C   0  0  0  0  0  0           0  0  0
    2.0542   -0.2792    0.0000 C   0  0  0  0  0  0           0  0  0
    6.5625   -1.2417    0.0000 C   0  0  0  0  0  0           0  0  0
    6.5667   -2.2792    0.0000 C   0  0  0  0  0  0           0  0  0
    6.8625   -1.7667    0.0000 C   0  0  0  0  0  0           0  0  0
  2  1  2  0     0  0
  3  1  1  0     0  0
  4  5  1  0     0  0
  5  3  1  0     0  0
  6  1  1  0     0  0
  7  2  1  0     0  0
  8  2  1  0     0  0
  9  6  1  0     0  0
 10 12  1  0     0  0
 11 27  1  0     0  0
 12 24  2  0     0  0
 13  5  2  0     0  0
 14 10  2  0     0  0
 15 10  2  0     0  0
 16  7  2  0     0  0
 17 11  1  0     0  0
 18 10  1  0     0  0
 19  9  1  0     0  0
 20  3  1  0     0  0
 21 11  2  0     0  0
 22  4  1  0     0  0
 23 25  2  0     0  0
 24 26  1  0     0  0
 25 17  1  0     0  0
 26 17  2  0     0  0
 27 29  1  0     0  0
 28 20  1  0     0  0
 29 28  1  0     0  0
 30 19  1  0     0  0
 31 19  1  0     0  0
 32 22  1  0     0  0
 33 32  1  0     0  0
 34 31  1  0     0  0
 35 30  1  0     0  0
 36 34  1  0     0  0
  8  9  2  0     0  0
  7  4  1  0     0  0
 36 35  1  0     0  0
 23 12  1  0     0  0
M  END