
  SciTegic01161211222D

 42 47  0  0  0  0            999 V2000
    5.8012   -1.9494    0.0000 C   0  0
    0.8453   -0.5608    0.0000 N   0  0
    2.2713   -0.5679    0.0000 C   0  0  1  0  0  0
    1.5601   -0.1507    0.0000 C   0  0
   -0.5282    1.1319    0.0000 C   0  0
    0.1723    0.6961    0.0000 C   0  0  1  0  0  0
    0.1486   -0.1305    0.0000 C   0  0
    3.0061   -0.2122    0.0000 C   0  0
    3.7066   -0.6440    0.0000 N   0  0
    3.0255    0.6144    0.0000 O   0  0
    3.6786   -1.4669    0.0000 C   0  0
    4.3751   -1.9025    0.0000 C   0  0
    5.1014   -1.5111    0.0000 N   0  0
    5.1311   -0.6836    0.0000 C   0  0
    4.4263   -0.2474    0.0000 C   0  0
    0.8964    1.0910    0.0000 C   0  0
   -1.2523    0.7370    0.0000 C   0  0
   -1.9535    1.1750    0.0000 C   0  0
   -1.9956   -0.4784    0.0000 C   0  0
   -1.2707   -0.0859    0.0000 C   0  0
    0.8411   -1.3878    0.0000 C   0  0
    2.2671   -1.3950    0.0000 C   0  0  2  0  0  0
    1.5491   -1.8061    0.0000 C   0  0  1  0  0  0
    1.5446   -2.6274    0.0000 C   0  0
    2.2564   -3.0438    0.0000 C   0  0
    2.9746   -2.6369    0.0000 C   0  0
    2.9807   -1.8094    0.0000 C   0  0
   -2.6982   -0.0529    0.0000 C   0  0
   -2.6778    0.7789    0.0000 C   0  0
   -3.4626    1.0553    0.0000 O   0  0
   -3.9680    0.3943    0.0000 C   0  0
   -3.4955   -0.2905    0.0000 O   0  0
    5.7682   -2.7720    0.0000 C   0  0
    6.4670   -3.2101    0.0000 C   0  0
    7.1974   -2.8232    0.0000 C   0  0
    7.2245   -1.9938    0.0000 C   0  0
    6.5250   -1.5594    0.0000 C   0  0
    7.9520   -1.6046    0.0000 F   0  0
    7.8972   -3.2603    0.0000 F   0  0
    2.2669    0.2583    0.0000 H   0  0
    2.9795   -0.9751    0.0000 H   0  0
    0.9584   -2.3877    0.0000 H   0  0
 11 12  1  0
 12 13  1  0
 22 23  1  0
 13 14  1  0
 14 15  1  0
 22  3  1  0
  3  8  1  0
  3  4  1  0
 22 27  1  0
 23 24  1  0
 24 25  1  0
 25 26  1  0
 26 27  1  0
  8  9  1  0
  2 21  1  0
  8 10  2  0
 28 29  2  0
  9 11  1  0
  6 16  1  6
  5 17  1  0
  5  6  1  0
 29 30  1  0
 30 31  1  0
 31 32  1  0
 32 28  1  0
 13  1  1  0
 17 18  2  0
  1 33  2  0
 18 29  1  0
 33 34  1  0
  2  4  1  0
 34 35  2  0
 28 19  1  0
 35 36  1  0
  6  7  1  0
 36 37  2  0
 37  1  1  0
 19 20  2  0
 36 38  1  0
 20 17  1  0
 35 39  1  0
  7  2  1  0
  3 40  1  6
  9 15  1  0
 22 41  1  6
 23 21  1  0
 23 42  1  6
M  END