
  SciTegic12231509382D

 22 24  0  0  1  0            999 V2000
    0.0000   -2.6326    0.0000 O   0  0
    4.0389   -1.3892    0.0000 N   0  0
    2.6326   -2.7955    0.0000 C   0  0  1  0  0  0
    3.4386   -0.8232    0.0000 C   0  0  2  0  0  0
    2.6326   -1.4578    0.0000 C   0  0  1  0  0  0
    2.0666   -2.1953    0.0000 C   0  0
    2.0666   -1.3892    0.0000 C   0  0
    2.6326   -0.8232    0.0000 C   0  0
    3.4386   -2.7955    0.0000 C   0  0
    4.0389   -2.1953    0.0000 C   0  0
    1.3549   -2.6154    0.0000 C   0  0
    2.3153   -3.5759    0.0000 C   0  0
    1.3549   -0.9604    0.0000 C   0  0
    1.9895   -0.7203    0.0000 C   0  0
    4.7936   -1.0719    0.0000 C   0  0
    0.6346   -2.1953    0.0000 C   0  0
    0.6346   -1.3892    0.0000 C   0  0
    5.4882   -1.4835    0.0000 C   0  0
    6.1999   -1.0719    0.0000 C   0  0
    6.1999   -0.2487    0.0000 C   0  0
    6.9117   -1.4835    0.0000 C   0  0
    3.6702    0.0000    0.0000 H   0  0
  1 16  1  0
  2  4  1  0
  2 10  1  0
  2 15  1  0
  3  5  1  0
  3  6  1  0
  3  9  1  0
  3 12  1  1
  4  5  1  0
  4  8  1  0
  4 22  1  1
  5 14  1  6
  6  7  2  0
  6 11  1  0
  7  8  1  0
  7 13  1  0
  9 10  1  0
 11 16  2  0
 13 17  2  0
 15 18  1  0
 16 17  1  0
 18 19  2  0
 19 20  1  0
 19 21  1  0
M  END