
  CDK    9/16/09,9:51

 21 21  0  0  0  0  0  0  0  0999 V2000
   -2.2080  -11.1791    0.0000 C   0  0  0  0  0  0  0  0  0  0  0  0
   -1.4980  -11.6038    0.0000 C   0  0  0  0  0  0  0  0  0  0  0  0
   -0.7773  -11.2012    0.0000 C   0  0  0  0  0  0  0  0  0  0  0  0
   -0.7655  -10.3742    0.0000 C   0  0  0  0  0  0  0  0  0  0  0  0
   -1.4803   -9.9513    0.0000 C   0  0  0  0  0  0  0  0  0  0  0  0
   -2.1980  -10.3563    0.0000 C   0  0  0  0  0  0  0  0  0  0  0  0
   -0.0459   -9.9706    0.0000 O   0  0  0  0  0  0  0  0  0  0  0  0
    0.6634  -10.3920    0.0000 C   0  0  0  0  0  0  0  0  0  0  0  0
    1.3829   -9.9884    0.0000 C   0  0  0  0  0  0  0  0  0  0  0  0
    2.0922  -10.4098    0.0000 C   0  0  0  0  0  0  0  0  0  0  0  0
    1.3932   -9.1635    0.0000 O   0  0  0  0  0  0  0  0  0  0  0  0
    2.8118  -10.0062    0.0000 N   0  0  0  0  0  0  0  0  0  0  0  0
    3.5210  -10.4276    0.0000 C   0  0  0  0  0  0  0  0  0  0  0  0
    4.2406  -10.0240    0.0000 C   0  0  0  0  0  0  0  0  0  0  0  0
    3.5108  -11.2525    0.0000 C   0  0  0  0  0  0  0  0  0  0  0  0
   -2.9281  -11.5817    0.0000 C   0  0  0  0  0  0  0  0  0  0  0  0
   -3.6368  -11.1594    0.0000 C   0  0  0  0  0  0  0  0  0  0  0  0
   -4.3569  -11.5620    0.0000 C   0  0  0  0  0  0  0  0  0  0  0  0
   -5.0657  -11.1397    0.0000 O   0  0  0  0  0  0  0  0  0  0  0  0
   -4.3683  -12.3869    0.0000 O   0  0  0  0  0  0  0  0  0  0  0  0
   -5.0884  -12.7895    0.0000 C   0  0  0  0  0  0  0  0  0  0  0  0
  2  3  1  0  0  0  0 
  9 11  1  0  0  0  0 
  5  6  2  0  0  0  0 
 10 12  1  0  0  0  0 
  6  1  1  0  0  0  0 
 12 13  1  0  0  0  0 
  1  2  2  0  0  0  0 
 13 14  1  0  0  0  0 
  4  7  1  0  0  0  0 
 13 15  1  0  0  0  0 
  3  4  2  0  0  0  0 
  1 16  1  0  0  0  0 
  7  8  1  0  0  0  0 
 16 17  2  0  0  0  0 
 17 18  1  0  0  0  0 
  8  9  1  0  0  0  0 
 18 19  2  0  0  0  0 
  4  5  1  0  0  0  0 
 18 20  1  0  0  0  0 
  9 10  1  0  0  0  0 
 20 21  1  0  0  0  0 
M  END