
  SciTegic12171313022D

 36 40  0  0  0  0            999 V2000
    7.6560   -4.7640    0.0000 C   0  0
    7.6549   -5.5914    0.0000 C   0  0
    8.3697   -6.0043    0.0000 C   0  0
    9.0861   -5.5909    0.0000 C   0  0
    9.0833   -4.7604    0.0000 C   0  0
    8.3679   -4.3513    0.0000 C   0  0
    6.9414   -4.3517    0.0000 N   0  0
    9.8012   -6.0023    0.0000 N   0  0
   10.5151   -5.5887    0.0000 C   0  0
   11.2302   -6.0001    0.0000 N   0  0
   10.5138   -4.7637    0.0000 O   0  0
   11.9981   -5.7000    0.0000 C   0  0
   12.6905   -6.1420    0.0000 N   0  0
   13.3286   -5.6186    0.0000 N   0  0
   13.0282   -4.8502    0.0000 C   0  0
   12.2047   -4.8985    0.0000 C   0  0
    5.6356   -4.0753    0.0000 N   0  0
    6.1878   -4.6882    0.0000 C   0  0
    6.0479   -3.3607    0.0000 C   0  0
    6.8519   -3.5315    0.0000 C   0  0
    7.3998   -2.9214    0.0000 N   0  0
    7.1449   -2.1402    0.0000 C   0  0
    6.3371   -1.9727    0.0000 N   0  0
    5.7927   -2.5842    0.0000 C   0  0
    4.9850   -2.4163    0.0000 N   0  0
   12.6881   -6.9669    0.0000 C   0  0
   11.9717   -7.3759    0.0000 C   0  0
   11.9690   -8.2001    0.0000 C   0  0
   12.6828   -8.6155    0.0000 C   0  0
   13.4008   -8.2006    0.0000 C   0  0
   13.4000   -7.3777    0.0000 C   0  0
   12.6815   -9.4405    0.0000 C   0  0
   13.4733   -4.1555    0.0000 C   0  0
   14.2974   -4.1936    0.0000 C   0  0
   13.0942   -3.4227    0.0000 C   0  0
   13.8783   -3.4349    0.0000 C   0  0
  1  2  2  0
  2  3  1  0
  3  4  2  0
  4  5  1  0
  5  6  2  0
  6  1  1  0
  1  7  1  0
  4  8  1  0
  8  9  1  0
  9 10  1  0
  9 11  2  0
 10 12  1  0
 12 13  1  0
 13 14  1  0
 14 15  2  0
 15 16  1  0
 16 12  2  0
  7 20  1  0
 19 17  1  0
 17 18  2  0
 18  7  1  0
 19 20  2  0
 20 21  1  0
 21 22  2  0
 22 23  1  0
 23 24  2  0
 24 19  1  0
 24 25  1  0
 13 26  1  0
 26 27  2  0
 27 28  1  0
 28 29  2  0
 29 30  1  0
 30 31  2  0
 31 26  1  0
 29 32  1  0
 15 33  1  0
 33 34  1  0
 33 35  1  0
 33 36  1  0
M  END