
  SciTegic10031218312D

 33 36  0  0  0  0            999 V2000
    6.1417   -7.8584    0.0000 C   0  0  1  0  0  0
    4.0042   -9.0959    0.0000 C   0  0  1  0  0  0
    4.0042   -9.9209    0.0000 C   0  0
    6.1417   -8.6834    0.0000 C   0  0  2  0  0  0
    4.7167   -8.6834    0.0000 C   0  0  2  0  0  0
    5.4292   -9.0959    0.0000 C   0  0  1  0  0  0
    6.9292   -7.6042    0.0000 C   0  0  2  0  0  0
    4.7167  -10.3334    0.0000 C   0  0
    5.4292   -7.4459    0.0000 C   0  0
    5.4292   -9.9209    0.0000 C   0  0
    4.7167   -7.8584    0.0000 C   0  0
    6.9292   -8.9334    0.0000 C   0  0
    3.2917   -8.6834    0.0000 C   0  0
    7.4167   -8.2709    0.0000 C   0  0
    3.2917  -10.3334    0.0000 C   0  0
    7.3667   -6.8959    0.0000 C   0  0  1  0  0  0
    6.1417   -7.0334    0.0000 C   0  0
    2.5792   -9.0959    0.0000 C   0  0
    2.5792   -9.9209    0.0000 C   0  0  2  0  0  0
    4.0042   -8.2709    0.0000 C   0  0
    1.8542  -10.3334    0.0000 O   0  0
    8.5792   -6.1542    0.0000 C   0  0
    8.1917   -6.8792    0.0000 C   0  0
    6.9292   -6.1959    0.0000 C   0  0
    9.4042   -6.1334    0.0000 C   0  0
    9.8042   -5.4084    0.0000 C   0  0
   10.6292   -5.3834    0.0000 C   0  0
    9.3667   -4.6959    0.0000 C   0  0
    5.4292   -8.2709    0.0000 H   0  0
    6.1417   -9.5084    0.0000 H   0  0
    7.7542   -7.6042    0.0000 H   0  0
    4.7167   -9.5084    0.0000 H   0  0
    9.7597   -3.9705    0.0000 C   0  0
  2  5  1  0
  3  2  1  0
  4  1  1  0
  5 11  1  0
  6  4  1  0
  7  1  1  0
  8 10  1  0
  9  1  1  0
 10  6  1  0
 11  9  1  0
 12  4  1  0
 13  2  1  0
 14  7  1  0
 15  3  1  0
 16  7  1  0
  1 17  1  1
 18 13  1  0
 19 18  1  0
  2 20  1  1
 19 21  1  1
 22 23  1  0
 23 16  1  0
 16 24  1  6
 25 22  1  0
 26 25  1  0
 26 27  1  0
 28 26  2  3
  6 29  1  1
  4 30  1  6
  7 31  1  6
  5 32  1  6
 12 14  1  0
  6  5  1  0
  3  8  2  0
 15 19  1  0
 28 33  1  0
M  END