
  Mrv0541 04051115152D          

 29 31  0  0  0  0            999 V2000
    2.4996   -0.9924    0.0000 C   0  0  2  0  0  0  0  0  0  0  0  0
    2.4996   -0.1674    0.0000 C   0  0  0  0  0  0  0  0  0  0  0  0
    3.2141   -1.4049    0.0000 C   0  0  0  0  0  0  0  0  0  0  0  0
    4.6430   -0.5799    0.0000 C   0  0  0  0  0  0  0  0  0  0  0  0
   -1.7872   -0.9924    0.0000 C   0  0  0  0  0  0  0  0  0  0  0  0
   -1.7872   -0.1674    0.0000 C   0  0  0  0  0  0  0  0  0  0  0  0
    3.5160   -0.2780    0.0000 O   0  0  0  0  0  0  0  0  0  0  0  0
    3.9285   -0.9924    0.0000 S   0  0  0  0  0  0  0  0  0  0  0  0
    4.3410   -1.7069    0.0000 O   0  0  0  0  0  0  0  0  0  0  0  0
    1.7851   -1.4049    0.0000 N   0  0  0  0  0  0  0  0  0  0  0  0
    1.0707   -0.9924    0.0000 C   0  0  0  0  0  0  0  0  0  0  0  0
    0.3562   -1.4049    0.0000 N   0  0  0  0  0  0  0  0  0  0  0  0
   -0.3583   -0.9924    0.0000 C   0  0  0  0  0  0  0  0  0  0  0  0
   -1.0728   -1.4049    0.0000 N   0  0  0  0  0  0  0  0  0  0  0  0
   -1.0728   -2.2299    0.0000 C   0  0  0  0  0  0  0  0  0  0  0  0
    1.0707   -0.1674    0.0000 N   0  0  0  0  0  0  0  0  0  0  0  0
    0.3562    0.2451    0.0000 C   0  0  0  0  0  0  0  0  0  0  0  0
   -0.3583   -0.1674    0.0000 C   0  0  0  0  0  0  0  0  0  0  0  0
   -1.0728    0.2451    0.0000 C   0  0  0  0  0  0  0  0  0  0  0  0
   -2.5017   -1.4049    0.0000 O   0  0  0  0  0  0  0  0  0  0  0  0
   -2.5017    0.2451    0.0000 O   0  0  0  0  0  0  0  0  0  0  0  0
   -2.5017    1.0701    0.0000 C   0  0  0  0  0  0  0  0  0  0  0  0
   -3.2162    1.4826    0.0000 C   0  0  0  0  0  0  0  0  0  0  0  0
   -3.9306    1.0701    0.0000 F   0  0  0  0  0  0  0  0  0  0  0  0
   -3.2162    2.3076    0.0000 C   0  0  0  0  0  0  0  0  0  0  0  0
   -2.5017    2.7201    0.0000 C   0  0  0  0  0  0  0  0  0  0  0  0
   -2.5017    3.5451    0.0000 F   0  0  0  0  0  0  0  0  0  0  0  0
   -1.7872    2.3076    0.0000 C   0  0  0  0  0  0  0  0  0  0  0  0
   -1.7872    1.4826    0.0000 C   0  0  0  0  0  0  0  0  0  0  0  0
  1  2  1  6  0  0  0
  1  3  1  0  0  0  0
  1 10  1  0  0  0  0
  3  8  1  0  0  0  0
  4  8  1  0  0  0  0
  5  6  1  0  0  0  0
  5 14  1  0  0  0  0
  5 20  2  0  0  0  0
  6 19  2  0  0  0  0
  6 21  1  0  0  0  0
  7  8  2  0  0  0  0
  9  8  2  0  0  0  0
 11 10  1  0  0  0  0
 11 12  2  0  0  0  0
 11 16  1  0  0  0  0
 13 12  1  0  0  0  0
 13 14  1  0  0  0  0
 13 18  2  0  0  0  0
 15 14  1  0  0  0  0
 17 16  2  0  0  0  0
 18 17  1  0  0  0  0
 18 19  1  0  0  0  0
 22 21  1  0  0  0  0
 22 23  2  0  0  0  0
 22 29  1  0  0  0  0
 23 24  1  0  0  0  0
 25 23  1  0  0  0  0
 26 25  2  0  0  0  0
 26 27  1  0  0  0  0
 28 26  1  0  0  0  0
 29 28  2  0  0  0  0
M  END