
          11280715372D 1   1.00000     0.00000     0

 31 33  0     0  0            999 V2000
    2.4792   -1.2042    0.0000 C   0  0  0  0  0  0           0  0  0
    1.7542   -0.7792    0.0000 C   0  0  0  0  0  0           0  0  0
    4.6125   -0.7875    0.0000 C   0  0  0  0  0  0           0  0  0
    2.4792   -2.0292    0.0000 C   0  0  3  0  0  0           0  0  0
    8.1667    1.2958    0.0000 C   0  0  0  0  0  0           0  0  0
    5.3250   -0.3667    0.0000 C   0  0  0  0  0  0           0  0  0
    1.7542    0.0458    0.0000 C   0  0  0  0  0  0           0  0  0
    3.1875   -0.7917    0.0000 C   0  0  0  0  0  0           0  0  0
    7.4542    0.8833    0.0000 C   0  0  0  0  0  0           0  0  0
    1.7292    2.5208    0.0000 C   0  0  3  0  0  0           0  0  0
    1.7375    1.6958    0.0000 C   0  0  0  0  0  0           0  0  0
    3.9000   -1.2042    0.0000 C   0  0  0  0  0  0           0  0  0
    8.1625    2.1208    0.0000 O   0  0  0  0  0  0           0  0  0
    1.0375    0.4458    0.0000 C   0  0  0  0  0  0           0  0  0
    2.4667    0.4625    0.0000 C   0  0  0  0  0  0           0  0  0
    2.4542    1.2875    0.0000 C   0  0  0  0  0  0           0  0  0
    1.0250    1.2708    0.0000 C   0  0  0  0  0  0           0  0  0
    6.0375    0.0458    0.0000 C   0  0  0  0  0  0           0  0  0
    7.4625    0.0583    0.0000 C   0  0  0  0  0  0           0  0  0
    6.7375    1.2875    0.0000 C   0  0  0  0  0  0           0  0  0
    8.8875    0.8958    0.0000 O   0  0  0  0  0  0           0  0  0
    1.0500   -1.2000    0.0000 C   0  0  0  0  0  0           0  0  0
    6.0292    0.8708    0.0000 C   0  0  0  0  0  0           0  0  0
    6.7542   -0.3625    0.0000 C   0  0  0  0  0  0           0  0  0
    1.7542   -2.4292    0.0000 C   0  0  0  0  0  0           0  0  0
    1.0500   -2.0250    0.0000 C   0  0  0  0  0  0           0  0  0
    3.2750   -1.8125    0.0000 C   0  0  0  0  0  0           0  0  0
    2.6917   -2.8250    0.0000 C   0  0  0  0  0  0           0  0  0
    2.4375    2.9375    0.0000 C   0  0  0  0  0  0           0  0  0
    1.0125    2.9208    0.0000 C   0  0  0  0  0  0           0  0  0
    2.5292    2.3125    0.0000 C   0  0  0  0  0  0           0  0  0
  2  1  2  0     0  0
  3 12  1  0     0  0
  4  1  1  0     0  0
  5  9  1  0     0  0
  6  3  3  0     0  0
  7  2  1  0     0  0
  8  1  1  0     0  0
  9 19  2  0     0  0
 10 11  1  0     0  0
 11 16  2  0     0  0
 12  8  2  0     0  0
 13  5  2  0     0  0
 14  7  1  0     0  0
 15  7  2  0     0  0
 16 15  1  0     0  0
 17 14  2  0     0  0
 18  6  1  0     0  0
 19 24  1  0     0  0
 20 23  2  0     0  0
 21  5  1  0     0  0
 22  2  1  0     0  0
 23 18  1  0     0  0
 24 18  2  0     0  0
 25  4  1  0     0  0
 26 25  1  0     0  0
 27  4  1  0     0  0
 28  4  1  0     0  0
 29 10  1  0     0  0
 30 10  1  0     0  0
 31 10  1  0     0  0
 22 26  1  0     0  0
 17 11  1  0     0  0
  9 20  1  0     0  0
M  END