
          11280715012D 1   1.00000     0.00000     0

 40 43  0     1  0            999 V2000
    5.4375   -8.1292    0.0000 N   0  0  0  0  0  0           0  0  0
    6.0167   -8.3042    0.0000 C   0  0  0  0  0  0           0  0  0
    5.1000   -8.6167    0.0000 C   0  0  1  0  0  0           0  0  0
    7.0542   -6.5042    0.0000 C   0  0  0  0  0  0           0  0  0
    6.0167   -8.9042    0.0000 O   0  0  0  0  0  0           0  0  0
    4.5292   -8.8167    0.0000 C   0  0  0  0  0  0           0  0  0
    7.0542   -7.1042    0.0000 C   0  0  0  0  0  0           0  0  0
    6.5375   -8.0042    0.0000 C   0  0  0  0  0  0           0  0  0
    6.5375   -7.4042    0.0000 C   0  0  0  0  0  0           0  0  0
    5.4542   -9.1000    0.0000 C   0  0  0  0  0  0           0  0  0
    8.5792   -3.8125    0.0000 C   0  0  0  0  0  0           0  0  0
    6.5292   -6.2042    0.0000 C   0  0  0  0  0  0           0  0  0
    4.0792   -8.4167    0.0000 O   0  0  0  0  0  0           0  0  0
    7.5667   -6.2042    0.0000 C   0  0  0  0  0  0           0  0  0
    6.0125   -5.3042    0.0000 N   0  0  0  0  0  0           0  0  0
    9.0917   -3.5042    0.0000 O   0  0  0  0  0  0           0  0  0
    4.4125   -9.4042    0.0000 N   0  0  0  0  0  0           0  0  0
    8.0625   -3.5167    0.0000 O   0  0  0  0  0  0           0  0  0
    6.5292   -5.6042    0.0000 C   0  0  0  0  0  0           0  0  0
    7.5667   -7.4042    0.0000 C   0  0  0  0  0  0           0  0  0
    7.0542   -8.3042    0.0000 C   0  0  0  0  0  0           0  0  0
    7.5792   -8.0042    0.0000 C   0  0  0  0  0  0           0  0  0
    8.5792   -4.4042    0.0000 C   0  0  0  0  0  0           0  0  0
    5.4917   -5.6042    0.0000 C   0  0  0  0  0  0           0  0  0
    1.8042   -9.1792    0.0000 C   0  0  3  0  0  0           0  0  0
    7.5625   -5.6042    0.0000 C   0  0  0  0  0  0           0  0  0
    6.0125   -6.5042    0.0000 C   0  0  0  0  0  0           0  0  0
    3.8417   -9.5917    0.0000 C   0  0  0  0  0  0           0  0  0
    2.3792   -8.9917    0.0000 C   0  0  0  0  0  0           0  0  0
    1.3625   -8.7792    0.0000 C   0  0  0  0  0  0           0  0  0
    1.6917   -9.7667    0.0000 C   0  0  0  0  0  0           0  0  0
    8.0667   -4.7042    0.0000 C   0  0  0  0  0  0           0  0  0
    8.0750   -5.3042    0.0000 C   0  0  0  0  0  0           0  0  0
    3.3917   -9.1917    0.0000 C   0  0  0  0  0  0           0  0  0
    2.8292   -9.3875    0.0000 C   0  0  0  0  0  0           0  0  0
    5.4917   -6.2042    0.0000 C   0  0  0  0  0  0           0  0  0
    0.7917   -8.9667    0.0000 C   0  0  0  0  0  0           0  0  0
    1.1167   -9.9542    0.0000 C   0  0  0  0  0  0           0  0  0
    0.6750   -9.5542    0.0000 C   0  0  0  0  0  0           0  0  0
    4.8000   -8.1042    0.0000 H   0  0  0  0  0  0           0  0  0
  2  1  2  0     0  0
  3  1  1  0     0  0
  4  7  1  0     0  0
  5  2  1  0     0  0
  6  3  1  0     0  0
  7  9  2  0     0  0
  8  2  1  0     0  0
  9  8  1  0     0  0
 10  3  1  0     0  0
 11 23  1  0     0  0
 12  4  1  0     0  0
 13  6  2  0     0  0
 14  4  2  0     0  0
 15 19  2  0     0  0
 16 11  2  0     0  0
 17  6  1  0     0  0
 18 11  1  0     0  0
 19 12  1  0     0  0
 20 22  2  0     0  0
 21  8  2  0     0  0
 22 21  1  0     0  0
 23 32  1  0     0  0
 24 36  2  0     0  0
 25 29  1  0     0  0
 26 14  1  0     0  0
 27 12  2  0     0  0
 28 17  1  0     0  0
 29 35  1  0     0  0
 30 25  1  0     0  0
 31 25  1  0     0  0
 32 33  1  0     0  0
 33 26  1  0     0  0
 34 28  1  0     0  0
 35 34  1  0     0  0
 36 27  1  0     0  0
 37 30  1  0     0  0
 38 31  1  0     0  0
 39 38  1  0     0  0
  3 40  1  1     0  0
  5 10  1  0     0  0
  7 20  1  0     0  0
 24 15  1  0     0  0
 37 39  1  0     0  0
M  END