
  SciTegic09261415472D

 43 47  0  0  0  0            999 V2000
    1.7484   -7.5334    0.0000 C   0  0
    1.7484   -8.3584    0.0000 C   0  0
    2.4605   -8.7667    0.0000 C   0  0
    2.4605   -7.1167    0.0000 C   0  0
    3.1725   -7.5334    0.0000 C   0  0  1  0  0  0
    3.1735   -8.3584    0.0000 C   0  0
    3.8846   -8.7677    0.0000 C   0  0
    4.5991   -8.3565    0.0000 C   0  0
    3.8825   -7.1177    0.0000 C   0  0  2  0  0  0
    4.5977   -7.5362    0.0000 C   0  0  2  0  0  0
    4.6056   -5.8818    0.0000 C   0  0
    3.8833   -6.2913    0.0000 C   0  0  2  0  0  0
    5.3208   -6.3003    0.0000 C   0  0  2  0  0  0
    5.3127   -7.1297    0.0000 C   0  0  1  0  0  0
    6.0990   -7.3939    0.0000 C   0  0
    1.0346   -8.7719    0.0000 O   0  0
    3.8776   -7.9417    0.0000 F   0  0
    3.1651   -6.7084    0.0000 C   0  0
    3.1707   -5.8757    0.0000 O   0  0
    5.3151   -5.4750    0.0000 C   0  0
    6.1122   -6.0518    0.0000 C   0  0  1  0  0  0
    6.5897   -6.7258    0.0000 C   0  0  2  0  0  0
    7.3783   -6.4799    0.0000 O   0  0
    7.3882   -5.6539    0.0000 C   0  0
    6.6057   -5.3894    0.0000 O   0  0
    7.5984   -4.8500    0.0000 C   0  0
    8.2109   -5.6500    0.0000 C   0  0
    5.8943   -5.2500    0.0000 C   0  0
    6.4755   -4.6645    0.0000 C   0  0
    5.0966   -5.0394    0.0000 O   0  0
    6.2591   -3.8684    0.0000 O   0  0
    6.8403   -3.2829    0.0000 C   0  0
    7.6379   -3.4935    0.0000 O   0  0
    6.6238   -2.4868    0.0000 N   0  0
    7.2051   -1.9013    0.0000 C   0  0
    5.8262   -2.2762    0.0000 C   0  0
    5.6097   -1.4801    0.0000 C   0  0
    6.9886   -1.1052    0.0000 C   0  0
    7.5698   -0.5197    0.0000 Cl  0  0
    4.8121   -1.2695    0.0000 Cl  0  0
    4.5901   -6.7084    0.0000 H   0  0
    5.3068   -7.9542    0.0000 H   0  0
    7.1313   -7.3482    0.0000 H   0  0
  1  2  1  0
  1  4  2  0
  2  3  1  0
  3  6  2  0
  5  4  1  0
  5  6  1  0
  5  9  1  0
  6  7  1  0
  7  8  1  0
  8 10  1  0
  9 10  1  0
  9 12  1  0
 10 14  1  0
 13 11  1  0
 11 12  1  0
 13 14  1  0
 14 15  1  0
 15 22  1  0
 21 13  1  0
  2 16  2  0
  9 17  1  6
  5 18  1  1
 12 19  1  1
 13 20  1  1
 21 22  1  0
 22 23  1  0
 23 24  1  0
 24 25  1  0
 21 25  1  0
 24 26  1  0
 24 27  1  0
 21 28  1  1
 28 29  1  0
 28 30  2  0
 29 31  1  0
 31 32  1  0
 32 33  2  0
 32 34  1  0
 34 35  1  0
 34 36  1  0
 36 37  1  0
 35 38  1  0
 38 39  1  0
 37 40  1  0
 10 41  1  1
 14 42  1  6
 22 43  1  1
M  END