
  SciTegic10311316242D

 12 13  0  0  0  0            999 V2000
   21.9520   -8.4353    0.0000 C   0  0
   21.9509   -9.2612    0.0000 C   0  0
   22.6644   -9.6734    0.0000 C   0  0
   22.6626   -8.0232    0.0000 C   0  0
   23.3767   -8.4317    0.0000 C   0  0
   23.3816   -9.2567    0.0000 C   0  0
   24.1678   -9.5070    0.0000 O   0  0
   24.6488   -8.8367    0.0000 N   0  0
   24.1599   -8.1722    0.0000 C   0  0
   24.4098   -7.3875    0.0000 O   0  0
   21.2387   -8.0237    0.0000 Cl  0  0
   21.2373   -9.6725    0.0000 Cl  0  0
  1  2  2  0
  2  3  1  0
  3  6  2  0
  5  4  2  0
  4  1  1  0
  5  6  1  0
  6  7  1  0
  7  8  1  0
  8  9  2  0
  9  5  1  0
  9 10  1  0
  1 11  1  0
  2 12  1  0
M  END