
  SciTegic09261410572D

 49 48  0  0  0  0            999 V2000
   -2.1589    1.0851    0.0000 C   0  0  2  0  0  0
   -2.8734    0.6726    0.0000 C   0  0  2  0  0  0
   -1.4445    0.6726    0.0000 C   0  0  1  0  0  0
   -2.8734    2.3226    0.0000 S   0  0
   -4.3024    0.6726    0.0000 S   0  0
   -0.7300    1.9101    0.0000 S   0  0
   -2.8734   -0.1524    0.0000 C   0  0  2  0  0  0
   -2.1589   -0.5649    0.0000 O   0  0
   -1.4445   -0.1524    0.0000 C   0  0  1  0  0  0
   -2.1589    1.9101    0.0000 O   0  0
   -3.5879    1.0851    0.0000 O   0  0
   -0.7300    1.0851    0.0000 O   0  0
    2.1279   -0.5649    0.0000 N   0  0
    3.5568   -0.5649    0.0000 C   0  0
    1.4134   -0.1524    0.0000 C   0  0
   -3.5879    2.7351    0.0000 O   0  5
   -0.7300    2.7351    0.0000 O   0  5
   -5.0168    0.2601    0.0000 O   0  5
    2.8424   -0.1524    0.0000 C   0  0
   -2.4609    3.0370    0.0000 O   0  0
    0.0950    1.9101    0.0000 O   0  0
   -3.2859    1.6081    0.0000 O   0  0
   -1.5550    1.9101    0.0000 O   0  0
   -3.8899   -0.0419    0.0000 O   0  0
   -4.7149    1.3870    0.0000 O   0  0
    4.2713   -0.1524    0.0000 N   0  0
    2.1279   -1.3899    0.0000 C   0  0
    1.4134    0.6726    0.0000 O   0  0
    3.5568   -1.3899    0.0000 O   0  0
   -3.5879   -0.5649    0.0000 O   0  0
   -0.0155   -0.1524    0.0000 O   0  0
   -0.7300   -0.5649    0.0000 C   0  0
    1.4134   -1.8024    0.0000 C   0  0
    0.6989   -0.5649    0.0000 C   0  0
    4.9858   -0.5649    0.0000 C   0  0
    8.6540    0.0000    0.0000 Na  0  3
    0.0000   -4.6899    0.0000 Na  0  3
    1.0018   -4.6899    0.0000 Na  0  3
   -3.5879   -1.3899    0.0000 C   0  0
    0.6989   -1.3899    0.0000 C   0  0
    1.4134   -2.6274    0.0000 C   0  0
    4.9858   -1.3899    0.0000 C   0  0
    5.7002   -0.1524    0.0000 C   0  0
    0.6989   -3.0399    0.0000 C   0  0
   -0.0155   -1.8024    0.0000 C   0  0
    6.4147   -0.5649    0.0000 C   0  0
    5.7002   -1.8024    0.0000 C   0  0
    6.4147   -1.3899    0.0000 C   0  0
   -0.0155   -2.6274    0.0000 C   0  0
  2  1  1  0
  3  1  1  0
  4 10  1  0
  5 11  1  0
  6 12  1  0
  7  2  1  0
  8  9  1  0
  9  3  1  0
  1 10  1  1
  2 11  1  6
  3 12  1  6
 13 15  1  0
 14 19  1  0
 15 34  1  0
 16  4  1  0
 17  6  1  0
 18  5  1  0
 19 13  1  0
 20  4  2  0
 21  6  2  0
 22  4  2  0
 23  6  2  0
 24  5  2  0
 25  5  2  0
 26 14  1  0
 27 13  1  0
 28 15  2  0
 29 14  2  0
  7 30  1  6
 31 32  1  0
  9 32  1  6
 33 27  1  0
 34 31  1  0
 35 26  1  0
 39 30  1  0
 40 33  1  0
 41 33  2  0
 42 35  1  0
 43 35  1  0
 44 41  1  0
 45 40  2  0
 46 43  1  0
 47 42  1  0
 48 47  1  0
 49 45  1  0
  8  7  1  0
 44 49  2  0
 46 48  1  0
M  CHG  6  16  -1  17  -1  18  -1  36   1  37   1  38   1
M  END