
          11280714562D 1   1.00000     0.00000     0

 33 37  0     0  0            999 V2000
    0.3750  -14.5417    0.0000 N   0  0  3  0  0  0           0  0  0
    1.1750  -14.3167    0.0000 C   0  0  0  0  0  0           0  0  0
    0.4250  -13.1917    0.0000 N   0  0  0  0  0  0           0  0  0
    1.2042  -13.4792    0.0000 C   0  0  0  0  0  0           0  0  0
   -0.0958  -13.8417    0.0000 C   0  0  0  0  0  0           0  0  0
    1.7917  -14.8542    0.0000 C   0  0  0  0  0  0           0  0  0
    0.3417  -19.1417    0.0000 C   0  0  0  0  0  0           0  0  0
   -0.9333  -18.7417    0.0000 N   0  0  0  0  0  0           0  0  0
   -0.1500  -18.4792    0.0000 N   0  0  0  0  0  0           0  0  0
   -0.9250  -19.5667    0.0000 N   0  0  0  0  0  0           0  0  0
   -0.1375  -19.8167    0.0000 N   0  0  0  0  0  0           0  0  0
    1.1667  -19.1375    0.0000 C   0  0  0  0  0  0           0  0  0
    1.5792  -15.6500    0.0000 C   0  0  0  0  0  0           0  0  0
    1.5750  -18.4167    0.0000 C   0  0  0  0  0  0           0  0  0
   -0.1000  -15.5792    0.0000 C   0  0  0  0  0  0           0  0  0
    2.1542  -16.2375    0.0000 C   0  0  0  0  0  0           0  0  0
    1.1542  -17.7042    0.0000 C   0  0  0  0  0  0           0  0  0
    1.9375  -17.0292    0.0000 O   0  0  0  0  0  0           0  0  0
    0.3292  -17.7167    0.0000 C   0  0  0  0  0  0           0  0  0
    1.5625  -16.9875    0.0000 C   0  0  0  0  0  0           0  0  0
    0.3167  -16.2917    0.0000 C   0  0  0  0  0  0           0  0  0
    1.8792  -13.0042    0.0000 C   0  0  0  0  0  0           0  0  0
    2.6042  -14.7042    0.0000 C   0  0  0  0  0  0           0  0  0
    2.9542  -16.0292    0.0000 O   0  0  0  0  0  0           0  0  0
   -0.9125  -13.8167    0.0000 C   0  0  0  0  0  0           0  0  0
   -0.0875  -17.0042    0.0000 C   0  0  0  0  0  0           0  0  0
    1.1417  -16.2792    0.0000 C   0  0  0  0  0  0           0  0  0
    1.5875  -19.8417    0.0000 C   0  0  0  0  0  0           0  0  0
    2.3917  -18.4042    0.0000 C   0  0  0  0  0  0           0  0  0
    2.6750  -13.2292    0.0000 C   0  0  0  0  0  0           0  0  0
    3.0000  -13.9792    0.0000 C   0  0  0  0  0  0           0  0  0
    2.8167  -19.1167    0.0000 C   0  0  0  0  0  0           0  0  0
    2.4167  -19.8375    0.0000 C   0  0  0  0  0  0           0  0  0
  2  1  1  0     0  0
  3  5  2  0     0  0
  4  2  2  0     0  0
  5  1  1  0     0  0
  6  2  1  0     0  0
  7 12  1  0     0  0
  8  9  2  0     0  0
  9  7  1  0     0  0
 10 11  1  0     0  0
 11  7  2  0     0  0
 12 14  2  0     0  0
 13  6  2  0     0  0
 14 17  1  0     0  0
 15  1  1  0     0  0
 16 13  1  0     0  0
 17 20  2  0     0  0
 18 16  2  0     0  0
 19 26  2  0     0  0
 20 27  1  0     0  0
 21 15  1  0     0  0
 22  4  1  0     0  0
 23  6  1  0     0  0
 24 16  1  0     0  0
 25  5  1  0     0  0
 26 21  1  0     0  0
 27 21  2  0     0  0
 28 12  1  0     0  0
 29 14  1  0     0  0
 30 22  1  0     0  0
 31 23  1  0     0  0
 32 29  2  0     0  0
 33 32  1  0     0  0
  4  3  1  0     0  0
 19 17  1  0     0  0
 30 31  1  0     0  0
 28 33  2  0     0  0
  8 10  1  0     0  0
M  END