
  SciTegic12231509382D

 23 26  0  0  0  0            999 V2000
    3.3208   -8.6167    0.0000 C   0  0  2  0  0  0
    3.3167   -9.3250    0.0000 C   0  0  2  0  0  0
    2.6958   -9.6792    0.0000 C   0  0  1  0  0  0
    2.0833   -9.3208    0.0000 C   0  0  1  0  0  0
    1.4708   -9.6792    0.0000 C   0  0
    1.4708  -10.3917    0.0000 C   0  0
    2.7042   -8.2583    0.0000 C   0  0
    2.0833   -8.6083    0.0000 C   0  0
    2.7000  -10.3917    0.0000 C   0  0
    3.9875   -9.5500    0.0000 C   0  0
    0.8583   -9.3250    0.0000 C   0  0
    3.9958   -8.4042    0.0000 C   0  0  2  0  0  0
    2.0833  -10.7458    0.0000 C   0  0
    0.8583  -10.7458    0.0000 C   0  0
    4.4083   -8.9792    0.0000 C   0  0
    0.2458  -10.3917    0.0000 C   0  0
    0.2458   -9.6792    0.0000 C   0  0
    3.3167   -7.9042    0.0000 C   0  0
    4.2167   -7.7292    0.0000 O   0  0
   -0.3667  -10.7458    0.0000 O   0  0
    3.3125  -10.0292    0.0000 H   0  0
    2.0792  -10.0292    0.0000 H   0  0
    2.6917   -8.9667    0.0000 H   0  0
  2  1  1  0
  3  2  1  0
  4  3  1  0
  5  4  1  0
  6  5  1  0
  7  1  1  0
  8  7  1  0
  9  3  1  0
 10  2  1  0
 11  5  2  0
 12  1  1  0
 13  9  1  0
 14  6  2  0
 15 12  1  0
 16 17  2  0
 17 11  1  0
  1 18  1  1
 12 19  1  1
 20 16  1  0
  2 21  1  6
  4 22  1  6
  3 23  1  1
 15 10  1  0
  8  4  1  0
 13  6  1  0
 14 16  1  0
M  END