
          11280715162D 1   1.00000     0.00000     0

 21 23  0     0  0            999 V2000
   -0.1333   -1.2667    0.0000 N   0  0  3  0  0  0           0  0  0
   -0.9583   -1.3125    0.0000 C   0  0  0  0  0  0           0  0  0
    0.1667   -2.0375    0.0000 C   0  0  3  0  0  0           0  0  0
    1.1417   -0.6125    0.0000 C   0  0  0  0  0  0           0  0  0
    1.9667   -0.6542    0.0000 C   0  0  0  0  0  0           0  0  0
   -0.4708   -2.5542    0.0000 C   0  0  0  0  0  0           0  0  0
    3.2292   -0.0042    0.0000 N   0  0  3  0  0  0           0  0  0
   -1.1708   -2.1042    0.0000 C   0  0  0  0  0  0           0  0  0
   -1.4833   -0.6750    0.0000 O   0  0  0  0  0  0           0  0  0
    0.9667   -2.2417    0.0000 C   0  0  0  0  0  0           0  0  0
    0.3167   -0.5750    0.0000 C   0  0  0  0  0  0           0  0  0
    2.7917   -0.6917    0.0000 C   0  0  0  0  0  0           0  0  0
    2.9292    0.7625    0.0000 C   0  0  0  0  0  0           0  0  0
    4.0542    0.0375    0.0000 C   0  0  0  0  0  0           0  0  0
    1.1792   -3.0417    0.0000 C   0  0  0  0  0  0           0  0  0
    1.5417   -1.6625    0.0000 C   0  0  0  0  0  0           0  0  0
    4.2667    0.8375    0.0000 C   0  0  0  0  0  0           0  0  0
    3.5792    1.2833    0.0000 C   0  0  0  0  0  0           0  0  0
    2.3292   -1.8667    0.0000 C   0  0  0  0  0  0           0  0  0
    1.9667   -3.2542    0.0000 C   0  0  0  0  0  0           0  0  0
    2.5542   -2.6667    0.0000 C   0  0  0  0  0  0           0  0  0
  2  1  1  0     0  0
  3  1  1  0     0  0
  4 11  1  0     0  0
  5  4  3  0     0  0
  6  3  1  0     0  0
  7 12  1  0     0  0
  8  2  1  0     0  0
  9  2  2  0     0  0
 10  3  1  0     0  0
 11  1  1  0     0  0
 12  5  1  0     0  0
 13  7  1  0     0  0
 14  7  1  0     0  0
 15 10  2  0     0  0
 16 10  1  0     0  0
 17 14  1  0     0  0
 18 13  1  0     0  0
 19 16  2  0     0  0
 20 15  1  0     0  0
 21 19  1  0     0  0
  8  6  1  0     0  0
 20 21  2  0     0  0
 17 18  1  0     0  0
M  END