
          11280715182D 1   1.00000     0.00000     0

 26 28  0     0  0            999 V2000
    2.4667   -8.0875    0.0000 C   0  0  0  0  0  0           0  0  0
    2.4667   -8.9042    0.0000 C   0  0  0  0  0  0           0  0  0
    3.8875   -8.0792    0.0000 C   0  0  0  0  0  0           0  0  0
    4.5917   -7.6667    0.0000 C   0  0  0  0  0  0           0  0  0
    3.1750   -7.6750    0.0000 C   0  0  0  0  0  0           0  0  0
    3.1792   -9.3167    0.0000 C   0  0  0  0  0  0           0  0  0
    3.8875   -8.9042    0.0000 C   0  0  0  0  0  0           0  0  0
    6.7292   -8.8917    0.0000 C   0  0  0  0  0  0           0  0  0
    6.0167   -7.6667    0.0000 N   0  0  0  0  0  0           0  0  0
    7.4500   -9.3042    0.0000 C   0  0  0  0  0  0           0  0  0
    1.7542   -9.3167    0.0000 C   0  0  3  0  0  0           0  0  0
    1.7542   -7.6667    0.0000 C   0  0  3  0  0  0           0  0  0
    5.3125   -8.0792    0.0000 C   0  0  0  0  0  0           0  0  0
    6.7250   -8.0667    0.0000 C   0  0  0  0  0  0           0  0  0
    6.0167   -9.3042    0.0000 C   0  0  0  0  0  0           0  0  0
    4.5917   -6.8417    0.0000 C   0  0  0  0  0  0           0  0  0
    7.4500  -10.1292    0.0000 O   0  0  0  0  0  0           0  0  0
    1.0417   -8.9125    0.0000 C   0  0  0  0  0  0           0  0  0
    1.0417   -8.0875    0.0000 C   0  0  0  0  0  0           0  0  0
    5.3125   -8.9000    0.0000 C   0  0  0  0  0  0           0  0  0
    8.1625   -8.8875    0.0000 O   0  0  0  0  0  0           0  0  0
    4.6000   -9.3125    0.0000 C   0  0  0  0  0  0           0  0  0
    2.4667   -7.2500    0.0000 C   0  0  0  0  0  0           0  0  0
    1.0375   -7.2542    0.0000 C   0  0  0  0  0  0           0  0  0
    1.0375   -9.7250    0.0000 C   0  0  0  0  0  0           0  0  0
    2.4667   -9.7292    0.0000 C   0  0  0  0  0  0           0  0  0
  2  1  2  0     0  0
  3  5  2  0     0  0
  4  3  1  0     0  0
  5  1  1  0     0  0
  6  2  1  0     0  0
  7  3  1  0     0  0
  8 15  2  0     0  0
  9 13  1  0     0  0
 10  8  1  0     0  0
 11  2  1  0     0  0
 12  1  1  0     0  0
 13  4  1  0     0  0
 14  9  2  0     0  0
 15 20  1  0     0  0
 16  4  2  0     0  0
 17 10  2  0     0  0
 18 19  1  0     0  0
 19 12  1  0     0  0
 20 13  2  0     0  0
 21 10  1  0     0  0
 22  7  1  0     0  0
 23 12  1  0     0  0
 24 12  1  0     0  0
 25 11  1  0     0  0
 26 11  1  0     0  0
 18 11  1  0     0  0
  6  7  2  0     0  0
 14  8  1  0     0  0
M  END