
          11280715042D 1   1.00000     0.00000     0

 39 41  0     1  0            999 V2000
    4.8417   -8.7667    0.0000 S   0  0  3  0  0  0           0  0  0
    7.2792   -8.7667    0.0000 C   0  0  0  0  0  0           0  0  0
    7.5917   -9.2917    0.0000 N   0  0  0  0  0  0           0  0  0
    8.5042   -9.8167    0.0000 C   0  0  0  0  0  0           0  0  0
    8.2042   -9.2917    0.0000 C   0  0  1  0  0  0           0  0  0
    5.4542   -8.7667    0.0000 C   0  0  0  0  0  0           0  0  0
    9.1167   -9.8167    0.0000 N   0  0  0  0  0  0           0  0  0
    4.8417   -8.1542    0.0000 O   0  0  0  0  0  0           0  0  0
    4.8417   -9.3750    0.0000 O   0  0  0  0  0  0           0  0  0
   10.0375  -10.3500    0.0000 C   0  0  0  0  0  0           0  0  0
    6.6750   -8.7667    0.0000 C   0  0  0  0  0  0           0  0  0
    9.4250  -11.4000    0.0000 C   0  0  0  0  0  0           0  0  0
    4.2375   -8.7667    0.0000 N   0  0  0  0  0  0           0  0  0
   10.3292  -10.8667    0.0000 N   0  0  0  0  0  0           0  0  0
    7.5042   -8.4500    0.0000 O   0  0  0  0  0  0           0  0  0
    8.5042   -8.7667    0.0000 C   0  0  0  0  0  0           0  0  0
    8.2042  -10.3500    0.0000 O   0  0  0  0  0  0           0  0  0
   10.3292   -9.8167    0.0000 O   0  0  0  0  0  0           0  0  0
    9.1167  -10.8750    0.0000 O   0  0  0  0  0  0           0  0  0
    5.7542   -8.2417    0.0000 C   0  0  0  0  0  0           0  0  0
    5.7542   -9.2917    0.0000 C   0  0  0  0  0  0           0  0  0
    6.3667   -9.2917    0.0000 C   0  0  0  0  0  0           0  0  0
    6.3667   -8.2417    0.0000 C   0  0  0  0  0  0           0  0  0
    9.1167  -11.9292    0.0000 O   0  0  0  0  0  0           0  0  0
    9.4250  -10.3417    0.0000 C   0  0  0  0  0  0           0  0  0
   10.0375  -11.4000    0.0000 C   0  0  0  0  0  0           0  0  0
    8.5167  -11.9292    0.0000 C   0  0  0  0  0  0           0  0  0
    8.3417   -8.1792    0.0000 C   0  0  0  0  0  0           0  0  0
    8.2125  -12.4500    0.0000 C   0  0  0  0  0  0           0  0  0
    8.7750   -7.7500    0.0000 C   0  0  0  0  0  0           0  0  0
    7.7542   -8.0292    0.0000 C   0  0  0  0  0  0           0  0  0
    8.5125  -12.9667    0.0000 C   0  0  0  0  0  0           0  0  0
    7.6167  -12.4417    0.0000 C   0  0  0  0  0  0           0  0  0
    7.3125  -12.9542    0.0000 C   0  0  0  0  0  0           0  0  0
    8.6167   -7.1667    0.0000 C   0  0  0  0  0  0           0  0  0
    7.6000   -7.4417    0.0000 C   0  0  0  0  0  0           0  0  0
    8.2167  -13.4792    0.0000 C   0  0  0  0  0  0           0  0  0
    7.6125  -13.4792    0.0000 C   0  0  0  0  0  0           0  0  0
    8.0292   -7.0042    0.0000 C   0  0  0  0  0  0           0  0  0
  2 11  1  0     0  0
  3  2  1  0     0  0
  4  5  1  0     0  0
  5  3  1  0     0  0
  6  1  1  0     0  0
  7  4  1  0     0  0
  8  1  2  0     0  0
  9  1  2  0     0  0
 10 25  1  0     0  0
 11 22  2  0     0  0
 12 26  1  0     0  0
 13  1  1  0     0  0
 14 10  1  0     0  0
 15  2  2  0     0  0
  5 16  1  6     0  0
 17  4  2  0     0  0
 18 10  2  0     0  0
 19 12  2  0     0  0
 20  6  1  0     0  0
 21  6  2  0     0  0
 22 21  1  0     0  0
 23 20  2  0     0  0
 24 12  1  0     0  0
 25  7  1  0     0  0
 26 14  1  0     0  0
 27 24  1  0     0  0
 28 16  1  0     0  0
 29 27  1  0     0  0
 30 28  2  0     0  0
 31 28  1  0     0  0
 32 29  1  0     0  0
 33 29  2  0     0  0
 34 33  1  0     0  0
 35 30  1  0     0  0
 36 31  2  0     0  0
 37 32  2  0     0  0
 38 34  2  0     0  0
 39 36  1  0     0  0
 11 23  1  0     0  0
 35 39  2  0     0  0
 37 38  1  0     0  0
M  END