
          11280714442D 1   1.00000     0.00000     0

 28 29  0     0  0            999 V2000
    9.9667   -1.7500    0.0000 C   0  0  0  0  0  0           0  0  0
    3.3542   -0.4167    0.0000 C   0  0  0  0  0  0           0  0  0
   10.3792   -2.4625    0.0000 N   0  0  3  0  0  0           0  0  0
    4.1750   -0.4042    0.0000 C   0  0  0  0  0  0           0  0  0
    9.1417   -1.7500    0.0000 N   0  0  0  0  0  0           0  0  0
    4.6042   -1.1042    0.0000 O   0  0  0  0  0  0           0  0  0
    2.9250    0.2833    0.0000 C   0  0  0  0  0  0           0  0  0
   10.3792   -1.0292    0.0000 O   0  0  0  0  0  0           0  0  0
    4.5750    0.3208    0.0000 O   0  0  0  0  0  0           0  0  0
    7.0792   -1.0542    0.0000 N   0  0  0  0  0  0           0  0  0
    7.9042   -1.0375    0.0000 C   0  0  3  0  0  0           0  0  0
   11.2000   -3.8917    0.0000 O   0  0  0  0  0  0           0  0  0
    8.7292   -1.0375    0.0000 C   0  0  0  0  0  0           0  0  0
    5.8542   -1.7917    0.0000 C   0  0  3  0  0  0           0  0  0
    5.4292   -1.0917    0.0000 C   0  0  0  0  0  0           0  0  0
    6.6792   -1.7792    0.0000 C   0  0  0  0  0  0           0  0  0
    3.3250    1.0083    0.0000 F   0  0  0  0  0  0           0  0  0
    2.9542   -1.1417    0.0000 C   0  0  0  0  0  0           0  0  0
    9.9625   -3.1750    0.0000 C   0  0  0  0  0  0           0  0  0
   11.2042   -2.4542    0.0000 C   0  0  0  0  0  0           0  0  0
    5.4625   -2.5167    0.0000 O   0  0  0  0  0  0           0  0  0
   11.6125   -3.1750    0.0000 C   0  0  0  0  0  0           0  0  0
   10.3750   -3.8875    0.0000 C   0  0  0  0  0  0           0  0  0
    2.1000    0.2708    0.0000 C   0  0  0  0  0  0           0  0  0
    8.3292   -1.7417    0.0000 C   0  0  0  0  0  0           0  0  0
    8.3000   -0.3125    0.0000 C   0  0  0  0  0  0           0  0  0
    2.1250   -1.1625    0.0000 C   0  0  0  0  0  0           0  0  0
    1.7000   -0.4542    0.0000 C   0  0  0  0  0  0           0  0  0
  2  4  1  0     0  0
  3  1  1  0     0  0
  4  6  1  0     0  0
  5  1  1  0     0  0
  6 15  1  0     0  0
  7  2  1  0     0  0
  8  1  2  0     0  0
  9  4  2  0     0  0
 10 11  1  0     0  0
 11 13  1  0     0  0
 12 22  1  0     0  0
 13  5  1  0     0  0
 14 16  1  0     0  0
 15 14  1  0     0  0
 16 10  1  0     0  0
 17  7  1  0     0  0
 18  2  2  0     0  0
 19  3  1  0     0  0
 20  3  1  0     0  0
 21 14  1  0     0  0
 22 20  1  0     0  0
 23 19  1  0     0  0
 24  7  2  0     0  0
 25 11  1  0     0  0
 26 11  1  0     0  0
 27 18  1  0     0  0
 28 27  2  0     0  0
 12 23  1  0     0  0
 28 24  1  0     0  0
M  END