
  SciTegic06051313522D

 30 34  0  0  0  0            999 V2000
   11.5466  -25.1472    0.0000 C   0  0
   11.5454  -25.9667    0.0000 C   0  0
   12.2535  -26.3757    0.0000 C   0  0
   12.2517  -24.7383    0.0000 C   0  0
   12.9603  -25.1436    0.0000 C   0  0
   12.9611  -25.9626    0.0000 C   0  0
   13.6696  -26.3696    0.0000 C   0  0
   14.3779  -25.9588    0.0000 C   0  0
   14.3731  -25.1367    0.0000 C   0  0
   13.6640  -24.7333    0.0000 C   0  0
   12.4655  -23.9421    0.0000 C   0  0
   13.4465  -23.9379    0.0000 C   0  0
   13.7458  -23.0036    0.0000 C   0  0
   12.9496  -22.4303    0.0000 C   0  0
   12.1585  -23.0104    0.0000 N   0  0
   12.9454  -21.4492    0.0000 O   0  0
   14.6775  -22.6966    0.0000 N   0  0
   15.4093  -23.3500    0.0000 C   0  0
   16.3410  -23.0429    0.0000 C   0  0
   17.0728  -23.6963    0.0000 C   0  0
   18.0046  -23.3892    0.0000 C   0  0
   13.6713  -27.1868    0.0000 S   0  0
   14.3798  -27.5940    0.0000 C   0  0
   14.3782  -28.4088    0.0000 C   0  0
   15.0859  -28.8158    0.0000 C   0  0
   15.7938  -28.4057    0.0000 C   0  0
   15.7894  -27.5843    0.0000 C   0  0
   15.0811  -27.1810    0.0000 C   0  0
   16.5029  -28.8119    0.0000 O   0  0
   16.5056  -29.6291    0.0000 C   0  0
  1  2  2  0
  2  3  1  0
  3  6  2  0
  5  4  2  0
  4  1  1  0
  5  6  1  0
  6  7  1  0
  7  8  2  0
  8  9  1  0
  9 10  2  0
 10  5  1  0
  4 11  1  0
 10 12  1  0
 11 12  1  0
 12 13  2  0
 13 14  1  0
 14 15  1  0
 15 11  2  0
 14 16  2  0
 13 17  1  0
 17 18  1  0
 18 19  1  0
 19 20  1  0
 20 21  1  0
  7 22  1  0
 22 23  1  0
 23 24  2  0
 24 25  1  0
 25 26  2  0
 26 27  1  0
 27 28  2  0
 28 23  1  0
 26 29  1  0
 29 30  1  0
M  END