
  SciTegic09171211542D

 36 38  0  0  0  0            999 V2000
   -2.2628   -1.4777    0.0000 C   0  0
   -1.5463   -1.0644    0.0000 C   0  0
   -1.5492   -0.2338    0.0000 C   0  0
   -2.2646    0.1753    0.0000 C   0  0
   -2.9776   -1.0648    0.0000 C   0  0
   -2.9763   -0.2359    0.0000 C   0  0
   -3.7643    0.0214    0.0000 S   0  0
   -4.2526   -0.6485    0.0000 C   0  0
   -3.7663   -1.3197    0.0000 N   0  0
   -0.8363    0.1814    0.0000 N   0  0
   -0.1203   -0.2284    0.0000 C   0  0
    0.5927    0.1867    0.0000 C   0  0
   -0.1171   -1.0534    0.0000 O   0  0
    1.3087   -0.2231    0.0000 C   0  0
    2.0216    0.1921    0.0000 N   0  0
    2.7376   -0.2177    0.0000 C   0  0
    3.4505    0.1975    0.0000 N   0  0
    2.7407   -1.0427    0.0000 O   0  0
    4.1665   -0.2123    0.0000 C   0  0
    4.8794    0.2029    0.0000 C   0  0
    5.5955   -0.2069    0.0000 O   0  0
    6.3084    0.2083    0.0000 C   0  0
    7.0239   -0.2045    0.0000 C   0  0
    7.7363    0.2100    0.0000 C   0  0
    7.7336    1.0359    0.0000 C   0  0
    7.0126    1.4455    0.0000 C   0  0
    6.3031    1.0287    0.0000 C   0  0
    8.4460    1.4520    0.0000 C   0  0
    8.4418    2.2770    0.0000 C   0  0
    9.1542    2.6902    0.0000 C   0  0
    7.7252    2.6808    0.0000 C   0  0
    9.8715    2.2810    0.0000 O   0  0
    9.1520    3.5088    0.0000 O   0  0
    7.7133    3.5022    0.0000 O   0  0
    7.0148    2.2610    0.0000 O   0  0
   -5.0776   -0.6473    0.0000 C   0  0
  7  8  1  0
 16 18  2  0
  8  9  2  0
 17 19  1  0
  9  5  1  0
 19 20  1  0
  4  6  1  0
 20 21  1  0
  3 10  1  0
 21 22  1  0
  5  6  2  0
 22 23  2  0
 10 11  1  0
 23 24  1  0
  1  2  2  0
 24 25  2  0
 11 12  1  0
 25 26  1  0
  5  1  1  0
 26 27  2  0
 27 22  1  0
 11 13  2  0
 25 28  1  0
  2  3  1  0
 28 29  1  0
 12 14  1  0
 29 30  1  0
 29 31  1  0
 14 15  1  0
  3  4  2  0
 30 32  1  0
 30 33  2  0
 15 16  1  0
  6  7  1  0
 31 34  1  0
 31 35  2  0
 16 17  1  0
  8 36  1  0
M  END