
  CDK    9/16/09,9:47

 37 39  0  0  0  0  0  0  0  0999 V2000
   14.8135  -25.7454    0.0000 C   0  0  0  0  0  0  0  0  0  0  0  0
   15.4578  -26.2651    0.0000 C   0  0  0  0  0  0  0  0  0  0  0  0
   16.1540  -25.8142    0.0000 N   0  0  0  0  0  0  0  0  0  0  0  0
   15.9374  -25.0175    0.0000 C   0  0  0  0  0  0  0  0  0  0  0  0
   15.1104  -24.9805    0.0000 C   0  0  0  0  0  0  0  0  0  0  0  0
   15.4729  -27.0897    0.0000 C   0  0  0  0  0  0  0  0  0  0  0  0
   14.7623  -27.5126    0.0000 C   0  0  0  0  0  0  0  0  0  0  0  0
   14.7700  -28.3389    0.0000 C   0  0  0  0  0  0  0  0  0  0  0  0
   15.4961  -28.7405    0.0000 C   0  0  0  0  0  0  0  0  0  0  0  0
   16.2052  -28.3100    0.0000 C   0  0  0  0  0  0  0  0  0  0  0  0
   16.1943  -27.4885    0.0000 C   0  0  0  0  0  0  0  0  0  0  0  0
   15.5061  -29.5654    0.0000 F   0  0  0  0  0  0  0  0  0  0  0  0
   16.3235  -24.2821    0.0000 C   0  0  0  0  0  0  0  0  0  0  0  0
   17.1472  -24.2480    0.0000 C   0  0  0  0  0  0  0  0  0  0  0  0
   16.9795  -25.7834    0.0000 C   0  0  0  0  0  0  0  0  0  0  0  0
   17.4155  -26.4849    0.0000 C   0  0  0  0  0  0  0  0  0  0  0  0
   18.2473  -26.4568    0.0000 C   0  0  0  0  0  0  0  0  0  0  0  0
   18.6841  -27.1550    0.0000 C   0  0  0  0  0  0  0  0  0  0  0  0
   19.5096  -27.1248    0.0000 C   0  0  0  0  0  0  0  0  0  0  0  0
   19.9456  -27.8221    0.0000 C   0  0  0  0  0  0  0  0  0  0  0  0
   20.7743  -27.7974    0.0000 C   0  0  0  0  0  0  0  0  0  0  0  0
   21.2100  -28.4922    0.0000 O   0  0  0  0  0  0  0  0  0  0  0  0
   21.1614  -27.0660    0.0000 O   0  0  0  0  0  0  0  0  0  0  0  0
   18.6283  -25.7278    0.0000 O   0  0  0  0  0  0  0  0  0  0  0  0
   19.8928  -26.3917    0.0000 O   0  0  0  0  0  0  0  0  0  0  0  0
   14.6581  -24.2903    0.0000 C   0  0  0  0  0  0  0  0  0  0  0  0
   13.8375  -24.2817    0.0000 N   0  0  0  0  0  0  0  0  0  0  0  0
   15.0278  -23.5571    0.0000 O   0  0  0  0  0  0  0  0  0  0  0  0
   13.4345  -23.5653    0.0000 C   0  0  0  0  0  0  0  0  0  0  0  0
   13.8560  -22.8616    0.0000 C   0  0  0  0  0  0  0  0  0  0  0  0
   13.4537  -22.1458    0.0000 C   0  0  0  0  0  0  0  0  0  0  0  0
   12.6310  -22.1361    0.0000 C   0  0  0  0  0  0  0  0  0  0  0  0
   12.2122  -22.8482    0.0000 C   0  0  0  0  0  0  0  0  0  0  0  0
   12.6168  -23.5612    0.0000 C   0  0  0  0  0  0  0  0  0  0  0  0
   14.0164  -25.9582    0.0000 C   0  0  0  0  0  0  0  0  0  0  0  0
   13.4336  -25.3743    0.0000 C   0  0  0  0  0  0  0  0  0  0  0  0
   13.8021  -26.7549    0.0000 C   0  0  0  0  0  0  0  0  0  0  0  0
  7  8  1  0  0  0  0 
  8  9  2  0  0  0  0 
  9 10  1  0  0  0  0 
 10 11  2  0  0  0  0 
 11  6  1  0  0  0  0 
  9 12  1  0  0  0  0 
  4 13  1  0  0  0  0 
 13 14  1  0  0  0  0 
  3 15  1  0  0  0  0 
 15 16  1  0  0  0  0 
 16 17  1  0  0  0  0 
 17 18  1  0  0  0  0 
 18 19  1  0  0  0  0 
 19 20  1  0  0  0  0 
 20 21  1  0  0  0  0 
 21 22  1  0  0  0  0 
 21 23  2  0  0  0  0 
 17 24  1  1  0  0  0 
 19 25  1  1  0  0  0 
  5 26  1  0  0  0  0 
 26 27  1  0  0  0  0 
 26 28  2  0  0  0  0 
 27 29  1  0  0  0  0 
 29 30  2  0  0  0  0 
  1  2  2  0  0  0  0 
 30 31  1  0  0  0  0 
  2  3  1  0  0  0  0 
 31 32  2  0  0  0  0 
  3  4  1  0  0  0  0 
 32 33  1  0  0  0  0 
  4  5  2  0  0  0  0 
 33 34  2  0  0  0  0 
 34 29  1  0  0  0  0 
  5  1  1  0  0  0  0 
  1 35  1  0  0  0  0 
  2  6  1  0  0  0  0 
 35 36  1  0  0  0  0 
  6  7  2  0  0  0  0 
 35 37  1  0  0  0  0 
M  END