
          11280715452D 1   1.00000     0.00000     0

 30 31  0     1  0            999 V2000
    6.4917   -3.7250    0.0000 C   0  0  0  0  0  0           0  0  0
    7.2042   -3.3125    0.0000 N   0  0  3  0  0  0           0  0  0
    5.7792   -3.3125    0.0000 C   0  0  2  0  0  0           0  0  0
    6.4875   -1.2375    0.0000 P   0  0  3  0  0  0           0  0  0
    7.9250   -3.7250    0.0000 C   0  0  2  0  0  0           0  0  0
    5.7792   -2.4792    0.0000 C   0  0  2  0  0  0           0  0  0
    5.0667   -3.7250    0.0000 N   0  0  0  0  0  0           0  0  0
    8.0042   -4.5500    0.0000 C   0  0  0  0  0  0           0  0  0
    6.4917   -2.0667    0.0000 O   0  0  0  0  0  0           0  0  0
    5.0542   -4.5542    0.0000 C   0  0  0  0  0  0           0  0  0
    6.4917   -4.5542    0.0000 O   0  0  0  0  0  0           0  0  0
    7.3167   -1.2375    0.0000 O   0  0  0  0  0  0           0  0  0
    7.3375   -5.0292    0.0000 O   0  0  0  0  0  0           0  0  0
    5.7667   -4.9750    0.0000 O   0  0  0  0  0  0           0  0  0
    5.6667   -1.2417    0.0000 O   0  0  0  0  0  0           0  0  0
    6.4917   -0.4167    0.0000 O   0  0  0  0  0  0           0  0  0
    8.7667   -4.8917    0.0000 N   0  0  0  0  0  0           0  0  0
    7.3792   -2.5042    0.0000 C   0  0  0  0  0  0           0  0  0
    8.5417   -3.1667    0.0000 C   0  0  0  0  0  0           0  0  0
    5.0625   -2.0667    0.0000 C   0  0  0  0  0  0           0  0  0
    2.1917   -4.5292    0.0000 C   0  0  0  0  0  0           0  0  0
    4.3417   -4.9625    0.0000 C   0  0  0  0  0  0           0  0  0
    8.2000   -2.4167    0.0000 C   0  0  0  0  0  0           0  0  0
    3.6292   -4.5417    0.0000 C   0  0  0  0  0  0           0  0  0
    2.9125   -4.9542    0.0000 C   0  0  0  0  0  0           0  0  0
    2.2042   -3.7125    0.0000 C   0  0  0  0  0  0           0  0  0
    1.4875   -4.9417    0.0000 C   0  0  0  0  0  0           0  0  0
    1.5042   -3.2917    0.0000 C   0  0  0  0  0  0           0  0  0
    0.7750   -4.5250    0.0000 C   0  0  0  0  0  0           0  0  0
    0.7792   -3.7000    0.0000 C   0  0  0  0  0  0           0  0  0
  2  1  1  0     0  0
  3  1  1  1     0  0
  4  9  1  0     0  0
  5  2  1  0     0  0
  6  3  1  0     0  0
  7  3  1  0     0  0
  5  8  1  1     0  0
  6  9  1  1     0  0
 10  7  1  0     0  0
 11  1  2  0     0  0
 12  4  2  0     0  0
 13  8  2  0     0  0
 14 10  2  0     0  0
 15  4  1  0     0  0
 16  4  1  0     0  0
 17  8  1  0     0  0
 18  2  1  0     0  0
 19  5  1  0     0  0
 20  6  1  0     0  0
 21 25  1  0     0  0
 22 10  1  0     0  0
 23 18  1  0     0  0
 24 22  1  0     0  0
 25 24  1  0     0  0
 26 21  2  0     0  0
 27 21  1  0     0  0
 28 26  1  0     0  0
 29 27  2  0     0  0
 30 29  1  0     0  0
 23 19  1  0     0  0
 30 28  2  0     0  0
M  END