
          11280715362D 1   1.00000     0.00000     0

 33 35  0     0  0            999 V2000
    9.5917   -3.6042    0.0000 S   0  0  3  0  0  0           0  0  0
    5.3042   -5.2750    0.0000 C   0  0  0  0  0  0           0  0  0
    5.3042   -4.4417    0.0000 C   0  0  0  0  0  0           0  0  0
    9.5917   -2.7792    0.0000 O   0  0  0  0  0  0           0  0  0
    9.5917   -4.4292    0.0000 O   0  0  0  0  0  0           0  0  0
   10.4167   -3.6042    0.0000 C   0  0  0  0  0  0           0  0  0
    8.8792   -3.1917    0.0000 N   0  0  0  0  0  0           0  0  0
    8.8792   -5.6875    0.0000 C   0  0  0  0  0  0           0  0  0
    6.0250   -4.0375    0.0000 C   0  0  0  0  0  0           0  0  0
    4.5917   -5.6875    0.0000 C   0  0  0  0  0  0           0  0  0
    6.0250   -5.6875    0.0000 C   0  0  0  0  0  0           0  0  0
    3.8875   -6.9167    0.0000 N   0  0  0  0  0  0           0  0  0
    8.8792   -6.5125    0.0000 O   0  0  0  0  0  0           0  0  0
    9.5917   -5.2750    0.0000 O   0  0  0  0  0  0           0  0  0
    6.0250   -3.2042    0.0000 C   0  0  0  0  0  0           0  0  0
    4.6000   -6.5042    0.0000 C   0  0  0  0  0  0           0  0  0
    4.5917   -4.0375    0.0000 C   0  0  0  0  0  0           0  0  0
    4.5917   -3.2125    0.0000 C   0  0  0  0  0  0           0  0  0
    8.1667   -5.2750    0.0000 C   0  0  0  0  0  0           0  0  0
    3.1667   -6.5042    0.0000 C   0  0  0  0  0  0           0  0  0
    6.7375   -5.2750    0.0000 C   0  0  0  0  0  0           0  0  0
   10.8292   -4.3167    0.0000 C   0  0  0  0  0  0           0  0  0
   10.8292   -2.8917    0.0000 C   0  0  0  0  0  0           0  0  0
    8.1667   -2.7875    0.0000 C   0  0  0  0  0  0           0  0  0
    3.8792   -5.2667    0.0000 C   0  0  0  0  0  0           0  0  0
    5.3042   -2.7917    0.0000 C   0  0  0  0  0  0           0  0  0
    6.7375   -2.7917    0.0000 C   0  0  0  0  0  0           0  0  0
    7.4542   -5.6875    0.0000 C   0  0  0  0  0  0           0  0  0
    7.4542   -3.2000    0.0000 C   0  0  0  0  0  0           0  0  0
    3.1667   -5.6792    0.0000 C   0  0  0  0  0  0           0  0  0
   11.6542   -4.3167    0.0000 C   0  0  0  0  0  0           0  0  0
   11.6500   -2.8875    0.0000 C   0  0  0  0  0  0           0  0  0
   12.0667   -3.6000    0.0000 C   0  0  0  0  0  0           0  0  0
  2  3  1  0     0  0
  3  9  2  0     0  0
  4  1  2  0     0  0
  5  1  2  0     0  0
  6  1  1  0     0  0
  7  1  1  0     0  0
  8 19  1  0     0  0
  9 15  1  0     0  0
 10  2  1  0     0  0
 11  2  2  0     0  0
 12 16  2  0     0  0
 13  8  2  0     0  0
 14  8  1  0     0  0
 15 27  1  0     0  0
 16 10  1  0     0  0
 17 18  2  0     0  0
 18 26  1  0     0  0
 19 28  1  0     0  0
 20 30  2  0     0  0
 11 21  1  0     0  0
 22  6  2  0     0  0
 23  6  1  0     0  0
 24  7  1  0     0  0
 25 10  2  0     0  0
 26 15  2  0     0  0
 27 29  1  0     0  0
 28 21  1  0     0  0
 29 24  1  0     0  0
 30 25  1  0     0  0
 31 22  1  0     0  0
 32 23  2  0     0  0
 33 32  1  0     0  0
 33 31  2  0     0  0
  3 17  1  0     0  0
 20 12  1  0     0  0
M  END