
  SciTegic02181312462D

 39 42  0  0  0  0            999 V2000
   23.9441  -18.9809    0.0000 C   0  0
   23.5354  -18.2719    0.0000 C   0  0
   23.1221  -18.9783    0.0000 C   0  0
   22.8263  -17.0416    0.0000 C   0  0
   22.8263  -17.8632    0.0000 C   0  0
   23.5391  -16.6287    0.0000 C   0  0
   24.2518  -17.0416    0.0000 C   0  0  1  0  0  0
   24.2528  -17.8632    0.0000 C   0  0  1  0  0  0
   24.9645  -18.2730    0.0000 C   0  0
   25.6798  -17.8614    0.0000 C   0  0  1  0  0  0
   24.9625  -16.6296    0.0000 C   0  0
   25.6807  -17.0404    0.0000 C   0  0
   25.6795  -15.3927    0.0000 C   0  0
   24.9587  -15.8025    0.0000 C   0  0
   26.3977  -15.8035    0.0000 C   0  0  1  0  0  0
   26.3945  -16.6338    0.0000 C   0  0  1  0  0  0
   27.1833  -16.8891    0.0000 C   0  0
   27.6739  -16.2234    0.0000 C   0  0
   27.1883  -15.5541    0.0000 C   0  0  2  0  0  0
   27.4464  -14.7697    0.0000 C   0  0  1  0  0  0
   28.2548  -14.6011    0.0000 C   0  0
   26.8962  -14.1581    0.0000 C   0  0
   28.8051  -15.2168    0.0000 C   0  0
   29.6135  -15.0481    0.0000 C   0  0
   30.1637  -15.6597    0.0000 C   0  0
   30.9722  -15.4952    0.0000 C   0  0
   29.9057  -16.4441    0.0000 C   0  0
   31.5224  -16.1068    0.0000 O   0  0
   22.1118  -18.2771    0.0000 O   0  0
   24.2444  -16.2199    0.0000 C   0  0
   26.3923  -14.9812    0.0000 C   0  0
   26.3882  -17.4545    0.0000 C   0  0
   24.2611  -18.4137    0.0000 H   0  0
   27.4354  -17.6755    0.0000 O   0  0
   26.3944  -18.2752    0.0000 O   0  0
   24.2431  -15.3945    0.0000 O   0  0
   28.5470  -15.9970    0.0000 O   0  0
   31.2303  -14.7108    0.0000 O   0  0
   26.7677  -16.2658    0.0000 H   0  0
  2  1  1  0
  3  2  1  0
  4  5  1  0
  4  6  1  0
  5  2  1  0
  2  8  1  0
  7  6  1  0
  7  8  1  0
  7 11  1  0
  8  9  1  0
  9 10  1  0
 10 12  1  0
 11 12  2  0
 11 14  1  0
 12 16  1  0
 15 13  1  0
 13 14  1  0
 15 16  1  0
 16 17  1  0
 17 18  1  0
 18 19  1  0
 19 15  1  0
 19 20  1  0
 20 21  1  0
 20 22  1  6
 21 23  1  0
 23 24  1  0
 24 25  1  0
 25 26  1  0
 25 27  1  0
 26 28  1  0
  5 29  2  0
  7 30  1  1
 15 31  1  1
 16 32  1  6
  8 33  1  6
 17 34  2  0
 10 35  1  1
 14 36  2  0
 23 37  2  0
 26 38  2  0
 19 39  1  6
M  END