
  SciTegic01161211242D

 20 22  0  0  0  0            999 V2000
    8.9481    0.5519    0.0000 C   0  0
    8.9469   -0.2720    0.0000 C   0  0
    9.6587   -0.6831    0.0000 C   0  0
    9.6569    0.9629    0.0000 C   0  0
   10.3693    0.5554    0.0000 C   0  0
   10.3727   -0.2740    0.0000 C   0  0
   11.0888   -0.6836    0.0000 C   0  0
   11.8062   -0.2682    0.0000 C   0  0
   11.0821    0.9755    0.0000 C   0  0  2  0  0  0
   11.8033    0.5594    0.0000 C   0  0  1  0  0  0
   12.4219    1.1168    0.0000 N   0  0
   12.0829    1.8774    0.0000 C   0  0
   11.2549    1.7900    0.0000 C   0  0
   13.2440    1.1232    0.0000 C   0  0
   13.6500    1.8375    0.0000 C   0  0
   14.4715    1.8431    0.0000 C   0  0
   10.3643    1.3899    0.0000 H   0  0
   12.5923    0.3485    0.0000 H   0  0
    9.6573   -1.5046    0.0000 O   0  0
    8.9451   -1.9142    0.0000 C   0  0
  5  4  2  0
  4  1  1  0
  5  6  1  0
  2  3  1  0
 10 11  1  0
 11 12  1  0
 12 13  1  0
 13  9  1  0
  3  6  2  0
 11 14  1  0
  1  2  2  0
 14 15  1  0
  5  9  1  0
 15 16  2  0
  6  7  1  0
  9 17  1  6
  7  8  1  0
 10 18  1  6
  8 10  1  0
  3 19  1  0
  9 10  1  0
 19 20  1  0
M  END