
          11280715452D 1   1.00000     0.00000     0

 35 39  0     1  0            999 V2000
   -0.3083    0.2208    0.0000 N   0  0  3  0  0  0           0  0  0
   -0.9125   -0.2292    0.0000 C   0  0  0  0  0  0           0  0  0
   -0.5458    0.9583    0.0000 C   0  0  0  0  0  0           0  0  0
    0.0667    1.4208    0.0000 N   0  0  3  0  0  0           0  0  0
   -0.9125   -1.0125    0.0000 S   0  0  3  0  0  0           0  0  0
    0.6750    0.9625    0.0000 C   0  0  0  0  0  0           0  0  0
    0.4417    0.2208    0.0000 C   0  0  1  0  0  0           0  0  0
   -1.2833    0.9708    0.0000 N   0  0  0  0  0  0           0  0  0
   -1.5125    0.2208    0.0000 C   0  0  0  0  0  0           0  0  0
    0.0667    2.2083    0.0000 C   0  0  0  0  0  0           0  0  0
   -0.9125   -1.7917    0.0000 N   0  0  3  0  0  0           0  0  0
   -1.6625   -1.0042    0.0000 O   0  0  0  0  0  0           0  0  0
   -0.1750   -1.0167    0.0000 O   0  0  0  0  0  0           0  0  0
   -0.5750    2.5875    0.0000 C   0  0  0  0  0  0           0  0  0
    0.7167    2.5958    0.0000 C   0  0  0  0  0  0           0  0  0
    1.1542    0.0208    0.0000 C   0  0  0  0  0  0           0  0  0
    1.3875    1.2083    0.0000 O   0  0  0  0  0  0           0  0  0
   -0.5750    3.3583    0.0000 C   0  0  0  0  0  0           0  0  0
    0.7167    3.3583    0.0000 C   0  0  0  0  0  0           0  0  0
    0.0667    3.7583    0.0000 C   0  0  0  0  0  0           0  0  0
   -0.9250   -3.3417    0.0000 O   0  0  0  0  0  0           0  0  0
   -1.5958   -2.1792    0.0000 C   0  0  0  0  0  0           0  0  0
   -0.2458   -2.1792    0.0000 C   0  0  0  0  0  0           0  0  0
    0.4375   -0.5542    0.0000 C   0  0  0  0  0  0           0  0  0
    1.1542   -0.7542    0.0000 C   0  0  0  0  0  0           0  0  0
    1.1417   -2.3042    0.0000 C   0  0  0  0  0  0           0  0  0
   -1.2250    3.7500    0.0000 Cl  0  0  0  0  0  0           0  0  0
    1.3542    3.7583    0.0000 Cl  0  0  0  0  0  0           0  0  0
    1.1375   -3.0875    0.0000 Br  0  0  0  0  0  0           0  0  0
    1.7917   -1.1417    0.0000 C   0  0  0  0  0  0           0  0  0
    0.5000   -1.1375    0.0000 C   0  0  0  0  0  0           0  0  0
    1.7917   -1.9167    0.0000 C   0  0  0  0  0  0           0  0  0
    0.5000   -1.9167    0.0000 C   0  0  0  0  0  0           0  0  0
   -1.6000   -2.9500    0.0000 C   0  0  0  0  0  0           0  0  0
   -0.2500   -2.9625    0.0000 C   0  0  0  0  0  0           0  0  0
  2  1  1  0     0  0
  3  1  1  0     0  0
  4  3  1  0     0  0
  5  2  1  0     0  0
  6  7  1  0     0  0
  7  1  1  0     0  0
  8  3  2  0     0  0
  9  2  2  0     0  0
 10  4  1  0     0  0
 11  5  1  0     0  0
 12  5  2  0     0  0
 13  5  2  0     0  0
 14 10  1  0     0  0
 15 10  2  0     0  0
  7 16  1  1     0  0
 17  6  2  0     0  0
 18 14  2  0     0  0
 19 15  1  0     0  0
 20 19  2  0     0  0
 21 35  1  0     0  0
 22 11  1  0     0  0
 23 11  1  0     0  0
  7 24  1  6     0  0
 25 16  1  0     0  0
 26 33  2  0     0  0
 27 18  1  0     0  0
 28 19  1  0     0  0
 29 26  1  0     0  0
 30 25  1  0     0  0
 31 25  2  0     0  0
 32 30  2  0     0  0
 33 31  1  0     0  0
 34 22  1  0     0  0
 35 23  1  0     0  0
  4  6  1  0     0  0
  8  9  1  0     0  0
 32 26  1  0     0  0
 34 21  1  0     0  0
 18 20  1  0     0  0
M  END