
  SciTegic09261414532D

114110  0  0  0  0            999 V2000
   17.6968   -8.9863    0.0000 O   0  0
   10.8793  -14.7453    0.0000 O   0  0
   17.0791   -4.4385    0.0000 C   0  0
   17.0031   -7.7385    0.0000 C   0  0  2  0  0  0
    6.6940  -16.8420    0.0000 C   0  0  2  0  0  0
   14.8402   -9.8255    0.0000 H   0  0
   13.6576  -15.4473    0.0000 O   0  0
   10.1803  -15.1834    0.0000 C   0  0  1  0  0  0
    8.0008  -14.0183    0.0000 O   0  0
   15.6381  -13.3940    0.0000 O   0  0
    6.2957  -15.2388    0.0000 C   0  0  1  0  0  0
   16.2431  -11.2779    0.0000 O   0  0
    9.4520  -14.7975    0.0000 O   0  0
   14.6482  -11.4522    0.0000 C   0  0  2  0  0  0
    9.5365  -17.2700    0.0000 O   0  0
   19.1886   -5.7207    0.0000 S   0  0
    7.0851  -15.4659    0.0000 O   0  0
    8.4874  -17.6697    0.0000 O   0  0
   14.2513  -13.0481    0.0000 C   0  0  2  0  0  0
   14.4504  -15.2194    0.0000 S   0  0
    5.3053  -14.2088    0.0000 O   0  5
   14.1296   -9.4146    0.0000 O   0  0
   15.6887  -11.2279    0.0000 O   0  0
   17.3959  -12.3784    0.0000 O   0  5
   17.7114   -8.1615    0.0000 C   0  0  2  0  0  0
   12.6702  -13.4992    0.0000 O   0  0
    6.0979  -14.4380    0.0000 C   0  0
   16.9889   -9.4094    0.0000 C   0  0  2  0  0  0
   11.8806  -13.7214    0.0000 C   0  0  1  0  0  0
   13.8578  -11.6761    0.0000 O   0  0
   19.1716   -6.5454    0.0000 N   0  0
    5.3047  -17.1836    0.0000 O   0  0
   13.2573  -14.0746    0.0000 C   0  0  2  0  0  0
   18.8315   -9.5101    0.0000 O   0  0
   10.4618  -16.7904    0.0000 N   0  0
   12.8658  -12.6995    0.0000 C   0  0
   19.1372  -10.6361    0.0000 O   0  5
   15.0231  -14.6256    0.0000 O   0  0
   10.4535  -13.7940    0.0000 O   0  0
   18.3638   -5.7037    0.0000 O   0  0
   15.6869   -2.7573    0.0000 C   0  0
   12.2669  -15.0981    0.0000 C   0  0  1  0  0  0
   14.8432  -13.6155    0.0000 H   0  0
   16.9906   -8.5628    0.0000 H   0  0
   13.0637  -14.8746    0.0000 C   0  0  1  0  0  0
   14.8428   -9.0001    0.0000 C   0  0
   19.1406   -8.1899    0.0000 O   0  0
   15.0452  -12.8204    0.0000 C   0  0  1  0  0  0
   18.0066   -9.5128    0.0000 O   0  0
    9.5095  -16.4454    0.0000 C   0  0  1  0  0  0
    5.8991  -16.6116    0.0000 C   0  0  1  0  0  0
   11.1461  -13.3458    0.0000 C   0  0
   18.7909   -4.9978    0.0000 O   0  0
   11.0763  -13.9465    0.0000 H   0  0
   16.6720  -11.9826    0.0000 S   0  0
   11.4437  -16.1604    0.0000 O   0  0
   18.4214  -10.2259    0.0000 S   0  0
   11.1042  -12.5219    0.0000 O   0  5
    4.9074  -15.5810    0.0000 O   0  0
   17.0679  -11.2588    0.0000 O   0  0
   12.0635  -15.8977    0.0000 O   0  0
   16.2681   -8.9970    0.0000 O   0  0
   12.0538  -16.7158    0.0000 O   0  0
   11.6749  -14.5222    0.0000 C   0  0  2  0  0  0
   17.0609   -5.2632    0.0000 C   0  0
   17.7083  -10.6407    0.0000 O   0  0
    7.9141  -17.0764    0.0000 O   0  0
    7.2866  -16.2657    0.0000 C   0  0  1  0  0  0
    5.6999  -15.8100    0.0000 C   0  0  2  0  0  0
   14.0506  -13.8482    0.0000 O   0  0
   19.9114   -5.3230    0.0000 O   0  5
   17.7661   -5.6914    0.0000 O   0  0
    6.6926  -13.8662    0.0000 O   0  0
   15.5746   -7.7090    0.0000 O   0  0
    7.8869  -18.6700    0.0000 O   0  5
    8.8165  -16.8769    0.0000 H   0  0
   16.2767  -10.6460    0.0000 C   0  0  2  0  0  0
   11.5184  -17.7524    0.0000 O   0  5
   16.3921   -3.1855    0.0000 C   0  0
   17.0250   -6.9138    0.0000 O   0  0
   16.9924  -10.2306    0.0000 C   0  0  2  0  0  0
   15.5585   -9.4106    0.0000 C   0  0  2  0  0  0
    6.8939  -17.6424    0.0000 O   0  0
    7.6870  -17.8695    0.0000 S   0  0
   14.8458  -10.6512    0.0000 O   0  0
    8.7806  -16.0569    0.0000 C   0  0  2  0  0  0
   15.9674  -12.4116    0.0000 N   0  0
   15.0442  -15.7921    0.0000 O   0  5
   18.4488   -6.9431    0.0000 C   0  0  2  0  0  0
   15.7052   -1.9325    0.0000 N   0  0
   10.2127  -16.0091    0.0000 C   0  0  2  0  0  0
   18.4343   -7.7638    0.0000 C   0  0  2  0  0  0
   14.2226  -14.4265    0.0000 O   0  0
   15.2471  -12.0177    0.0000 C   0  0  1  0  0  0
   16.2803   -8.1362    0.0000 C   0  0
   17.7478   -6.5162    0.0000 C   0  0  1  0  0  0
    8.0800  -16.4919    0.0000 O   0  0
    8.0276  -14.8429    0.0000 C   0  0
    8.7551  -15.2320    0.0000 C   0  0  1  0  0  0
   15.5596  -10.2360    0.0000 C   0  0  1  0  0  0
   16.3739   -4.0103    0.0000 C   0  0
   13.6592  -12.4731    0.0000 C   0  0  2  0  0  0
   14.8405   -8.1751    0.0000 O   0  5
   11.2678  -16.9664    0.0000 S   0  0
   12.2732  -12.1255    0.0000 O   0  0
    9.6096  -11.7904    0.0000 Na  0  3
   21.0135  -10.1987    0.0000 Na  0  3
   21.3261   -5.5447    0.0000 Na  0  3
   18.5761  -13.4778    0.0000 Na  0  3
   16.3929  -17.2528    0.0000 Na  0  3
   12.8638  -18.9110    0.0000 Na  0  3
    8.9889  -19.9401    0.0000 Na  0  3
    5.7722  -13.3528    0.0000 Na  0  3
   12.8638   -8.2904    0.0000 Na  0  3
 41 90  1  0
 63104  2  0
 53 16  2  0
 57 37  1  0
 48 94  1  0
 94 87  1  6
 69 51  1  0
 99 86  1  0
 68 97  1  1
 60 55  2  0
 26 29  1  0
 51  5  1  0
 42 61  1  1
 11 27  1  6
 13 99  1  0
 82 46  1  6
100 77  1  0
 89 96  1  0
 50 91  1  0
 33 70  1  1
 33 45  1  0
 68 17  1  0
 52 58  1  0
 14 30  1  0
 33 26  1  0
 92 47  1  1
 82100  1  0
  5 83  1  6
 46103  1  0
 19 70  1  0
 29 52  1  6
 52 39  2  0
 86 76  1  1
  3101  1  0
 25 44  1  1
 28  1  1  1
 17 11  1  0
 28 81  1  0
 34 57  2  0
 84 67  2  0
 77 81  1  0
 51 32  1  1
100 85  1  0
  8  2  1  6
104 56  2  0
 98  9  1  0
 25 92  1  0
 29 64  1  0
 45  7  1  6
 96 80  1  0
 86 97  1  0
 16 71  1  0
 77 23  1  1
 89 31  1  6
 20 88  1  0
 38 20  2  0
 64 54  1  1
 99 98  1  1
 42 45  1  0
 31 16  1  0
 57 49  2  0
  4 95  1  1
 86 50  1  0
 81 66  1  6
 95 74  1  0
101 79  1  0
 92 89  1  0
 66 57  1  0
 16 40  2  0
 35104  1  0
 64  2  1  0
 28 62  1  0
 25  4  1  0
 62 82  1  0
 64 42  1  0
 65  3  1  0
 27 73  2  0
 20 93  2  0
102 36  1  1
 91 35  1  6
 18 84  2  0
 11 69  1  0
 96 72  1  6
 14 85  1  6
 30102  1  0
 55 24  1  0
 19 43  1  1
 79 41  1  0
100  6  1  1
 50 15  1  1
 68  5  1  0
 72 65  1  0
102 19  1  0
 83 84  1  0
 14 94  1  0
 25  1  1  0
 69 59  1  6
  8 91  1  0
 48 10  1  1
 36105  1  0
 55 12  2  0
 19 48  1  0
  7 20  1  0
 46 22  2  0
 84 75  1  0
104 78  1  0
 27 21  1  0
 87 55  1  0
  8 13  1  0
 80  4  1  0
M  CHG  8  21  -1  24  -1  37  -1  58  -1  71  -1  75  -1  78  -1  88  -1
M  CHG  8 103  -1 106   1 107   1 108   1 109   1 110   1 111   1 112   1
M  CHG  2 113   1 114   1
M  END