
  SciTegic01161211262D

 79 89  0  0  0  0            999 V2000
    7.3815  -23.6720    0.0000 C   0  0
    7.3815  -22.0252    0.0000 O   0  0
    8.0921  -22.4410    0.0000 C   0  0  2  0  0  0
    8.0886  -23.2644    0.0000 C   0  0  2  0  0  0
    8.7960  -23.6769    0.0000 O   0  0
    8.8030  -22.0300    0.0000 C   0  0
   10.0984  -21.8667    0.0000 O   0  0
    9.5151  -22.4471    0.0000 C   0  0  1  0  0  0
    9.5129  -23.2739    0.0000 C   0  0  2  0  0  0
   10.0931  -23.8572    0.0000 C   0  0
   10.9200  -23.8592    0.0000 C   0  0
   11.5033  -23.2791    0.0000 C   0  0
    6.6728  -22.4402    0.0000 C   0  0  1  0  0  0
    6.6707  -23.2644    0.0000 C   0  0  1  0  0  0
    6.0222  -23.7825    0.0000 O   0  0
    6.0239  -21.9225    0.0000 C   0  0
    5.2155  -22.1079    0.0000 C   0  0
   10.9238  -21.8676    0.0000 C   0  0  2  0  0  0
   11.5054  -22.4521    0.0000 C   0  0  2  0  0  0
   12.2981  -22.2419    0.0000 O   0  0
   11.1349  -21.0727    0.0000 C   0  0
   11.9341  -20.8624    0.0000 C   0  0  2  0  0  0
   12.5142  -21.4484    0.0000 C   0  0  2  0  0  0
   13.3073  -21.2401    0.0000 C   0  0
   12.1470  -20.0682    0.0000 O   0  0
   12.9466  -19.8599    0.0000 C   0  0  2  0  0  0
   13.5241  -20.4467    0.0000 C   0  0  2  0  0  0
   14.3167  -20.2411    0.0000 O   0  0
   14.5381  -19.4488    0.0000 C   0  0  1  0  0  0
   13.9606  -18.8620    0.0000 C   0  0
   13.1616  -19.0675    0.0000 C   0  0  2  0  0  0
    4.8584  -22.8563    0.0000 C   0  0  1  0  0  0
    5.2185  -23.6033    0.0000 C   0  0  1  0  0  0
    4.8588  -24.3570    0.0000 C   0  0  1  0  0  0
    4.0439  -22.6726    0.0000 O   0  0
    4.0493  -24.5480    0.0000 C   0  0
    3.3988  -24.0295    0.0000 C   0  0  1  0  0  0
    3.3932  -23.1971    0.0000 C   0  0  1  0  0  0
    2.6737  -22.7881    0.0000 C   0  0
    2.6848  -24.4527    0.0000 O   0  0
    1.9606  -24.0391    0.0000 C   0  0  1  0  0  0
    1.9509  -23.2075    0.0000 C   0  0  1  0  0  0
    1.2299  -22.8024    0.0000 O   0  0
    1.2493  -24.4656    0.0000 C   0  0
    0.5236  -24.0559    0.0000 C   0  0  1  0  0  0
    0.5120  -23.2260    0.0000 C   0  0  1  0  0  0
   -0.2086  -22.8232    0.0000 C   0  0
   -0.9222  -23.2461    0.0000 C   0  0
   -0.9105  -24.0760    0.0000 C   0  0
   -0.1853  -24.4832    0.0000 O   0  0
   -1.6181  -24.4970    0.0000 O   0  0
   -0.2190  -21.9999    0.0000 C   0  0
    0.5073  -22.3994    0.0000 H   0  0
    0.5157  -24.8781    0.0000 H   0  0
    1.9546  -24.8614    0.0000 H   0  0
    1.9463  -22.3828    0.0000 C   0  0
    3.3853  -22.3703    0.0000 H   0  0
    3.3936  -24.8489    0.0000 H   0  0
    5.3758  -24.9979    0.0000 C   0  0
    4.6412  -22.0542    0.0000 H   0  0
    5.6227  -24.3124    0.0000 H   0  0
    6.6666  -21.6134    0.0000 C   0  0
    6.6666  -24.0879    0.0000 H   0  0
    8.0848  -21.6175    0.0000 C   0  0
    9.5071  -21.6217    0.0000 H   0  0
    8.0806  -24.0838    0.0000 H   0  0
    9.5071  -24.0962    0.0000 H   0  0
   10.5052  -21.1518    0.0000 H   0  0
   12.0855  -23.0316    0.0000 H   0  0
   13.0961  -22.0292    0.0000 H   0  0
   11.3453  -20.2743    0.0000 H   0  0
   12.3600  -19.2719    0.0000 C   0  0
   14.1026  -21.0270    0.0000 H   0  0
   12.5832  -18.4814    0.0000 O   0  0
   15.3355  -19.2431    0.0000 C   0  0
   15.5560  -18.4497    0.0000 C   0  0
   16.3534  -18.2440    0.0000 C   0  0
   14.9791  -17.8620    0.0000 C   0  0
   16.9302  -18.8317    0.0000 O   0  0
 35 38  1  0
 36 37  1  0
 37 38  1  0
 15 33  1  0
  3  2  1  0
 16 17  1  0
 17 32  1  0
 37 40  1  0
 38 39  1  0
 39 42  1  0
 41 40  1  0
 41 42  1  0
 18 19  1  0
  3  4  1  0
 13  2  1  0
 41 44  1  0
 42 43  1  0
 43 46  1  0
 45 44  1  0
 45 46  1  0
 14  1  1  0
 18 21  1  0
 19 20  1  0
 20 23  1  0
 22 21  1  0
 22 23  1  0
 45 50  1  0
 46 47  1  0
 47 48  2  0
 48 49  1  0
 49 50  1  0
  1  4  1  0
 49 51  2  0
  7 18  1  0
 47 52  1  0
  7  8  1  0
 46 53  1  6
  8  9  1  0
 45 54  1  1
 22 25  1  0
 41 55  1  1
 23 24  1  0
 42 56  1  6
 24 27  1  0
 38 57  1  6
 26 25  1  0
 37 58  1  1
 26 27  1  0
 34 59  1  6
  9 10  1  0
 32 60  1  6
 10 11  1  0
 33 61  1  1
 11 12  2  0
 13 62  1  6
 12 19  1  0
 14 63  1  1
  3  6  1  0
  3 64  1  6
  4  5  1  0
  8 65  1  6
 26 31  1  0
  4 66  1  1
 27 28  1  0
  9 67  1  1
 28 29  1  0
 18 68  1  6
 29 30  1  0
 19 69  1  1
 30 31  1  0
 23 70  1  1
 13 14  1  0
 22 71  1  6
  5  9  1  0
 26 72  1  6
 32 33  1  0
 27 73  1  1
 14 15  1  0
 31 74  1  1
 33 34  1  0
 29 75  1  1
  8  6  1  0
 75 76  1  0
 32 35  1  0
 76 77  1  0
 13 16  1  0
 76 78  2  0
 34 36  1  0
 77 79  2  0
M  END