
          11280715232D 1   1.00000     0.00000     0

 58 62  0     1  0            999 V2000
    5.1000   -6.2625    0.0000 N   0  0  0  0  0  0           0  0  0
    1.9250   -3.5000    0.0000 N   0  0  0  0  0  0           0  0  0
    6.8125   -4.5917    0.0000 N   0  0  0  0  0  0           0  0  0
    2.7625   -5.7375    0.0000 N   0  0  0  0  0  0           0  0  0
    6.4375   -5.3292    0.0000 C   0  0  0  0  0  0           0  0  0
    2.2417   -5.1000    0.0000 C   0  0  0  0  0  0           0  0  0
    2.1750   -2.7042    0.0000 C   0  0  0  0  0  0           0  0  0
    7.1417   -6.5167    0.0000 C   0  0  0  0  0  0           0  0  0
    4.2792   -6.3500    0.0000 C   0  0  0  0  0  0           0  0  0
    3.3417   -1.5667    0.0000 N   0  0  0  0  0  0           0  0  0
    5.8417   -5.9042    0.0000 C   0  0  2  0  0  0           0  0  0
    1.9500   -4.3167    0.0000 C   0  0  2  0  0  0           0  0  0
    2.6667   -2.0417    0.0000 C   0  0  2  0  0  0           0  0  0
    6.9250   -3.7750    0.0000 C   0  0  1  0  0  0           0  0  0
    8.4417   -6.8250    0.0000 N   0  0  0  0  0  0           0  0  0
    6.7667   -2.9625    0.0000 C   0  0  0  0  0  0           0  0  0
    7.6792   -7.1417    0.0000 C   0  0  0  0  0  0           0  0  0
    3.4667   -6.1667    0.0000 C   0  0  1  0  0  0           0  0  0
    4.1375   -1.3417    0.0000 C   0  0  0  0  0  0           0  0  0
    6.3167   -6.5875    0.0000 C   0  0  0  0  0  0           0  0  0
    7.5667   -5.8125    0.0000 C   0  0  0  0  0  0           0  0  0
    6.3542   -2.2417    0.0000 N   0  0  0  0  0  0           0  0  0
    8.3750   -6.0000    0.0000 C   0  0  0  0  0  0           0  0  0
    3.3542   -8.3542    0.0000 C   0  0  0  0  0  0           0  0  0
    1.5250   -5.5125    0.0000 O   0  0  0  0  0  0           0  0  0
    7.1042   -5.8167    0.0000 O   0  0  0  0  0  0           0  0  0
    1.4375   -2.3292    0.0000 O   0  0  0  0  0  0           0  0  0
    4.2292   -7.1750    0.0000 O   0  0  0  0  0  0           0  0  0
    4.9625   -1.3917    0.0000 C   0  0  0  0  0  0           0  0  0
    7.7542   -3.7500    0.0000 C   0  0  0  0  0  0           0  0  0
    1.1375   -4.4792    0.0000 C   0  0  0  0  0  0           0  0  0
    7.3625   -2.7292    0.0000 O   0  0  0  0  0  0           0  0  0
    2.0875   -1.4500    0.0000 C   0  0  0  0  0  0           0  0  0
    4.0417   -0.5167    0.0000 O   0  0  0  0  0  0           0  0  0
    2.5375   -8.4667    0.0000 O   0  0  0  0  0  0           0  0  0
    3.1542   -6.9375    0.0000 C   0  0  0  0  0  0           0  0  0
    5.7292   -1.7042    0.0000 C   0  0  0  0  0  0           0  0  0
    3.6667   -7.5917    0.0000 C   0  0  0  0  0  0           0  0  0
    3.8625   -9.0042    0.0000 N   0  0  0  0  0  0           0  0  0
    8.1500   -3.0250    0.0000 C   0  0  0  0  0  0           0  0  0
    0.5500   -5.0667    0.0000 C   0  0  3  0  0  0           0  0  0
    7.3292   -5.0167    0.0000 C   0  0  0  0  0  0           0  0  0
    1.2875   -1.2292    0.0000 C   0  0  3  0  0  0           0  0  0
    8.9417   -5.4000    0.0000 C   0  0  0  0  0  0           0  0  0
    8.9750   -3.0000    0.0000 C   0  0  0  0  0  0           0  0  0
    7.7125   -2.3167    0.0000 C   0  0  0  0  0  0           0  0  0
    0.7542   -5.8625    0.0000 C   0  0  0  0  0  0           0  0  0
   -0.2500   -4.8417    0.0000 C   0  0  0  0  0  0           0  0  0
    1.0542   -0.4375    0.0000 C   0  0  0  0  0  0           0  0  0
    0.7167   -1.8292    0.0000 C   0  0  0  0  0  0           0  0  0
    7.9000   -4.4167    0.0000 C   0  0  0  0  0  0           0  0  0
    8.7042   -4.6042    0.0000 C   0  0  0  0  0  0           0  0  0
    9.3667   -2.2667    0.0000 C   0  0  0  0  0  0           0  0  0
    8.1042   -1.5875    0.0000 C   0  0  0  0  0  0           0  0  0
   -0.8375   -5.4167    0.0000 C   0  0  0  0  0  0           0  0  0
    0.1625   -6.4417    0.0000 C   0  0  0  0  0  0           0  0  0
   -0.6375   -6.2167    0.0000 C   0  0  0  0  0  0           0  0  0
    8.9292   -1.5667    0.0000 C   0  0  0  0  0  0           0  0  0
  2 12  1  0     0  0
  3  5  1  0     0  0
  4 18  1  0     0  0
  5 11  1  0     0  0
  6  4  1  0     0  0
  7  2  1  0     0  0
  8 20  1  0     0  0
  9  1  1  0     0  0
 10 13  1  0     0  0
 11  1  1  0     0  0
 12  6  1  0     0  0
 13  7  1  0     0  0
 14  3  1  0     0  0
 15 17  1  0     0  0
 16 14  1  0     0  0
 17  8  2  0     0  0
 18  9  1  0     0  0
 19 29  1  0     0  0
 11 20  1  6     0  0
 21  8  1  0     0  0
 22 16  1  0     0  0
 23 21  2  0     0  0
 24 38  1  0     0  0
 25  6  2  0     0  0
 26  5  2  0     0  0
 27  7  2  0     0  0
 28  9  2  0     0  0
 29 37  1  0     0  0
 14 30  1  1     0  0
 12 31  1  6     0  0
 32 16  2  0     0  0
 13 33  1  1     0  0
 34 19  2  0     0  0
 35 24  2  0     0  0
 18 36  1  1     0  0
 37 22  1  0     0  0
 38 36  1  0     0  0
 39 24  1  0     0  0
 40 30  1  0     0  0
 41 31  1  0     0  0
 42 21  1  0     0  0
 43 33  1  0     0  0
 44 23  1  0     0  0
 45 40  1  0     0  0
 46 40  2  0     0  0
 47 41  1  0     0  0
 48 41  1  0     0  0
 49 43  1  0     0  0
 50 43  1  0     0  0
 51 42  2  0     0  0
 52 51  1  0     0  0
 53 45  2  0     0  0
 54 46  1  0     0  0
 55 48  1  0     0  0
 56 47  1  0     0  0
 57 55  1  0     0  0
 58 54  2  0     0  0
 15 23  1  0     0  0
 52 44  2  0     0  0
 58 53  1  0     0  0
 19 10  1  0     0  0
 57 56  1  0     0  0
M  END