
          11280714552D 1   1.00000     0.00000     0

 16 18  0     0  0            999 V2000
    1.6542   -3.9792    0.0000 N   0  0  3  0  0  0           0  0  0
    2.1292   -3.3042    0.0000 C   0  0  3  0  0  0           0  0  0
    0.8625   -3.7292    0.0000 C   0  0  0  0  0  0           0  0  0
    2.9625   -3.3000    0.0000 C   0  0  0  0  0  0           0  0  0
    0.8542   -2.9000    0.0000 C   0  0  0  0  0  0           0  0  0
    1.6417   -2.6375    0.0000 C   0  0  0  0  0  0           0  0  0
    3.4375   -2.6167    0.0000 N   0  0  0  0  0  0           0  0  0
    3.4542   -3.9542    0.0000 N   0  0  0  0  0  0           0  0  0
    0.1417   -4.1417    0.0000 C   0  0  0  0  0  0           0  0  0
    1.6500   -4.8042    0.0000 C   0  0  0  0  0  0           0  0  0
    0.1375   -4.9667    0.0000 Cl  0  0  0  0  0  0           0  0  0
    0.1417   -2.4875    0.0000 C   0  0  0  0  0  0           0  0  0
    4.2250   -2.8625    0.0000 C   0  0  0  0  0  0           0  0  0
    4.2417   -3.6875    0.0000 C   0  0  0  0  0  0           0  0  0
   -0.5708   -2.9000    0.0000 C   0  0  0  0  0  0           0  0  0
   -0.5708   -3.7292    0.0000 C   0  0  0  0  0  0           0  0  0
  2  1  1  0     0  0
  3  1  1  0     0  0
  4  2  1  0     0  0
  5  3  1  0     0  0
  6  2  1  0     0  0
  7  4  2  0     0  0
  8  4  1  0     0  0
  9  3  2  0     0  0
 10  1  1  0     0  0
 11  9  1  0     0  0
 12  5  2  0     0  0
 13  7  1  0     0  0
 14  8  1  0     0  0
 15 16  2  0     0  0
 16  9  1  0     0  0
  6  5  1  0     0  0
 12 15  1  0     0  0
 14 13  1  0     0  0
M  END