
  SciTegic10311217562D

 45 43  0  0  0  0            999 V2000
   -1.3084   -1.0791    0.0000 C   0  0  2  0  0  0
   -1.3084   -1.9041    0.0000 C   0  0  1  0  0  0
   -0.5963   -2.3125    0.0000 C   0  0  2  0  0  0
    0.1157   -1.9041    0.0000 O   0  0
    0.1157   -1.0791    0.0000 C   0  0  1  0  0  0
   -0.5963   -0.6625    0.0000 C   0  0  1  0  0  0
    0.8313   -0.6687    0.0000 C   0  0
   -2.0240   -0.6687    0.0000 O   0  0
   -2.0222   -2.3177    0.0000 O   0  0
   -0.5963    0.1625    0.0000 O   0  0
   -0.5963   -3.1375    0.0000 O   0  0
    1.5446   -1.0833    0.0000 N   0  0
    0.1181   -3.5500    0.0000 C   0  0
    2.2603   -0.6729    0.0000 C   0  0
    2.9735   -1.0875    0.0000 C   0  0
    2.2627    0.1521    0.0000 O   0  0
    3.6892   -0.6771    0.0000 N   0  0
    4.4025   -1.0917    0.0000 C   0  0
    5.1182   -0.6813    0.0000 O   0  0
   -1.3108    0.5750    0.0000 S   0  0
   -2.0253    0.1625    0.0000 O   0  5
   -1.7292    1.2917    0.0000 O   0  0
   -0.9042    1.2917    0.0000 O   0  0
   -2.7373   -1.0833    0.0000 S   0  0
   -3.4530   -0.6729    0.0000 O   0  5
   -3.1542   -1.7958    0.0000 O   0  0
   -2.3292   -1.7958    0.0000 O   0  0
   -2.0210   -3.1427    0.0000 S   0  0
   -2.7349   -3.5562    0.0000 O   0  5
   -1.2000   -3.1416    0.0000 O   0  0
   -1.6167   -3.8541    0.0000 O   0  0
    3.6905    0.1456    0.0000 C   0  0
    4.4001   -1.9167    0.0000 C   0  0
    4.4056    0.5570    0.0000 C   0  0
    5.1133   -2.3313    0.0000 C   0  0
    5.1109   -3.1563    0.0000 C   0  0
    5.8242   -3.5709    0.0000 C   0  0
    5.8198   -4.3969    0.0000 C   0  0
    6.5322   -4.8114    0.0000 C   0  0
    7.2488   -4.4009    0.0000 C   0  0
    7.2486   -3.5716    0.0000 C   0  0
    6.5356   -3.1609    0.0000 C   0  0
   -3.9417   -4.2125    0.0000 Na  0  3
   -4.0958    1.2833    0.0000 Na  0  3
   -4.4708   -0.8083    0.0000 Na  0  3
  3 11  1  6
 20 22  2  0
  4  5  1  0
 20 23  2  0
  7 12  1  0
  8 24  1  0
  5  6  1  0
 24 25  1  0
 11 13  1  0
 24 26  2  0
 24 27  2  0
 12 14  1  0
  5  7  1  1
  9 28  1  0
 14 15  1  0
 28 29  1  0
  1  2  1  0
 28 30  2  0
 14 16  2  0
 28 31  2  0
  1  8  1  1
 15 17  1  0
 17 32  1  0
  1  6  1  0
 18 33  1  0
 17 18  1  0
 32 34  1  0
  2  9  1  1
 33 35  1  0
 18 19  2  0
 35 36  1  0
  2  3  1  0
 36 37  1  0
 10 20  1  0
 37 38  2  0
  6 10  1  6
 38 39  1  0
 20 21  1  0
 39 40  2  0
  3  4  1  0
 40 41  1  0
 41 42  2  0
 42 37  1  0
M  CHG  6  21  -1  25  -1  29  -1  43   1  44   1  45   1
M  END