
  SciTegic02211115552D

 26 29  0  0  0  0            999 V2000
   18.4902   -4.4166    0.0000 C   0  0
   18.4891   -5.2440    0.0000 C   0  0
   19.2039   -5.6569    0.0000 N   0  0
   19.2021   -4.0039    0.0000 C   0  0
   19.9175   -4.4130    0.0000 C   0  0
   19.9177   -5.2440    0.0000 C   0  0
   20.7082   -5.5006    0.0000 N   0  0
   21.1965   -4.8281    0.0000 C   0  0
   20.7072   -4.1568    0.0000 C   0  0
   17.7778   -4.0045    0.0000 C   0  0
   17.7789   -3.1784    0.0000 C   0  0
   17.0652   -2.7661    0.0000 C   0  0
   16.3498   -3.1788    0.0000 C   0  0
   16.3527   -4.0081    0.0000 N   0  0
   17.0670   -4.4166    0.0000 C   0  0
   17.0654   -1.9411    0.0000 N   0  0
   21.1387   -3.4553    0.0000 C   0  0
   21.9645   -3.4794    0.0000 C   0  0
   22.3964   -2.7774    0.0000 C   0  0
   22.0037   -2.0509    0.0000 C   0  0
   21.1746   -2.0307    0.0000 C   0  0
   20.7464   -2.7334    0.0000 C   0  0
   23.2183   -2.8029    0.0000 O   0  0
   23.6507   -2.1003    0.0000 C   0  0
   22.4330   -1.3503    0.0000 O   0  0
   22.0393   -0.6252    0.0000 C   0  0
 12 13  2  0
  3  6  2  0
 13 14  1  0
  1  2  2  0
 14 15  2  0
 15 10  1  0
  1 10  1  0
  5  4  2  0
 12 16  1  0
  6  7  1  0
  7  8  1  0
 17 18  2  0
  8  9  2  0
 18 19  1  0
  9  5  1  0
 19 20  2  0
  4  1  1  0
 20 21  1  0
  5  6  1  0
 21 22  2  0
 22 17  1  0
  9 17  1  0
 10 11  2  0
 23 24  1  0
 19 23  1  0
 11 12  1  0
  2  3  1  0
 25 26  1  0
 20 25  1  0
M  END