
          11280714442D 1   1.00000     0.00000     0

 18 18  0     0  0            999 V2000
    2.5417   -6.8667    0.0000 C   0  0  0  0  0  0           0  0  0
    1.8500   -7.3125    0.0000 C   0  0  0  0  0  0           0  0  0
    3.2750   -7.2500    0.0000 O   0  0  0  0  0  0           0  0  0
    1.1167   -6.9292    0.0000 C   0  0  0  0  0  0           0  0  0
    2.5042   -6.0417    0.0000 O   0  0  0  0  0  0           0  0  0
    6.1292   -7.1167    0.0000 N   0  0  0  0  0  0           0  0  0
    4.7042   -7.1792    0.0000 C   0  0  3  0  0  0           0  0  0
    0.4250   -7.3792    0.0000 C   0  0  0  0  0  0           0  0  0
    3.9667   -6.8042    0.0000 C   0  0  0  0  0  0           0  0  0
    5.4000   -6.7375    0.0000 C   0  0  0  0  0  0           0  0  0
   -0.3083   -7.0000    0.0000 N   0  0  0  0  0  0           0  0  0
    4.7417   -8.0042    0.0000 O   0  0  0  0  0  0           0  0  0
    1.8917   -8.1292    0.0000 C   0  0  0  0  0  0           0  0  0
    1.2000   -8.5792    0.0000 C   0  0  0  0  0  0           0  0  0
    6.8250   -6.6750    0.0000 C   0  0  3  0  0  0           0  0  0
    0.4625   -8.2000    0.0000 C   0  0  0  0  0  0           0  0  0
    6.7917   -5.8500    0.0000 C   0  0  0  0  0  0           0  0  0
    7.5542   -7.0542    0.0000 C   0  0  0  0  0  0           0  0  0
  2  1  1  0     0  0
  3  1  1  0     0  0
  4  2  2  0     0  0
  5  1  2  0     0  0
  6 10  1  0     0  0
  7  9  1  0     0  0
  8  4  1  0     0  0
  9  3  1  0     0  0
 10  7  1  0     0  0
 11  8  1  0     0  0
 12  7  1  0     0  0
 13  2  1  0     0  0
 14 13  2  0     0  0
 15  6  1  0     0  0
 16 14  1  0     0  0
 17 15  1  0     0  0
 18 15  1  0     0  0
 16  8  2  0     0  0
M  END