
  SciTegic12231509382D

108117  0  0  0  0            999 V2000
   -2.3875   -4.5500    0.0000 C   0  0  2  0  0  0
    4.6417   -4.5417    0.0000 C   0  0  2  0  0  0
   -1.8083   -4.8875    0.0000 N   0  0
   -1.2458   -0.0292    0.0000 C   0  0  1  0  0  0
   -0.9083    0.5458    0.0000 C   0  0  1  0  0  0
   -2.9750   -5.8042    0.0000 N   0  0
   -2.9750   -4.8875    0.0000 C   0  0
   -0.0458   -4.5500    0.0000 N   0  0
    1.7125   -4.8875    0.0000 N   0  0
    4.0542   -4.8792    0.0000 C   0  0
   -1.8083   -7.1417    0.0000 C   0  0
   -1.2208   -4.5500    0.0000 C   0  0
   -2.3958   -6.8125    0.0000 C   0  0
    0.5417   -4.8875    0.0000 C   0  0
   -1.2208   -6.8042    0.0000 C   0  0
    1.1167   -2.3167    0.0000 C   0  0
   -2.3958   -6.1375    0.0000 C   0  0  1  0  0  0
   -1.9208   -0.0292    0.0000 C   0  0  2  0  0  0
    3.4750   -4.5417    0.0000 N   0  0
    1.1250   -4.5500    0.0000 C   0  0  1  0  0  0
    5.2250   -4.8792    0.0000 N   0  0
    1.7042   -2.6417    0.0000 C   0  0
    0.5417   -2.6542    0.0000 C   0  0
    2.2917   -4.5500    0.0000 C   0  0
   -0.6333   -4.8875    0.0000 C   0  0  1  0  0  0
   -1.2458    1.1333    0.0000 O   0  0
    1.1125   -1.6375    0.0000 O   0  0
   -3.0208   -2.1917    0.0000 C   0  0  1  0  0  0
    1.1250   -3.6667    0.0000 C   0  0
   -2.2583    0.5458    0.0000 C   0  0  1  0  0  0
   -0.0458   -2.3167    0.0000 O   0  0
    2.2917   -2.3042    0.0000 O   0  0
    2.8875   -4.8792    0.0000 C   0  0  2  0  0  0
   -1.8083   -7.8250    0.0000 C   0  0
   -2.0000   -1.6042    0.0000 C   0  0  1  0  0  0
    5.8125   -4.5417    0.0000 C   0  0
   -1.9208    1.1333    0.0000 C   0  0  1  0  0  0
   -2.3833   -3.6792    0.0000 C   0  0  1  0  0  0
    4.6417   -3.6750    0.0000 C   0  0  1  0  0  0
   -2.3375   -2.1917    0.0000 C   0  0
   -1.2250   -6.1292    0.0000 C   0  0
   -2.3458   -1.0167    0.0000 O   0  0
   -0.6458   -5.8000    0.0000 C   0  0
   -3.3625   -1.6125    0.0000 C   0  0  1  0  0  0
    2.8875   -5.5542    0.0000 C   0  0
   -1.8000   -3.3375    0.0000 C   0  0
    4.0542   -3.3042    0.0000 C   0  0
   -0.9083   -0.6167    0.0000 O   0  0
   -2.0583   -5.5417    0.0000 C   0  0
    1.7125   -3.3250    0.0000 C   0  0
    0.5417   -3.3292    0.0000 C   0  0
   -0.6333   -2.6542    0.0000 C   0  0
    2.8792   -2.6375    0.0000 C   0  0
   -3.0250   -1.0167    0.0000 C   0  0  2  0  0  0
   -2.3958   -8.1667    0.0000 C   0  0
    3.4542   -2.3000    0.0000 C   0  0
   -0.6333   -3.3375    0.0000 C   0  0
    2.3000   -5.9000    0.0000 C   0  0
    4.0417   -2.6250    0.0000 C   0  0
   -1.2125   -3.6792    0.0000 C   0  0
   -0.6333   -7.1417    0.0000 C   0  0
   -2.9750   -7.1500    0.0000 C   0  0
    6.4042   -4.8792    0.0000 C   0  0  1  0  0  0
   -3.5583   -4.5500    0.0000 O   0  0
    4.0542   -5.5542    0.0000 O   0  0
   -1.2208   -3.9292    0.0000 O   0  0
    0.5375   -5.5625    0.0000 O   0  0
   -2.9750   -7.8250    0.0000 C   0  0
    2.2917   -3.8667    0.0000 O   0  0
    5.8125   -3.8625    0.0000 O   0  0
   -0.0458   -6.1292    0.0000 C   0  0
   -1.8000   -2.6542    0.0000 C   0  0
    3.4750   -3.6542    0.0000 C   0  0
   -2.4000   -4.9625    0.0000 O   0  0
   -1.2125   -2.3250    0.0000 C   0  0
    2.8792   -3.3167    0.0000 C   0  0
    2.3042   -6.5792    0.0000 O   0  0
    6.4042   -5.5542    0.0000 C   0  0
   -3.6083   -2.5292    0.0000 N   0  0
   -0.0458   -6.8042    0.0000 C   0  0
   -2.2583   -0.6167    0.0000 O   0  0
   -2.9375    0.5458    0.0000 O   0  0
   -1.2208   -8.1542    0.0000 O   0  0
    6.9792   -4.5417    0.0000 N   0  0
    1.7167   -5.5625    0.0000 N   0  0
   -4.0375   -1.6125    0.0000 O   0  0
    3.4500   -1.6167    0.0000 Cl  0  0
   -0.0375   -3.6792    0.0000 Cl  0  0
   -2.9708   -3.3375    0.0000 O   0  0
    5.2292   -3.3417    0.0000 O   0  0
   -1.3750   -5.5375    0.0000 O   0  0
   -0.6333   -7.8250    0.0000 O   0  0
   -2.2583    1.7250    0.0000 C   0  0
   -3.5625   -8.1625    0.0000 O   0  0
   -3.0250   -2.8750    0.0000 C   0  0
   -2.9333    1.7250    0.0000 O   0  0
   -3.3625   -0.4292    0.0000 C   0  0
    5.8125   -5.8917    0.0000 C   0  0
    7.5667   -4.8792    0.0000 C   0  0
    5.8125   -6.5750    0.0000 C   0  0
    5.2250   -5.5542    0.0000 C   0  0
   -0.0500   -5.2250    0.0000 H   0  0
    0.5375   -4.2042    0.0000 H   0  0
   -1.5250   -2.0792    0.0000 H   0  0
    5.2250   -4.1917    0.0000 H   0  0
   -0.3583    0.9375    0.0000 H   0  0
   -1.8125   -6.4750    0.0000 H   0  0
   -2.8833   -4.0708    0.0000 H   0  0
  2 10  1  0
  3  1  1  0
  4  5  1  0
  5 27  1  0
  6  7  1  0
  7  1  1  0
  8 25  1  0
  9 20  1  0
 10 19  1  0
 11 13  1  0
 12  3  1  0
 13 17  1  0
 14  8  1  0
 15 11  1  0
 16 23  1  0
 17  6  1  0
 18  4  1  0
 19 33  1  0
 20 14  1  0
 21  2  1  0
 22 16  2  0
 23 31  1  0
 24  9  1  0
 25 12  1  0
 26  5  1  0
 27 16  1  0
 28 40  1  0
 29 20  1  0
 30 37  1  0
 31 52  1  0
 32 22  1  0
 33 24  1  0
 34 11  2  0
 35 48  1  0
 36 21  1  0
 37 26  1  0
 38  1  1  0
 39  2  1  0
 40 35  1  0
 41 43  2  0
 42 35  1  0
 43 25  1  0
 44 54  1  0
 33 45  1  1
 46 38  1  0
 47 73  2  0
  4 48  1  6
 49 17  1  0
 50 29  2  0
 51 23  2  0
 52 75  2  0
 53 32  1  0
 54 42  1  0
 55 68  2  0
 56 53  1  0
 57 60  2  0
 58 45  1  0
 59 56  2  0
 60 46  1  0
 61 15  2  0
 62 13  2  0
 63 36  1  0
 64  7  2  0
 65 10  2  0
 66 12  2  0
 67 14  2  0
 68 62  1  0
 69 24  2  0
 70 36  2  0
 71 43  1  0
 72 46  2  0
 73 76  1  0
 74 49  2  0
 75 72  1  0
 76 53  2  0
 77 58  2  0
 63 78  1  6
 79 28  1  0
 80 71  2  0
 18 81  1  1
 30 82  1  6
 83 34  1  0
 84 63  1  0
 85 58  1  0
 44 86  1  6
 87 56  1  0
 88 57  1  0
 38 89  1  6
 39 90  1  1
 91 49  1  0
 92 61  1  0
 37 93  1  1
 94 68  1  0
 28 95  1  1
 96 93  1  0
 54 97  1  6
 98 78  1  0
 99 84  1  0
100 98  1  0
101 98  1  0
 25102  1  1
 20103  1  6
 35104  1  6
  2105  1  6
  5106  1  6
 17107  1  1
  1108  1  1
 57 52  1  0
 41 15  1  0
 61 80  1  0
 34 55  1  0
 29 51  1  0
 50 22  1  0
 18 30  1  0
 59 47  1  0
 47 39  1  0
 28 44  1  0
M  END