
  SciTegic09081514192D

 18 19  0  0  0  0            999 V2000
    0.0000   -0.7486    0.0000 C   0  0
    0.0000    0.7486    0.0000 C   0  0
   -1.2964   -1.4973    0.0000 C   0  0
   -2.6111    0.7486    0.0000 C   0  0
   -1.2964    1.4973    0.0000 C   0  0
   -2.6111   -0.7486    0.0000 C   0  0
    1.2964   -1.4973    0.0000 O   0  0
    1.2964    1.4973    0.0000 C   0  0
    2.5929   -0.7486    0.0000 C   0  0
    2.5929    0.7486    0.0000 C   0  0
    2.5565   -2.2286    0.0000 C   0  0
    1.2571   -2.9796    0.0000 C   0  0
    3.6170   -0.1233    0.0000 C   0  0
   -0.0428   -6.4315    0.0000 C   0  0
    1.2568   -4.4805    0.0000 C   0  0
   -0.0426   -5.2315    0.0000 C   0  0
   -1.0819   -4.6316    0.0000 C   0  0
   -3.6486    1.3517    0.0000 N   0  0
  2  1  1  0
  3  1  2  0
  4  6  2  0
  5  2  2  0
  6  3  1  0
  7  1  1  0
  8  2  1  0
  9  7  1  0
 10  9  1  0
 11  9  1  0
 12 11  1  0
  9 13  1  0
 14 16  1  0
 15 12  1  0
 16 15  1  0
 16 17  1  0
  5  4  1  0
  8 10  1  0
  4 18  1  0
M  END