
  CDK    9/16/09,9:55

 35 38  0  0  0  0  0  0  0  0999 V2000
   14.5509    1.2407    0.0000 C   0  0  0  0  0  0  0  0  0  0  0  0
   14.5495    0.4129    0.0000 C   0  0  0  0  0  0  0  0  0  0  0  0
   15.2651    0.0045    0.0000 C   0  0  0  0  0  0  0  0  0  0  0  0
   15.2630    1.6536    0.0000 C   0  0  0  0  0  0  0  0  0  0  0  0
   15.9796    1.2452    0.0000 C   0  0  0  0  0  0  0  0  0  0  0  0
   15.9802    0.4129    0.0000 C   0  0  0  0  0  0  0  0  0  0  0  0
   16.7724    0.1583    0.0000 N   0  0  0  0  0  0  0  0  0  0  0  0
   17.2591    0.8300    0.0000 C   0  0  0  0  0  0  0  0  0  0  0  0
   16.7714    1.5054    0.0000 N   0  0  0  0  0  0  0  0  0  0  0  0
   17.0181   -0.6241    0.0000 C   0  0  0  0  0  0  0  0  0  0  0  0
   16.4355   -1.2058    0.0000 C   0  0  0  0  0  0  0  0  0  0  0  0
   15.6408   -0.9913    0.0000 C   0  0  0  0  0  0  0  0  0  0  0  0
   15.0541   -1.5720    0.0000 C   0  0  0  0  0  0  0  0  0  0  0  0
   15.2698   -2.3720    0.0000 C   0  0  0  0  0  0  0  0  0  0  0  0
   16.0690   -2.5829    0.0000 C   0  0  0  0  0  0  0  0  0  0  0  0
   16.6474   -2.0004    0.0000 C   0  0  0  0  0  0  0  0  0  0  0  0
   14.6838   -2.9540    0.0000 C   0  0  0  0  0  0  0  0  0  0  0  0
   13.8887   -2.7407    0.0000 C   0  0  0  0  0  0  0  0  0  0  0  0
   13.3029   -3.3225    0.0000 C   0  0  0  0  0  0  0  0  0  0  0  0
   13.5197   -4.1220    0.0000 C   0  0  0  0  0  0  0  0  0  0  0  0
   14.3192   -4.3318    0.0000 C   0  0  0  0  0  0  0  0  0  0  0  0
   14.9014   -3.7485    0.0000 C   0  0  0  0  0  0  0  0  0  0  0  0
   13.6726   -1.9421    0.0000 C   0  0  0  0  0  0  0  0  0  0  0  0
   14.2594   -1.3601    0.0000 O   0  0  0  0  0  0  0  0  0  0  0  0
   12.8785   -1.7298    0.0000 O   0  0  0  0  0  0  0  0  0  0  0  0
   13.1214    2.0657    0.0000 N   0  0  0  0  0  0  0  0  0  0  0  0
   14.2495    2.3704    0.0000 O   0  0  0  0  0  0  0  0  0  0  0  0
   13.4297    0.9374    0.0000 O   0  0  0  0  0  0  0  0  0  0  0  0
   13.8345    1.6532    0.0000 S   0  0  0  0  0  0  0  0  0  0  0  0
   18.0842    0.8292    0.0000 C   0  0  0  0  0  0  0  0  0  0  0  0
   18.4961    0.1144    0.0000 C   0  0  0  0  0  0  0  0  0  0  0  0
   19.3211    0.1136    0.0000 C   0  0  0  0  0  0  0  0  0  0  0  0
   19.7330   -0.6012    0.0000 C   0  0  0  0  0  0  0  0  0  0  0  0
   12.4066    1.6538    0.0000 C   0  0  0  0  0  0  0  0  0  0  0  0
   11.6924    2.0668    0.0000 C   0  0  0  0  0  0  0  0  0  0  0  0
  9  5  1  0  0  0  0 
 18 19  1  0  0  0  0 
  4  1  1  0  0  0  0 
 19 20  2  0  0  0  0 
 20 21  1  0  0  0  0 
  5  6  1  0  0  0  0 
 21 22  2  0  0  0  0 
 22 17  1  0  0  0  0 
 14 17  1  0  0  0  0 
  7 10  1  0  0  0  0 
 18 23  1  0  0  0  0 
 23 24  2  0  0  0  0 
 10 11  1  0  0  0  0 
 23 25  1  0  0  0  0 
  2  3  1  0  0  0  0 
 11 12  2  0  0  0  0 
  3  6  2  0  0  0  0 
 12 13  1  0  0  0  0 
  1  2  2  0  0  0  0 
  1 29  1  0  0  0  0 
 13 14  2  0  0  0  0 
 29 26  1  0  0  0  0 
  5  4  2  0  0  0  0 
 29 27  2  0  0  0  0 
 14 15  1  0  0  0  0 
  6  7  1  0  0  0  0 
 28 29  2  0  0  0  0 
  8 30  1  0  0  0  0 
 15 16  2  0  0  0  0 
 30 31  1  0  0  0  0 
 16 11  1  0  0  0  0 
 31 32  1  0  0  0  0 
  7  8  1  0  0  0  0 
 32 33  1  0  0  0  0 
  8  9  2  0  0  0  0 
 26 34  1  0  0  0  0 
 17 18  2  0  0  0  0 
 34 35  1  0  0  0  0 
M  END