
          11280715452D 1   1.00000     0.00000     0

 28 31  0     0  0            999 V2000
   -0.8208    0.4083    0.0000 C   0  0  0  0  0  0           0  0  0
   -0.1583    0.8958    0.0000 N   0  0  3  0  0  0           0  0  0
   -0.5708   -0.3750    0.0000 N   0  0  3  0  0  0           0  0  0
    0.5167    0.4125    0.0000 C   0  0  0  0  0  0           0  0  0
    0.2542   -0.3750    0.0000 C   0  0  3  0  0  0           0  0  0
   -1.6458    0.4208    0.0000 N   0  0  0  0  0  0           0  0  0
   -0.1583    1.7250    0.0000 C   0  0  0  0  0  0           0  0  0
   -1.2333   -0.8542    0.0000 C   0  0  0  0  0  0           0  0  0
   -1.9083   -0.3667    0.0000 C   0  0  0  0  0  0           0  0  0
   -0.8708    2.1333    0.0000 C   0  0  0  0  0  0           0  0  0
    0.5667    2.1458    0.0000 C   0  0  0  0  0  0           0  0  0
    1.0542   -0.5875    0.0000 C   0  0  0  0  0  0           0  0  0
    1.3042    0.6708    0.0000 O   0  0  0  0  0  0           0  0  0
   -0.8708    2.9625    0.0000 C   0  0  0  0  0  0           0  0  0
    0.5667    2.9625    0.0000 C   0  0  0  0  0  0           0  0  0
   -0.1583    3.3708    0.0000 C   0  0  0  0  0  0           0  0  0
   -1.2458   -1.6792    0.0000 O   0  0  0  0  0  0           0  0  0
    0.2542   -1.2000    0.0000 C   0  0  0  0  0  0           0  0  0
    1.0417   -1.4125    0.0000 C   0  0  0  0  0  0           0  0  0
    1.0292   -3.0542    0.0000 C   0  0  0  0  0  0           0  0  0
    1.2792    3.3708    0.0000 Cl  0  0  0  0  0  0           0  0  0
   -1.5833    3.3708    0.0000 Cl  0  0  0  0  0  0           0  0  0
    1.0292   -3.8792    0.0000 Br  0  0  0  0  0  0           0  0  0
    0.3292   -1.8167    0.0000 C   0  0  0  0  0  0           0  0  0
    1.7542   -1.8167    0.0000 C   0  0  0  0  0  0           0  0  0
    0.3167   -2.6375    0.0000 C   0  0  0  0  0  0           0  0  0
    1.7542   -2.6375    0.0000 C   0  0  0  0  0  0           0  0  0
   -1.9583   -2.0917    0.0000 C   0  0  0  0  0  0           0  0  0
  2  1  1  0     0  0
  3  1  1  0     0  0
  4  2  1  0     0  0
  5  3  1  0     0  0
  6  1  2  0     0  0
  7  2  1  0     0  0
  8  3  1  0     0  0
  9  6  1  0     0  0
 10  7  1  0     0  0
 11  7  2  0     0  0
 12  5  1  0     0  0
 13  4  2  0     0  0
 14 10  2  0     0  0
 15 11  1  0     0  0
 16 15  2  0     0  0
 17  8  1  0     0  0
 18  5  1  0     0  0
 19 12  1  0     0  0
 20 27  1  0     0  0
 21 15  1  0     0  0
 22 14  1  0     0  0
 23 20  1  0     0  0
 24 19  2  0     0  0
 25 19  1  0     0  0
 26 24  1  0     0  0
 27 25  2  0     0  0
 28 17  1  0     0  0
  8  9  2  0     0  0
  5  4  1  0     0  0
 14 16  1  0     0  0
 26 20  2  0     0  0
M  END