
  SciTegic12011114592D

 15 16  0  0  0  0            999 V2000
   -5.4499   -5.0556    0.0000 C   0  0
   -4.7338   -5.4671    0.0000 C   0  0
   -4.0217   -5.0527    0.0000 C   0  0
   -4.0244   -4.2271    0.0000 C   0  0
   -4.7451   -3.8176    0.0000 C   0  0
   -5.4544   -4.2343    0.0000 C   0  0
   -3.3122   -3.8111    0.0000 C   0  0
   -2.5959   -4.2198    0.0000 O   0  0
   -3.3164   -2.9864    0.0000 O   0  0
   -3.3061   -5.4627    0.0000 N   0  0
   -3.3019   -6.2861    0.0000 C   0  0
   -2.5905   -6.6959    0.0000 C   0  0
   -1.8752   -6.2848    0.0000 C   0  0
   -1.8759   -5.4591    0.0000 C   0  0
   -2.5920   -5.0446    0.0000 C   0  0
  3  4  2  0
  7  8  1  0
  7  9  2  0
  4  5  1  0
  3 10  1  0
 10 11  1  0
  2  3  1  0
  5  6  2  0
  6  1  1  0
  1  2  2  0
  4  7  1  0
 10 15  1  0
 11 12  1  0
 12 13  1  0
 13 14  1  0
 14 15  1  0
M  END