
          11280715512D 1   1.00000     0.00000     0

 25 26  0     1  0            999 V2000
   -0.2794  -24.2748    0.0000 C   0  0  0  0  0  0           0  0  0
   -0.2794  -25.0998    0.0000 N   0  0  3  0  0  0           0  0  0
   -0.9953  -25.5123    0.0000 C   0  0  0  0  0  0           0  0  0
   -1.7070  -25.0998    0.0000 C   0  0  0  0  0  0           0  0  0
   -1.7070  -24.2748    0.0000 C   0  0  0  0  0  0           0  0  0
   -0.9953  -23.8623    0.0000 N   0  0  3  0  0  0           0  0  0
    0.4365  -23.8623    0.0000 O   0  0  0  0  0  0           0  0  0
   -0.9953  -26.3373    0.0000 O   0  0  0  0  0  0           0  0  0
    0.4365  -25.5123    0.0000 C   0  0  0  0  0  0           0  0  0
    1.1523  -25.0998    0.0000 C   0  0  0  0  0  0           0  0  0
    1.1523  -24.2748    0.0000 C   0  0  0  0  0  0           0  0  0
    1.8640  -23.8623    0.0000 C   0  0  0  0  0  0           0  0  0
    2.5799  -24.2748    0.0000 C   0  0  0  0  0  0           0  0  0
    2.5799  -25.0998    0.0000 C   0  0  0  0  0  0           0  0  0
    1.8640  -25.5123    0.0000 C   0  0  0  0  0  0           0  0  0
    3.2958  -23.8623    0.0000 S   0  0  3  0  0  0           0  0  0
    2.8833  -23.1465    0.0000 O   0  0  0  0  0  0           0  0  0
    3.7083  -24.5740    0.0000 O   0  0  0  0  0  0           0  0  0
    4.0075  -23.4498    0.0000 O   0  0  0  0  0  0           0  0  0
   -0.9953  -23.0373    0.0000 C   0  0  0  0  0  0           0  0  0
   -1.7070  -22.6248    0.0000 C   0  0  1  0  0  0           0  0  0
   -2.4228  -23.0373    0.0000 C   0  0  0  0  0  0           0  0  0
   -2.4228  -23.8623    0.0000 O   0  0  0  0  0  0           0  0  0
   -3.1345  -22.6248    0.0000 O   0  0  0  0  0  0           0  0  0
   -1.7070  -21.7998    0.0000 N   0  0  0  0  0  0           0  0  0
  1  2  1  0     0  0
  2  3  1  0     0  0
  3  4  1  0     0  0
  4  5  2  0     0  0
  5  6  1  0     0  0
  1  6  1  0     0  0
  1  7  2  0     0  0
  3  8  2  0     0  0
  9 10  1  0     0  0
 10 11  1  0     0  0
 11 12  2  0     0  0
 12 13  1  0     0  0
 13 14  2  0     0  0
 14 15  1  0     0  0
 10 15  2  0     0  0
 16 17  2  0     0  0
 16 18  2  0     0  0
 16 19  1  0     0  0
 13 16  1  0     0  0
  2  9  1  0     0  0
 20 21  1  0     0  0
 22 23  2  0     0  0
 22 24  1  0     0  0
 21 22  1  0     0  0
 21 25  1  1     0  0
  6 20  1  0     0  0
M  END