
  SciTegic02181312462D

 36 41  0  0  0  0            999 V2000
    9.2545   -7.2499    0.0000 C   0  0
    8.0159   -6.5328    0.0000 C   0  0
    7.6026   -7.2468    0.0000 C   0  0
    8.0169   -7.9634    0.0000 C   0  0
    8.8411   -7.9638    0.0000 C   0  0
    5.5088   -7.6593    0.0000 C   0  0
    5.5092   -6.8352    0.0000 C   0  0
    4.7952   -6.4219    0.0000 C   0  0
    4.0807   -6.8327    0.0000 C   0  0
    4.0803   -7.6568    0.0000 C   0  0
    4.7944   -8.0702    0.0000 N   0  0
    6.7785   -7.2464    0.0000 C   0  0
    6.2921   -7.9138    0.0000 N   0  0
    6.2919   -6.5790    0.0000 N   0  0
    4.7956   -5.5977    0.0000 N   0  0
    5.5122   -5.1833    0.0000 C   0  0
    5.5126   -4.3592    0.0000 C   0  0
    4.7986   -3.9458    0.0000 N   0  0
    4.0841   -4.3566    0.0000 C   0  0
    4.0816   -5.1844    0.0000 C   0  0
    4.7920   -3.1184    0.0000 C   0  0
    6.5056   -1.8457    0.0000 O   0  0
    5.6910   -1.9541    0.0000 N   0  0
    5.5369   -2.7637    0.0000 C   0  0
    6.2643   -3.1582    0.0000 C   0  0
    6.8601   -2.5906    0.0000 C   0  0
    7.6736   -2.7430    0.0000 C   0  0
    3.3667   -6.4194    0.0000 Cl  0  0
    8.8437   -6.5354    0.0000 C   0  0
    9.2580   -5.8219    0.0000 N   0  0
   10.0809   -5.8295    0.0000 C   0  0
   10.4950   -5.1201    0.0000 C   0  0
   10.0878   -4.4022    0.0000 N   0  0
    9.2618   -4.3982    0.0000 C   0  0
    8.8431   -5.1121    0.0000 C   0  0
   10.5047   -3.6902    0.0000 C   0  0
  1 29  1  0
 29  2  2  0
  2  3  1  0
  3  4  2  0
  4  5  1  0
  1  5  2  0
  6  7  1  0
  7  8  2  0
  8  9  1  0
  9 10  2  0
 10 11  1  0
  6 11  2  0
 12 13  1  0
 12 14  2  0
  6 13  1  0
  7 14  1  0
 15 16  1  0
 16 17  1  0
 17 18  1  0
 18 19  1  0
 19 20  1  0
 15 20  1  0
 22 23  1  0
 23 24  2  0
 24 25  1  0
 25 26  2  0
 22 26  1  0
 26 27  1  0
 21 24  1  0
 18 21  1  0
  8 15  1  0
  9 28  1  0
  3 12  1  0
 29 30  1  0
 30 31  1  0
 30 35  1  0
 31 32  1  0
 32 33  1  0
 33 34  1  0
 34 35  1  0
 33 36  1  0
M  END