
  SciTegic09261415472D

  9  9  0  0  0  0            999 V2000
    9.2262   -4.0516    0.0000 N   0  0
    9.4767   -4.8331    0.0000 N   0  0
    8.8134   -5.3132    0.0000 C   0  0
    8.1501   -4.8331    0.0000 C   0  0
    8.4047   -4.0516    0.0000 C   0  0
    8.8134   -6.1383    0.0000 C   0  0
    8.0989   -6.5508    0.0000 C   0  0
    7.3844   -6.1383    0.0000 C   0  0
    7.3844   -5.3132    0.0000 O   0  0
  1  2  1  0
  2  3  2  0
  3  4  1  0
  4  5  2  0
  1  5  1  0
  3  6  1  0
  6  7  1  0
  7  8  1  0
  8  9  1  0
M  END