
  SciTegic01111613442D

 22 23  0  0  0  0            999 V2000
    1.2935   -3.7495    0.0000 C   0  0
    2.5951   -3.0039    0.0000 C   0  0
    3.8915   -3.7585    0.0000 C   0  0
    3.8864   -5.2585    0.0000 C   0  0
    2.5847   -6.0040    0.0000 C   0  0
    1.2883   -5.2495    0.0000 C   0  0
    2.5806   -7.2040    0.0000 Cl  0  0
    2.5973   -1.5031    0.0000 C   0  0
    3.6375   -0.9049    0.0000 O   0  0
    1.2990   -0.7500    0.0000 C   0  0
    0.0000   -1.5000    0.0000 C   0  0
   -1.2990   -0.7500    0.0000 C   0  0
   -1.2990    0.7500    0.0000 C   0  0
    0.0000    1.5000    0.0000 C   0  0
    1.2990    0.7500    0.0000 C   0  0
   -2.6003    1.4977    0.0000 O   0  0
   -3.8990    0.7455    0.0000 C   0  0
   -5.2003    1.4932    0.0000 C   0  0
   -3.8969   -0.4545    0.0000 C   0  0
   -2.8588    0.1471    0.0000 C   0  0
   -6.2387    0.8917    0.0000 O   0  0
   -5.2024    2.6932    0.0000 O   0  0
 13 14  1  0
  2  3  1  0
 14 15  2  0
 15 10  1  0
  5  7  1  0
 13 16  1  0
 16 17  1  0
  2  8  1  0
 17 18  1  0
  3  4  2  0
 17 19  1  0
  8  9  2  0
 17 20  1  0
  1  2  2  0
 18 21  2  0
  8 10  1  0
 18 22  1  0
  4  5  1  0
 10 11  2  0
 11 12  1  0
  5  6  2  0
 12 13  2  0
  6  1  1  0
M  END