
  SciTegic06051313552D

 34 37  0  0  0  0            999 V2000
    3.3086   -3.1119    0.0000 C   0  0
    3.3075   -3.9314    0.0000 C   0  0
    4.0155   -4.3404    0.0000 C   0  0
    4.0137   -2.7030    0.0000 C   0  0
    5.5061   -2.8522    0.0000 C   0  0
    4.7224   -3.1083    0.0000 C   0  0
    4.7249   -3.9336    0.0000 C   0  0
    5.5112   -4.1848    0.0000 N   0  0
    5.9920   -3.5140    0.0000 N   0  0
    5.7682   -4.9606    0.0000 C   0  0
    5.3498   -5.6616    0.0000 C   0  0
    4.5350   -5.6471    0.0000 C   0  0
    4.1161   -6.3479    0.0000 C   0  0
    4.5142   -7.0625    0.0000 C   0  0
    5.3356   -7.0720    0.0000 C   0  0
    5.7508   -6.3706    0.0000 C   0  0
    5.7362   -7.7843    0.0000 C   0  0
    5.3197   -8.4873    0.0000 N   0  0
    5.7203   -9.1996    0.0000 C   0  0
    5.9278   -2.1522    0.0000 N   0  0
    6.7448   -2.1674    0.0000 S   0  0
    7.2315   -2.8238    0.0000 C   0  0
    6.7174   -1.3437    0.0000 O   0  0
    7.5262   -1.9243    0.0000 O   0  0
    6.9864   -3.6054    0.0000 C   0  0
    7.6527   -4.0802    0.0000 C   0  0
    8.3094   -3.5919    0.0000 C   0  0
    8.0467   -2.8170    0.0000 S   0  0
    9.0895   -3.8352    0.0000 Cl  0  0
    4.0071   -1.8900    0.0000 O   0  0
    3.2961   -1.4872    0.0000 C   0  0
    6.5374   -9.2088    0.0000 O   0  0
    5.3037   -9.9027    0.0000 C   0  0
    2.5994   -4.3395    0.0000 F   0  0
  1  2  2  0
  2  3  1  0
  3  7  2  0
  6  4  2  0
  4  1  1  0
  6  7  1  0
  5  6  1  0
  7  8  1  0
  8  9  1  0
  9  5  2  0
  8 10  1  0
 10 11  1  0
 11 12  2  0
 12 13  1  0
 13 14  2  0
 14 15  1  0
 15 16  2  0
 16 11  1  0
 15 17  1  0
 17 18  1  0
 18 19  1  0
  5 20  1  0
 20 21  1  0
 21 22  1  0
 21 23  2  0
 21 24  2  0
 25 26  1  0
 22 25  2  0
 26 27  2  0
 27 28  1  0
 28 22  1  0
 27 29  1  0
  4 30  1  0
 30 31  1  0
 19 32  2  0
 33 19  1  0
  2 34  1  0
M  END