
  SciTegic10311316212D

 13 14  0  0  0  0            999 V2000
   25.5963   -2.6067    0.0000 C   0  0
   26.3221   -3.0077    0.0000 O   0  0
   26.2884   -1.3538    0.0000 N   0  0
   25.5758   -1.7778    0.0000 C   0  0
   27.0142   -1.7548    0.0000 C   0  0
   27.0233   -2.5798    0.0000 C   0  0
   27.7384   -2.9820    0.0000 C   0  0
   28.4488   -2.5639    0.0000 C   0  0
   28.4397   -1.7390    0.0000 C   0  0
   27.7200   -1.3322    0.0000 C   0  0
   24.8500   -1.3767    0.0000 O   0  0
   29.1536   -1.3172    0.0000 C   0  0
   29.8759   -1.7245    0.0000 C   0  0
  1  2  1  0
  1  4  1  0
  2  6  1  0
  5  3  1  0
  3  4  1  0
  5  6  1  0
  5 10  2  0
  6  7  2  0
  7  8  1  0
  8  9  2  0
  9 10  1  0
  4 11  2  0
  9 12  1  0
 12 13  1  0
M  END