
  SciTegic07101214422D

113115  0  0  0  0            999 V2000
   -3.2250  -26.3417    0.0000 O   0  0
   -2.8083  -25.6292    0.0000 S   0  0
   -3.6337  -25.6246    0.0000 O   0  0
   19.4592  -23.5554    0.0000 N   0  0
   19.9396  -22.8846    0.0000 C   0  0  1  0  0  0
   20.7606  -22.9652    0.0000 C   0  0
   19.5988  -22.1332    0.0000 C   0  0
   20.0792  -21.4625    0.0000 C   0  0
   19.7384  -20.7111    0.0000 C   0  0
   20.2188  -20.0404    0.0000 N   0  0
   19.8780  -19.2890    0.0000 C   0  0
   20.3584  -18.6183    0.0000 N   0  0
   19.0570  -19.2084    0.0000 N   0  0
   21.1013  -23.7166    0.0000 O   0  0
   21.2409  -22.2944    0.0000 N   0  0
   22.0620  -22.3750    0.0000 C   0  0  1  0  0  0
   22.5423  -21.7043    0.0000 C   0  0
   23.3634  -21.7849    0.0000 N   0  0
   22.2016  -20.9529    0.0000 O   0  0
   22.4027  -23.1264    0.0000 C   0  0
   21.9224  -23.7972    0.0000 C   0  0
   22.2631  -24.5485    0.0000 C   0  0
   21.7828  -25.2193    0.0000 N   0  0
   22.1235  -25.9706    0.0000 C   0  0
   21.6432  -26.6414    0.0000 N   0  0
   22.9446  -26.0512    0.0000 N   0  0
   15.5551  -25.3258    0.0000 N   0  0
   16.0354  -24.6551    0.0000 C   0  0  1  0  0  0
   16.8565  -24.7357    0.0000 C   0  0
   15.6947  -23.9037    0.0000 C   0  0
   16.1750  -23.2330    0.0000 C   0  0
   15.8343  -22.4816    0.0000 C   0  0
   16.3146  -21.8108    0.0000 N   0  0
   15.9739  -21.0595    0.0000 C   0  0
   16.4542  -20.3887    0.0000 N   0  0
   15.1528  -20.9789    0.0000 N   0  0
   17.1972  -25.4870    0.0000 O   0  0
   17.3368  -24.0649    0.0000 N   0  0
   18.1578  -24.1455    0.0000 C   0  0  1  0  0  0
   18.6382  -23.4748    0.0000 C   0  0
   18.2974  -22.7234    0.0000 O   0  0
   18.4986  -24.8969    0.0000 C   0  0
   18.0182  -25.5676    0.0000 C   0  0
   18.3590  -26.3190    0.0000 C   0  0
   17.8786  -26.9897    0.0000 N   0  0
   18.2194  -27.7411    0.0000 C   0  0
   17.7390  -28.4118    0.0000 N   0  0
   19.0404  -27.8217    0.0000 N   0  0
   -4.9514  -23.5708    0.0000 N   0  0
   -4.9526  -24.3982    0.0000 C   0  0
   -4.2378  -24.8110    0.0000 C   0  0
   -4.2396  -23.1580    0.0000 C   0  0
   -3.5242  -23.5672    0.0000 C   0  0
   -3.5234  -24.3940    0.0000 C   0  0
   -2.8081  -24.8050    0.0000 C   0  0
   -2.0931  -24.3902    0.0000 C   0  0
   -2.0979  -23.5602    0.0000 C   0  0
   -2.8138  -23.1530    0.0000 C   0  0
   -2.0911  -26.0410    0.0000 N   0  0
   -2.1461  -26.8864    0.0000 C   0  0
   -1.5409  -27.4197    0.0000 C   0  0
   -1.4016  -25.5728    0.0000 C   0  0
   -0.6205  -25.8324    0.0000 C   0  0
   -0.3241  -26.6386    0.0000 N   0  0
   -0.7361  -27.3137    0.0000 C   0  0
    0.4969  -26.7192    0.0000 C   0  0
    0.8376  -27.4706    0.0000 C   0  0
    1.6587  -27.5512    0.0000 C   0  0
    1.9994  -28.3025    0.0000 C   0  0
    2.8205  -28.3831    0.0000 C   0  0
    3.1612  -29.1345    0.0000 C   0  0
    3.9822  -29.2151    0.0000 C   0  0
    4.3230  -29.9664    0.0000 C   0  0
    5.1440  -30.0470    0.0000 N   0  0
    3.8426  -30.6372    0.0000 O   0  0
    5.6244  -29.3763    0.0000 C   0  0  1  0  0  0
    6.4454  -29.4569    0.0000 C   0  0
    5.2836  -28.6249    0.0000 C   0  0
    5.7640  -27.9542    0.0000 C   0  0
    5.4232  -27.2028    0.0000 C   0  0
    5.9036  -26.5321    0.0000 C   0  0
    5.5628  -25.7807    0.0000 N   0  0
    6.7861  -30.2082    0.0000 O   0  0
    6.9257  -28.7861    0.0000 N   0  0
    7.7468  -28.8667    0.0000 C   0  0
    8.2271  -28.1960    0.0000 C   0  0
    9.0482  -28.2766    0.0000 C   0  0
    9.5285  -27.6058    0.0000 C   0  0
   10.3496  -27.6864    0.0000 C   0  0
   10.8299  -27.0157    0.0000 C   0  0
   11.6509  -27.0963    0.0000 N   0  0
   10.4892  -26.2643    0.0000 O   0  0
   12.1313  -26.4255    0.0000 C   0  0  1  0  0  0
   12.9523  -26.5061    0.0000 C   0  0
   11.7905  -25.6742    0.0000 C   0  0
   12.2709  -25.0034    0.0000 C   0  0
   11.9301  -24.2521    0.0000 C   0  0
   12.4105  -23.5813    0.0000 N   0  0
   12.0697  -22.8300    0.0000 C   0  0
   12.5501  -22.1592    0.0000 N   0  0
   11.2487  -22.7494    0.0000 N   0  0
   13.2930  -27.2575    0.0000 O   0  0
   13.4326  -25.8354    0.0000 N   0  0
   14.2537  -25.9160    0.0000 C   0  0  1  0  0  0
   14.7340  -25.2452    0.0000 C   0  0
   14.3933  -24.4939    0.0000 O   0  0
   14.5944  -26.6673    0.0000 C   0  0
   14.1141  -27.3381    0.0000 C   0  0
   14.4548  -28.0894    0.0000 C   0  0
   13.9745  -28.7602    0.0000 N   0  0
   14.3152  -29.5115    0.0000 C   0  0
   13.8349  -30.1823    0.0000 N   0  0
   15.1363  -29.5921    0.0000 N   0  0
 28 30  1  6
 57 58  2  0
 58 53  1  0
 55  2  1  0
 15 16  1  0
  2 59  1  0
 30 31  1  0
  8  9  1  0
 31 32  1  0
 16 17  1  0
 32 33  1  0
  3  2  2  0
 59 60  1  0
 60 61  1  0
 59 62  1  0
 63 64  1  0
 64 65  1  0
 65 61  1  0
 62 63  1  0
 33 34  1  0
 64 66  1  0
 17 18  1  0
 66 67  1  0
 34 35  1  0
 67 68  1  0
  9 10  1  0
 68 69  1  0
 34 36  2  0
 69 70  1  0
 17 19  2  0
 70 71  1  0
 29 37  2  0
 71 72  1  0
  5  6  1  0
 72 73  1  0
 29 38  1  0
 73 74  1  0
 16 20  1  1
 73 75  2  0
 38 39  1  0
 74 76  1  0
 10 11  1  0
 76 77  1  0
 39 40  1  0
 76 78  1  6
 40  4  1  0
 78 79  1  0
 20 21  1  0
 79 80  1  0
 40 41  2  0
 80 81  1  0
 81 82  1  0
 39 42  1  1
 77 83  2  0
 21 22  1  0
 77 84  1  0
 42 43  1  0
 84 85  1  0
 11 12  1  0
 85 86  1  0
 43 44  1  0
 86 87  1  0
 22 23  1  0
 87 88  1  0
 44 45  1  0
 88 89  1  0
  5  7  1  6
 89 90  1  0
 45 46  1  0
 90 91  1  0
 23 24  1  0
 90 92  2  0
 46 47  1  0
 91 93  1  0
 11 13  2  0
 93 94  1  0
 46 48  2  0
 93 95  1  6
 24 25  1  0
 95 96  1  0
  2  1  2  0
 96 97  1  0
 49 50  2  0
 97 98  1  0
 24 26  2  0
 98 99  1  0
 50 51  1  0
 99100  1  0
 51 54  2  0
 99101  2  0
  6 14  2  0
 94102  2  0
 53 52  2  0
 94103  1  0
 52 49  1  0
103104  1  0
  7  8  1  0
104105  1  0
105 27  1  0
 27 28  1  0
105106  2  0
 53 54  1  0
104107  1  1
  6 15  1  0
107108  1  0
 54 55  1  0
108109  1  0
 28 29  1  0
109110  1  0
 55 56  2  0
110111  1  0
  4  5  1  0
111112  1  0
 56 57  1  0
111113  2  0
M  END