
          03140815512D 1   1.00000     0.00000     0

 23 24  0     0  0            999 V2000
    7.6042  -10.2750    0.0000 N   0  0  3  0  0  0           0  0  0
    7.6042  -11.1000    0.0000 C   0  0  0  0  0  0           0  0  0
    8.3162  -11.5083    0.0000 C   0  0  0  0  0  0           0  0  0
    9.0282  -11.1000    0.0000 O   0  0  0  0  0  0           0  0  0
    9.0282  -10.2750    0.0000 C   0  0  0  0  0  0           0  0  0
    8.3162   -9.8583    0.0000 C   0  0  0  0  0  0           0  0  0
    6.8885   -9.8646    0.0000 C   0  0  0  0  0  0           0  0  0
    6.8861   -9.0396    0.0000 O   0  0  0  0  0  0           0  0  0
    6.1752  -10.2792    0.0000 C   0  0  0  0  0  0           0  0  0
    5.4596   -9.8688    0.0000 S   0  0  0  0  0  0           0  0  0
    4.7463  -10.2834    0.0000 C   0  0  0  0  0  0           0  0  0
    4.0293   -9.8732    0.0000 C   0  0  0  0  0  0           0  0  0
    3.3168  -10.2872    0.0000 C   0  0  0  0  0  0           0  0  0
    3.3232  -11.1130    0.0000 C   0  0  0  0  0  0           0  0  0
    4.0392  -11.5233    0.0000 C   0  0  0  0  0  0           0  0  0
    4.7490  -11.1070    0.0000 C   0  0  0  0  0  0           0  0  0
    5.4655  -11.5159    0.0000 C   0  0  0  0  0  0           0  0  0
    5.4696  -12.3440    0.0000 O   0  0  0  0  0  0           0  0  0
    6.1779  -11.1029    0.0000 O   0  0  0  0  0  0           0  0  0
    2.6110  -11.5295    0.0000 C   0  0  3  0  0  0           0  0  0
    1.8917  -11.9375    0.0000 F   0  0  0  0  0  0           0  0  0
    3.0228  -12.2444    0.0000 F   0  0  0  0  0  0           0  0  0
    2.2010  -10.8135    0.0000 F   0  0  0  0  0  0           0  0  0
  4  5  1  0     0  0
 11 12  2  0     0  0
  5  6  1  0     0  0
 12 13  1  0     0  0
 13 14  2  0     0  0
  1  7  1  0     0  0
 14 15  1  0     0  0
  1  2  1  0     0  0
 15 16  2  0     0  0
 16 11  1  0     0  0
  7  8  2  0     0  0
 16 17  1  0     0  0
  1  6  1  0     0  0
  7  9  1  0     0  0
 17 18  1  0     0  0
 17 19  2  0     0  0
  2  3  1  0     0  0
 14 20  1  0     0  0
  9 10  1  0     0  0
 20 21  1  0     0  0
  3  4  1  0     0  0
 20 22  1  0     0  0
 10 11  1  0     0  0
 20 23  1  0     0  0
M  END