
          11280715292D 1   1.00000     0.00000     0

 15 16  0     0  0            999 V2000
    3.9667   -1.5667    0.0000 N   0  0  3  0  0  0           0  0  0
    3.1750   -2.6500    0.0000 C   0  0  0  0  0  0           0  0  0
    3.9667   -2.9042    0.0000 C   0  0  0  0  0  0           0  0  0
    3.1792   -1.8167    0.0000 C   0  0  0  0  0  0           0  0  0
    4.4542   -2.2292    0.0000 C   0  0  0  0  0  0           0  0  0
    4.2250   -0.7792    0.0000 C   0  0  0  0  0  0           0  0  0
    2.4625   -3.0625    0.0000 C   0  0  0  0  0  0           0  0  0
    5.0292   -0.6125    0.0000 C   0  0  0  0  0  0           0  0  0
    2.4625   -1.4042    0.0000 C   0  0  0  0  0  0           0  0  0
    1.7500   -1.8250    0.0000 C   0  0  0  0  0  0           0  0  0
    1.7500   -2.6500    0.0000 C   0  0  0  0  0  0           0  0  0
    2.4667   -3.8875    0.0000 C   0  0  0  0  0  0           0  0  0
    5.2417    0.1875    0.0000 C   0  0  3  0  0  0           0  0  0
    6.0417    0.4083    0.0000 C   0  0  0  0  0  0           0  0  0
    4.6542    0.7708    0.0000 C   0  0  0  0  0  0           0  0  0
  2  4  1  0     0  0
  3  5  2  0     0  0
  4  1  1  0     0  0
  5  1  1  0     0  0
  6  1  1  0     0  0
  7  2  2  0     0  0
  8  6  1  0     0  0
  9  4  2  0     0  0
 10  9  1  0     0  0
 11 10  2  0     0  0
 12  7  1  0     0  0
 13  8  1  0     0  0
 14 13  1  0     0  0
 15 13  1  0     0  0
  2  3  1  0     0  0
 11  7  1  0     0  0
M  END