
  SciTegic04191613082D

187198  0  0  1  0            999 V2000
  -14.6374    7.7967    0.0000 C   0  0
  -13.2802    8.4376    0.0000 C   0  0
  -13.1557    9.9332    0.0000 N   0  0
  -11.7986   10.5740    0.0000 C   0  0
  -10.8125    9.8902    0.0000 N   0  0
  -11.6990   11.7699    0.0000 N   0  0
  -14.7619    6.3011    0.0000 C   0  0
  -16.1297    5.6553    0.0000 C   0  0  1  0  0  0
  -15.1784    4.4954    0.0000 C   0  0
  -14.4801    3.1679    0.0000 N   0  0
  -14.0634    1.7269    0.0000 C   0  0  2  0  0  0
  -13.9452    0.2316    0.0000 C   0  0
  -12.7455    0.2046    0.0000 O   0  0
  -14.1305   -1.2569    0.0000 N   0  0
  -14.6116   -2.6777    0.0000 C   0  0  1  0  0  0
  -13.2342   -3.3026    0.0000 C   0  0
  -12.0132   -2.4298    0.0000 C   0  0
  -12.6577   -1.0752    0.0000 C   0  0
  -11.8069    0.1602    0.0000 C   0  0
  -10.3116    0.0411    0.0000 C   0  0
   -9.6671   -1.3134    0.0000 C   0  0
  -10.5179   -2.5488    0.0000 C   0  0
  -15.3688   -3.9725    0.0000 C   0  0
  -14.3996   -4.6800    0.0000 O   0  0
  -16.3712   -5.0884    0.0000 N   0  0
  -17.5777   -5.9796    0.0000 C   0  0  2  0  0  0
  -16.4100   -6.9410    0.0000 C   0  0
  -15.4737   -6.5899    0.0000 O   0  0
  -16.6559   -8.4216    0.0000 N   0  0
  -15.4972   -9.3755    0.0000 C   0  0  1  0  0  0
  -15.7430  -10.8560    0.0000 C   0  0
  -14.5844  -11.8100    0.0000 C   0  0
  -14.8302  -13.2905    0.0000 C   0  0
  -13.6716  -14.2444    0.0000 C   0  0
  -13.8681  -15.4282    0.0000 N   0  0
  -14.0908   -8.8514    0.0000 C   0  0
  -13.1652   -9.6152    0.0000 O   0  0
  -13.8918   -7.6681    0.0000 O   0  0
  -18.9390   -6.6098    0.0000 C   0  0
  -20.3992   -6.9530    0.0000 N   0  0
  -21.8986   -6.9953    0.0000 C   0  0
  -23.3758   -6.7349    0.0000 C   0  0
  -24.7704   -6.1824    0.0000 C   0  0
  -26.0367   -5.3767    0.0000 C   0  0
  -24.8077   -6.2368    0.0000 C   0  0
  -23.4381   -6.8486    0.0000 C   0  0
  -21.9775   -7.1902    0.0000 C   0  0
  -20.4787   -7.2493    0.0000 N   0  0
  -18.9958   -7.0236    0.0000 C   0  0  1  0  0  0
  -17.5824   -6.5213    0.0000 C   0  0
  -16.2895   -5.7607    0.0000 N   0  0
  -15.1640   -4.7691    0.0000 C   0  0  1  0  0  0
  -14.0627   -5.8061    0.0000 C   0  0
  -12.6251   -5.3751    0.0000 C   0  0
  -11.5314   -6.4017    0.0000 C   0  0
  -10.0955   -5.9680    0.0000 C   0  0
   -9.7531   -4.5076    0.0000 C   0  0
  -10.8467   -3.4809    0.0000 C   0  0
  -12.2826   -3.9146    0.0000 C   0  0
   -8.6044   -4.1607    0.0000 F   0  0
  -14.2465   -3.5824    0.0000 C   0  0
  -13.5702   -2.2435    0.0000 N   0  0
  -13.1595   -0.8009    0.0000 C   0  0  2  0  0  0
  -11.6721   -1.0770    0.0000 C   0  0  2  0  0  0
  -11.2723   -2.2084    0.0000 C   0  0
  -11.0220   -0.3172    0.0000 O   0  0
  -13.0292    0.6935    0.0000 C   0  0
  -11.8292    0.7033    0.0000 O   0  0
  -13.1840    2.1854    0.0000 N   0  0
  -11.7138    1.8467    0.0000 C   0  0
  -10.6877    2.9408    0.0000 C   0  0
  -11.1221    4.3765    0.0000 C   0  0
  -12.5827    4.7181    0.0000 C   0  0
  -13.6185    3.6212    0.0000 C   0  0  2  0  0  0
  -14.3168    4.9487    0.0000 C   0  0
  -13.3126    5.6058    0.0000 O   0  0
  -15.2537    6.1201    0.0000 N   0  0
  -16.3953    7.0930    0.0000 C   0  0  1  0  0  0
  -15.5257    8.3308    0.0000 C   0  0
  -16.1569    9.6924    0.0000 C   0  0
  -17.6615    9.8375    0.0000 C   0  0
  -18.2897   11.1964    0.0000 C   0  0
  -19.7807   11.3315    0.0000 C   0  0
  -20.4089   12.6904    0.0000 C   0  0
  -19.5462   13.9141    0.0000 C   0  0
  -18.0553   13.7790    0.0000 C   0  0
  -17.4270   12.4202    0.0000 C   0  0
  -15.9361   12.2851    0.0000 C   0  0
  -15.2929   10.9157    0.0000 C   0  0
  -17.7005    7.8323    0.0000 C   0  0
  -17.2110    8.9279    0.0000 O   0  0
  -19.1220    8.3112    0.0000 N   0  0
  -20.6084    8.5125    0.0000 C   0  0  1  0  0  0
  -20.5460   10.0239    0.0000 C   0  0
  -21.8132   10.8282    0.0000 C   0  0
  -21.7512   12.3277    0.0000 C   0  0
  -23.0184   13.1319    0.0000 N   0  0
  -22.9564   14.6315    0.0000 C   0  0
  -21.8932   15.1877    0.0000 N   0  0
  -23.9696   15.2745    0.0000 N   0  0
  -22.1061    8.4288    0.0000 C   0  0
  -22.2867    9.6151    0.0000 O   0  0
  -23.5609    8.0632    0.0000 N   0  0
  -24.9201    7.4288    0.0000 C   0  0  2  0  0  0
  -26.1348    6.5487    0.0000 C   0  0
  -27.1610    5.4546    0.0000 N   0  0
  -27.9615    4.1861    0.0000 C   0  0  1  0  0  0
  -28.5075    2.7890    0.0000 C   0  0
  -29.6617    3.1176    0.0000 O   0  0
  -28.7793    1.3139    0.0000 N   0  0
  -28.7669   -0.1861    0.0000 C   0  0  1  0  0  0
  -28.4709   -1.6566    0.0000 C   0  0
  -27.9020   -3.0445    0.0000 N   0  0
  -27.0807   -4.2997    0.0000 C   0  0
  -28.0178   -5.0492    0.0000 O   0  0
  -28.7134    1.3139    0.0000 C   0  0
  -29.9032    1.4699    0.0000 O   0  0
  -28.3785    2.7760    0.0000 N   0  0
  -27.7561    4.1408    0.0000 C   0  0  1  0  0  0
  -26.8717    5.3524    0.0000 C   0  0
  -27.7645    6.1543    0.0000 O   0  0
  -25.7616    6.3611    0.0000 N   0  0
  -24.4711    7.1257    0.0000 C   0  0  1  0  0  0
  -24.6017    8.6327    0.0000 C   0  0
  -25.9610    9.2689    0.0000 C   0  0
  -26.0905   10.7641    0.0000 C   0  0
  -27.4498   11.4004    0.0000 N   0  0
  -27.5794   12.8956    0.0000 C   0  0
  -26.5956   13.5828    0.0000 N   0  0
  -28.6662   13.4044    0.0000 N   0  0
  -23.0531    7.6150    0.0000 C   0  0
  -21.5657    7.8087    0.0000 N   0  0
  -20.0697    7.6991    0.0000 C   0  0  2  0  0  0
  -19.8100    9.1892    0.0000 C   0  0
  -18.4010    9.7061    0.0000 C   0  0
  -17.6532   11.0074    0.0000 C   0  0
  -16.1523   11.0112    0.0000 N   0  0
  -15.4045   12.3125    0.0000 C   0  0
  -16.0068   13.3503    0.0000 N   0  0
  -14.2045   12.3156    0.0000 N   0  0
  -18.6264    7.2906    0.0000 C   0  0
  -17.2949    6.5999    0.0000 N   0  0
  -18.1845    8.4062    0.0000 O   0  0
  -23.3277    8.7831    0.0000 O   0  0
  -29.0633    4.9019    0.0000 C   0  0
  -30.3662    4.1570    0.0000 C   0  0
  -31.6632    4.9121    0.0000 C   0  0
  -32.9662    4.1673    0.0000 N   0  0
  -34.2632    4.9224    0.0000 C   0  0
  -35.3050    4.3269    0.0000 N   0  0
  -34.2584    6.1224    0.0000 N   0  0
  -29.3104    4.8708    0.0000 C   0  0
  -29.3922    6.3694    0.0000 C   0  0
  -30.7288    7.0503    0.0000 C   0  0
  -30.8075    8.5483    0.0000 C   0  0
  -29.5496    9.3654    0.0000 C   0  0
  -28.2130    8.6846    0.0000 C   0  0
  -28.1343    7.1866    0.0000 C   0  0
  -26.9281    7.4491    0.0000 O   0  0
  -25.4272    8.2907    0.0000 C   0  0
  -13.2317   -4.2228    0.0000 O   0  0
  -17.1595   -7.4275    0.0000 O   0  0
  -18.6299   -8.4914    0.0000 C   0  0
  -19.7089   -9.5346    0.0000 C   0  0
  -19.3482  -10.9906    0.0000 C   0  0
  -20.4287  -12.0310    0.0000 C   0  0
  -21.8700  -11.6155    0.0000 C   0  0
  -22.2308  -10.1595    0.0000 C   0  0
  -21.1503   -9.1191    0.0000 C   0  0
  -22.1117   -8.1812    0.0000 O   0  0
  -22.8817   -7.0927    0.0000 C   0  0
  -21.9717   -7.9926    0.0000 O   0  0
  -12.7478    0.9806    0.0000 C   0  0
  -11.4533    1.7401    0.0000 C   0  0
   -9.9761    1.4937    0.0000 C   0  0
   -9.0224    2.6681    0.0000 C   0  0
   -9.5487    4.0696    0.0000 C   0  0
  -11.0258    4.3147    0.0000 C   0  0
  -11.5521    5.7162    0.0000 C   0  0
  -10.6014    6.8726    0.0000 C   0  0
   -9.1243    6.6275    0.0000 C   0  0
   -8.5980    5.2260    0.0000 C   0  0
  -11.9766    3.1583    0.0000 C   0  0
  -14.3450    5.0481    0.0000 O   0  0
  -28.7532    0.8138    0.0000 H   0  0
  -13.4827    4.6119    0.0000 H   0  0
  -12.6326   -1.6508    0.0000 H   0  0
  1  2  1  0
  2  3  1  0
  3  4  1  0
  4  5  1  0
  4  6  2  0
  7  1  1  0
  8  7  1  1
  8  9  1  0
  9 10  1  0
 11 10  1  0
 12 11  1  0
 12 13  2  0
 14 12  1  0
 15 14  1  0
 15 16  1  1
 16 17  1  0
 17 18  2  0
 18 19  1  0
 19 20  2  0
 20 21  1  0
 21 22  2  0
 22 17  1  0
 23 15  1  0
 23 24  2  0
 25 23  1  0
 26 25  1  0
 26 27  1  6
 27 28  2  0
 27 29  1  0
 30 29  1  6
 30 31  1  0
 31 32  1  0
 32 33  1  0
 33 34  1  0
 34 35  1  0
 30 36  1  0
 36 37  2  0
 36 38  1  0
 26 39  1  0
 40 39  1  0
 41 40  1  0
 42 41  1  0
 42 43  2  0
 43 44  1  0
 44 45  2  0
 45 46  1  0
 47 46  1  0
 48 47  1  0
 48 49  1  0
 49 50  1  0
 51 50  1  0
 52 51  1  0
 52 53  1  6
 53 54  1  0
 54 55  2  0
 55 56  1  0
 56 57  2  0
 57 58  1  0
 58 59  2  0
 59 54  1  0
 57 60  1  0
 61 52  1  0
 62 61  1  0
 63 62  1  0
 63 64  1  0
 64 65  1  1
 64 66  1  0
 63 67  1  0
 67 68  2  0
 69 67  1  0
 70 69  1  0
 71 70  1  0
 72 71  1  0
 73 72  1  0
 74 73  1  0
 74 69  1  0
 74 75  1  0
 75 76  2  0
 77 75  1  0
 78 77  1  0
 78 79  1  6
 79 80  1  0
 80 81  2  0
 81 82  1  0
 82 83  2  0
 83 84  1  0
 84 85  2  0
 85 86  1  0
 86 87  2  0
 87 82  1  0
 87 88  1  0
 88 89  2  0
 89 80  1  0
 78 90  1  0
 90 91  2  0
 90 92  1  0
 92 93  1  0
 93 94  1  6
 94 95  1  0
 95 96  1  0
 96 97  1  0
 97 98  1  0
 98 99  1  0
 98100  2  0
 93101  1  0
101102  2  0
101103  1  0
103104  1  0
104105  1  0
105106  1  0
106107  1  0
107108  1  0
108109  2  0
108110  1  0
110111  1  0
111112  1  0
112113  1  0
114113  1  0
 44114  1  0
114115  2  0
111116  1  0
116117  2  0
116118  1  0
118119  1  0
119120  1  0
120121  2  0
120122  1  0
122123  1  0
123124  1  1
124125  1  0
125126  1  0
126127  1  0
127128  1  0
128129  1  0
128130  2  0
123131  1  0
131132  1  0
132133  1  0
133134  1  6
134135  1  0
135136  1  0
136137  1  0
137138  1  0
138139  1  0
138140  2  0
133141  1  0
141142  1  0
142  8  1  0
141143  2  0
131144  2  0
119145  1  6
145146  1  0
146147  1  0
147148  1  0
148149  1  0
149150  2  0
149151  1  0
107152  1  1
152153  1  0
154153  1  0
155154  2  0
156155  1  0
157156  2  0
158157  1  0
153158  2  0
105159  2  0
104160  1  6
 61161  2  0
 50162  2  0
 49163  1  1
163164  1  0
165164  1  0
166165  2  0
167166  1  0
168167  2  0
169168  1  0
164169  2  0
 47170  2  0
 46171  2  0
171 42  1  0
 41172  2  0
 11173  1  1
173174  1  0
174175  2  0
175176  1  0
176177  2  0
178177  1  0
179178  1  0
180179  2  0
181180  1  0
182181  2  0
177182  1  0
178183  2  0
183174  1  0
  9184  2  0
111185  1  1
 74186  1  6
 63187  1  6
M  END