
  CDK    9/16/09,9:57

 21 22  0  0  0  0  0  0  0  0999 V2000
   -2.1388    0.5304    0.0000 C   0  0  0  0  0  0  0  0  0  0  0  0
   -2.1141   -0.2943    0.0000 C   0  0  0  0  0  0  0  0  0  0  0  0
   -1.3876   -0.6852    0.0000 N   0  0  0  0  0  0  0  0  0  0  0  0
   -0.6858   -0.2515    0.0000 C   0  0  0  0  0  0  0  0  0  0  0  0
    0.0407   -0.6425    0.0000 N   0  0  0  0  0  0  0  0  0  0  0  0
   -0.7105    0.5731    0.0000 N   0  0  0  0  0  0  0  0  0  0  0  0
    0.7425   -0.2088    0.0000 C   0  0  0  0  0  0  0  0  0  0  0  0
    0.7178    0.6158    0.0000 O   0  0  0  0  0  0  0  0  0  0  0  0
   -2.8653    0.9213    0.0000 C   0  0  0  0  0  0  0  0  0  0  0  0
   -2.8900    1.7460    0.0000 C   0  0  0  0  0  0  0  0  0  0  0  0
   -2.4755    3.0149    0.0000 C   0  0  0  0  0  0  0  0  0  0  0  0
   -3.3005    3.0159    0.0000 N   0  0  0  0  0  0  0  0  0  0  0  0
   -3.5583    2.2321    0.0000 C   0  0  0  0  0  0  0  0  0  0  0  0
   -2.2240    2.2304    0.0000 N   0  0  0  0  0  0  0  0  0  0  0  0
    1.4690   -0.5997    0.0000 C   0  0  0  0  0  0  0  0  0  0  0  0
    1.4936   -1.4244    0.0000 C   0  0  0  0  0  0  0  0  0  0  0  0
    0.7914   -1.8527    0.0000 C   0  0  0  0  0  0  0  0  0  0  0  0
    0.8157   -2.6766    0.0000 C   0  0  0  0  0  0  0  0  0  0  0  0
    1.5428   -3.0684    0.0000 C   0  0  0  0  0  0  0  0  0  0  0  0
    2.2468   -2.6302    0.0000 C   0  0  0  0  0  0  0  0  0  0  0  0
    2.2190   -1.8078    0.0000 C   0  0  0  0  0  0  0  0  0  0  0  0
  2  3  1  0  0  0  0 
  4  6  2  0  0  0  0 
  1  2  1  0  0  0  0 
  5  7  1  0  0  0  0 
 12 13  1  0  0  0  0 
 13 10  2  0  0  0  0 
 10 14  1  0  0  0  0 
 14 11  2  0  0  0  0 
  3  4  1  0  0  0  0 
  7 15  1  0  0  0  0 
  7  8  2  0  0  0  0 
 15 16  1  0  0  0  0 
 16 17  2  0  0  0  0 
  1  9  1  0  0  0  0 
 17 18  1  0  0  0  0 
  4  5  1  0  0  0  0 
 18 19  2  0  0  0  0 
  9 10  1  0  0  0  0 
 19 20  1  0  0  0  0 
 11 12  1  0  0  0  0 
 20 21  2  0  0  0  0 
 21 16  1  0  0  0  0 
M  END