
  SciTegic04191613082D

171180  0  0  1  0            999 V2000
    2.1369   -7.6278    0.0000 O   0  0
    1.8611   -6.6666    0.0000 C   0  0
    3.2536   -6.1091    0.0000 N   0  0
    4.5055   -5.2827    0.0000 C   0  0  2  0  0  0
    5.5653   -4.2212    0.0000 C   0  0
    6.4959   -4.9788    0.0000 O   0  0
    6.3898   -2.9681    0.0000 N   0  0
    6.9451   -1.5747    0.0000 C   0  0  1  0  0  0
    8.3988   -1.9925    0.0000 C   0  0
    8.7619   -3.4487    0.0000 C   0  0
   10.2044   -3.8633    0.0000 C   0  0
   10.5675   -5.3195    0.0000 N   0  0
   12.0099   -5.7341    0.0000 C   0  0
   12.3003   -6.8984    0.0000 N   0  0
   12.8734   -4.9008    0.0000 N   0  0
    7.2086   -0.0980    0.0000 C   0  0
    7.1694    1.4015    0.0000 N   0  0
    6.8292    2.8624    0.0000 C   0  0  1  0  0  0
    6.2019    4.2249    0.0000 C   0  0
    5.3132    5.4333    0.0000 N   0  0
    4.1994    6.4380    0.0000 C   0  0
    2.9061    7.1979    0.0000 C   0  0
    3.5142    7.1498    0.0000 C   0  0
    2.9324    7.3249    0.0000 C   0  0
    1.4932    7.7475    0.0000 C   0  0
    0.0000    7.8901    0.0000 C   0  0
   -1.4932    7.7475    0.0000 C   0  0
   -1.7204    8.9258    0.0000 O   0  0
   -2.9325    7.3249    0.0000 N   0  0
   -4.2657    6.6375    0.0000 C   0  0
   -5.4448    5.7103    0.0000 C   0  0  2  0  0  0
   -6.4271    4.5767    0.0000 N   0  0
   -7.1771    3.2776    0.0000 C   0  0
   -8.2687    3.7761    0.0000 O   0  0
   -7.6677    1.8601    0.0000 C   0  0  2  0  0  0
   -7.8812    0.3754    0.0000 N   0  0
   -7.8098   -1.1229    0.0000 C   0  0
   -8.9976   -1.2937    0.0000 O   0  0
   -7.4561   -2.5806    0.0000 C   0  0  1  0  0  0
   -6.8330   -3.9451    0.0000 N   0  0
   -5.9629   -5.1669    0.0000 C   0  0
   -4.8773   -6.2020    0.0000 C   0  0  1  0  0  0
   -3.6154   -7.0130    0.0000 N   0  0
   -2.2229   -7.5705    0.0000 C   0  0
   -2.5609   -8.7219    0.0000 O   0  0
   -0.7500   -7.8544    0.0000 C   0  0  2  0  0  0
   -0.8967   -9.3600    0.0000 C   0  0
   -2.2627   -9.9817    0.0000 C   0  0
   -2.4104  -11.4719    0.0000 C   0  0
   -3.7930  -12.0861    0.0000 C   0  0
   -5.0085  -11.2122    0.0000 C   0  0
   -6.3730  -11.8282    0.0000 C   0  0
   -7.5885  -10.9543    0.0000 C   0  0
   -7.4396   -9.4644    0.0000 C   0  0
   -6.0751   -8.8485    0.0000 C   0  0
   -4.8596   -9.7223    0.0000 C   0  0
   -3.4951   -9.1063    0.0000 C   0  0
    0.7500   -7.8544    0.0000 N   0  0
    2.2229   -7.5705    0.0000 C   0  0
    2.5610   -8.7219    0.0000 O   0  0
    3.6155   -7.0130    0.0000 C   0  0  1  0  0  0
    3.6923   -8.5197    0.0000 C   0  0
    5.0255   -9.2071    0.0000 C   0  0
    6.2874   -8.3961    0.0000 C   0  0
    6.2160   -6.8978    0.0000 C   0  0
    4.8773   -6.2020    0.0000 N   0  0
    5.9629   -5.1669    0.0000 C   0  0
    6.8698   -5.9527    0.0000 O   0  0
    6.8330   -3.9450    0.0000 C   0  0  1  0  0  0
    8.1416   -4.7039    0.0000 C   0  0
    8.1397   -6.2048    0.0000 C   0  0
    9.1777   -6.8068    0.0000 O   0  0
    7.0995   -6.8031    0.0000 O   0  0
    7.4561   -2.5806    0.0000 N   0  0
    7.8098   -1.1229    0.0000 C   0  0
    8.9976   -1.2936    0.0000 O   0  0
    7.8812    0.3754    0.0000 C   0  0
    7.6677    1.8602    0.0000 N   0  0
    7.1771    3.2777    0.0000 C   0  0
    8.0867    3.6931    0.0000 O   0  0
    6.4271    4.5767    0.0000 C   0  0  1  0  0  0
    5.4448    5.7103    0.0000 N   0  0
    6.2263    7.0009    0.0000 C   0  0
    7.6874    6.6611    0.0000 C   0  0
    7.8157    5.1666    0.0000 C   0  0
    4.2657    6.6376    0.0000 C   0  0
    4.8063    7.4788    0.0000 O   0  0
    8.8603    1.7272    0.0000 C   0  0
   -5.8147   -7.3893    0.0000 C   0  0
   -7.3000   -7.1738    0.0000 C   0  0
   -8.2300   -8.3517    0.0000 C   0  0
   -9.7153   -8.1362    0.0000 N   0  0
  -10.6453   -9.3141    0.0000 C   0  0
  -11.8329   -9.1418    0.0000 N   0  0
  -10.2011  -10.4289    0.0000 N   0  0
   -6.8698   -5.9528    0.0000 O   0  0
   -8.4011   -2.9077    0.0000 C   0  0
   -8.6395    2.0959    0.0000 C   0  0
   -6.3770    4.5339    0.0000 C   0  0
   -7.0704    3.2039    0.0000 N   0  0
   -7.4820    1.7614    0.0000 C   0  0  1  0  0  0
   -8.9726    1.5047    0.0000 C   0  0
   -9.9334    2.6576    0.0000 C   0  0
  -11.4121    2.4052    0.0000 C   0  0
  -12.3700    3.5594    0.0000 C   0  0
  -11.8494    4.9662    0.0000 C   0  0
  -10.3708    5.2187    0.0000 C   0  0
   -9.4128    4.0645    0.0000 C   0  0
   -7.5947    0.2657    0.0000 C   0  0
   -8.7943    0.2343    0.0000 O   0  0
   -7.4040   -1.2222    0.0000 N   0  0
   -6.9178   -2.6412    0.0000 C   0  0  1  0  0  0
   -7.9946   -3.7034    0.0000 C   0  0
   -9.4418   -3.3060    0.0000 C   0  0
  -10.5243   -4.3611    0.0000 C   0  0
  -11.9675   -3.9633    0.0000 C   0  0
  -13.0335   -5.0144    0.0000 C   0  0
  -14.4767   -4.6165    0.0000 C   0  0
  -14.8540   -3.1675    0.0000 C   0  0
  -13.7880   -2.1164    0.0000 C   0  0
  -12.3448   -2.5143    0.0000 C   0  0
  -11.2788   -1.4632    0.0000 C   0  0
   -9.8179   -1.8564    0.0000 C   0  0
   -6.1558   -3.9332    0.0000 C   0  0
   -7.1225   -4.6442    0.0000 O   0  0
   -5.1494   -5.0455    0.0000 N   0  0
   -3.9397   -5.9324    0.0000 C   0  0  1  0  0  0
   -4.7085   -7.2350    0.0000 C   0  0
   -3.9714   -8.5423    0.0000 C   0  0
   -4.2462  -10.0178    0.0000 C   0  0
   -3.1064  -10.9942    0.0000 N   0  0
   -3.3812  -12.4697    0.0000 C   0  0
   -2.4699  -13.2504    0.0000 N   0  0
   -4.5129  -12.8689    0.0000 N   0  0
   -2.5762   -6.5576    0.0000 C   0  0
   -1.1148   -6.8955    0.0000 N   0  0
    0.3848   -6.9324    0.0000 C   0  0  1  0  0  0
   -0.0248   -8.3884    0.0000 C   0  0
    1.0225   -9.4634    0.0000 C   0  0
    0.6161  -10.9082    0.0000 C   0  0
    1.6634  -11.9832    0.0000 N   0  0
    1.2570  -13.4279    0.0000 C   0  0
    0.0941  -13.7237    0.0000 N   0  0
    2.0944  -14.2874    0.0000 N   0  0
   -2.9634   -7.6934    0.0000 O   0  0
   -7.3838    5.1869    0.0000 O   0  0
    1.4864    7.6820    0.0000 C   0  0
    4.7906    7.2445    0.0000 O   0  0
    8.3416    2.8367    0.0000 C   0  0
    8.9235    1.7872    0.0000 O   0  0
    9.1148    4.1230    0.0000 N   0  0
   10.6154    4.0975    0.0000 C   0  0  1  0  0  0
   11.3886    5.3838    0.0000 C   0  0
   12.8892    5.3584    0.0000 C   0  0
   13.6624    6.6447    0.0000 C   0  0
   15.1630    6.6192    0.0000 C   0  0
   15.7812    7.6477    0.0000 N   0  0
   11.3459    2.7865    0.0000 C   0  0
   12.5457    2.7674    0.0000 O   0  0
   10.7298    1.7567    0.0000 O   0  0
    8.4052   -0.1882    0.0000 O   0  0
    5.0011   -6.7117    0.0000 C   0  0
    4.4672   -8.1144    0.0000 C   0  0
    5.4143   -9.2787    0.0000 C   0  0
    4.8804  -10.6813    0.0000 N   0  0
    5.8275  -11.8456    0.0000 C   0  0
    5.4006  -12.9671    0.0000 N   0  0
    7.0122  -11.6549    0.0000 N   0  0
    7.3754    4.2595    0.0000 H   0  0
    3.0762   -7.8551    0.0000 H   0  0
   -6.0829    4.9404    0.0000 H   0  0
  2  1  2  0
  2  3  1  0
  4  3  1  0
  5  4  1  0
  5  6  2  0
  7  5  1  0
  8  7  1  0
  8  9  1  6
  9 10  1  0
 10 11  1  0
 11 12  1  0
 12 13  1  0
 13 14  2  0
 13 15  1  0
 16  8  1  0
 17 16  1  0
 18 17  1  0
 18 19  1  0
 20 19  1  0
 21 20  1  0
 22 21  1  0
 23 22  1  0
 24 23  2  0
 25 24  1  0
 26 25  2  0
 26 27  1  0
 27 28  2  0
 27 29  1  0
 30 29  1  0
 31 30  1  0
 32 31  1  0
 33 32  1  0
 33 34  2  0
 35 33  1  0
 36 35  1  0
 37 36  1  0
 37 38  2  0
 39 37  1  0
 40 39  1  0
 41 40  1  0
 42 41  1  0
 43 42  1  0
 44 43  1  0
 44 45  2  0
 46 44  1  0
 46 47  1  1
 47 48  1  0
 49 48  1  0
 50 49  2  0
 51 50  1  0
 52 51  2  0
 53 52  1  0
 54 53  2  0
 55 54  1  0
 56 55  2  0
 51 56  1  0
 57 56  1  0
 48 57  2  0
 46 58  1  0
 58 59  1  0
 59 60  2  0
 61 59  1  0
 61 62  1  0
 62 63  1  0
 63 64  1  0
 64 65  1  0
 65 66  1  0
 66 67  1  0
 67 68  2  0
 67 69  1  0
 69 70  1  6
 70 71  1  0
 71 72  2  0
 71 73  1  0
 69 74  1  0
 74 75  1  0
 75 76  2  0
 75 77  1  0
 77 78  1  0
 78 79  1  0
 79 80  2  0
 81 79  1  0
 82 81  1  0
 83 82  1  0
 84 83  1  0
 85 84  1  0
 81 85  1  0
 82 86  1  0
 86 87  2  0
 86 24  1  0
 78 88  1  0
 61 66  1  0
 42 89  1  1
 89 90  1  0
 90 91  1  0
 91 92  1  0
 92 93  1  0
 93 94  2  0
 93 95  1  0
 41 96  2  0
 39 97  1  1
 35 98  1  6
 31 99  1  0
 99100  1  0
100101  1  0
101102  1  6
102103  1  0
104103  1  0
105104  2  0
106105  1  0
107106  2  0
108107  1  0
103108  2  0
101109  1  0
109110  2  0
109111  1  0
111112  1  0
112113  1  6
113114  1  0
114115  2  0
115116  1  0
116117  2  0
117118  1  0
118119  2  0
119120  1  0
120121  2  0
121122  1  0
122123  2  0
123114  1  0
121116  1  0
112124  1  0
124125  2  0
124126  1  0
126127  1  0
127128  1  6
128129  1  0
129130  1  0
130131  1  0
131132  1  0
132133  2  0
132134  1  0
127135  1  0
135136  1  0
136137  1  0
137  2  1  0
137138  1  6
138139  1  0
139140  1  0
140141  1  0
141142  1  0
142143  1  0
142144  2  0
135145  2  0
 99146  2  0
147 26  1  0
 22147  2  0
 21148  2  0
 18149  1  1
149150  2  0
149151  1  0
152151  1  1
152153  1  0
153154  1  0
154155  1  0
155156  1  0
156157  1  0
152158  1  0
158159  2  0
158160  1  0
 16161  2  0
  4162  1  6
162163  1  0
163164  1  0
164165  1  0
165166  1  0
166167  2  0
166168  1  0
 81169  1  6
 61170  1  1
 31171  1  6
M  END