
  SciTegic11201309402D

105114  0  0  0  0            999 V2000
   -1.6327   -8.4918    0.0000 C   0  0
   -1.5862  -10.1459    0.0000 O   0  0
    2.1800   -6.3747    0.0000 N   0  0
    1.3569   -6.3877    0.0000 C   0  0
    0.9565   -7.1090    0.0000 N   0  0
    0.9325   -5.6803    0.0000 S   0  0
    0.1317   -7.1229    0.0000 C   0  0
   -0.2871   -6.4149    0.0000 C   0  0
   -1.1112   -6.4285    0.0000 C   0  0
   -0.2608   -7.8430    0.0000 C   0  0
   -1.0835   -7.8601    0.0000 C   0  0
   -1.5141   -7.1460    0.0000 C   0  0
   -2.3264   -7.3349    0.0000 C   0  0
   -2.3977   -8.1658    0.0000 O   0  0
   -2.9499   -6.7946    0.0000 O   0  0
   -0.9033   -8.8806    0.0000 C   0  0
   -0.8840   -9.7100    0.0000 C   0  0
   -0.1573  -10.1062    0.0000 C   0  0
    0.5506   -9.6741    0.0000 C   0  0
    0.5272   -8.8417    0.0000 C   0  0
   -0.2000   -8.4493    0.0000 C   0  0
   -2.3141   -9.7508    0.0000 C   0  0
   -2.3355   -8.9287    0.0000 C   0  0
   -3.0570   -8.5379    0.0000 C   0  0
   -3.7577   -8.9681    0.0000 C   0  0
   -3.7322   -9.7933    0.0000 C   0  0
   -3.0102  -10.1804    0.0000 C   0  0
    1.2756  -10.0678    0.0000 O   0  0
   -4.4335  -10.2278    0.0000 O   0  0
   11.4443   -7.5380    0.0000 C   0  0
   12.2691   -7.5211    0.0000 N   0  0
   11.0465   -8.2607    0.0000 O   0  0
   12.6961   -8.2270    0.0000 C   0  0  2  0  0  0
   13.5210   -8.2101    0.0000 C   0  0
   12.2983   -8.9498    0.0000 C   0  0  1  0  0  0
   11.4735   -8.9666    0.0000 C   0  0
   12.7254   -9.6556    0.0000 O   0  0
   13.9480   -8.9160    0.0000 N   0  0
   13.9188   -7.4874    0.0000 O   0  0
   10.1975   -6.8480    0.0000 N   0  0
   11.0177   -6.8323    0.0000 C   0  0  1  0  0  0
   11.2561   -6.0473    0.0000 C   0  0
   10.5831   -5.5779    0.0000 C   0  0
    9.9288   -6.0730    0.0000 C   0  0
   14.7728   -8.8991    0.0000 C   0  0  2  0  0  0
   15.1999   -9.6050    0.0000 C   0  0
   15.1706   -8.1764    0.0000 C   0  0
   14.8021  -10.3278    0.0000 O   0  0
   16.0222   -9.5881    0.0000 N   0  0
   16.0351  -10.4118    0.0000 C   0  0
   16.8222  -10.6588    0.0000 C   0  0
   17.3004   -9.9865    0.0000 C   0  0
   16.8090   -9.3224    0.0000 C   0  0  1  0  0  0
   17.1802   -8.5857    0.0000 C   0  0
   18.0031   -8.5389    0.0000 N   0  0
   16.7278   -7.8958    0.0000 O   0  0
   18.3016   -9.3073    0.0000 C   0  0
   19.1254   -9.2631    0.0000 C   0  0
   19.3379   -8.4659    0.0000 C   0  0
   18.6457   -8.0163    0.0000 C   0  0  1  0  0  0
   18.3368   -7.2513    0.0000 C   0  0
   18.8432   -6.5928    0.0000 N   0  0
   17.5198   -7.1364    0.0000 O   0  0
   11.6963   -8.2474    0.0000 H   0  0
    9.8055   -7.5739    0.0000 C   0  0
    8.9808   -7.5973    0.0000 C   0  0
   10.2381   -8.2763    0.0000 O   0  0
    8.5482   -6.8949    0.0000 N   0  0
   18.4229   -5.8830    0.0000 C   0  0  2  0  0  0
   17.5979   -5.8917    0.0000 C   0  0
   18.8269   -5.1644    0.0000 C   0  0
   19.6512   -5.1302    0.0000 C   0  0
   20.0931   -5.8269    0.0000 C   0  0
   19.7121   -6.5589    0.0000 O   0  0
   20.9189   -5.7936    0.0000 O   0  0
   17.1776   -5.1817    0.0000 N   0  0
   17.1929   -6.6104    0.0000 O   0  0
   17.4788   -4.4126    0.0000 C   0  0
   18.2949   -4.2922    0.0000 C   0  0
   18.5988   -3.5252    0.0000 N   0  0
   18.8073   -4.9388    0.0000 O   0  0
    7.7235   -6.9183    0.0000 C   0  0
    7.2910   -6.2156    0.0000 C   0  0  2  0  0  0
    7.3315   -7.6442    0.0000 O   0  0
   16.3528   -5.1972    0.0000 C   0  0
   14.7352   -4.0907    0.0000 C   0  0
    7.5575   -5.4393    0.0000 C   0  0
    6.8994   -4.9419    0.0000 C   0  0
    6.2228   -5.4141    0.0000 C   0  0
    6.4618   -6.2033    0.0000 N   0  0
    5.7640   -6.6434    0.0000 C   0  0
    5.0339   -6.2592    0.0000 C   0  0
    5.7963   -7.4678    0.0000 O   0  0
    4.3361   -6.6994    0.0000 C   0  0
    3.6061   -6.3152    0.0000 C   0  0
    2.9083   -6.7553    0.0000 C   0  0
    8.5417   -6.0667    0.0000 C   0  0
    9.2529   -5.6486    0.0000 C   0  0
    9.2506   -4.8069    0.0000 C   0  0
    9.9639   -4.3925    0.0000 C   0  0
   10.6795   -4.8030    0.0000 C   0  0
   12.6012   -4.0969    0.0000 C   0  0
   19.4174   -7.3803    0.0000 H   0  0
   17.8054   -9.2374    0.0000 H   0  0
   12.0100   -6.7082    0.0000 H   0  0
 46 49  1  0
 49 50  1  0
 22 23  2  0
 10  7  1  0
 23 24  1  0
 11 12  1  0
 50 51  1  0
 51 52  1  0
 52 53  1  0
 53 49  1  0
 24 25  2  0
 53 54  1  0
  1 16  1  0
 54 55  1  0
 25 26  1  0
 54 56  2  0
 55 57  1  0
  4  5  1  0
 26 27  2  0
 27 22  1  0
 22  2  1  0
 57 58  1  0
 58 59  1  0
 59 60  1  0
 60 55  1  0
 19 28  1  0
 60 61  1  0
  4  6  2  0
 61 62  1  0
 26 29  1  0
 61 63  2  0
 12 13  1  0
 33 64  1  1
 41 30  1  0
 40 65  1  0
 13 14  1  0
 65 66  1  0
 30 31  1  0
 65 67  2  0
 14  1  1  0
 66 68  1  0
 30 32  2  0
 62 69  1  0
  1 11  1  0
 69 70  1  0
 31 33  1  0
 69 71  1  6
  2 17  1  0
 71 72  1  0
 33 34  1  0
 72 73  1  0
 13 15  2  0
 33 35  1  0
 73 74  1  0
 73 75  2  0
  5  7  1  0
 70 76  1  0
 35 36  1  6
 70 77  2  0
 76 78  1  0
 35 37  1  0
 78 79  1  0
 16 17  2  0
 79 80  1  0
 34 38  1  0
 79 81  2  0
  7  8  2  0
 68 82  1  0
 34 39  2  0
 83 82  1  1
 40 41  1  0
 82 84  2  0
 17 18  1  0
 76 85  1  0
  1 23  1  0
 85 86  1  0
 83 87  1  0
 18 19  2  0
  8  9  1  0
 19 20  1  0
 41 42  1  0
 87 88  1  0
 88 89  1  0
 89 90  1  0
 90 83  1  0
 42 43  1  0
 90 91  1  0
 43 44  1  0
 91 92  1  0
 44 40  1  0
 91 93  2  0
  9 12  2  0
 92 94  1  0
 38 45  1  0
 94 95  1  0
 20 21  2  0
 95 96  1  0
 96  3  1  0
 45 46  1  0
 68 97  1  0
 21 16  1  0
 97 98  1  0
 45 47  1  1
 98 99  1  0
  3  4  1  0
 99100  1  0
 46 48  2  0
100101  1  0
 11 10  2  0
101102  1  0
102 86  2  0
 60103  1  1
 53104  1  1
 41105  1  6
M  END