
  SciTegic09261414482D

 26 26  0  0  0  0            999 V2000
   17.6979   -3.7290    0.0000 C   0  0
   17.6968   -4.5564    0.0000 C   0  0
   18.4115   -4.9692    0.0000 C   0  0
   18.4098   -3.3163    0.0000 C   0  0
   19.1252   -3.7253    0.0000 C   0  0
   19.1254   -4.5518    0.0000 C   0  0
   19.9115   -4.8069    0.0000 N   0  0
   20.3971   -4.1381    0.0000 C   0  0
   19.9111   -3.4698    0.0000 C   0  0
   20.1657   -2.6851    0.0000 C   0  0
   20.9726   -2.5133    0.0000 C   0  0
   21.2273   -1.7286    0.0000 N   0  0
   22.0341   -1.5569    0.0000 C   0  0
   20.6750   -1.1157    0.0000 C   0  0
   16.9834   -3.3167    0.0000 O   0  0
   16.9832   -2.4917    0.0000 C   0  0
   16.2686   -2.0794    0.0000 C   0  0
   17.6976   -2.0790    0.0000 O   0  0
   16.2684   -1.2544    0.0000 C   0  0
   15.5539   -0.8421    0.0000 C   0  0
   24.8293   -5.0982    0.0000 C   0  0
   24.4168   -5.8126    0.0000 C   0  0
   24.4168   -4.3837    0.0000 O   0  0
   25.6543   -5.0982    0.0000 O   0  0
   24.8293   -6.5271    0.0000 O   0  0
   23.5918   -5.8126    0.0000 O   0  0
  1  2  2  0
  2  3  1  0
  3  6  2  0
  5  4  2  0
  4  1  1  0
  5  6  1  0
  6  7  1  0
  7  8  1  0
  8  9  2  0
  9  5  1  0
  9 10  1  0
 10 11  1  0
 11 12  1  0
 12 13  1  0
 12 14  1  0
  1 15  1  0
 15 16  1  0
 16 17  1  0
 16 18  2  0
 17 19  1  0
 19 20  1  0
 21 22  1  0
 21 23  2  0
 21 24  1  0
 22 25  2  0
 22 26  1  0
M  END