
  SciTegic12231509382D

 23 23  0  0  0  0            999 V2000
   -1.8017    0.1076    0.0000 O   0  0
    1.7706    1.3451    0.0000 O   0  0
   -3.2307   -0.7174    0.0000 O   0  0
    3.9141    1.7576    0.0000 O   0  0
   -3.2307   -2.3674    0.0000 N   0  0
   -1.0872    0.5201    0.0000 C   0  0
    0.3417    1.3451    0.0000 C   0  0
   -1.0872    1.3451    0.0000 C   0  0
   -0.3728    0.1076    0.0000 C   0  0
   -0.3728    1.7576    0.0000 C   0  0
    0.3417    0.5201    0.0000 C   0  0
    1.0562    1.7576    0.0000 C   0  0
   -1.8017   -0.7174    0.0000 C   0  0
   -2.5162   -1.1299    0.0000 C   0  0
   -2.5162   -1.9549    0.0000 C   0  0
    2.4851    1.7576    0.0000 C   0  0
    3.1996    1.3451    0.0000 C   0  0
   -3.2307   -3.1924    0.0000 C   0  0
    4.6285    1.3451    0.0000 C   0  0
   -3.9451   -3.6049    0.0000 C   0  0
   -2.5162   -3.6049    0.0000 C   0  0
    5.3430    1.7576    0.0000 C   0  0
    4.6285    0.5201    0.0000 C   0  0
  1  6  1  0
  1 13  1  0
  2 12  1  0
  2 16  1  0
  3 14  1  0
  4 17  1  0
  4 19  1  0
  5 15  1  0
  5 18  1  0
  6  8  2  0
  6  9  1  0
  7 10  2  0
  7 11  1  0
  7 12  1  0
  8 10  1  0
  9 11  2  0
 13 14  1  0
 14 15  1  0
 16 17  1  0
 18 20  1  0
 18 21  1  0
 19 22  1  0
 19 23  1  0
M  END