
          11280715262D 1   1.00000     0.00000     0

 19 20  0     0  0            999 V2000
    7.5542   -2.5500    0.0000 C   0  0  3  0  0  0           0  0  0
    8.3667   -2.5500    0.0000 C   0  0  3  0  0  0           0  0  0
    7.9667   -1.8292    0.0000 C   0  0  3  0  0  0           0  0  0
    6.8292   -2.9542    0.0000 N   0  0  0  0  0  0           0  0  0
    6.1167   -2.5417    0.0000 C   0  0  0  0  0  0           0  0  0
    1.7917   -2.6042    0.0000 N   0  0  0  0  0  0           0  0  0
    1.6542   -3.9250    0.0000 N   0  0  0  0  0  0           0  0  0
    1.2417   -3.2125    0.0000 C   0  0  0  0  0  0           0  0  0
    2.5417   -2.9417    0.0000 C   0  0  0  0  0  0           0  0  0
    2.4542   -3.7625    0.0000 C   0  0  0  0  0  0           0  0  0
    6.1167   -1.7167    0.0000 O   0  0  0  0  0  0           0  0  0
    7.3792   -1.2417    0.0000 C   0  0  0  0  0  0           0  0  0
    8.3667   -1.1125    0.0000 C   0  0  0  0  0  0           0  0  0
    9.0792   -2.1292    0.0000 C   0  0  0  0  0  0           0  0  0
    8.9542   -3.1292    0.0000 C   0  0  0  0  0  0           0  0  0
    5.4042   -2.9500    0.0000 O   0  0  0  0  0  0           0  0  0
    3.2667   -2.5375    0.0000 C   0  0  0  0  0  0           0  0  0
    4.6917   -2.5375    0.0000 C   0  0  0  0  0  0           0  0  0
    3.9792   -2.9500    0.0000 C   0  0  0  0  0  0           0  0  0
  2  1  1  0     0  0
  3  1  1  0     0  0
  4  1  1  0     0  0
  5  4  1  0     0  0
  6  9  1  0     0  0
  7 10  1  0     0  0
  8  6  2  0     0  0
  9 17  1  0     0  0
 10  9  2  0     0  0
 11  5  2  0     0  0
 12  3  1  0     0  0
 13  3  1  0     0  0
 14  2  1  0     0  0
 15  2  1  0     0  0
 16  5  1  0     0  0
 17 19  1  0     0  0
 18 16  1  0     0  0
 19 18  1  0     0  0
  2  3  1  0     0  0
  7  8  1  0     0  0
M  END