
  SciTegic09261414532D

 12 13  0  0  0  0            999 V2000
    5.2343   -8.6719    0.0000 C   0  0
    4.4545   -8.9350    0.0000 N   0  0
    4.4662   -9.7561    0.0000 N   0  0
    5.2507   -9.9992    0.0000 C   0  0
    5.7248   -9.3287    0.0000 C   0  0
    3.8119  -10.2456    0.0000 C   0  0
    6.5432   -9.3139    0.0000 C   0  0
    7.0313   -9.9697    0.0000 N   0  0
    7.8060   -9.7069    0.0000 N   0  0
    7.7941   -8.8887    0.0000 C   0  0
    7.0120   -8.6485    0.0000 C   0  0
    5.4774   -7.8917    0.0000 C   0  0
  2  3  1  0
  1  2  2  0
  3  4  1  0
  4  5  2  0
  5  1  1  0
  3  6  1  0
  8  9  1  0
  7  8  2  0
  9 10  1  0
 10 11  2  0
 11  7  1  0
  5  7  1  0
  1 12  1  0
M  END