
          11280715362D 1   1.00000     0.00000     0

 25 28  0     0  0            999 V2000
    2.1542   -0.0542    0.0000 N   0  0  3  0  0  0           0  0  0
    1.7042    0.1958    0.0000 C   0  0  0  0  0  0           0  0  0
    2.6167   -0.8292    0.0000 C   0  0  0  0  0  0           0  0  0
    2.1667   -0.5750    0.0000 C   0  0  0  0  0  0           0  0  0
    1.6917    0.7208    0.0000 N   0  0  0  0  0  0           0  0  0
    1.1792   -0.1042    0.0000 C   0  0  0  0  0  0           0  0  0
    0.1375   -0.1125    0.0000 O   0  0  0  0  0  0           0  0  0
    0.1292    1.1000    0.0000 O   0  0  0  0  0  0           0  0  0
   -0.3875    0.1875    0.0000 C   0  0  0  0  0  0           0  0  0
    2.5917    0.7333    0.0000 C   0  0  0  0  0  0           0  0  0
    2.6042    0.2083    0.0000 C   0  0  0  0  0  0           0  0  0
    0.6625    0.1958    0.0000 C   0  0  3  0  0  0           0  0  0
   -0.3875    0.7958    0.0000 C   0  0  0  0  0  0           0  0  0
    2.6250   -1.3500    0.0000 C   0  0  0  0  0  0           0  0  0
    3.0625   -0.5625    0.0000 C   0  0  0  0  0  0           0  0  0
    0.6625    0.8000    0.0000 C   0  0  0  0  0  0           0  0  0
    3.0542   -0.0417    0.0000 Cl  0  0  0  0  0  0           0  0  0
    2.1792   -1.6125    0.0000 Cl  0  0  0  0  0  0           0  0  0
    3.5250   -1.3292    0.0000 C   0  0  0  0  0  0           0  0  0
   -0.9083   -0.1125    0.0000 C   0  0  0  0  0  0           0  0  0
    3.5167   -0.8125    0.0000 C   0  0  0  0  0  0           0  0  0
    3.0792   -1.6000    0.0000 C   0  0  0  0  0  0           0  0  0
   -0.9083    1.0958    0.0000 C   0  0  0  0  0  0           0  0  0
   -1.4250    0.1875    0.0000 C   0  0  0  0  0  0           0  0  0
   -1.4250    0.7958    0.0000 C   0  0  0  0  0  0           0  0  0
  2  1  1  0     0  0
  3  4  1  0     0  0
  4  1  1  0     0  0
  5  2  2  0     0  0
  6  2  1  0     0  0
  7 12  1  0     0  0
  8 16  1  0     0  0
  9  7  1  0     0  0
 10 11  2  0     0  0
 11  1  1  0     0  0
 12  6  1  0     0  0
 13  8  1  0     0  0
 14  3  2  0     0  0
 15  3  1  0     0  0
 16 12  1  0     0  0
 17 15  1  0     0  0
 18 14  1  0     0  0
 19 21  1  0     0  0
 20  9  2  0     0  0
 21 15  2  0     0  0
 22 14  1  0     0  0
 23 13  2  0     0  0
 24 20  1  0     0  0
 25 23  1  0     0  0
 10  5  1  0     0  0
 19 22  2  0     0  0
  9 13  1  0     0  0
 24 25  2  0     0  0
M  END