
          11280715452D 1   1.00000     0.00000     0

 29 32  0     0  0            999 V2000
   -0.6250    0.3500    0.0000 C   0  0  0  0  0  0           0  0  0
    0.0417    0.8458    0.0000 N   0  0  3  0  0  0           0  0  0
   -0.3708   -0.4292    0.0000 N   0  0  3  0  0  0           0  0  0
    0.7125    0.3583    0.0000 C   0  0  0  0  0  0           0  0  0
   -1.4500    0.3625    0.0000 N   0  0  0  0  0  0           0  0  0
    0.4542   -0.4292    0.0000 C   0  0  3  0  0  0           0  0  0
   -1.7083   -0.4167    0.0000 C   0  0  0  0  0  0           0  0  0
   -1.0375   -0.9125    0.0000 C   0  0  0  0  0  0           0  0  0
    0.0417    1.6708    0.0000 C   0  0  0  0  0  0           0  0  0
   -0.6708    2.0833    0.0000 C   0  0  0  0  0  0           0  0  0
    0.7625    2.0833    0.0000 C   0  0  0  0  0  0           0  0  0
   -2.4958   -0.6750    0.0000 C   0  0  0  0  0  0           0  0  0
    1.2500   -0.6417    0.0000 C   0  0  0  0  0  0           0  0  0
    1.5000    0.6208    0.0000 O   0  0  0  0  0  0           0  0  0
   -0.6708    2.9000    0.0000 C   0  0  0  0  0  0           0  0  0
    0.7625    2.9000    0.0000 C   0  0  0  0  0  0           0  0  0
    0.0417    3.3208    0.0000 C   0  0  0  0  0  0           0  0  0
   -3.1083   -0.1167    0.0000 O   0  0  0  0  0  0           0  0  0
    0.4500   -1.2542    0.0000 C   0  0  0  0  0  0           0  0  0
    1.2417   -1.4667    0.0000 C   0  0  0  0  0  0           0  0  0
    1.2292   -3.1125    0.0000 C   0  0  0  0  0  0           0  0  0
    1.4750    3.3208    0.0000 Cl  0  0  0  0  0  0           0  0  0
   -1.3875    3.3208    0.0000 Cl  0  0  0  0  0  0           0  0  0
    1.2292   -3.9375    0.0000 Br  0  0  0  0  0  0           0  0  0
    0.5250   -1.8750    0.0000 C   0  0  0  0  0  0           0  0  0
    1.9542   -1.8750    0.0000 C   0  0  0  0  0  0           0  0  0
    1.9542   -2.7000    0.0000 C   0  0  0  0  0  0           0  0  0
    0.5167   -2.7000    0.0000 C   0  0  0  0  0  0           0  0  0
   -2.6708   -1.4792    0.0000 C   0  0  0  0  0  0           0  0  0
  2  1  1  0     0  0
  3  1  1  0     0  0
  4  2  1  0     0  0
  5  1  2  0     0  0
  6  3  1  0     0  0
  7  5  1  0     0  0
  8  3  1  0     0  0
  9  2  1  0     0  0
 10  9  1  0     0  0
 11  9  2  0     0  0
 12  7  1  0     0  0
 13  6  1  0     0  0
 14  4  2  0     0  0
 15 10  2  0     0  0
 16 11  1  0     0  0
 17 16  2  0     0  0
 18 12  2  0     0  0
 19  6  1  0     0  0
 20 13  1  0     0  0
 21 27  1  0     0  0
 22 16  1  0     0  0
 23 15  1  0     0  0
 24 21  1  0     0  0
 25 20  2  0     0  0
 26 20  1  0     0  0
 27 26  2  0     0  0
 28 25  1  0     0  0
 29 12  1  0     0  0
  8  7  2  0     0  0
  6  4  1  0     0  0
 15 17  1  0     0  0
 28 21  2  0     0  0
M  END