
  SciTegic05061116452D

 24 26  0  0  0  0            999 V2000
   -4.5223  -13.1083    0.0000 C   0  0
   -4.5234  -13.9357    0.0000 C   0  0
   -3.8086  -14.3485    0.0000 C   0  0
   -3.8104  -12.6955    0.0000 C   0  0
   -3.0950  -13.1047    0.0000 C   0  0
   -3.0943  -13.9315    0.0000 C   0  0
   -2.3790  -14.3425    0.0000 N   0  0
   -1.6639  -13.9277    0.0000 C   0  0
   -1.6687  -13.0977    0.0000 C   0  0
   -2.3846  -12.6905    0.0000 N   0  0
   -0.9479  -14.3374    0.0000 O   0  0
   -0.9446  -15.1624    0.0000 C   0  0
   -0.2286  -15.5721    0.0000 C   0  0
   -0.9568  -12.6809    0.0000 C   0  0
   -0.2398  -13.0890    0.0000 N   0  0
   -0.2388  -13.9179    0.0000 C   0  0
    0.4741  -14.3260    0.0000 C   0  0
    1.1885  -13.9126    0.0000 N   0  0
    1.1854  -13.0867    0.0000 C   0  0
    0.4680  -12.6740    0.0000 C   0  0
   -0.9618  -11.8559    0.0000 O   0  0
    1.9039  -14.3235    0.0000 C   0  0
    2.6174  -13.9093    0.0000 C   0  0
    3.3328  -14.3202    0.0000 C   0  0
  2  3  1  0
 11 12  1  0
  5  6  1  0
 12 13  1  0
  3  6  2  0
  9 14  1  0
  6  7  1  0
 14 15  1  0
 15 16  1  0
  1  2  2  0
  7  8  2  0
  5  4  2  0
  8  9  1  0
  4  1  1  0
 15 20  1  0
 16 17  1  0
 17 18  1  0
 18 19  1  0
 19 20  1  0
  9 10  2  0
 14 21  2  0
 10  5  1  0
 18 22  1  0
 22 23  1  0
  8 11  1  0
 23 24  2  0
M  END