
  CDK    9/16/09,10:2

 84 88  0  0  0  0  0  0  0  0999 V2000
    9.4451   -5.1151    0.0000 C   0  0  0  0  0  0  0  0  0  0  0  0
    8.0161   -5.1176    0.0000 O   0  0  0  0  0  0  0  0  0  0  0  0
    8.7312   -4.7038    0.0000 C   0  0  0  0  0  0  0  0  0  0  0  0
   10.1583   -4.7024    0.0000 C   0  0  0  0  0  0  0  0  0  0  0  0
   10.1576   -3.8767    0.0000 C   0  0  0  0  0  0  0  0  0  0  0  0
   10.8697   -3.4647    0.0000 C   0  0  0  0  0  0  0  0  0  0  0  0
   10.8680   -2.6402    0.0000 O   0  0  0  0  0  0  0  0  0  0  0  0
    8.0136   -3.4688    0.0000 C   0  0  0  0  0  0  0  0  0  0  0  0
    8.7258   -2.2325    0.0000 O   0  0  0  0  0  0  0  0  0  0  0  0
    8.0128   -2.6450    0.0000 C   0  0  0  0  0  0  0  0  0  0  0  0
    7.3002   -1.4064    0.0000 C   0  0  0  0  0  0  0  0  0  0  0  0
    5.8692   -1.4078    0.0000 O   0  0  0  0  0  0  0  0  0  0  0  0
    6.5843   -0.9940    0.0000 C   0  0  0  0  0  0  0  0  0  0  0  0
    8.0133   -0.9938    0.0000 C   0  0  0  0  0  0  0  0  0  0  0  0
    8.0125   -0.1676    0.0000 C   0  0  0  0  0  0  0  0  0  0  0  0
    8.7184    0.2408    0.0000 C   0  0  0  0  0  0  0  0  0  0  0  0
    7.2965    0.2449    0.0000 C   0  0  0  0  0  0  0  0  0  0  0  0
    5.8686    0.2429    0.0000 C   0  0  0  0  0  0  0  0  0  0  0  0
    6.5809    1.4792    0.0000 O   0  0  0  0  0  0  0  0  0  0  0  0
    5.8678    1.0666    0.0000 C   0  0  0  0  0  0  0  0  0  0  0  0
    5.1535   -0.1709    0.0000 C   0  0  0  0  0  0  0  0  0  0  0  0
    8.7321   -7.1804    0.0000 C   0  0  0  0  0  0  0  0  0  0  0  0
    8.7313   -6.3542    0.0000 C   0  0  0  0  0  0  0  0  0  0  0  0
    8.0176   -5.9430    0.0000 O   0  0  0  0  0  0  0  0  0  0  0  0
    9.4480   -7.5928    0.0000 C   0  0  0  0  0  0  0  0  0  0  0  0
   10.1631   -7.1790    0.0000 C   0  0  0  0  0  0  0  0  0  0  0  0
   10.8772   -7.5948    0.0000 C   0  0  0  0  0  0  0  0  0  0  0  0
   11.5941   -7.1719    0.0000 C   0  0  0  0  0  0  0  0  0  0  0  0
   11.5869   -6.3447    0.0000 C   0  0  0  0  0  0  0  0  0  0  0  0
   10.8652   -5.9399    0.0000 C   0  0  0  0  0  0  0  0  0  0  0  0
   10.1558   -6.3591    0.0000 C   0  0  0  0  0  0  0  0  0  0  0  0
   12.3003   -5.9319    0.0000 O   0  0  0  0  0  0  0  0  0  0  0  0
   13.0089   -6.3447    0.0000 P   0  0  0  0  0  0  0  0  0  0  0  0
   12.6056   -7.0501    0.0000 O   0  0  0  0  0  0  0  0  0  0  0  0
    8.0182   -8.4177    0.0000 C   0  0  0  0  0  0  0  0  0  0  0  0
    8.7342   -8.8302    0.0000 O   0  0  0  0  0  0  0  0  0  0  0  0
    7.3052   -8.8302    0.0000 C   0  0  0  0  0  0  0  0  0  0  0  0
    7.3060   -9.6565    0.0000 C   0  0  0  0  0  0  0  0  0  0  0  0
    6.5919   -8.4156    0.0000 N   0  0  0  0  0  0  0  0  0  0  0  0
    5.1488    1.4807    0.0000 N   0  0  0  0  0  0  0  0  0  0  0  0
    4.4366    0.2420    0.0000 O   0  0  0  0  0  0  0  0  0  0  0  0
    7.2989   -2.2314    0.0000 N   0  0  0  0  0  0  0  0  0  0  0  0
    8.7294   -3.8788    0.0000 N   0  0  0  0  0  0  0  0  0  0  0  0
   11.5833   -3.8740    0.0000 N   0  0  0  0  0  0  0  0  0  0  0  0
    9.4449   -5.9401    0.0000 N   0  0  0  0  0  0  0  0  0  0  0  0
    8.0175   -7.5927    0.0000 N   0  0  0  0  0  0  0  0  0  0  0  0
   13.7236   -6.7555    0.0000 O   0  0  0  0  0  0  0  0  0  0  0  0
   13.4223   -5.6233    0.0000 O   0  0  0  0  0  0  0  0  0  0  0  0
    6.5835   -0.1690    0.0000 N   0  0  0  0  0  0  0  0  0  0  0  0
    0.4442   -7.3730    0.0000 C   0  0  0  0  0  0  0  0  0  0  0  0
   -0.0827   -8.0062    0.0000 C   0  0  0  0  0  0  0  0  0  0  0  0
    0.2030   -8.7795    0.0000 C   0  0  0  0  0  0  0  0  0  0  0  0
    1.0126   -8.9257    0.0000 C   0  0  0  0  0  0  0  0  0  0  0  0
    1.2980   -9.6986    0.0000 C   0  0  0  0  0  0  0  0  0  0  0  0
   -0.3390   -9.4101    0.0000 O   0  0  0  0  0  0  0  0  0  0  0  0
   -0.0513  -10.1899    0.0000 C   0  0  0  0  0  0  0  0  0  0  0  0
    0.7598  -10.3335    0.0000 C   0  0  0  0  0  0  0  0  0  0  0  0
    1.0430  -11.1054    0.0000 C   0  0  0  0  0  0  0  0  0  0  0  0
    0.5111  -11.7383    0.0000 C   0  0  0  0  0  0  0  0  0  0  0  0
   -0.3004  -11.5918    0.0000 C   0  0  0  0  0  0  0  0  0  0  0  0
   -0.5790  -10.8159    0.0000 C   0  0  0  0  0  0  0  0  0  0  0  0
    0.1611   -6.5981    0.0000 O   0  0  0  0  0  0  0  0  0  0  0  0
    2.3058  -10.0656    0.0000 C   0  0  0  0  0  0  0  0  0  0  0  0
    3.0225   -9.6489    0.0000 C   0  0  0  0  0  0  0  0  0  0  0  0
    3.7330  -10.8876    0.0000 C   0  0  0  0  0  0  0  0  0  0  0  0
    3.0172  -11.3002    0.0000 C   0  0  0  0  0  0  0  0  0  0  0  0
    2.3037  -10.8904    0.0000 C   0  0  0  0  0  0  0  0  0  0  0  0
    4.4472  -11.3006    0.0000 N   0  0  0  0  0  0  0  0  0  0  0  0
    5.1614  -11.7136    0.0000 C   0  0  0  0  0  0  0  0  0  0  0  0
    5.8755  -12.1267    0.0000 S   0  0  0  0  0  0  0  0  0  0  0  0
    3.0231   -8.8226    0.0000 C   0  0  0  0  0  0  0  0  0  0  0  0
    1.5444   -8.2890    0.0000 C   0  0  0  0  0  0  0  0  0  0  0  0
    2.3100   -8.4102    0.0000 O   0  0  0  0  0  0  0  0  0  0  0  0
    1.2645   -7.5192    0.0000 C   0  0  0  0  0  0  0  0  0  0  0  0
    3.7308  -10.0588    0.0000 C   0  0  0  0  0  0  0  0  0  0  0  0
    4.4510   -8.8236    0.0000 C   0  0  0  0  0  0  0  0  0  0  0  0
    5.1668   -8.4110    0.0000 C   0  0  0  0  0  0  0  0  0  0  0  0
    3.7373   -8.4097    0.0000 N   0  0  0  0  0  0  0  0  0  0  0  0
   -0.8334  -12.2215    0.0000 O   0  0  0  0  0  0  0  0  0  0  0  0
    5.8809   -8.8240    0.0000 C   0  0  0  0  0  0  0  0  0  0  0  0
    5.8804   -9.6490    0.0000 O   0  0  0  0  0  0  0  0  0  0  0  0
    8.0209  -10.0683    0.0000 C   0  0  0  0  0  0  0  0  0  0  0  0
    8.0217  -10.8933    0.0000 C   0  0  0  0  0  0  0  0  0  0  0  0
    8.7349   -9.6550    0.0000 C   0  0  0  0  0  0  0  0  0  0  0  0
 20 40  1  0  0  0  0 
 21 41  1  0  0  0  0 
 11 42  1  0  0  0  0 
 10 42  1  0  0  0  0 
  8 43  1  0  0  0  0 
  3 43  1  0  0  0  0 
  6 44  1  0  0  0  0 
 23 45  1  0  0  0  0 
  1 45  1  0  0  0  0 
 22 46  1  0  0  0  0 
 35 46  1  0  0  0  0 
 33 47  1  0  0  0  0 
 33 48  1  0  0  0  0 
 18 49  1  0  0  0  0 
 13 49  1  0  0  0  0 
  6  7  2  0  0  0  0 
  8 10  1  0  0  0  0 
 10  9  2  0  0  0  0 
 11 13  1  0  0  0  0 
 13 12  2  0  0  0  0 
 11 14  1  6  0  0  0 
 14 15  1  0  0  0  0 
 15 16  1  0  0  0  0 
 15 17  1  0  0  0  0 
 18 20  1  0  0  0  0 
 20 19  2  0  0  0  0 
 18 21  1  1  0  0  0 
 22 23  1  0  0  0  0 
 23 24  2  0  0  0  0 
 22 25  1  6  0  0  0 
 25 26  1  0  0  0  0 
 26 27  2  0  0  0  0 
 27 28  1  0  0  0  0 
 28 29  2  0  0  0  0 
 29 30  1  0  0  0  0 
 30 31  2  0  0  0  0 
 31 26  1  0  0  0  0 
 29 32  1  0  0  0  0 
 32 33  1  0  0  0  0 
 33 34  2  0  0  0  0 
  1  3  1  0  0  0  0 
  3  2  2  0  0  0  0 
  1  4  1  6  0  0  0 
  4  5  1  0  0  0  0 
 50 74  1  0  0  0  0 
 74 72  2  0  0  0  0 
 72 53  1  0  0  0  0 
 52 51  2  0  0  0  0 
 51 50  1  0  0  0  0 
 52 53  1  0  0  0  0 
 52 55  1  0  0  0  0 
 53 54  2  0  0  0  0 
 54 57  1  0  0  0  0 
 56 55  1  0  0  0  0 
 56 57  2  0  0  0  0 
 57 58  1  0  0  0  0 
 58 59  2  0  0  0  0 
 59 60  1  0  0  0  0 
 60 61  2  0  0  0  0 
 61 56  1  0  0  0  0 
 50 62  2  0  0  0  0 
 63 64  2  0  0  0  0 
 64 75  1  0  0  0  0 
 75 65  2  0  0  0  0 
 65 66  1  0  0  0  0 
 66 67  2  0  0  0  0 
 67 63  1  0  0  0  0 
 54 63  1  0  0  0  0 
 65 68  1  0  0  0  0 
 68 69  2  0  0  0  0 
 69 70  2  0  0  0  0 
 64 71  1  0  0  0  0 
 71 73  2  0  0  0  0 
 76 77  1  0  0  0  0 
 71 78  1  0  0  0  0 
 76 78  1  0  0  0  0 
 60 79  1  0  0  0  0 
  5  6  1  0  0  0  0 
 77 80  1  0  0  0  0 
 80 39  1  0  0  0  0 
 35 36  2  0  0  0  0 
 80 81  2  0  0  0  0 
 37 35  1  0  0  0  0 
 38 82  1  0  0  0  0 
 37 38  1  6  0  0  0 
 82 83  1  0  0  0  0 
 37 39  1  0  0  0  0 
 82 84  1  0  0  0  0 
M  END