
          11280715372D 1   1.00000     0.00000     0

 33 37  0     0  0            999 V2000
    1.6292   -3.4292    0.0000 C   0  0  0  0  0  0           0  0  0
    0.9167   -3.8417    0.0000 C   0  0  0  0  0  0           0  0  0
    0.2042   -3.4292    0.0000 C   0  0  0  0  0  0           0  0  0
    1.6292   -2.6042    0.0000 C   0  0  0  0  0  0           0  0  0
    0.9167   -2.1917    0.0000 O   0  0  0  0  0  0           0  0  0
    0.2042   -2.6042    0.0000 C   0  0  0  0  0  0           0  0  0
   -0.5083   -3.8417    0.0000 C   0  0  0  0  0  0           0  0  0
   -0.5083   -2.1917    0.0000 C   0  0  0  0  0  0           0  0  0
   -1.2250   -3.4292    0.0000 C   0  0  0  0  0  0           0  0  0
    2.3500   -2.1917    0.0000 C   0  0  0  0  0  0           0  0  0
    0.9167   -4.6667    0.0000 O   0  0  0  0  0  0           0  0  0
    4.4917   -0.9542    0.0000 C   0  0  3  0  0  0           0  0  0
   -1.2250   -2.6042    0.0000 C   0  0  0  0  0  0           0  0  0
    3.7792   -1.3667    0.0000 C   0  0  0  0  0  0           0  0  0
    2.3500   -3.8417    0.0000 O   0  0  0  0  0  0           0  0  0
    3.0625   -2.6042    0.0000 C   0  0  0  0  0  0           0  0  0
    2.3500   -1.3667    0.0000 C   0  0  0  0  0  0           0  0  0
    3.0625   -0.9542    0.0000 C   0  0  0  0  0  0           0  0  0
    3.7792   -2.1917    0.0000 C   0  0  0  0  0  0           0  0  0
    5.2042   -1.3667    0.0000 C   0  0  0  0  0  0           0  0  0
    4.4917   -0.1292    0.0000 C   0  0  0  0  0  0           0  0  0
   -0.5083   -4.6667    0.0000 O   0  0  0  0  0  0           0  0  0
   -1.9375   -2.1917    0.0000 O   0  0  0  0  0  0           0  0  0
    5.2042    0.2833    0.0000 C   0  0  0  0  0  0           0  0  0
    3.7792    0.2750    0.0000 C   0  0  0  0  0  0           0  0  0
    5.2042   -2.1917    0.0000 C   0  0  0  0  0  0           0  0  0
    5.9167   -0.9542    0.0000 C   0  0  0  0  0  0           0  0  0
    3.7750    1.1000    0.0000 C   0  0  0  0  0  0           0  0  0
    5.9167   -2.6042    0.0000 C   0  0  0  0  0  0           0  0  0
    6.6292   -1.3667    0.0000 C   0  0  0  0  0  0           0  0  0
    5.2042    1.1083    0.0000 C   0  0  0  0  0  0           0  0  0
    4.4917    1.5208    0.0000 C   0  0  0  0  0  0           0  0  0
    6.6292   -2.1917    0.0000 C   0  0  0  0  0  0           0  0  0
  2  1  1  0     0  0
  3  2  1  0     0  0
  4  1  2  0     0  0
  5  4  1  0     0  0
  6  5  1  0     0  0
  7  3  1  0     0  0
  8  6  1  0     0  0
  9  7  2  0     0  0
 10  4  1  0     0  0
 11  2  2  0     0  0
 12 14  1  0     0  0
 13  8  2  0     0  0
 14 18  1  0     0  0
 15  1  1  0     0  0
 16 10  2  0     0  0
 17 10  1  0     0  0
 18 17  2  0     0  0
 19 16  1  0     0  0
 20 12  1  0     0  0
 21 12  1  0     0  0
 22  7  1  0     0  0
 23 13  1  0     0  0
 24 21  2  0     0  0
 25 21  1  0     0  0
 26 20  2  0     0  0
 27 20  1  0     0  0
 28 25  2  0     0  0
 29 26  1  0     0  0
 30 27  2  0     0  0
 31 24  1  0     0  0
 32 28  1  0     0  0
 33 30  1  0     0  0
  3  6  2  0     0  0
 19 14  2  0     0  0
  9 13  1  0     0  0
 31 32  2  0     0  0
 29 33  2  0     0  0
M  END