
  SciTegic01161211252D

 35 37  0  0  0  0            999 V2000
    4.7179   -1.3873    0.0000 C   0  0
    4.3052   -2.1044    0.0000 C   0  0
    4.7198   -2.8182    0.0000 C   0  0
    5.5408   -1.3835    0.0000 C   0  0
    5.9577   -2.0943    0.0000 C   0  0
    5.5445   -2.8153    0.0000 C   0  0
    6.1024   -3.4312    0.0000 N   0  0
    6.8606   -3.0908    0.0000 C   0  0
    6.7711   -2.2646    0.0000 C   0  0
    7.5743   -3.4982    0.0000 C   0  0
    7.5755   -4.3243    0.0000 C   0  0
    8.2905   -4.7345    0.0000 C   0  0
    9.0046   -4.3197    0.0000 C   0  0
    8.9994   -3.4904    0.0000 C   0  0
    8.2839   -3.0840    0.0000 C   0  0
    7.1792   -1.5458    0.0000 C   0  0
    6.7615   -0.8344    0.0000 O   0  0
    8.0041   -1.5398    0.0000 C   0  0
    8.4218   -2.2513    0.0000 O   0  0
    8.4114   -0.8224    0.0000 N   0  0
    9.2364   -0.8164    0.0000 C   0  0
    9.6437   -0.0989    0.0000 C   0  0
   10.4687   -0.0929    0.0000 C   0  0
    7.9937   -0.1109    0.0000 C   0  0
    8.4010    0.6065    0.0000 C   0  0
    7.9833    1.3153    0.0000 C   0  0
    4.3032   -0.6741    0.0000 N   0  0
    4.7136    0.0416    0.0000 C   0  0
    5.1208    0.7583    0.0000 S   0  0
    8.3894    2.0335    0.0000 C   0  0
    7.9706    2.7391    0.0000 C   0  0
    8.3767    3.4543    0.0000 C   0  0
   10.8760    0.6246    0.0000 C   0  0
   11.7009    0.6306    0.0000 C   0  0
   12.1082    1.3480    0.0000 C   0  0
  6  7  1  0
 16 17  2  0
  7  8  1  0
 16 18  1  0
  8  9  2  0
 18 19  2  0
  9  5  1  0
 18 20  1  0
  4  1  1  0
 20 21  1  0
  5  6  1  0
 21 22  1  0
 10 11  2  0
 22 23  1  0
 20 24  1  0
 11 12  1  0
 24 25  1  0
  2  3  1  0
 25 26  1  0
 12 13  2  0
  1 27  1  0
  3  6  2  0
 27 28  2  0
 13 14  1  0
 28 29  2  0
  1  2  2  0
 26 30  1  0
 14 15  2  0
 30 31  1  0
 15 10  1  0
 31 32  1  0
  8 10  1  0
 23 33  1  0
  5  4  2  0
 33 34  1  0
  9 16  1  0
 34 35  1  0
M  END