
          11280715202D 1   1.00000     0.00000     0

 32 34  0     0  0            999 V2000
    6.8167   -2.5000    0.0000 C   0  0  0  0  0  0           0  0  0
    6.6292   -3.3375    0.0000 C   0  0  0  0  0  0           0  0  0
    5.2042   -0.8000    0.0000 C   0  0  0  0  0  0           0  0  0
    5.3667   -2.1792    0.0000 C   0  0  0  0  0  0           0  0  0
    4.8542   -1.5500    0.0000 N   0  0  3  0  0  0           0  0  0
    6.1792   -1.9250    0.0000 C   0  0  0  0  0  0           0  0  0
    6.0292   -0.7292    0.0000 N   0  0  0  0  0  0           0  0  0
    4.7375   -0.1292    0.0000 N   0  0  0  0  0  0           0  0  0
    5.8167   -3.6000    0.0000 C   0  0  0  0  0  0           0  0  0
    5.1875   -3.0250    0.0000 C   0  0  0  0  0  0           0  0  0
    5.9042    0.6958    0.0000 C   0  0  0  0  0  0           0  0  0
    6.2542    1.4375    0.0000 C   0  0  0  0  0  0           0  0  0
    7.2667   -3.9167    0.0000 C   0  0  3  0  0  0           0  0  0
    7.6292   -2.2292    0.0000 C   0  0  3  0  0  0           0  0  0
    6.3792    0.0125    0.0000 C   0  0  0  0  0  0           0  0  0
    5.0792    0.6208    0.0000 C   0  0  0  0  0  0           0  0  0
    5.7875    2.1208    0.0000 O   0  0  0  0  0  0           0  0  0
    8.0875   -3.6542    0.0000 C   0  0  0  0  0  0           0  0  0
    8.2667   -2.8125    0.0000 C   0  0  0  0  0  0           0  0  0
    7.0792    1.5083    0.0000 O   0  0  0  0  0  0           0  0  0
    4.4750   -3.3667    0.0000 O   0  0  0  0  0  0           0  0  0
    4.0417   -1.6417    0.0000 C   0  0  0  0  0  0           0  0  0
    8.4292   -2.0167    0.0000 C   0  0  0  0  0  0           0  0  0
    6.4667   -4.1292    0.0000 C   0  0  0  0  0  0           0  0  0
    7.8500   -4.5000    0.0000 C   0  0  0  0  0  0           0  0  0
    7.0417   -1.6417    0.0000 C   0  0  0  0  0  0           0  0  0
    4.4750   -4.1917    0.0000 C   0  0  0  0  0  0           0  0  0
    5.1875   -4.6000    0.0000 C   0  0  0  0  0  0           0  0  0
    5.9000   -6.6500    0.0000 C   0  0  0  0  0  0           0  0  0
    5.9000   -5.8292    0.0000 C   0  0  0  0  0  0           0  0  0
    5.1875   -5.4167    0.0000 C   0  0  0  0  0  0           0  0  0
    6.6125   -7.0625    0.0000 C   0  0  0  0  0  0           0  0  0
  2  1  1  0     0  0
  3  5  1  0     0  0
  4  6  1  0     0  0
  5  4  1  0     0  0
  6  1  2  0     0  0
  7  3  2  0     0  0
  8  3  1  0     0  0
  9  2  2  0     0  0
 10  4  2  0     0  0
 11 16  1  0     0  0
 12 11  1  0     0  0
 13  2  1  0     0  0
 14  1  1  0     0  0
 15  7  1  0     0  0
 16  8  2  0     0  0
 17 12  2  0     0  0
 18 19  1  0     0  0
 19 14  1  0     0  0
 20 12  1  0     0  0
 21 10  1  0     0  0
 22  5  1  0     0  0
 23 14  1  0     0  0
 24 13  1  0     0  0
 25 13  1  0     0  0
 26 14  1  0     0  0
 27 21  1  0     0  0
 28 27  1  0     0  0
 29 30  1  0     0  0
 30 31  1  0     0  0
 31 28  1  0     0  0
 32 29  1  0     0  0
 13 18  1  0     0  0
 10  9  1  0     0  0
 15 11  2  0     0  0
M  END