
          11280715502D 1   1.00000     0.00000     0

 47 51  0     1  0            999 V2000
   -2.2681    1.9209    0.0000 C   0  0  0  0  0  0           0  0  0
   -2.2693    1.0935    0.0000 C   0  0  0  0  0  0           0  0  0
   -1.5544    0.6806    0.0000 C   0  0  0  0  0  0           0  0  0
   -0.8380    1.0940    0.0000 C   0  0  0  0  0  0           0  0  0
   -0.8409    1.9245    0.0000 C   0  0  0  0  0  0           0  0  0
   -1.5562    2.3336    0.0000 C   0  0  0  0  0  0           0  0  0
   -0.1279    2.3397    0.0000 C   0  0  0  0  0  0           0  0  0
    0.5881    1.9299    0.0000 N   0  0  3  0  0  0           0  0  0
   -0.1311    3.1647    0.0000 O   0  0  0  0  0  0           0  0  0
    0.5886    1.1031    0.0000 C   0  0  1  0  0  0           0  0  0
    1.3005    0.6934    0.0000 C   0  0  0  0  0  0           0  0  0
    2.0158    1.1051    0.0000 N   0  0  3  0  0  0           0  0  0
    2.0147    1.9311    0.0000 C   0  0  0  0  0  0           0  0  0
    1.2982    2.3453    0.0000 C   0  0  0  0  0  0           0  0  0
   -0.1255    0.6899    0.0000 C   0  0  0  0  0  0           0  0  0
   -0.1333   -0.1333    0.0000 C   0  0  0  0  0  0           0  0  0
   -0.8013   -0.6146    0.0000 C   0  0  0  0  0  0           0  0  0
   -0.5543   -1.4000    0.0000 N   0  0  0  0  0  0           0  0  0
    0.5307   -0.6273    0.0000 C   0  0  0  0  0  0           0  0  0
    0.2687   -1.4063    0.0000 C   0  0  0  0  0  0           0  0  0
    0.8119   -2.0207    0.0000 C   0  0  0  0  0  0           0  0  0
    1.6172   -1.8572    0.0000 C   0  0  0  0  0  0           0  0  0
    1.8764   -1.0739    0.0000 C   0  0  0  0  0  0           0  0  0
    1.3315   -0.4629    0.0000 C   0  0  0  0  0  0           0  0  0
    2.7303    0.6926    0.0000 C   0  0  0  0  0  0           0  0  0
    2.7303   -0.1324    0.0000 N   0  0  0  0  0  0           0  0  0
    3.4417   -0.5417    0.0000 C   0  0  0  0  0  0           0  0  0
    3.4448    1.1051    0.0000 O   0  0  0  0  0  0           0  0  0
    3.4429   -1.3667    0.0000 C   0  0  0  0  0  0           0  0  0
    4.1580   -1.7781    0.0000 N   0  0  0  0  0  0           0  0  0
    4.1593   -2.6031    0.0000 C   0  0  0  0  0  0           0  0  0
    4.8744   -3.0145    0.0000 C   0  0  0  0  0  0           0  0  0
    4.8735   -3.8386    0.0000 C   0  0  0  0  0  0           0  0  0
    5.5878   -4.2499    0.0000 C   0  0  0  0  0  0           0  0  0
    6.3026   -3.8362    0.0000 C   0  0  0  0  0  0           0  0  0
    6.2986   -3.0070    0.0000 C   0  0  0  0  0  0           0  0  0
    5.5838   -2.5994    0.0000 C   0  0  0  0  0  0           0  0  0
    5.5792   -1.7744    0.0000 O   0  0  0  0  0  0           0  0  0
    6.2913   -1.3579    0.0000 C   0  0  0  0  0  0           0  0  0
   -1.5625   -0.1417    0.0000 C   0  0  3  0  0  0           0  0  0
   -0.7375   -0.1417    0.0000 F   0  0  0  0  0  0           0  0  0
   -1.5667   -0.9667    0.0000 F   0  0  0  0  0  0           0  0  0
   -2.3875   -0.1375    0.0000 F   0  0  0  0  0  0           0  0  0
   -2.9827    2.3332    0.0000 C   0  0  3  0  0  0           0  0  0
   -3.4000    1.6208    0.0000 F   0  0  0  0  0  0           0  0  0
   -2.5750    3.0500    0.0000 F   0  0  0  0  0  0           0  0  0
   -3.7000    2.7458    0.0000 F   0  0  0  0  0  0           0  0  0
  5  6  2  0     0  0
 22 23  1  0     0  0
  6  1  1  0     0  0
 23 24  2  0     0  0
 24 19  1  0     0  0
  1  2  2  0     0  0
 12 25  1  0     0  0
  8 14  1  0     0  0
 25 26  1  0     0  0
 10 11  1  0     0  0
 26 27  1  0     0  0
 11 12  1  0     0  0
 25 28  2  0     0  0
 12 13  1  0     0  0
 27 29  1  0     0  0
 13 14  1  0     0  0
 29 30  1  0     0  0
  5  7  1  0     0  0
 30 31  1  0     0  0
 10 15  1  1     0  0
 31 32  1  0     0  0
  3  4  2  0     0  0
 32 33  2  0     0  0
 15 16  1  0     0  0
 33 34  1  0     0  0
 16 17  2  0     0  0
 34 35  2  0     0  0
  7  8  1  0     0  0
 35 36  1  0     0  0
 36 37  2  0     0  0
 37 32  1  0     0  0
 17 18  1  0     0  0
 37 38  1  0     0  0
 18 20  1  0     0  0
 38 39  1  0     0  0
 19 16  1  0     0  0
  3 40  1  0     0  0
  7  9  2  0     0  0
 40 41  1  0     0  0
  8 10  1  0     0  0
 40 42  1  0     0  0
 19 20  2  0     0  0
 40 43  1  0     0  0
  4  5  1  0     0  0
  1 44  1  0     0  0
 20 21  1  0     0  0
 44 45  1  0     0  0
  2  3  1  0     0  0
 44 46  1  0     0  0
 21 22  2  0     0  0
 44 47  1  0     0  0
M  END