
  SciTegic01161211252D

 32 32  0  0  0  0            999 V2000
    0.7500   -7.0542    0.0000 S   0  0
    9.3292   -0.4125    0.0000 C   0  0  2  0  0  0
   10.0500   -0.8250    0.0000 C   0  0
    8.6167   -0.8250    0.0000 C   0  0
    3.6167   -5.3792    0.0000 C   0  0
    1.4667   -6.6292    0.0000 C   0  0
    9.3292    0.4125    0.0000 N   0  0
    0.3250   -6.3375    0.0000 O   0  0
    1.1750   -7.7750    0.0000 O   0  0
   10.7417   -1.2792    0.0000 C   0  0
    2.9000   -5.8000    0.0000 C   0  0
    9.3125   -1.2000    0.0000 O   0  0
    0.0250   -7.4792    0.0000 N   0  0
    8.6167   -1.6542    0.0000 O   0  0
    3.6125   -4.5542    0.0000 O   0  0
    1.4667   -5.8000    0.0000 C   0  0
    2.1792   -7.0417    0.0000 C   0  0
    2.1792   -5.3875    0.0000 C   0  0
    2.9000   -6.6292    0.0000 C   0  0
    7.9000   -0.4125    0.0000 N   0  0
    4.3375   -5.7917    0.0000 N   0  0
   11.4875   -0.9125    0.0000 N   0  0
   11.3875   -2.5625    0.0000 O   0  0
   10.6917   -2.1042    0.0000 C   0  0
    5.7625   -4.1292    0.0000 O   0  0
    6.4750   -2.0667    0.0000 O   0  0
    5.0500   -5.3792    0.0000 C   0  0
    7.1875   -0.8250    0.0000 C   0  0
    7.1875   -1.6542    0.0000 C   0  0
    5.0500   -4.5500    0.0000 C   0  0
    6.4750   -2.9000    0.0000 C   0  0
    5.7625   -3.3125    0.0000 C   0  0
  2  4  1  0
  2  3  1  6
  4 20  1  0
  5 11  1  0
  6  1  1  0
  7  2  1  0
  8  1  2  0
  9  1  2  0
 10  3  1  0
 11 19  1  0
 12  3  2  0
 13  1  1  0
 14  4  2  0
 15  5  2  0
 16  6  2  0
 17  6  1  0
 18 16  1  0
 19 17  2  0
 20 28  1  0
 21  5  1  0
 22 10  1  0
 23 24  1  0
 24 10  1  0
 25 30  1  0
 26 31  1  0
 27 21  1  0
 28 29  1  0
 29 26  1  0
 30 27  1  0
 31 32  1  0
 32 25  1  0
 11 18  2  0
M  END