
  CDK    9/16/09,10:9

 41 43  0  0  0  0  0  0  0  0999 V2000
   -1.0583   -0.1042    0.0000 C   0  0  0  0  0  0  0  0  0  0  0  0
   -1.0583   -0.9292    0.0000 C   0  0  0  0  0  0  0  0  0  0  0  0
   -0.3463    0.3125    0.0000 C   0  0  0  0  0  0  0  0  0  0  0  0
    0.3657   -0.1042    0.0000 N   0  0  0  0  0  0  0  0  0  0  0  0
    1.7913   -0.1102    0.0000 C   0  0  0  0  0  0  0  0  0  0  0  0
    1.0780    0.3076    0.0000 C   0  0  0  0  0  0  0  0  0  0  0  0
   -0.3483   -1.3340    0.0000 C   0  0  0  0  0  0  0  0  0  0  0  0
   -0.3529   -2.1473    0.0000 C   0  0  0  0  0  0  0  0  0  0  0  0
    0.3513   -2.5618    0.0000 C   0  0  0  0  0  0  0  0  0  0  0  0
    1.0581   -2.1539    0.0000 C   0  0  0  0  0  0  0  0  0  0  0  0
    1.7562   -2.5685    0.0000 C   0  0  0  0  0  0  0  0  0  0  0  0
    2.4688   -2.1712    0.0000 C   0  0  0  0  0  0  0  0  0  0  0  0
    2.4788   -1.3548    0.0000 C   0  0  0  0  0  0  0  0  0  0  0  0
    1.7763   -0.9357    0.0000 N   0  0  0  0  0  0  0  0  0  0  0  0
    2.5107    0.2935    0.0000 O   0  0  0  0  0  0  0  0  0  0  0  0
    1.0803    1.1326    0.0000 C   0  0  0  0  0  0  0  0  0  0  0  0
    1.7960    1.5430    0.0000 C   0  0  0  0  0  0  0  0  0  0  0  0
    2.5063    1.1268    0.0000 C   0  0  0  0  0  0  0  0  0  0  0  0
    3.2215    1.5366    0.0000 C   0  0  0  0  0  0  0  0  0  0  0  0
    3.2243    2.3625    0.0000 C   0  0  0  0  0  0  0  0  0  0  0  0
    2.5060    2.7769    0.0000 C   0  0  0  0  0  0  0  0  0  0  0  0
    1.7937    2.3647    0.0000 C   0  0  0  0  0  0  0  0  0  0  0  0
    3.9346    1.1217    0.0000 C   0  0  0  0  0  0  0  0  0  0  0  0
    4.6458    0.7125    0.0000 C   0  0  0  0  0  0  0  0  0  0  0  0
    3.5214    0.4076    0.0000 C   0  0  0  0  0  0  0  0  0  0  0  0
    4.3515    1.8336    0.0000 C   0  0  0  0  0  0  0  0  0  0  0  0
    3.9394    2.7739    0.0000 O   0  0  0  0  0  0  0  0  0  0  0  0
   -0.3463    1.1375    0.0000 O   0  0  0  0  0  0  0  0  0  0  0  0
   -1.7740    0.3062    0.0000 N   0  0  0  0  0  0  0  0  0  0  0  0
   -2.4873   -0.1084    0.0000 C   0  0  0  0  0  0  0  0  0  0  0  0
   -3.2029    0.3021    0.0000 C   0  0  0  0  0  0  0  0  0  0  0  0
   -2.4849   -0.9334    0.0000 O   0  0  0  0  0  0  0  0  0  0  0  0
   -3.9162   -0.1125    0.0000 N   0  0  0  0  0  0  0  0  0  0  0  0
   -3.2054    1.1270    0.0000 C   0  0  0  0  0  0  0  0  0  0  0  0
   -3.9210    1.5375    0.0000 C   0  0  0  0  0  0  0  0  0  0  0  0
   -3.9209    2.3635    0.0000 C   0  0  0  0  0  0  0  0  0  0  0  0
   -4.6357    2.7738    0.0000 C   0  0  0  0  0  0  0  0  0  0  0  0
   -5.3500    2.3592    0.0000 C   0  0  0  0  0  0  0  0  0  0  0  0
   -5.3449    1.5299    0.0000 C   0  0  0  0  0  0  0  0  0  0  0  0
   -4.6295    1.1233    0.0000 C   0  0  0  0  0  0  0  0  0  0  0  0
    1.7449   -3.3934    0.0000 O   0  0  0  0  0  0  0  0  0  0  0  0
 20 21  1  0  0  0  0 
  1  3  1  0  0  0  0 
 21 22  2  0  0  0  0 
 22 17  1  0  0  0  0 
  4  6  1  0  0  0  0 
 19 23  1  0  0  0  0 
 14  5  1  0  0  0  0 
 23 24  1  0  0  0  0 
  5  6  1  0  0  0  0 
 23 25  1  0  0  0  0 
 10 11  1  0  0  0  0 
 23 26  1  0  0  0  0 
 11 12  1  0  0  0  0 
 20 27  1  0  0  0  0 
 12 13  1  0  0  0  0 
  3 28  2  0  0  0  0 
 13 14  1  0  0  0  0 
  1 29  1  6  0  0  0 
  2  7  1  0  0  0  0 
 29 30  1  0  0  0  0 
  5 15  2  0  0  0  0 
 30 31  1  0  0  0  0 
  4  3  1  0  0  0  0 
 30 32  2  0  0  0  0 
  6 16  1  1  0  0  0 
 31 33  1  0  0  0  0 
  1  2  1  0  0  0  0 
 31 34  1  1  0  0  0 
 16 17  1  0  0  0  0 
 34 35  1  0  0  0  0 
  7  8  1  0  0  0  0 
 35 36  2  0  0  0  0 
 17 18  2  0  0  0  0 
 36 37  1  0  0  0  0 
  8  9  1  0  0  0  0 
 37 38  2  0  0  0  0 
 18 19  1  0  0  0  0 
 38 39  1  0  0  0  0 
  9 10  1  0  0  0  0 
 39 40  2  0  0  0  0 
 40 35  1  0  0  0  0 
 19 20  2  0  0  0  0 
 11 41  2  0  0  0  0 
M  END