
          11280715222D 1   1.00000     0.00000     0

 62 68  0     0  0            999 V2000
    7.7750   -1.0167    0.0000 C   0  0  0  0  0  0           0  0  0
    8.2750    0.3125    0.0000 C   0  0  0  0  0  0           0  0  0
    8.4125   -0.5000    0.0000 C   0  0  0  0  0  0           0  0  0
   -2.5750   -3.3917    0.0000 C   0  0  0  0  0  0           0  0  0
   -1.7833   -3.1625    0.0000 C   0  0  0  0  0  0           0  0  0
    7.9125   -1.8292    0.0000 C   0  0  0  0  0  0           0  0  0
   -1.0708   -4.4542    0.0000 N   0  0  3  0  0  0           0  0  0
   -1.1125   -3.6375    0.0000 C   0  0  0  0  0  0           0  0  0
   -2.8875   -4.1542    0.0000 N   0  0  0  0  0  0           0  0  0
    8.9042    0.8375    0.0000 C   0  0  0  0  0  0           0  0  0
    6.8667    0.0750    0.0000 C   0  0  0  0  0  0           0  0  0
    7.5000    0.6083    0.0000 O   0  0  0  0  0  0           0  0  0
    7.0042   -0.7375    0.0000 C   0  0  0  0  0  0           0  0  0
    9.6792    0.5583    0.0000 C   0  0  0  0  0  0           0  0  0
    8.6917   -2.1250    0.0000 C   0  0  0  0  0  0           0  0  0
    9.1792   -0.7875    0.0000 C   0  0  0  0  0  0           0  0  0
   -3.0458   -2.7125    0.0000 C   0  0  0  0  0  0           0  0  0
   -1.6875   -5.0042    0.0000 C   0  0  0  0  0  0           0  0  0
   10.3125    1.0833    0.0000 N   0  3  0  0  0  0           0  0  0
    7.2792   -2.3542    0.0000 C   0  0  0  0  0  0           0  0  0
    6.0917    0.3583    0.0000 C   0  0  0  0  0  0           0  0  0
    9.4875   -1.9042    0.0000 C   0  0  0  0  0  0           0  0  0
    9.8167   -0.2625    0.0000 C   0  0  0  0  0  0           0  0  0
    7.4167   -3.1667    0.0000 C   0  0  0  0  0  0           0  0  0
    6.7792   -3.6917    0.0000 C   0  0  0  0  0  0           0  0  0
    5.4625   -0.1667    0.0000 C   0  0  0  0  0  0           0  0  0
   -2.4833   -4.8667    0.0000 C   0  0  0  0  0  0           0  0  0
    6.3750   -1.2625    0.0000 C   0  0  0  0  0  0           0  0  0
   -0.3625   -3.2917    0.0000 C   0  0  0  0  0  0           0  0  0
    8.8250   -2.9375    0.0000 C   0  0  0  0  0  0           0  0  0
   -1.7125   -2.3375    0.0000 C   0  0  0  0  0  0           0  0  0
    1.7667   -4.0625    0.0000 C   0  0  0  0  0  0           0  0  0
   -3.8625   -2.7750    0.0000 C   0  0  0  0  0  0           0  0  0
    4.6875    0.1208    0.0000 N   0  0  3  0  0  0           0  0  0
   10.0667   -2.4875    0.0000 O   0  5  0  0  0  0           0  0  0
    8.1875   -3.4625    0.0000 C   0  0  0  0  0  0           0  0  0
   -1.4750   -5.8167    0.0000 O   0  0  0  0  0  0           0  0  0
    5.6042   -0.9792    0.0000 C   0  0  0  0  0  0           0  0  0
    9.6917   -1.1042    0.0000 O   0  0  0  0  0  0           0  0  0
    6.9125   -4.5042    0.0000 O   0  0  0  0  0  0           0  0  0
    1.6417   -3.2500    0.0000 O   0  0  0  0  0  0           0  0  0
    6.0042   -3.4000    0.0000 N   0  0  0  0  0  0           0  0  0
    1.1167   -4.5792    0.0000 N   0  0  0  0  0  0           0  0  0
   -0.9625   -1.9917    0.0000 C   0  0  0  0  0  0           0  0  0
   -0.3083   -4.7750    0.0000 C   0  0  0  0  0  0           0  0  0
   -0.2875   -2.4792    0.0000 C   0  0  0  0  0  0           0  0  0
   -4.2208   -3.5250    0.0000 F   0  0  0  0  0  0           0  0  0
   -0.8958   -1.1667    0.0000 Cl  0  0  0  0  0  0           0  0  0
   10.1667    1.8958    0.0000 C   0  0  0  0  0  0           0  0  0
   11.0875    0.8000    0.0000 C   0  0  0  0  0  0           0  0  0
    0.3500   -4.2667    0.0000 C   0  0  0  0  0  0           0  0  0
   -2.6958   -1.9625    0.0000 C   0  0  0  0  0  0           0  0  0
    2.5375   -4.3667    0.0000 C   0  0  0  0  0  0           0  0  0
    4.0542   -0.4125    0.0000 C   0  0  0  0  0  0           0  0  0
    4.5417    0.9333    0.0000 C   0  0  0  0  0  0           0  0  0
   -4.3458   -2.0917    0.0000 C   0  0  0  0  0  0           0  0  0
    5.3667   -3.9167    0.0000 C   0  0  0  0  0  0           0  0  0
    3.1792   -3.8542    0.0000 C   0  0  0  0  0  0           0  0  0
    4.5917   -3.6292    0.0000 C   0  0  0  0  0  0           0  0  0
    3.9542   -4.1542    0.0000 C   0  0  0  0  0  0           0  0  0
   -3.1625   -1.2792    0.0000 C   0  0  0  0  0  0           0  0  0
   -3.9833   -1.3417    0.0000 C   0  0  0  0  0  0           0  0  0
  2  3  1  0     0  0
  3  1  2  0     0  0
  4  5  1  0     0  0
  5  8  2  0     0  0
  6  1  1  0     0  0
  7 45  1  0     0  0
  8  7  1  0     0  0
  9 27  1  0     0  0
 10  2  2  0     0  0
 11 13  1  0     0  0
 12 11  1  0     0  0
 13  1  1  0     0  0
 14 23  1  0     0  0
 15  6  1  0     0  0
 16  3  1  0     0  0
 17  4  1  0     0  0
 18  7  1  0     0  0
 19 14  2  0     0  0
 20  6  2  0     0  0
 21 11  2  0     0  0
 22 15  1  0     0  0
 23 16  2  0     0  0
 24 20  1  0     0  0
 25 24  1  0     0  0
 26 38  2  0     0  0
 27 18  1  0     0  0
 28 13  2  0     0  0
 29  8  1  0     0  0
 30 15  2  0     0  0
 31  5  1  0     0  0
 32 53  1  0     0  0
 33 17  2  0     0  0
 34 26  1  0     0  0
 35 22  1  0     0  0
 36 24  2  0     0  0
 37 18  2  0     0  0
 38 28  1  0     0  0
 39 22  2  0     0  0
 40 25  2  0     0  0
 41 32  2  0     0  0
 42 25  1  0     0  0
 43 32  1  0     0  0
 44 46  1  0     0  0
 45 51  1  0     0  0
 46 29  2  0     0  0
 47 33  1  0     0  0
 48 44  1  0     0  0
 49 19  1  0     0  0
 50 19  1  0     0  0
 51 43  1  0     0  0
 52 17  1  0     0  0
 53 58  1  0     0  0
 54 34  1  0     0  0
 55 34  1  0     0  0
 56 33  1  0     0  0
 57 42  1  0     0  0
 58 60  1  0     0  0
 59 57  1  0     0  0
 60 59  1  0     0  0
 61 52  2  0     0  0
 62 61  1  0     0  0
  2 12  1  0     0  0
 21 26  1  0     0  0
 36 30  1  0     0  0
 14 10  1  0     0  0
  4  9  2  0     0  0
 44 31  2  0     0  0
 62 56  2  0     0  0
M  CHG  2  19   1  35  -1
M  END