
  SciTegic04091416292D

 13 13  0  0  0  0            999 V2000
   20.2320  -10.4702    0.0000 N   0  0
   21.0569  -10.4702    0.0000 C   0  0  1  0  0  0
   21.3137   -9.6861    0.0000 C   0  0
   20.6445   -9.1994    0.0000 C   0  0  2  0  0  0
   19.9794   -9.6861    0.0000 C   0  0
   19.8021  -11.1739    0.0000 C   0  0
   18.9774  -11.1537    0.0000 C   0  0
   20.1971  -11.8982    0.0000 O   0  0
   20.6432   -8.3744    0.0000 O   0  0
   21.4658  -11.1871    0.0000 C   0  0
   21.0499  -11.8995    0.0000 O   0  0
   22.2907  -11.1912    0.0000 N   0  0
   22.7068  -10.4788    0.0000 C   0  0
  1  2  1  0
  2  3  1  0
  3  4  1  0
  4  5  1  0
  5  1  1  0
  1  6  1  0
  6  7  1  0
  6  8  2  0
  4  9  1  6
  2 10  1  1
 10 11  2  0
 10 12  1  0
 12 13  1  0
M  END