
          11280715262D 1   1.00000     0.00000     0

 19 19  0     0  0            999 V2000
    6.1667   -2.4417    0.0000 C   0  0  0  0  0  0           0  0  0
    1.8417   -2.5042    0.0000 N   0  0  0  0  0  0           0  0  0
    6.8792   -2.8542    0.0000 N   0  0  0  0  0  0           0  0  0
    7.6042   -2.4500    0.0000 C   0  0  3  0  0  0           0  0  0
    1.7042   -3.8250    0.0000 N   0  0  0  0  0  0           0  0  0
    1.2917   -3.1125    0.0000 C   0  0  0  0  0  0           0  0  0
    2.5917   -2.8417    0.0000 C   0  0  0  0  0  0           0  0  0
    2.5042   -3.6625    0.0000 C   0  0  0  0  0  0           0  0  0
    6.1667   -1.6167    0.0000 O   0  0  0  0  0  0           0  0  0
    8.3167   -2.8625    0.0000 C   0  0  3  0  0  0           0  0  0
    7.6042   -1.6250    0.0000 C   0  0  3  0  0  0           0  0  0
    5.4542   -2.8500    0.0000 O   0  0  0  0  0  0           0  0  0
    3.3167   -2.4375    0.0000 C   0  0  0  0  0  0           0  0  0
    8.3167   -1.2125    0.0000 C   0  0  0  0  0  0           0  0  0
    6.8917   -1.2042    0.0000 C   0  0  0  0  0  0           0  0  0
    8.3042   -3.6875    0.0000 C   0  0  0  0  0  0           0  0  0
    9.0292   -2.4500    0.0000 C   0  0  0  0  0  0           0  0  0
    4.7417   -2.4375    0.0000 C   0  0  0  0  0  0           0  0  0
    4.0292   -2.8500    0.0000 C   0  0  0  0  0  0           0  0  0
  2  7  1  0     0  0
  3  1  1  0     0  0
  4  3  1  0     0  0
  5  8  1  0     0  0
  6  2  2  0     0  0
  7 13  1  0     0  0
  8  7  2  0     0  0
  9  1  2  0     0  0
 10  4  1  0     0  0
 11  4  1  0     0  0
 12  1  1  0     0  0
 13 19  1  0     0  0
 14 11  1  0     0  0
 15 11  1  0     0  0
 16 10  1  0     0  0
 17 10  1  0     0  0
 18 12  1  0     0  0
 19 18  1  0     0  0
  5  6  1  0     0  0
M  END