
  SciTegic12231509382D

 30 33  0  0  0  0            999 V2000
    2.5889    0.0182    0.0000 C   0  0
    1.7138    1.2033    0.0000 N   0  0
    1.7138   -1.2033    0.0000 S   0  0
    4.0872    0.0320    0.0000 N   0  0
    0.2917    0.7475    0.0000 C   0  0
    0.2917   -0.7475    0.0000 C   0  0
    6.3709   -3.8465    0.0000 N   0  0
   13.9223   -8.9769    0.0000 C   0  0
   13.1621   -7.6838    0.0000 C   0  0
    4.8506   -1.2602    0.0000 C   0  0
    6.3505   -1.2485    0.0000 C   0  0
    4.1108   -2.5652    0.0000 C   0  0
   13.1826  -10.2818    0.0000 C   0  0
    7.1341   -5.1388    0.0000 C   0  0
    4.8709   -3.8583    0.0000 C   0  0
    7.1107   -2.5417    0.0000 C   0  0
   11.6621   -7.6955    0.0000 C   0  0
   11.6826  -10.2936    0.0000 C   0  0
   10.8989   -6.4033    0.0000 O   0  0
    8.6349   -5.1249    0.0000 C   0  0  1  0  0  0
   15.1223   -8.9675    0.0000 F   0  0
   13.7907  -11.3163    0.0000 F   0  0
    9.3981   -6.4172    0.0000 C   0  0
   10.9224   -9.0005    0.0000 C   0  0
    9.2249   -4.0800    0.0000 O   0  0
    4.6772    1.0770    0.0000 C   0  0
   -1.0028    1.5132    0.0000 C   0  0
   -1.0028   -1.5132    0.0000 C   0  0
   -2.3155    0.7475    0.0000 C   0  0
   -2.3155   -0.7475    0.0000 C   0  0
  1  2  2  0
  1  3  1  0
  1  4  1  0
  2  5  1  0
  3  6  1  0
  5  6  2  0
  8  9  2  0
  4 10  1  0
 10 11  1  0
 10 12  1  0
  8 13  1  0
  7 14  1  0
  7 15  1  0
 12 15  1  0
  7 16  1  0
 11 16  1  0
  9 17  1  0
 13 18  2  0
 17 19  1  0
 14 20  1  0
  8 21  1  0
 13 22  1  0
 19 23  1  0
 20 23  1  0
 17 24  2  0
 18 24  1  0
 20 25  1  6
  4 26  1  0
  5 27  1  0
  6 28  1  0
 27 29  2  0
 28 30  2  0
 29 30  1  0
M  END