
          05270816392D 1   1.00000     0.00000     0

 37 43  0     1  0            999 V2000
   -4.3374  -10.7754    0.0000 C   0  0  0  0  0  0           0  0  0
   -4.3387  -11.5984    0.0000 C   0  0  0  0  0  0           0  0  0
   -2.9141  -10.7714    0.0000 C   0  0  0  0  0  0           0  0  0
   -3.6231  -10.3625    0.0000 C   0  0  0  0  0  0           0  0  0
   -2.9109  -11.5978    0.0000 C   0  0  0  0  0  0           0  0  0
   -3.6224  -12.0123    0.0000 C   0  0  0  0  0  0           0  0  0
   -3.6237  -12.8345    0.0000 C   0  0  0  0  0  0           0  0  0
   -2.9107  -13.2484    0.0000 C   0  0  0  0  0  0           0  0  0
   -4.9546  -12.1504    0.0000 N   0  0  0  0  0  0           0  0  0
   -4.4081  -13.0890    0.0000 C   0  0  0  0  0  0           0  0  0
   -2.1963  -12.0100    0.0000 C   0  0  2  0  0  0           0  0  0
   -2.1954  -12.8379    0.0000 C   0  0  2  0  0  0           0  0  0
   -1.4820  -13.2488    0.0000 N   0  0  3  0  0  0           0  0  0
   -0.7649  -12.8364    0.0000 C   0  0  0  0  0  0           0  0  0
   -0.7658  -12.0086    0.0000 C   0  0  1  0  0  0           0  0  0
   -1.4838  -11.5931    0.0000 C   0  0  0  0  0  0           0  0  0
   -2.2046  -13.6584    0.0000 H   0  0  0  0  0  0           0  0  0
   -2.2046  -11.1834    0.0000 H   0  0  0  0  0  0           0  0  0
   -0.0514  -11.5961    0.0000 C   0  0  0  0  0  0           0  0  0
   -0.0514  -10.7711    0.0000 O   0  0  0  0  0  0           0  0  0
    0.6632  -12.0086    0.0000 N   0  0  3  0  0  0           0  0  0
    0.6580  -12.8389    0.0000 C   0  0  0  0  0  0           0  0  0
    1.3684  -13.2513    0.0000 C   0  0  0  0  0  0           0  0  0
    2.0853  -12.8423    0.0000 N   0  0  3  0  0  0           0  0  0
    2.0872  -12.0163    0.0000 C   0  0  0  0  0  0           0  0  0
    1.3724  -11.5993    0.0000 C   0  0  0  0  0  0           0  0  0
    2.7982  -13.2574    0.0000 C   0  0  0  0  0  0           0  0  0
    2.7901  -14.0813    0.0000 C   0  0  0  0  0  0           0  0  0
    3.5023  -14.4963    0.0000 C   0  0  0  0  0  0           0  0  0
    3.5070  -12.8459    0.0000 C   0  0  0  0  0  0           0  0  0
   -1.4824  -14.0738    0.0000 C   0  0  0  0  0  0           0  0  0
   -4.7026  -13.8597    0.0000 Br  0  0  0  0  0  0           0  0  0
    5.0057  -14.3433    0.0000 N   0  0  0  0  0  0           0  0  0
    5.4939  -13.6740    0.0000 O   0  0  0  0  0  0           0  0  0
    5.0082  -13.0027    0.0000 N   0  0  0  0  0  0           0  0  0
    4.2197  -13.2572    0.0000 C   0  0  0  0  0  0           0  0  0
    4.2181  -14.0858    0.0000 C   0  0  0  0  0  0           0  0  0
 12 17  1  1     0  0
  7  8  1  0     0  0
 11 18  1  6     0  0
  8 12  1  0     0  0
 15 19  1  1     0  0
  3  4  2  0     0  0
 19 20  2  0     0  0
  2  9  1  0     0  0
 19 21  1  0     0  0
 21 22  1  0     0  0
  4  1  1  0     0  0
  7 10  2  0     0  0
  9 10  1  0     0  0
 11 12  1  0     0  0
  5  6  2  0     0  0
 21 26  1  0     0  0
 22 23  1  0     0  0
 23 24  1  0     0  0
 24 25  1  0     0  0
 25 26  1  0     0  0
  2  6  1  0     0  0
 24 27  1  0     0  0
 27 28  1  0     0  0
  5  3  1  0     0  0
 28 29  2  0     0  0
 29 37  1  0     0  0
  1  2  2  0     0  0
 36 30  1  0     0  0
 30 27  2  0     0  0
  5 11  1  0     0  0
 13 31  1  0     0  0
 11 16  1  0     0  0
 10 32  1  0     0  0
 36 37  1  0     0  0
 12 13  1  0     0  0
 13 14  1  0     0  0
 34 35  1  0     0  0
 14 15  1  0     0  0
 15 16  1  0     0  0
  6  7  1  0     0  0
 33 34  1  0     0  0
 35 36  2  0     0  0
 37 33  2  0     0  0
M  END