
          11280715122D 1   1.00000     0.00000     0

 31 34  0     0  0            999 V2000
    7.3542   -8.7000    0.0000 C   0  0  0  0  0  0           0  0  0
    4.3417   -4.3667    0.0000 C   0  0  0  0  0  0           0  0  0
    6.8250   -9.9292    0.0000 N   0  0  0  0  0  0           0  0  0
    4.3417   -3.5417    0.0000 C   0  0  0  0  0  0           0  0  0
    7.5292   -9.5042    0.0000 N   0  0  0  0  0  0           0  0  0
    6.2042   -9.3917    0.0000 N   0  0  0  0  0  0           0  0  0
    6.5375   -8.6250    0.0000 N   0  0  0  0  0  0           0  0  0
    7.9042   -8.0792    0.0000 C   0  0  0  0  0  0           0  0  0
    5.0542   -4.7792    0.0000 N   0  0  3  0  0  0           0  0  0
    5.0667   -3.1167    0.0000 C   0  0  0  0  0  0           0  0  0
    7.9042   -7.2542    0.0000 C   0  0  0  0  0  0           0  0  0
    3.6292   -4.7792    0.0000 N   0  0  0  0  0  0           0  0  0
    7.1917   -6.8417    0.0000 C   0  0  0  0  0  0           0  0  0
    5.0542   -5.6042    0.0000 C   0  0  0  0  0  0           0  0  0
    5.0625   -2.2917    0.0000 O   0  0  0  0  0  0           0  0  0
    7.1917   -6.0167    0.0000 C   0  0  0  0  0  0           0  0  0
    6.4792   -7.2542    0.0000 C   0  0  0  0  0  0           0  0  0
    6.4750   -4.7792    0.0000 C   0  0  0  0  0  0           0  0  0
    7.1792   -4.3750    0.0000 C   0  0  0  0  0  0           0  0  0
    5.7667   -6.0167    0.0000 C   0  0  0  0  0  0           0  0  0
    5.7875   -3.5292    0.0000 O   0  0  0  0  0  0           0  0  0
    5.7667   -4.3667    0.0000 C   0  0  0  0  0  0           0  0  0
    3.6292   -3.1292    0.0000 C   0  0  0  0  0  0           0  0  0
    6.4792   -5.6042    0.0000 C   0  0  0  0  0  0           0  0  0
    5.7667   -6.8417    0.0000 C   0  0  0  0  0  0           0  0  0
    8.6167   -8.4917    0.0000 C   0  0  0  0  0  0           0  0  0
    8.6167   -6.8417    0.0000 C   0  0  0  0  0  0           0  0  0
    2.9167   -4.3667    0.0000 C   0  0  0  0  0  0           0  0  0
    2.9167   -3.5417    0.0000 C   0  0  0  0  0  0           0  0  0
    9.3292   -7.2542    0.0000 C   0  0  0  0  0  0           0  0  0
    9.3292   -8.0792    0.0000 C   0  0  0  0  0  0           0  0  0
  2  9  1  0     0  0
  3  5  2  0     0  0
  4  2  1  0     0  0
  5  1  1  0     0  0
  6  7  1  0     0  0
  7  1  2  0     0  0
  8  1  1  0     0  0
  9 14  1  0     0  0
 10  4  1  0     0  0
 11  8  2  0     0  0
 12  2  2  0     0  0
 13 11  1  0     0  0
 14 20  1  0     0  0
 15 10  2  0     0  0
 16 13  2  0     0  0
 17 13  1  0     0  0
 18 22  1  0     0  0
 19 18  2  0     0  0
 20 25  1  0     0  0
 21 10  1  0     0  0
 22  9  1  0     0  0
 23  4  2  0     0  0
 24 16  1  0     0  0
 25 17  2  0     0  0
 26  8  1  0     0  0
 27 11  1  0     0  0
 28 12  1  0     0  0
 29 28  2  0     0  0
 30 31  1  0     0  0
 31 26  2  0     0  0
  6  3  1  0     0  0
 30 27  2  0     0  0
 24 20  2  0     0  0
 23 29  1  0     0  0
M  END