
  SciTegic04091414152D

 34 38  0  0  0  0            999 V2000
   15.1882   -3.0080    0.0000 C   0  0
   14.5695   -3.5399    0.0000 C   0  0  2  0  0  0
   14.7233   -4.3389    0.0000 C   0  0
   15.5087   -4.5832    0.0000 N   0  3
   16.1135   -4.0730    0.0000 C   0  0
   15.9602   -3.2677    0.0000 C   0  0
   14.7962   -3.7228    0.0000 C   0  0
   15.5922   -3.9070    0.0000 C   0  0
   13.7978   -3.2710    0.0000 O   0  0
   12.3902   -3.1004    0.0000 C   0  0
   11.8500   -3.7182    0.0000 C   0  0
   13.0493   -3.5935    0.0000 C   0  0
   11.6367   -2.7790    0.0000 C   0  0
   11.4102   -1.9925    0.0000 C   0  0
   11.8874   -1.3258    0.0000 C   0  0
   12.7014   -1.2919    0.0000 C   0  0
   13.2437   -1.9030    0.0000 C   0  0
   13.1046   -2.7107    0.0000 C   0  0
   11.0364   -3.6483    0.0000 C   0  0
   10.7138   -4.4027    0.0000 C   0  0
   11.3316   -4.9427    0.0000 C   0  0
   12.0360   -4.5219    0.0000 C   0  0
   12.9524   -4.4049    0.0000 O   0  0
   15.5641   -5.3985    0.0000 C   0  0
   16.2979   -5.7582    0.0000 C   0  0
   16.3533   -6.5735    0.0000 O   0  0
   16.9763   -5.3026    0.0000 N   0  0
   17.7100   -5.6622    0.0000 C   0  0
   17.7624   -6.4750    0.0000 C   0  0
   18.4953   -6.8347    0.0000 C   0  0
   19.1747   -6.3789    0.0000 C   0  0
   19.1164   -5.5596    0.0000 C   0  0
   18.3831   -5.2037    0.0000 C   0  0
   19.7932   -5.1016    0.0000 F   0  0
  1  2  1  0
  1  6  1  0
  2  3  1  0
  3  4  1  0
  4  5  1  0
  5  6  1  0
  1  7  1  0
  4  8  1  0
  7  8  1  0
  2  9  1  6
 11 10  1  0
 10 12  1  0
 13 14  1  0
 14 15  1  0
 15 16  1  0
 13 10  1  0
 16 17  1  0
 10 18  1  0
 17 18  1  0
 11 19  2  0
 19 20  1  0
 20 21  2  0
 21 22  1  0
 22 11  1  0
 12 23  2  0
 12  9  1  0
  4 24  1  0
 24 25  1  0
 25 26  2  0
 25 27  1  0
 27 28  1  0
 28 29  2  0
 29 30  1  0
 30 31  2  0
 31 32  1  0
 32 33  2  0
 33 28  1  0
 32 34  1  0
M  CHG  1   4   1
M  END