
  SciTegic01061414252D

 19 20  0  0  0  0            999 V2000
    3.6258   -4.2394    0.0000 S   0  0
    3.2183   -4.9477    0.0000 O   0  0
    4.0355   -4.9465    0.0000 O   0  0
    1.5009   -3.0128    0.0000 C   0  0
    1.4997   -3.8324    0.0000 C   0  0
    2.2078   -4.2413    0.0000 C   0  0
    2.9175   -3.8319    0.0000 C   0  0
    2.9146   -3.0092    0.0000 C   0  0
    2.2060   -2.6040    0.0000 C   0  0
    4.3329   -3.8297    0.0000 N   0  0
    5.0412   -4.2372    0.0000 C   0  0
    5.0379   -5.0528    0.0000 C   0  0
    5.7454   -5.4602    0.0000 C   0  0
    6.4534   -5.0505    0.0000 C   0  0
    6.4495   -4.2290    0.0000 C   0  0
    5.7414   -3.8253    0.0000 C   0  0
    5.7359   -3.0082    0.0000 C   0  0
    4.3296   -5.4604    0.0000 C   0  0
    7.1623   -5.4570    0.0000 O   0  0
  2  1  2  0
  1  3  2  0
  4  5  2  0
  5  6  1  0
  6  7  2  0
  7  8  1  0
  8  9  2  0
  9  4  1  0
  7  1  1  0
  1 10  1  0
 10 11  1  0
 11 12  2  0
 12 13  1  0
 13 14  2  0
 14 15  1  0
 15 16  2  0
 16 11  1  0
 16 17  1  0
 12 18  1  0
 14 19  1  0
M  END