
  SciTegic12131615082D

 32 35  0  0  0  0            999 V2000
    5.0512   -2.4957    0.0000 C   0  0
    5.4884   -3.9306    0.0000 C   0  0
    4.4644   -5.0266    0.0000 C   0  0
    3.0032   -4.6878    0.0000 C   0  0
    2.5660   -3.2530    0.0000 C   0  0
    3.5900   -2.1568    0.0000 C   0  0
    4.9018   -6.4622    0.0000 C   0  0
    6.3626   -6.8035    0.0000 C   0  0
    6.7975   -8.2390    0.0000 C   0  0
    5.7717   -9.3335    0.0000 C   0  0
    4.3110   -8.9923    0.0000 C   0  0
    3.8761   -7.5568    0.0000 C   0  0
    3.1497   -0.7220    0.0000 C   0  0
    1.6852   -0.3846    0.0000 N   0  0
    1.3514    1.0778    0.0000 C   0  0
    0.0000    1.7286    0.0000 C   0  0
    0.7500   -1.5574    0.0000 C   0  0
   -1.3515    1.0777    0.0000 N   0  0
   -0.7500   -1.5574    0.0000 C   0  0
   -1.6852   -0.3847    0.0000 C   0  0
   -2.2897    1.8259    0.0000 C   0  0
    6.2039  -10.7707    0.0000 C   0  0
    5.1760  -11.8643    0.0000 N   0  0
    5.7007  -13.2773    0.0000 C   0  0
    4.9397  -14.5699    0.0000 C   0  0
    3.7350  -11.4221    0.0000 C   0  0
    3.4547  -14.7809    0.0000 C   0  0
    2.4885  -12.2566    0.0000 C   0  0
    2.3638  -13.7514    0.0000 N   0  0
    1.2430  -14.1803    0.0000 C   0  0
    5.8705   -1.6189    0.0000 F   0  0
    6.6574   -4.2016    0.0000 F   0  0
  1  2  2  0
  2  3  1  0
  3  4  2  0
  4  5  1  0
  5  6  2  0
  6  1  1  0
  7  8  2  0
  8  9  1  0
  9 10  2  0
 10 11  1  0
 11 12  2  0
 12  7  1  0
  3  7  1  0
  6 13  1  0
 13 14  1  0
 14 15  1  0
 15 16  1  0
 14 17  1  0
 16 18  1  0
 17 19  1  0
 18 20  1  0
 19 20  1  0
 18 21  1  0
 10 22  1  0
 22 23  1  0
 23 24  1  0
 24 25  1  0
 23 26  1  0
 25 27  1  0
 26 28  1  0
 27 29  1  0
 28 29  1  0
 29 30  1  0
  1 31  1  0
  2 32  1  0
M  END