
  Mrv0541 05211314572D          

 18 19  0  0  0  0            999 V2000
   -0.1575   -0.2488    0.0000 C   0  0  0  0  0  0  0  0  0  0  0  0
    0.5570   -0.6613    0.0000 C   0  0  0  0  0  0  0  0  0  0  0  0
   -1.5864   -0.2488    0.0000 C   0  0  0  0  0  0  0  0  0  0  0  0
   -2.3401   -0.5843    0.0000 N   0  0  0  0  0  0  0  0  0  0  0  0
   -0.8719   -0.6613    0.0000 C   0  0  0  0  0  0  0  0  0  0  0  0
    1.2715   -0.2488    0.0000 C   0  0  0  0  0  0  0  0  0  0  0  0
   -1.6726    0.5717    0.0000 N   0  0  0  0  0  0  0  0  0  0  0  0
   -0.1575    0.5762    0.0000 C   0  0  0  0  0  0  0  0  0  0  0  0
    1.2715    0.5762    0.0000 C   0  0  0  0  0  0  0  0  0  0  0  0
    0.5570    0.9887    0.0000 C   0  0  0  0  0  0  0  0  0  0  0  0
    4.9397    0.0000    0.0000 Cl  0  0  0  0  0  0  0  0  0  0  0  0
   -2.8921    0.0287    0.0000 C   0  0  0  0  0  0  0  0  0  0  0  0
   -2.4796    0.7432    0.0000 C   0  0  0  0  0  0  0  0  0  0  0  0
    1.9859   -0.6613    0.0000 C   0  0  0  0  0  0  0  0  0  0  0  0
   -0.8719   -1.4863    0.0000 C   0  0  0  0  0  0  0  0  0  0  0  0
    1.9859    0.9887    0.0000 C   0  0  0  0  0  0  0  0  0  0  0  0
    2.7004   -0.2488    0.0000 C   0  0  0  0  0  0  0  0  0  0  0  0
    2.7004    0.5762    0.0000 C   0  0  0  0  0  0  0  0  0  0  0  0
  1  2  2  0  0  0  0
  3  4  2  0  0  0  0
  1  5  1  0  0  0  0
  3  5  1  0  0  0  0
  2  6  1  0  0  0  0
  3  7  1  0  0  0  0
  1  8  1  0  0  0  0
  6  9  2  0  0  0  0
  8 10  1  0  0  0  0
  9 10  1  0  0  0  0
  4 12  1  0  0  0  0
  7 13  1  0  0  0  0
 12 13  1  0  0  0  0
  6 14  1  0  0  0  0
  5 15  1  0  0  0  0
  9 16  1  0  0  0  0
 14 17  2  0  0  0  0
 16 18  2  0  0  0  0
 17 18  1  0  0  0  0
M  END