
  Mrv0541 04051115152D          

 30 33  0  0  0  0            999 V2000
   -1.2742   -0.7038    0.0000 C   0  0  0  0  0  0  0  0  0  0  0  0
   -0.5598   -1.1163    0.0000 C   0  0  0  0  0  0  0  0  0  0  0  0
   -0.5598   -1.9413    0.0000 C   0  0  0  0  0  0  0  0  0  0  0  0
   -1.2742   -2.3538    0.0000 N   0  0  0  0  0  0  0  0  0  0  0  0
   -1.9887   -1.9413    0.0000 C   0  0  0  0  0  0  0  0  0  0  0  0
   -1.9887   -1.1163    0.0000 C   0  0  0  0  0  0  0  0  0  0  0  0
   -1.2742    0.1212    0.0000 C   0  0  0  0  0  0  0  0  0  0  0  0
   -1.9887    0.5337    0.0000 C   0  0  0  0  0  0  0  0  0  0  0  0
   -1.9887    1.3587    0.0000 C   0  0  0  0  0  0  0  0  0  0  0  0
   -1.2742    1.7712    0.0000 N   0  0  0  0  0  0  0  0  0  0  0  0
   -0.5598    1.3587    0.0000 C   0  0  0  0  0  0  0  0  0  0  0  0
   -0.5598    0.5337    0.0000 N   0  0  0  0  0  0  0  0  0  0  0  0
    0.1547    1.7712    0.0000 N   0  0  0  0  0  0  0  0  0  0  0  0
    0.1547    2.5962    0.0000 C   0  0  0  0  0  0  0  0  0  0  0  0
   -0.5598    3.0087    0.0000 C   0  0  0  0  0  0  0  0  0  0  0  0
   -0.5598    3.8337    0.0000 C   0  0  0  0  0  0  0  0  0  0  0  0
    0.1547    4.2462    0.0000 C   0  0  0  0  0  0  0  0  0  0  0  0
    0.8692    3.8337    0.0000 C   0  0  0  0  0  0  0  0  0  0  0  0
    0.8692    3.0087    0.0000 C   0  0  0  0  0  0  0  0  0  0  0  0
    0.1547    5.0712    0.0000 C   0  0  0  0  0  0  0  0  0  0  0  0
   -1.2742    4.2462    0.0000 Cl  0  0  0  0  0  0  0  0  0  0  0  0
    0.1547   -2.3538    0.0000 N   0  0  0  0  0  0  0  0  0  0  0  0
    0.1547   -3.1788    0.0000 C   0  0  0  0  0  0  0  0  0  0  0  0
    0.8692   -3.5913    0.0000 C   0  0  0  0  0  0  0  0  0  0  0  0
    1.5837   -3.1788    0.0000 N   0  0  0  0  0  0  0  0  0  0  0  0
    1.5837   -2.3538    0.0000 C   0  0  0  0  0  0  0  0  0  0  0  0
    0.8692   -1.9413    0.0000 C   0  0  0  0  0  0  0  0  0  0  0  0
    2.2981   -3.5913    0.0000 C   0  0  0  0  0  0  0  0  0  0  0  0
    2.2981   -4.4163    0.0000 C   0  0  0  0  0  0  0  0  0  0  0  0
    3.0126   -4.8288    0.0000 N   0  0  0  0  0  0  0  0  0  0  0  0
  1  2  2  0  0  0  0
  1  6  1  0  0  0  0
  1  7  1  0  0  0  0
  2  3  1  0  0  0  0
  3  4  2  0  0  0  0
  3 22  1  0  0  0  0
  5  4  1  0  0  0  0
  5  6  2  0  0  0  0
  7  8  2  0  0  0  0
  7 12  1  0  0  0  0
  8  9  1  0  0  0  0
  9 10  2  0  0  0  0
 11 10  1  0  0  0  0
 11 12  2  0  0  0  0
 11 13  1  0  0  0  0
 14 13  1  0  0  0  0
 14 15  2  0  0  0  0
 14 19  1  0  0  0  0
 15 16  1  0  0  0  0
 16 17  2  0  0  0  0
 16 21  1  0  0  0  0
 17 18  1  0  0  0  0
 17 20  1  0  0  0  0
 18 19  2  0  0  0  0
 23 22  1  0  0  0  0
 27 22  1  0  0  0  0
 23 24  1  0  0  0  0
 24 25  1  0  0  0  0
 26 25  1  0  0  0  0
 28 25  1  0  0  0  0
 26 27  1  0  0  0  0
 28 29  1  0  0  0  0
 29 30  1  0  0  0  0
M  END