
  SciTegic01061111512D

 47 50  0  0  0  0            999 V2000
   15.4808   -0.6011    0.0000 C   0  0  2  0  0  0
   16.2721   -0.8441    0.0000 C   0  0
   16.5781   -1.6026    0.0000 C   0  0  1  0  0  0
   14.7914   -1.8110    0.0000 C   0  0
   14.9052   -0.9812    0.0000 C   0  0  2  0  0  0
   14.1368   -0.6475    0.0000 C   0  0  1  0  0  0
   13.5998   -1.2595    0.0000 C   0  0  2  0  0  0
   13.9847   -1.9859    0.0000 C   0  0
   16.1657   -2.3171    0.0000 C   0  0  1  0  0  0
   15.3542   -2.4113    0.0000 C   0  0  1  0  0  0
   15.1759   -3.2309    0.0000 O   0  0
   15.8981   -3.6626    0.0000 C   0  0
   16.5050   -3.0944    0.0000 C   0  0  1  0  0  0
   15.9832   -4.4852    0.0000 O   0  0
   16.9974   -2.3645    0.0000 O   0  0
   13.6370   -2.7372    0.0000 C   0  0
   12.7756   -1.1607    0.0000 O   0  0
   13.9501    0.1626    0.0000 O   0  0
   14.8785   -0.0298    0.0000 C   0  0
   17.3645   -1.8589    0.0000 O   0  0
   15.8997    0.1153    0.0000 O   0  0
   16.7073    0.2598    0.0000 C   0  0
   16.9504    1.0513    0.0000 O   0  0
   13.1603    0.4052    0.0000 C   0  0
   12.2762   -1.8292    0.0000 C   0  0
   12.5621   -2.6077    0.0000 O   0  0
   11.4528   -1.7299    0.0000 C   0  0
   10.9202   -2.3685    0.0000 C   0  0
   11.1707   -0.9526    0.0000 C   0  0
   11.2021   -3.1459    0.0000 C   0  0
   14.6729   -0.4737    0.0000 H   0  0
   14.6199   -2.8005    0.0000 H   0  0
   17.2539   -0.3574    0.0000 C   0  0
   12.9759    1.2088    0.0000 C   0  0
   12.5566   -0.1563    0.0000 O   0  0
   13.5835    1.7666    0.0000 C   0  0
   13.3996    2.5695    0.0000 C   0  0
   12.6109    2.8122    0.0000 C   0  0
   12.0058    2.2459    0.0000 C   0  0
   12.1929    1.4451    0.0000 C   0  0
   17.2924   -3.3353    0.0000 O   0  0
   16.6853   -3.8937    0.0000 C   0  0
   18.1246   -1.5418    0.0000 C   0  0
   18.7800   -2.0419    0.0000 C   0  0
   18.2302   -0.7241    0.0000 O   0  0
   19.5409   -1.7245    0.0000 C   0  0
   20.1962   -2.2247    0.0000 C   0  0
 13  9  1  0
 12 14  2  0
  9 15  1  1
  8 16  1  0
  7 17  1  6
  6 18  1  1
  1 19  1  6
  3 20  1  6
  1 21  1  1
 21 22  1  0
 22 23  2  0
 18 24  1  0
 17 25  1  0
 25 26  2  0
 25 27  1  0
 27 28  2  0
 27 29  1  0
 28 30  1  0
  5 31  1  1
 10 32  1  6
 22 33  1  0
  5  1  1  0
 24 34  1  0
  1  2  1  0
 24 35  2  0
  2  3  1  0
 34 36  2  0
  4 10  1  0
 36 37  1  0
  3  9  1  0
 37 38  2  0
  4  5  1  0
 38 39  1  0
  5  6  1  0
 39 40  2  0
 40 34  1  0
  6  7  1  0
 13 41  1  6
  7  8  1  0
 13 42  1  0
  8  4  2  0
 20 43  1  0
  9 10  1  0
 43 44  1  0
 10 11  1  0
 43 45  2  0
 11 12  1  0
 44 46  1  0
 12 13  1  0
 46 47  1  0
M  END