
          11280715052D 1   1.00000     0.00000     0

 35 38  0     0  0            999 V2000
    3.9542   -2.0792    0.0000 C   0  0  0  0  0  0           0  0  0
    4.6750   -2.4875    0.0000 N   0  0  3  0  0  0           0  0  0
    9.6667   -1.2375    0.0000 C   0  0  3  0  0  0           0  0  0
    8.2417   -2.0625    0.0000 N   0  0  3  0  0  0           0  0  0
    5.3875   -2.0750    0.0000 C   0  0  0  0  0  0           0  0  0
    6.1042   -3.3042    0.0000 C   0  0  0  0  0  0           0  0  0
    6.8292   -4.5375    0.0000 C   0  0  0  0  0  0           0  0  0
    6.8167   -3.7125    0.0000 C   0  0  0  0  0  0           0  0  0
    6.1042   -2.4792    0.0000 C   0  0  3  0  0  0           0  0  0
    9.6667   -2.0625    0.0000 C   0  0  0  0  0  0           0  0  0
    8.9542   -0.8250    0.0000 C   0  0  0  0  0  0           0  0  0
    6.1125   -4.9542    0.0000 C   0  0  0  0  0  0           0  0  0
    3.9542   -1.2542    0.0000 O   0  0  0  0  0  0           0  0  0
    3.2417   -2.4917    0.0000 C   0  0  0  0  0  0           0  0  0
    5.3917   -3.7167    0.0000 C   0  0  0  0  0  0           0  0  0
    9.6667   -0.4125    0.0000 C   0  0  0  0  0  0           0  0  0
    5.3917   -4.5417    0.0000 C   0  0  0  0  0  0           0  0  0
    8.2375   -1.2375    0.0000 C   0  0  0  0  0  0           0  0  0
    8.9542   -2.4750    0.0000 C   0  0  0  0  0  0           0  0  0
    6.8167   -2.0667    0.0000 C   0  0  0  0  0  0           0  0  0
    7.5292   -2.4792    0.0000 C   0  0  0  0  0  0           0  0  0
    7.5417   -4.9417    0.0000 Cl  0  0  0  0  0  0           0  0  0
   10.3792   -1.6500    0.0000 O   0  0  0  0  0  0           0  0  0
    6.1167   -5.7792    0.0000 Cl  0  0  0  0  0  0           0  0  0
    4.6750   -3.3125    0.0000 C   0  0  0  0  0  0           0  0  0
    3.2417   -3.3250    0.0000 C   0  0  0  0  0  0           0  0  0
    2.5292   -2.0792    0.0000 C   0  0  0  0  0  0           0  0  0
   10.3792    0.0083    0.0000 C   0  0  0  0  0  0           0  0  0
    8.9500   -0.0042    0.0000 C   0  0  0  0  0  0           0  0  0
    2.5292   -3.7375    0.0000 C   0  0  0  0  0  0           0  0  0
   10.3750    0.8333    0.0000 C   0  0  0  0  0  0           0  0  0
    8.9417    0.8208    0.0000 C   0  0  0  0  0  0           0  0  0
    1.8167   -2.5000    0.0000 C   0  0  0  0  0  0           0  0  0
    1.8167   -3.3250    0.0000 C   0  0  0  0  0  0           0  0  0
    9.6542    1.2458    0.0000 C   0  0  0  0  0  0           0  0  0
  2  1  1  0     0  0
  3 10  1  0     0  0
  4 21  1  0     0  0
  5  2  1  0     0  0
  6  9  1  0     0  0
  7  8  2  0     0  0
  8  6  1  0     0  0
  9  5  1  0     0  0
 10 19  1  0     0  0
 11 18  1  0     0  0
 12 17  2  0     0  0
 13  1  2  0     0  0
 14  1  1  0     0  0
 15  6  2  0     0  0
 16  3  1  0     0  0
 17 15  1  0     0  0
 18  4  1  0     0  0
 19  4  1  0     0  0
 20  9  1  0     0  0
 21 20  1  0     0  0
 22  7  1  0     0  0
 23  3  1  0     0  0
 24 12  1  0     0  0
 25  2  1  0     0  0
 26 14  1  0     0  0
 27 14  2  0     0  0
 28 16  2  0     0  0
 29 16  1  0     0  0
 30 26  2  0     0  0
 31 28  1  0     0  0
 32 29  2  0     0  0
 33 27  1  0     0  0
 34 33  2  0     0  0
 35 32  1  0     0  0
 34 30  1  0     0  0
 12  7  1  0     0  0
 11  3  1  0     0  0
 31 35  2  0     0  0
M  END