
  SciTegic10041313212D

 25 27  0  0  0  0            999 V2000
   -0.4920   -6.7888    0.0000 C   0  0
    0.2204   -7.2055    0.0000 C   0  0
    0.9340   -6.7930    0.0000 C   0  0
    0.9338   -5.9671    0.0000 C   0  0
    0.2138   -5.5555    0.0000 C   0  0
   -0.4968   -5.9703    0.0000 C   0  0
   -1.2134   -5.5617    0.0000 O   0  0
   -1.9257   -5.9779    0.0000 C   0  0
   -2.6414   -5.5673    0.0000 C   0  0
   -3.3532   -5.9829    0.0000 C   0  0
   -3.3492   -6.8088    0.0000 C   0  0
   -2.6276   -7.2173    0.0000 C   0  0
   -1.9188   -6.7994    0.0000 C   0  0
   -4.0609   -7.2260    0.0000 O   0  0
    1.6487   -7.2053    0.0000 C   0  0
    2.3631   -6.7925    0.0000 C   0  0
    3.1162   -7.1226    0.0000 C   0  0
    3.6680   -6.5092    0.0000 N   0  0
    3.2552   -5.7949    0.0000 C   0  0
    2.4483   -5.9669    0.0000 N   0  0
    3.5903   -5.0410    0.0000 O   0  0
    3.2904   -7.9290    0.0000 O   0  0
    0.2102   -4.7305    0.0000 I   0  0
   -1.2065   -7.2013    0.0000 I   0  0
   -4.0696   -5.5739    0.0000 C   0  0
  6  1  1  0
 12 13  2  0
 13  8  1  0
  1  2  2  0
 11 14  1  0
  6  7  1  0
  3 15  1  0
  3  4  2  0
 16 15  1  0
 16 17  1  0
  7  8  1  0
  8  9  2  0
  4  5  1  0
 17 18  1  0
 18 19  1  0
 19 20  1  0
 20 16  1  0
  9 10  1  0
 19 21  2  0
  2  3  1  0
 17 22  2  0
 10 11  2  0
  5 23  1  0
  5  6  2  0
  1 24  1  0
 11 12  1  0
 10 25  1  0
M  END