
  SciTegic01091216402D

 21 22  0  0  0  0            999 V2000
    1.0351   -0.9853    0.0000 N   0  0
    1.1273   -1.8027    0.0000 N   0  0
    1.9349   -1.9677    0.0000 C   0  0
    2.3409   -1.2523    0.0000 C   0  0
    1.7865   -0.6450    0.0000 C   0  0
    0.3155   -0.5793    0.0000 C   0  0
   -0.3924   -0.9983    0.0000 N   0  0
    0.3080    0.2456    0.0000 N   0  0
    3.1624   -1.1558    0.0000 C   0  0
    3.6532   -1.8210    0.0000 C   0  0
    1.0201    0.6646    0.0000 C   0  0
    1.7397    0.2586    0.0000 C   0  0
   -1.1120   -0.5923    0.0000 S   0  0
   -1.8154   -1.0244    0.0000 C   0  0
   -1.7918   -1.8467    0.0000 C   0  0
   -2.4955   -2.2796    0.0000 C   0  0
   -3.2209   -1.8866    0.0000 C   0  0
   -3.2425   -1.0607    0.0000 C   0  0
   -2.5408   -0.6314    0.0000 C   0  0
   -1.7000   -0.0042    0.0000 O   0  0
   -0.7042    0.1250    0.0000 O   0  0
  2  3  2  0
  3  4  1  0
  4  5  1  0
  1  5  1  0
  6  7  2  0
  6  8  1  0
  1  6  1  0
  9 10  1  0
  4  9  1  0
 11 12  1  0
  8 11  1  0
 14 15  1  0
 15 16  2  0
 16 17  1  0
 17 18  2  0
 18 19  1  0
 14 19  2  0
 13 14  1  0
  7 13  1  0
 13 20  2  0
  1  2  1  0
 13 21  2  0
M  END