
  SciTegic10311316212D

 26 29  0  0  0  0            999 V2000
   10.7631   -7.2552    0.0000 O   0  0
   11.4776   -6.8427    0.0000 C   0  0
   11.4776   -6.0177    0.0000 C   0  0
   10.7631   -5.6052    0.0000 N   0  0
   10.0487   -6.0177    0.0000 C   0  0
   10.0487   -6.8427    0.0000 C   0  0
   12.1921   -5.6052    0.0000 C   0  0
   12.9065   -6.0177    0.0000 C   0  0
   12.9065   -6.8427    0.0000 C   0  0
   12.1921   -7.2552    0.0000 C   0  0
    9.3342   -5.6052    0.0000 O   0  0
    9.3342   -7.2552    0.0000 C   0  0
   13.6210   -7.2552    0.0000 C   0  0
   14.3355   -6.0177    0.0000 C   0  0
   15.0500   -5.6052    0.0000 C   0  0
   15.7644   -6.0177    0.0000 C   0  0
   15.7644   -6.8427    0.0000 C   0  0
   15.0500   -7.2552    0.0000 C   0  0
   14.3355   -6.8427    0.0000 N   0  0
   16.4789   -5.6052    0.0000 C   0  0
   16.4789   -4.7802    0.0000 C   0  0
   17.1934   -4.3677    0.0000 C   0  0
   17.9078   -4.7802    0.0000 C   0  0
   17.9078   -5.6052    0.0000 C   0  0
   17.1934   -6.0177    0.0000 C   0  0
   18.6223   -4.3677    0.0000 Cl  0  0
  1  2  1  0
  2  3  1  0
  3  4  1  0
  4  5  1  0
  5  6  1  0
  1  6  1  0
  7  8  1  0
  8  9  2  0
  9 10  1  0
  2 10  2  0
  3  7  2  0
  5 11  2  0
  6 12  1  0
 14 15  1  0
 15 16  2  0
 16 17  1  0
 17 18  1  0
 18 19  1  0
 14 19  1  0
 20 21  1  0
 21 22  2  0
 22 23  1  0
 23 24  2  0
 24 25  1  0
 20 25  2  0
 23 26  1  0
 16 20  1  0
 13 19  1  0
  9 13  1  0
M  END