
          11280715012D 1   1.00000     0.00000     0

 32 35  0     1  0            999 V2000
    4.4625   -3.1500    0.0000 C   0  0  0  0  0  0           0  0  0
    5.1750   -2.7417    0.0000 N   0  0  3  0  0  0           0  0  0
    3.7542   -2.7292    0.0000 C   0  0  0  0  0  0           0  0  0
    3.0542   -3.1542    0.0000 C   0  0  0  0  0  0           0  0  0
    8.7417   -3.1667    0.0000 C   0  0  0  0  0  0           0  0  0
    1.6167   -3.1667    0.0000 N   0  0  3  0  0  0           0  0  0
    6.6042   -2.7417    0.0000 C   0  0  0  0  0  0           0  0  0
    8.0292   -2.7500    0.0000 C   0  0  2  0  0  0           0  0  0
    2.3292   -2.7542    0.0000 C   0  0  0  0  0  0           0  0  0
    7.3167   -3.1625    0.0000 N   0  0  0  0  0  0           0  0  0
    5.8875   -3.1542    0.0000 C   0  0  0  0  0  0           0  0  0
    9.4625   -2.7542    0.0000 C   0  0  0  0  0  0           0  0  0
    3.7417   -1.9125    0.0000 C   0  0  0  0  0  0           0  0  0
    5.1792   -1.9167    0.0000 C   0  0  0  0  0  0           0  0  0
    8.0375   -1.9250    0.0000 C   0  0  0  0  0  0           0  0  0
    4.4542   -3.9750    0.0000 O   0  0  0  0  0  0           0  0  0
    0.1917   -3.9917    0.0000 N   0  0  0  0  0  0           0  0  0
    6.6042   -1.9167    0.0000 O   0  0  0  0  0  0           0  0  0
    8.7542   -0.6917    0.0000 N   0  0  0  0  0  0           0  0  0
    2.3167   -1.9292    0.0000 C   0  0  0  0  0  0           0  0  0
    9.4667   -1.9292    0.0000 O   0  0  0  0  0  0           0  0  0
    4.4667   -1.5000    0.0000 C   0  0  0  0  0  0           0  0  0
    3.0292   -1.5042    0.0000 C   0  0  0  0  0  0           0  0  0
   10.1750   -3.1667    0.0000 O   0  0  0  0  0  0           0  0  0
    8.7542   -1.5167    0.0000 C   0  0  0  0  0  0           0  0  0
    0.9042   -2.7542    0.0000 C   0  0  0  0  0  0           0  0  0
    1.6167   -3.9917    0.0000 C   0  0  0  0  0  0           0  0  0
    0.1917   -3.1667    0.0000 C   0  0  0  0  0  0           0  0  0
    0.9042   -4.4042    0.0000 C   0  0  0  0  0  0           0  0  0
    7.3250   -1.5125    0.0000 C   0  0  0  0  0  0           0  0  0
    8.0417   -0.2750    0.0000 C   0  0  0  0  0  0           0  0  0
    7.3250   -0.6875    0.0000 C   0  0  0  0  0  0           0  0  0
  2  1  1  0     0  0
  3  1  1  0     0  0
  4  3  1  0     0  0
  5  8  1  0     0  0
  6  9  1  0     0  0
  7 11  1  0     0  0
  8 10  1  0     0  0
  9  4  2  0     0  0
 10  7  1  0     0  0
 11  2  1  0     0  0
 12  5  1  0     0  0
 13  3  2  0     0  0
 14  2  1  0     0  0
  8 15  1  6     0  0
 16  1  2  0     0  0
 17 29  1  0     0  0
 18  7  2  0     0  0
 19 25  1  0     0  0
 20 23  2  0     0  0
 21 12  2  0     0  0
 22 13  1  0     0  0
 23 13  1  0     0  0
 24 12  1  0     0  0
 25 15  2  0     0  0
 26  6  1  0     0  0
 27  6  1  0     0  0
 28 26  1  0     0  0
 29 27  1  0     0  0
 30 15  1  0     0  0
 31 32  1  0     0  0
 32 30  2  0     0  0
 14 22  1  0     0  0
 20  9  1  0     0  0
 28 17  1  0     0  0
 31 19  2  0     0  0
M  END