
  SciTegic10301317112D

 37 38  0  0  0  0            999 V2000
   -1.9074    0.7455    0.0000 S   0  0
    1.3786    0.7580    0.0000 C   0  0
    8.1130   -3.3277    0.0000 C   0  0  1  0  0  0
    8.9376   -3.3527    0.0000 C   0  0
    7.7215   -2.5988    0.0000 N   0  0
   -1.0870    0.7455    0.0000 C   0  0
    6.8968   -2.6030    0.0000 C   0  0
    1.7992    0.0458    0.0000 N   0  0
   -1.9116   -0.0792    0.0000 O   0  0
   -1.9074    1.5701    0.0000 O   0  0
    3.0403   -0.6539    0.0000 C   0  0
    5.1726   -1.2286    0.0000 C   0  0
    0.5539    0.7580    0.0000 C   0  0
   -2.7362    0.7497    0.0000 N   0  0
    5.6516   -1.8991    0.0000 N   0  0
    3.8649   -0.6539    0.0000 N   0  0
    7.6757   -4.0274    0.0000 C   0  0
    1.7909    1.4743    0.0000 O   0  0
    9.3707   -2.6488    0.0000 O   0  0
    6.4887   -3.3235    0.0000 O   0  0
    2.6280   -1.3744    0.0000 O   0  0
    5.5017   -0.4790    0.0000 O   0  0
   -0.6830    1.4576    0.0000 C   0  0
   -0.6705    0.0333    0.0000 C   0  0
    0.1499    0.0375    0.0000 C   0  0
    0.1374    1.4701    0.0000 C   0  0
    2.6238    0.0583    0.0000 C   0  0
    6.4762   -1.8908    0.0000 C   0  0
    4.3522   -1.3161    0.0000 C   0  0
    8.0713   -4.7520    0.0000 C   0  0
    9.3249   -4.0773    0.0000 O   0  0
    8.8501   -6.2014    0.0000 C   0  0
    9.2375   -6.9260    0.0000 Cl  0  0
    7.6382   -5.4475    0.0000 C   0  0
    8.8959   -4.7728    0.0000 C   0  0
    9.2874   -5.4975    0.0000 C   0  0
    8.0255   -6.1722    0.0000 C   0  0
  2 13  1  0
  3  5  1  0
  4  3  1  0
  5  7  1  0
  6  1  1  0
  7 28  1  0
  8  2  1  0
  9  1  2  0
 10  1  2  0
 11 27  1  0
 12 29  1  0
 13 25  2  0
 14  1  1  0
 15 12  1  0
 16 11  1  0
  3 17  1  6
 18  2  2  0
 19  4  2  0
 20  7  2  0
 21 11  2  0
 22 12  2  0
 23  6  1  0
 24  6  2  0
 25 24  1  0
 26 23  2  0
 27  8  1  0
 28 15  1  0
 29 16  1  0
 30 17  1  0
 31  4  1  0
 32 36  2  0
 33 32  1  0
 34 30  1  0
 35 30  2  0
 36 35  1  0
 37 34  2  0
 13 26  1  0
 32 37  1  0
M  END