
  SciTegic04091416292D

 22 24  0  0  0  0            999 V2000
    5.9666   -4.3088    0.0000 C   0  0
    5.9654   -5.1283    0.0000 C   0  0
    6.6735   -5.5373    0.0000 C   0  0
    7.3831   -5.1279    0.0000 C   0  0
    7.3803   -4.3052    0.0000 N   0  0
    6.6717   -3.8999    0.0000 N   0  0
    8.0915   -5.5353    0.0000 O   0  0
    5.2574   -5.5364    0.0000 N   0  0
    5.2567   -6.3536    0.0000 C   0  0
    4.5493   -6.7607    0.0000 C   0  0
    5.9664   -6.7607    0.0000 C   0  0
    8.0834   -3.8952    0.0000 C   0  0
    8.7930   -4.3029    0.0000 C   0  0
    9.4986   -3.8923    0.0000 C   0  0
    9.4960   -3.0742    0.0000 C   0  0
    8.7818   -2.6685    0.0000 C   0  0
    8.0790   -3.0814    0.0000 C   0  0
    5.2582   -3.8966    0.0000 C   0  0
    5.1726   -3.0839    0.0000 N   0  0
    4.3732   -2.9142    0.0000 C   0  0
    3.9648   -3.6221    0.0000 N   0  0
    4.5118   -4.2291    0.0000 N   0  0
  1  2  1  0
  2  3  2  0
  3  4  1  0
  4  5  1  0
  5  6  1  0
  6  1  2  0
  4  7  2  0
  2  8  1  0
  8  9  1  0
  9 10  1  0
  9 11  1  0
 12 13  2  0
 13 14  1  0
 14 15  2  0
 15 16  1  0
 16 17  2  0
 17 12  1  0
  5 12  1  0
 18 19  1  0
 19 20  2  0
 20 21  1  0
 21 22  1  0
 22 18  2  0
  1 18  1  0
M  END