
  SciTegic12091613532D

 38 42  0  0  0  0            999 V2000
   -2.6111    0.7486    0.0000 C   0  0
   -3.9091    1.5019    0.0000 C   0  0
   -4.9494    0.9039    0.0000 O   0  0
   -3.9067    3.0027    0.0000 N   0  0
   -5.2049    3.7560    0.0000 C   0  0
   -5.2025    5.2568    0.0000 C   0  0
   -6.5006    6.0101    0.0000 C   0  0
   -2.6111   -0.7486    0.0000 C   0  0
   -1.2964   -1.4973    0.0000 C   0  0
   -1.2964    1.4973    0.0000 C   0  0
    0.0000    0.7486    0.0000 C   0  0
    0.0000   -0.7486    0.0000 C   0  0
    1.2964   -1.4973    0.0000 C   0  0
    2.5929   -0.7486    0.0000 C   0  0
    2.5929    0.7486    0.0000 C   0  0
    1.2964    1.4973    0.0000 C   0  0
   -6.4983    7.5109    0.0000 C   0  0
   -7.7964    8.2641    0.0000 N   0  0
   -7.7941    9.7650    0.0000 C   0  0
   -9.0922   10.5182    0.0000 C   0  0
   -6.7537   10.3630    0.0000 O   0  0
  -11.4301   11.0087    0.0000 N   0  0
  -10.4175    9.8985    0.0000 C   0  0
  -10.6883   12.3048    0.0000 C   0  0
   -9.2260   11.9935    0.0000 C   0  0
   -8.2076   13.1002    0.0000 C   0  0
   -8.6833   14.5436    0.0000 C   0  0
  -10.1456   14.8548    0.0000 C   0  0
  -11.1678   13.7303    0.0000 C   0  0
  -12.9196   10.8465    0.0000 S   0  0
  -13.8070   12.0568    0.0000 C   0  0
  -13.4032    9.7482    0.0000 O   0  0
  -12.2104    9.8784    0.0000 O   0  0
  -15.2981   11.8934    0.0000 C   0  0
  -16.1851   13.1031    0.0000 C   0  0
  -15.5810   14.4761    0.0000 C   0  0
  -14.0899   14.6394    0.0000 C   0  0
  -13.2030   13.4298    0.0000 C   0  0
  1  2  1  0
  2  3  2  0
  2  4  1  0
  4  5  1  0
  5  6  1  0
  6  7  1  0
  1  8  2  0
  8  9  1  0
  9 12  2  0
 11 10  2  0
 10  1  1  0
 11 12  1  0
 12 13  1  0
 13 14  2  0
 14 15  1  0
 15 16  2  0
 16 11  1  0
  7 17  1  0
 17 18  1  0
 18 19  1  0
 19 20  1  0
 19 21  2  0
 20 25  1  0
 24 22  1  0
 22 23  1  0
 23 20  2  0
 24 25  2  0
 25 26  1  0
 26 27  2  0
 27 28  1  0
 28 29  2  0
 29 24  1  0
 22 30  1  0
 30 31  1  0
 30 32  2  0
 30 33  2  0
 31 34  2  0
 34 35  1  0
 35 36  2  0
 36 37  1  0
 37 38  2  0
 38 31  1  0
M  END