
  SciTegic05071316162D

 17 18  0  0  0  0            999 V2000
    4.4849   -6.6819    0.0000 C   0  0
    4.4837   -7.5015    0.0000 C   0  0
    5.1918   -7.9104    0.0000 C   0  0
    5.9014   -7.5010    0.0000 C   0  0
    5.8986   -6.6783    0.0000 C   0  0
    5.1900   -6.2731    0.0000 C   0  0
    3.7771   -6.2735    0.0000 C   0  0  1  0  0  0
    3.0695   -6.6823    0.0000 C   0  0
    2.3617   -6.2739    0.0000 C   0  0
    1.6540   -6.6826    0.0000 N   0  0
    0.9081   -6.3465    0.0000 N   0  0
    0.3614   -6.9539    0.0000 C   0  0
    0.7702   -7.6616    0.0000 N   0  0
    1.5694   -7.4914    0.0000 C   0  0
    3.7769   -5.4563    0.0000 C   0  0
    4.4845   -5.0476    0.0000 C   0  0
    6.6098   -7.9085    0.0000 Cl  0  0
  1  2  2  0
  2  3  1  0
  3  4  2  0
  4  5  1  0
  5  6  2  0
  6  1  1  0
  1  7  1  0
  7  8  1  0
  8  9  1  0
  9 10  1  0
 10 11  1  0
 11 12  2  0
 12 13  1  0
 13 14  2  0
 14 10  1  0
  7 15  1  1
 15 16  1  0
  4 17  1  0
M  END