
  Mrv0541 05211314572D          

 30 31  0  0  0  0            999 V2000
   -1.6014    0.9246    0.0000 N   0  0  0  0  0  0  0  0  0  0  0  0
   -2.3159   -0.3129    0.0000 C   0  0  0  0  0  0  0  0  0  0  0  0
   -2.3159    0.5121    0.0000 C   0  0  0  0  0  0  0  0  0  0  0  0
   -1.6014   -0.7254    0.0000 C   0  0  0  0  0  0  0  0  0  0  0  0
   -0.8869    0.5121    0.0000 C   0  0  0  0  0  0  0  0  0  0  0  0
   -0.8869   -0.3129    0.0000 N   0  0  0  0  0  0  0  0  0  0  0  0
   -3.0303   -0.7254    0.0000 C   0  0  0  0  0  0  0  0  0  0  0  0
   -1.6014   -1.5504    0.0000 C   0  0  0  0  0  0  0  0  0  0  0  0
    2.6854    0.9246    0.0000 C   0  0  0  0  0  0  0  0  0  0  0  0
   -3.0303   -1.5504    0.0000 C   0  0  0  0  0  0  0  0  0  0  0  0
   -2.3159   -1.9629    0.0000 C   0  0  0  0  0  0  0  0  0  0  0  0
    2.6854    1.7496    0.0000 C   0  0  0  0  0  0  0  0  0  0  0  0
    3.3999    0.5121    0.0000 C   0  0  0  0  0  0  0  0  0  0  0  0
   -0.1725    0.9246    0.0000 N   0  0  0  0  0  0  0  0  0  0  0  0
   -3.0303    0.9246    0.0000 N   0  0  0  0  0  0  0  0  0  0  0  0
    1.9710    0.5121    0.0000 O   0  0  0  0  0  0  0  0  0  0  0  0
   -3.7448   -1.9629    0.0000 O   0  0  0  0  0  0  0  0  0  0  0  0
   -2.3159   -2.7879    0.0000 O   0  0  0  0  0  0  0  0  0  0  0  0
    6.3537    0.0000    0.0000 Cl  0  0  0  0  0  0  0  0  0  0  0  0
    3.3999   -0.3129    0.0000 O   0  0  0  0  0  0  0  0  0  0  0  0
    1.9710    2.1621    0.0000 O   0  0  0  0  0  0  0  0  0  0  0  0
    4.1144    1.7496    0.0000 C   0  0  0  0  0  0  0  0  0  0  0  0
    4.1144    0.9246    0.0000 C   0  0  0  0  0  0  0  0  0  0  0  0
    3.3999    2.1621    0.0000 C   0  0  0  0  0  0  0  0  0  0  0  0
    0.5420    0.5121    0.0000 C   0  0  0  0  0  0  0  0  0  0  0  0
    1.2565    0.9246    0.0000 C   0  0  0  0  0  0  0  0  0  0  0  0
   -3.7448   -2.7879    0.0000 C   0  0  0  0  0  0  0  0  0  0  0  0
   -3.0303   -3.2004    0.0000 C   0  0  0  0  0  0  0  0  0  0  0  0
    4.1144   -0.7254    0.0000 C   0  0  0  0  0  0  0  0  0  0  0  0
    1.9710    2.9871    0.0000 C   0  0  0  0  0  0  0  0  0  0  0  0
  1  3  2  0  0  0  0
  2  3  1  0  0  0  0
  2  4  2  0  0  0  0
  1  5  1  0  0  0  0
  4  6  1  0  0  0  0
  5  6  2  0  0  0  0
  2  7  1  0  0  0  0
  4  8  1  0  0  0  0
  7 10  2  0  0  0  0
  8 11  2  0  0  0  0
 10 11  1  0  0  0  0
  9 12  2  0  0  0  0
  9 13  1  0  0  0  0
  5 14  1  0  0  0  0
  3 15  1  0  0  0  0
  9 16  1  0  0  0  0
 10 17  1  0  0  0  0
 11 18  1  0  0  0  0
 13 20  1  0  0  0  0
 12 21  1  0  0  0  0
 13 23  2  0  0  0  0
 22 23  1  0  0  0  0
 12 24  1  0  0  0  0
 22 24  2  0  0  0  0
 14 25  1  0  0  0  0
 16 26  1  0  0  0  0
 25 26  1  0  0  0  0
 17 27  1  0  0  0  0
 18 28  1  0  0  0  0
 20 29  1  0  0  0  0
 21 30  1  0  0  0  0
M  END