
  SciTegic01161211242D

 36 40  0  0  0  0            999 V2000
    0.4425  -17.7713    0.0000 C   0  0
    1.1284  -17.3133    0.0000 C   0  0
    1.8999  -17.6023    0.0000 N   0  0
    1.1588  -16.4922    0.0000 C   0  0
    1.9529  -16.2684    0.0000 N   0  0
    2.4056  -16.9540    0.0000 C   0  0
    3.1976  -16.7353    0.0000 S   0  0
    2.4650  -15.6260    0.0000 C   0  0
    3.2351  -15.9187    0.0000 C   0  0
    3.8715  -15.3986    0.0000 C   0  0
    3.7388  -14.5859    0.0000 C   0  0
    2.9647  -14.2957    0.0000 C   0  0
    2.3315  -14.8176    0.0000 C   0  0
   -0.9848  -17.7750    0.0000 C   0  0
   -0.9859  -18.6023    0.0000 C   0  0
   -0.2711  -19.0152    0.0000 C   0  0
    0.4453  -18.6019    0.0000 C   0  0
   -0.2729  -17.3622    0.0000 C   0  0
   -1.7007  -19.0143    0.0000 N   0  0
   -2.4149  -18.6012    0.0000 C   0  0
   -3.1297  -19.0131    0.0000 N   0  0
   -2.4142  -17.7762    0.0000 O   0  0
   -3.8438  -18.6001    0.0000 C   0  0
   -3.9251  -17.7768    0.0000 C   0  0
   -4.7320  -17.6046    0.0000 C   0  0
   -5.1451  -18.3188    0.0000 O   0  0
   -4.5935  -18.9322    0.0000 N   0  0
   -5.0669  -16.8507    0.0000 C   0  0
   -4.5815  -16.1836    0.0000 C   0  0
   -5.8958  -16.8500    0.0000 C   0  0
   -5.4875  -16.1333    0.0000 C   0  0
    4.3846  -14.0726    0.0000 C   0  0
    5.1521  -14.3753    0.0000 C   0  0
    5.7980  -13.8620    0.0000 C   0  0
    6.5654  -14.1646    0.0000 O   0  0
    5.6764  -13.0460    0.0000 O   0  0
 17  1  1  0
  3  6  2  0
  1 18  2  0
 18 14  1  0
  5  4  1  0
 15 19  1  0
  8  9  2  0
 19 20  1  0
  4  2  2  0
 20 21  1  0
  9 10  1  0
 20 22  2  0
  5  6  1  0
 21 23  1  0
 23 24  1  0
 10 11  2  0
  2  3  1  0
 11 12  1  0
 24 25  2  0
 25 26  1  0
 26 27  1  0
 27 23  2  0
 12 13  2  0
 25 28  1  0
 13  8  1  0
 28 29  1  0
  1  2  1  0
 28 30  1  0
  6  7  1  0
 28 31  1  0
 14 15  2  0
 11 32  1  0
  7  9  1  0
 32 33  1  0
 15 16  1  0
 33 34  1  0
  8  5  1  0
 34 35  2  0
 16 17  2  0
 34 36  1  0
M  END