
  CDK    9/16/09,9:58

 21 24  0  0  0  0  0  0  0  0999 V2000
    3.2434   -2.3237    0.0000 C   0  0  0  0  0  0  0  0  0  0  0  0
    3.2421   -3.1513    0.0000 C   0  0  0  0  0  0  0  0  0  0  0  0
    3.9551   -3.5642    0.0000 C   0  0  0  0  0  0  0  0  0  0  0  0
    3.9532   -1.9109    0.0000 C   0  0  0  0  0  0  0  0  0  0  0  0
    4.6712   -2.3197    0.0000 C   0  0  0  0  0  0  0  0  0  0  0  0
    4.6718   -3.1466    0.0000 C   0  0  0  0  0  0  0  0  0  0  0  0
    5.4585   -3.4017    0.0000 N   0  0  0  0  0  0  0  0  0  0  0  0
    5.9443   -2.7324    0.0000 C   0  0  0  0  0  0  0  0  0  0  0  0
    5.4576   -2.0637    0.0000 N   0  0  0  0  0  0  0  0  0  0  0  0
    6.7693   -2.7317    0.0000 N   0  0  0  0  0  0  0  0  0  0  0  0
    7.1822   -3.4460    0.0000 C   0  0  0  0  0  0  0  0  0  0  0  0
    6.7698   -4.1571    0.0000 C   0  0  0  0  0  0  0  0  0  0  0  0
    7.1793   -4.8691    0.0000 C   0  0  0  0  0  0  0  0  0  0  0  0
    8.0047   -4.8729    0.0000 C   0  0  0  0  0  0  0  0  0  0  0  0
    8.0077   -3.4399    0.0000 C   0  0  0  0  0  0  0  0  0  0  0  0
    8.4157   -4.1567    0.0000 C   0  0  0  0  0  0  0  0  0  0  0  0
    9.2385   -4.1607    0.0000 C   0  0  0  0  0  0  0  0  0  0  0  0
    9.6543   -3.4487    0.0000 C   0  0  0  0  0  0  0  0  0  0  0  0
    9.2413   -2.7312    0.0000 C   0  0  0  0  0  0  0  0  0  0  0  0
    8.4198   -2.7307    0.0000 C   0  0  0  0  0  0  0  0  0  0  0  0
   10.4793   -3.4512    0.0000 Cl  0  0  0  0  0  0  0  0  0  0  0  0
  8 10  1  0  0  0  0 
  5  6  1  0  0  0  0 
 10 11  1  0  0  0  0 
 11 12  1  0  0  0  0 
  2  3  1  0  0  0  0 
  3  6  2  0  0  0  0 
 11 15  1  0  0  0  0 
 12 13  1  0  0  0  0 
 13 14  1  0  0  0  0 
 14 16  1  0  0  0  0 
  1  2  2  0  0  0  0 
  5  4  2  0  0  0  0 
 15 16  2  0  0  0  0 
  6  7  1  0  0  0  0 
 16 17  1  0  0  0  0 
  7  8  1  0  0  0  0 
 17 18  2  0  0  0  0 
  8  9  2  0  0  0  0 
 18 19  1  0  0  0  0 
  9  5  1  0  0  0  0 
 19 20  2  0  0  0  0 
 20 15  1  0  0  0  0 
  4  1  1  0  0  0  0 
 18 21  1  0  0  0  0 
M  END