
  CDK    9/16/09,10:6

 46 48  0  0  0  0  0  0  0  0999 V2000
   -1.5265   -2.3595    0.0000 C   0  0  0  0  0  0  0  0  0  0  0  0
   -1.5265   -3.1879    0.0000 C   0  0  0  0  0  0  0  0  0  0  0  0
   -0.8103   -3.6021    0.0000 C   0  0  0  0  0  0  0  0  0  0  0  0
   -0.0942   -3.1879    0.0000 C   0  0  0  0  0  0  0  0  0  0  0  0
   -0.0942   -2.3595    0.0000 C   0  0  0  0  0  0  0  0  0  0  0  0
   -0.8103   -1.9453    0.0000 C   0  0  0  0  0  0  0  0  0  0  0  0
   -0.8114   -1.1216    0.0000 O   0  0  0  0  0  0  0  0  0  0  0  0
   -0.8114   -4.4258    0.0000 O   0  0  0  0  0  0  0  0  0  0  0  0
   -2.2390   -1.9517    0.0000 C   0  0  0  0  0  0  0  0  0  0  0  0
   -2.2410   -1.1280    0.0000 C   0  0  0  0  0  0  0  0  0  0  0  0
   -2.9582   -0.7155    0.0000 C   0  0  0  0  0  0  0  0  0  0  0  0
   -1.5305   -0.7120    0.0000 C   0  0  0  0  0  0  0  0  0  0  0  0
   -1.5325    0.1117    0.0000 C   0  0  0  0  0  0  0  0  0  0  0  0
   -0.8174    0.5229    0.0000 C   0  0  0  0  0  0  0  0  0  0  0  0
   -2.2450    0.5195    0.0000 O   0  0  0  0  0  0  0  0  0  0  0  0
   -2.2470    1.3432    0.0000 C   0  0  0  0  0  0  0  0  0  0  0  0
   -0.8194    1.3467    0.0000 C   0  0  0  0  0  0  0  0  0  0  0  0
   -0.1049    0.1152    0.0000 O   0  0  0  0  0  0  0  0  0  0  0  0
   -0.1089    1.7626    0.0000 C   0  0  0  0  0  0  0  0  0  0  0  0
   -1.5365    1.7591    0.0000 C   0  0  0  0  0  0  0  0  0  0  0  0
    0.6083    1.3501    0.0000 C   0  0  0  0  0  0  0  0  0  0  0  0
    1.3187    1.7661    0.0000 C   0  0  0  0  0  0  0  0  0  0  0  0
    0.6103    0.5264    0.0000 C   0  0  0  0  0  0  0  0  0  0  0  0
    2.1408    1.7684    0.0000 C   0  0  0  0  0  0  0  0  0  0  0  0
    2.8528    1.3543    0.0000 C   0  0  0  0  0  0  0  0  0  0  0  0
    2.3528    2.5637    0.0000 O   0  0  0  0  0  0  0  0  0  0  0  0
    1.1045    2.5608    0.0000 O   0  0  0  0  0  0  0  0  0  0  0  0
    0.3088    2.7707    0.0000 C   0  0  0  0  0  0  0  0  0  0  0  0
    0.0898    3.5700    0.0000 O   0  0  0  0  0  0  0  0  0  0  0  0
   -0.2728    2.1861    0.0000 N   0  0  0  0  0  0  0  0  0  0  0  0
    3.1526    2.7760    0.0000 C   0  0  0  0  0  0  0  0  0  0  0  0
    2.8507    0.5305    0.0000 C   0  0  0  0  0  0  0  0  0  0  0  0
    2.1335    0.1227    0.0000 C   0  0  0  0  0  0  0  0  0  0  0  0
    2.1315   -0.7010    0.0000 C   0  0  0  0  0  0  0  0  0  0  0  0
    2.8466   -1.1169    0.0000 C   0  0  0  0  0  0  0  0  0  0  0  0
    0.6225   -1.9507    0.0000 N   0  0  0  0  0  0  0  0  0  0  0  0
    0.6232   -1.1270    0.0000 C   0  0  0  0  0  0  0  0  0  0  0  0
   -0.0925   -0.7120    0.0000 O   0  0  0  0  0  0  0  0  0  0  0  0
   -2.2380   -3.6021    0.0000 N   0  0  0  0  0  0  0  0  0  0  0  0
   -2.9649   -3.1858    0.0000 C   0  0  0  0  0  0  0  0  0  0  0  0
   -3.6888   -3.6073    0.0000 C   0  0  0  0  0  0  0  0  0  0  0  0
   -4.4158   -3.1910    0.0000 C   0  0  0  0  0  0  0  0  0  0  0  0
   -4.5094   -2.3593    0.0000 N   0  0  0  0  0  0  0  0  0  0  0  0
   -5.3294   -2.1880    0.0000 C   0  0  0  0  0  0  0  0  0  0  0  0
   -5.7456   -2.9150    0.0000 N   0  0  0  0  0  0  0  0  0  0  0  0
   -5.1828   -3.5355    0.0000 C   0  0  0  0  0  0  0  0  0  0  0  0
 21 23  1  0  0  0  0 
  4  5  2  0  0  0  0 
 22 24  1  0  0  0  0 
 10 12  1  0  0  0  0 
 24 25  1  0  0  0  0 
  5  6  1  0  0  0  0 
 24 26  1  1  0  0  0 
 12 13  1  0  0  0  0 
 22 27  1  6  0  0  0 
 27 28  1  0  0  0  0 
 13 14  1  0  0  0  0 
 28 29  2  0  0  0  0 
  6  7  2  0  0  0  0 
 28 30  1  0  0  0  0 
 13 15  1  6  0  0  0 
 26 31  1  0  0  0  0 
  1  2  2  0  0  0  0 
 25 32  2  0  0  0  0 
 15 16  1  0  0  0  0 
 32 33  1  0  0  0  0 
  3  8  2  0  0  0  0 
 33 34  2  0  0  0  0 
 14 17  1  0  0  0  0 
 34 35  1  0  0  0  0 
  1  6  1  0  0  0  0 
  5 36  1  0  0  0  0 
 14 18  1  1  0  0  0 
 36 37  1  0  0  0  0 
  1  9  1  0  0  0  0 
 37 38  2  0  0  0  0 
 37 34  1  0  0  0  0 
 17 19  1  0  0  0  0 
  2 39  1  0  0  0  0 
  2  3  1  0  0  0  0 
 39 40  1  0  0  0  0 
 17 20  1  1  0  0  0 
 40 41  1  0  0  0  0 
  9 10  1  0  0  0  0 
 41 42  1  0  0  0  0 
 42 43  1  0  0  0  0 
 19 21  2  0  0  0  0 
  3  4  1  0  0  0  0 
 21 22  1  0  0  0  0 
 10 11  1  1  0  0  0 
 43 44  2  0  0  0  0 
 44 45  1  0  0  0  0 
 45 46  1  0  0  0  0 
 46 42  2  0  0  0  0 
M  END