
          11280715122D 1   1.00000     0.00000     0

 34 37  0     0  0            999 V2000
    6.6667   -6.5292    0.0000 C   0  0  0  0  0  0           0  0  0
    3.6542   -2.2000    0.0000 C   0  0  0  0  0  0           0  0  0
    6.1417   -7.7542    0.0000 N   0  0  0  0  0  0           0  0  0
    3.6542   -1.3667    0.0000 C   0  0  0  0  0  0           0  0  0
    6.8500   -7.3375    0.0000 N   0  0  0  0  0  0           0  0  0
    5.5250   -7.2250    0.0000 N   0  0  0  0  0  0           0  0  0
    5.8542   -6.4542    0.0000 N   0  0  0  0  0  0           0  0  0
    7.2167   -5.9125    0.0000 C   0  0  0  0  0  0           0  0  0
    4.3667   -2.6125    0.0000 N   0  0  3  0  0  0           0  0  0
    4.3750   -0.1167    0.0000 C   0  0  0  0  0  0           0  0  0
    4.3792   -0.9500    0.0000 C   0  0  3  0  0  0           0  0  0
    7.2167   -5.0875    0.0000 C   0  0  0  0  0  0           0  0  0
    5.0917    0.3083    0.0000 C   0  0  0  0  0  0           0  0  0
    2.9417   -2.6125    0.0000 N   0  0  0  0  0  0           0  0  0
    6.5042   -4.6750    0.0000 C   0  0  0  0  0  0           0  0  0
    4.3667   -3.4375    0.0000 C   0  0  0  0  0  0           0  0  0
    5.0875    1.1458    0.0000 O   0  0  0  0  0  0           0  0  0
    6.5042   -3.8417    0.0000 C   0  0  0  0  0  0           0  0  0
    5.7917   -5.0875    0.0000 C   0  0  0  0  0  0           0  0  0
    5.0792   -3.8500    0.0000 C   0  0  0  0  0  0           0  0  0
    5.1000   -1.3667    0.0000 O   0  0  0  0  0  0           0  0  0
    5.8167   -0.1042    0.0000 O   0  0  0  0  0  0           0  0  0
    2.9417   -0.9542    0.0000 C   0  0  0  0  0  0           0  0  0
    5.7875   -3.4292    0.0000 C   0  0  0  0  0  0           0  0  0
    5.0792   -4.6750    0.0000 C   0  0  0  0  0  0           0  0  0
    5.0792   -2.2000    0.0000 C   0  0  0  0  0  0           0  0  0
    7.9292   -6.3250    0.0000 C   0  0  0  0  0  0           0  0  0
    7.9292   -4.6750    0.0000 C   0  0  0  0  0  0           0  0  0
    2.2292   -2.2000    0.0000 C   0  0  0  0  0  0           0  0  0
    5.7875   -2.6125    0.0000 C   0  0  0  0  0  0           0  0  0
    2.2292   -1.3750    0.0000 C   0  0  0  0  0  0           0  0  0
    8.6417   -5.9125    0.0000 C   0  0  0  0  0  0           0  0  0
    8.6417   -5.0792    0.0000 C   0  0  0  0  0  0           0  0  0
    6.4917   -2.2042    0.0000 C   0  0  0  0  0  0           0  0  0
  2  9  1  0     0  0
  3  5  2  0     0  0
  4  2  1  0     0  0
  5  1  1  0     0  0
  6  7  1  0     0  0
  7  1  2  0     0  0
  8  1  1  0     0  0
  9 16  1  0     0  0
 10 11  1  0     0  0
 11  4  1  0     0  0
 12  8  2  0     0  0
 13 10  1  0     0  0
 14  2  2  0     0  0
 15 12  1  0     0  0
 16 20  1  0     0  0
 17 13  2  0     0  0
 18 15  2  0     0  0
 19 15  1  0     0  0
 20 25  1  0     0  0
 21 11  1  0     0  0
 22 13  1  0     0  0
 23  4  2  0     0  0
 24 18  1  0     0  0
 25 19  2  0     0  0
 26  9  1  0     0  0
 27  8  1  0     0  0
 28 12  1  0     0  0
 29 14  1  0     0  0
 30 26  1  0     0  0
 31 29  2  0     0  0
 32 27  2  0     0  0
 33 32  1  0     0  0
 34 30  1  0     0  0
  6  3  1  0     0  0
 33 28  2  0     0  0
 24 20  2  0     0  0
 23 31  1  0     0  0
M  END