
  SciTegic01161211262D

 27 29  0  0  0  0            999 V2000
   15.8382    0.9699    0.0000 C   0  0
   16.5133    0.4956    0.0000 N   0  0
   17.1742    0.9897    0.0000 N   0  0
   16.9064    1.7728    0.0000 C   0  0
   16.0823    1.7567    0.0000 C   0  0
   17.3294    2.4811    0.0000 C   0  0
   18.1543    2.4689    0.0000 C   0  0
   16.9275    3.2016    0.0000 C   0  0
   17.9041    1.8892    0.0000 C   0  0
   15.0575    0.7040    0.0000 N   0  0
   14.3564    1.1389    0.0000 C   0  0
   13.6293    0.7492    0.0000 N   0  0
   14.3825    1.9635    0.0000 O   0  0
   12.9282    1.1841    0.0000 C   0  0
   16.5255   -0.3293    0.0000 C   0  0
   12.9519    2.0065    0.0000 C   0  0
   12.2517    2.4413    0.0000 C   0  0
   11.5235    2.0516    0.0000 C   0  0
   11.4999    1.2226    0.0000 C   0  0
   12.2008    0.7915    0.0000 C   0  0
   10.8219    2.4855    0.0000 Cl  0  0
   15.8147   -0.7500    0.0000 C   0  0
   15.8265   -1.5741    0.0000 C   0  0
   16.5476   -1.9768    0.0000 C   0  0
   17.2582   -1.5493    0.0000 C   0  0
   17.2428   -0.7266    0.0000 C   0  0
   17.9801   -1.9487    0.0000 N   0  0
 12 14  1  0
  6  7  1  0
  2 15  1  0
  2  3  1  0
 14 16  2  0
  6  8  1  0
 16 17  1  0
  3  4  2  0
 17 18  2  0
  6  9  1  0
 18 19  1  0
  4  5  1  0
 19 20  2  0
 20 14  1  0
  1 10  1  0
 18 21  1  0
  5  1  2  0
 15 22  2  0
 10 11  1  0
 22 23  1  0
  1  2  1  0
 23 24  2  0
 11 12  1  0
 24 25  1  0
  4  6  1  0
 25 26  2  0
 26 15  1  0
 11 13  2  0
 25 27  1  0
M  END