
  SciTegic02011310442D

 39 43  0  0  0  0            999 V2000
    3.0539  -13.9692    0.0000 N   0  0
    3.7635  -13.5598    0.0000 C   0  0
    3.7607  -12.7371    0.0000 N   0  0
    3.0521  -12.3319    0.0000 C   0  0
    2.3458  -13.5603    0.0000 N   0  0
    2.3471  -12.7392    0.0000 C   0  0
    1.5665  -12.4843    0.0000 C   0  0
    1.0829  -13.1478    0.0000 C   0  0
    1.5646  -13.8127    0.0000 C   0  0
    4.4719  -13.9673    0.0000 S   0  0
    5.1790  -13.5576    0.0000 C   0  0
    3.0503  -11.5147    0.0000 N   0  0
    3.7571  -11.1045    0.0000 C   0  0
    5.8840  -13.9655    0.0000 C   0  0
    6.5906  -13.5565    0.0000 C   0  0
    6.5897  -12.7384    0.0000 C   0  0
    5.8764  -12.3311    0.0000 C   0  0
    5.1727  -12.7424    0.0000 C   0  0
    4.5022  -11.4365    0.0000 C   0  0
    5.0476  -10.8280    0.0000 C   0  0
    4.6375  -10.1212    0.0000 N   0  0
    3.8386  -10.2929    0.0000 N   0  0
    5.8605  -10.9117    0.0000 C   0  0
    7.2962  -12.3277    0.0000 N   0  0
    8.0051  -12.7343    0.0000 C   0  0
    8.7116  -12.3236    0.0000 C   0  0
    9.4205  -12.7302    0.0000 N   0  0
    8.0075  -13.5515    0.0000 O   0  0
    9.5055  -13.5405    0.0000 C   0  0
   10.3053  -13.7081    0.0000 C   0  0  1  0  0  0
   10.7119  -12.9991    0.0000 C   0  0
   10.1633  -12.3935    0.0000 C   0  0
   10.6399  -14.4536    0.0000 C   0  0
   10.1615  -15.1161    0.0000 O   0  0
   11.4528  -14.5367    0.0000 N   0  0
   11.7874  -15.2823    0.0000 C   0  0
   11.3090  -15.9448    0.0000 C   0  0
   12.6004  -15.3653    0.0000 C   0  0
   12.1918  -15.9848    0.0000 C   0  0
  5  1  1  0
  1  2  2  0
  2  3  1  0
  3  4  2  0
  4  6  1  0
  5  6  1  0
  6  7  2  0
  7  8  1  0
  8  9  2  0
  9  5  1  0
  2 10  1  0
 10 11  1  0
  4 12  1  0
 12 13  1  0
 11 14  2  0
 14 15  1  0
 15 16  2  0
 16 17  1  0
 17 18  2  0
 18 11  1  0
 13 19  1  0
 19 20  2  0
 20 21  1  0
 21 22  1  0
 22 13  2  0
 20 23  1  0
 16 24  1  0
 24 25  1  0
 25 26  1  0
 26 27  1  0
 25 28  2  0
 27 29  1  0
 29 30  1  0
 30 31  1  0
 31 32  1  0
 32 27  1  0
 30 33  1  1
 33 34  2  0
 33 35  1  0
 35 36  1  0
 36 37  1  0
 36 38  1  0
 36 39  1  0
M  END