
  SciTegic05171617282D

 33 36  0  0  0  0            999 V2000
   -9.1100    2.7016    0.0000 C   0  0
   -9.1106    1.5016    0.0000 N   0  0
   -7.8109    0.7510    0.0000 C   0  0
   -7.8115   -0.4490    0.0000 O   0  0
   -6.5106    1.5004    0.0000 C   0  0
   -5.2109    0.7498    0.0000 N   0  0
   -3.9106    1.4992    0.0000 S   0  0
   -3.9101    2.6992    0.0000 O   0  0
   -4.9495    2.0999    0.0000 O   0  0
   -2.6111    0.7486    0.0000 C   0  0
   -2.6111   -0.7486    0.0000 C   0  0
   -1.2964   -1.4973    0.0000 C   0  0
    0.0000   -0.7486    0.0000 C   0  0
    1.2964   -1.4973    0.0000 N   0  0
    2.5929   -0.7486    0.0000 C   0  0
    3.6321   -1.3486    0.0000 O   0  0
    2.5929    0.7486    0.0000 C   0  0
    1.2964    1.4973    0.0000 C   0  0
    0.0000    0.7486    0.0000 C   0  0
   -1.2964    1.4973    0.0000 C   0  0
   -6.5099    3.0012    0.0000 C   0  0
   -7.8076    3.7536    0.0000 C   0  0
   -7.8049    5.2536    0.0000 C   0  0
   -6.5045    6.0013    0.0000 C   0  0
   -5.2068    5.2489    0.0000 C   0  0
   -5.2095    3.7489    0.0000 C   0  0
  -10.4109    0.7522    0.0000 C   0  0
  -11.7110    1.5004    0.0000 C   0  0
  -13.0090    0.7488    0.0000 C   0  0
  -13.0071   -0.7512    0.0000 C   0  0
  -11.7072   -1.4996    0.0000 C   0  0
  -11.7056   -2.6996    0.0000 C   0  0
  -10.4091   -0.7479    0.0000 C   0  0
  1  2  1  0
  2  3  1  0
  3  4  2  0
  3  5  1  0
  5  6  1  0
  6  7  1  0
  7  8  2  0
  7  9  2  0
  7 10  1  0
 10 11  2  0
 11 12  1  0
 12 13  2  0
 13 14  1  0
 14 15  1  0
 15 16  2  0
 15 17  1  0
 17 18  1  0
 18 19  1  0
 13 19  1  0
 19 20  2  0
 10 20  1  0
  5 21  1  0
 21 22  2  0
 22 23  1  0
 23 24  2  0
 24 25  1  0
 25 26  2  0
 21 26  1  0
  2 27  1  0
 27 28  2  0
 28 29  1  0
 29 30  2  0
 30 31  1  0
 31 32  1  0
 31 33  2  0
 27 33  1  0
M  END