
          11280715182D 1   1.00000     0.00000     0

 26 28  0     0  0            999 V2000
    2.8167   -3.2792    0.0000 C   0  0  0  0  0  0           0  0  0
    2.8250   -4.1000    0.0000 C   0  0  0  0  0  0           0  0  0
    2.0417   -3.0292    0.0000 C   0  0  3  0  0  0           0  0  0
    2.0417   -4.3542    0.0000 C   0  0  3  0  0  0           0  0  0
    4.2417   -3.2750    0.0000 C   0  0  0  0  0  0           0  0  0
    1.5625   -3.6917    0.0000 C   0  0  3  0  0  0           0  0  0
    4.9542   -2.8542    0.0000 C   0  0  0  0  0  0           0  0  0
    3.5292   -2.8667    0.0000 C   0  0  0  0  0  0           0  0  0
    3.5375   -4.5042    0.0000 C   0  0  0  0  0  0           0  0  0
    4.2417   -4.0917    0.0000 C   0  0  0  0  0  0           0  0  0
    7.8042   -4.4917    0.0000 C   0  0  0  0  0  0           0  0  0
    5.6667   -3.2667    0.0000 C   0  0  0  0  0  0           0  0  0
    7.0917   -4.0875    0.0000 C   0  0  0  0  0  0           0  0  0
    4.9500   -2.0292    0.0000 C   0  0  0  0  0  0           0  0  0
    7.8042   -5.3167    0.0000 O   0  0  0  0  0  0           0  0  0
    5.6667   -4.0917    0.0000 C   0  0  0  0  0  0           0  0  0
    6.3750   -2.8542    0.0000 C   0  0  0  0  0  0           0  0  0
    7.0792   -3.2625    0.0000 C   0  0  0  0  0  0           0  0  0
    6.3792   -4.5000    0.0000 C   0  0  0  0  0  0           0  0  0
    8.5167   -4.0792    0.0000 O   0  0  0  0  0  0           0  0  0
    2.2542   -2.2292    0.0000 C   0  0  0  0  0  0           0  0  0
    1.4542   -2.4417    0.0000 C   0  0  0  0  0  0           0  0  0
    2.4542   -5.0667    0.0000 C   0  0  0  0  0  0           0  0  0
    1.6292   -5.0667    0.0000 C   0  0  0  0  0  0           0  0  0
    0.7375   -3.6917    0.0000 C   0  0  0  0  0  0           0  0  0
    4.9542   -4.5042    0.0000 C   0  0  0  0  0  0           0  0  0
  2  1  2  0     0  0
  3  1  1  0     0  0
  4  2  1  0     0  0
  5  8  2  0     0  0
  6  3  1  0     0  0
  7  5  1  0     0  0
  8  1  1  0     0  0
  9  2  1  0     0  0
 10  5  1  0     0  0
 11 13  1  0     0  0
 12  7  1  0     0  0
 13 18  1  0     0  0
 14  7  2  0     0  0
 15 11  2  0     0  0
 16 12  2  0     0  0
 17 12  1  0     0  0
 18 17  2  0     0  0
 19 16  1  0     0  0
 20 11  1  0     0  0
 21  3  1  0     0  0
 22  3  1  0     0  0
 23  4  1  0     0  0
 24  4  1  0     0  0
 25  6  1  0     0  0
 26 10  1  0     0  0
  6  4  1  0     0  0
  9 10  2  0     0  0
 19 13  2  0     0  0
M  END