
          11280715112D 1   1.00000     0.00000     0

 24 25  0     0  0            999 V2000
    1.1417   -0.3542    0.0000 C   0  0  0  0  0  0           0  0  0
    0.4250   -0.7667    0.0000 C   0  0  0  0  0  0           0  0  0
    1.1417    0.4708    0.0000 C   0  0  0  0  0  0           0  0  0
   -0.2875    0.4708    0.0000 C   0  0  0  0  0  0           0  0  0
   -0.2875   -0.3542    0.0000 C   0  0  0  0  0  0           0  0  0
    0.4250    0.8833    0.0000 C   0  0  0  0  0  0           0  0  0
    1.8542    0.8875    0.0000 C   0  0  0  0  0  0           0  0  0
    0.5917   -1.5750    0.0000 C   0  0  3  0  0  0           0  0  0
    1.7542   -0.9125    0.0000 C   0  0  0  0  0  0           0  0  0
   -1.0000    0.8833    0.0000 C   0  0  3  0  0  0           0  0  0
    4.0042   -1.9917    0.0000 C   0  0  0  0  0  0           0  0  0
    1.4167   -1.6667    0.0000 C   0  0  0  0  0  0           0  0  0
    2.5667    0.4833    0.0000 C   0  0  0  0  0  0           0  0  0
    3.2917   -1.5792    0.0000 C   0  0  0  0  0  0           0  0  0
    2.5667   -0.3417    0.0000 C   0  0  0  0  0  0           0  0  0
    3.2875   -0.7542    0.0000 C   0  0  0  0  0  0           0  0  0
    4.0125   -2.8167    0.0000 O   0  0  0  0  0  0           0  0  0
    1.8500    1.7125    0.0000 C   0  0  0  0  0  0           0  0  0
    4.7167   -1.5750    0.0000 O   0  0  0  0  0  0           0  0  0
    0.5917   -2.4000    0.0000 C   0  0  0  0  0  0           0  0  0
   -0.2333   -1.5667    0.0000 C   0  0  0  0  0  0           0  0  0
   -1.7208    0.4708    0.0000 C   0  0  0  0  0  0           0  0  0
   -0.4208    1.4625    0.0000 C   0  0  0  0  0  0           0  0  0
   -1.0000    1.7083    0.0000 C   0  0  0  0  0  0           0  0  0
  2  1  2  0     0  0
  3  1  1  0     0  0
  4  6  1  0     0  0
  5  2  1  0     0  0
  6  3  2  0     0  0
  7  3  1  0     0  0
  8  2  1  0     0  0
  9  1  1  0     0  0
 10  4  1  0     0  0
 11 14  1  0     0  0
 12  9  1  0     0  0
 13  7  1  0     0  0
 14 16  2  0     0  0
 15 13  2  0     0  0
 16 15  1  0     0  0
 17 11  2  0     0  0
 18  7  2  0     0  0
 19 11  1  0     0  0
 20  8  1  0     0  0
 21  8  1  0     0  0
 22 10  1  0     0  0
 23 10  1  0     0  0
 24 10  1  0     0  0
 12  8  1  0     0  0
  4  5  2  0     0  0
M  END