
  SciTegic02271514582D

 11 12  0  0  0  0            999 V2000
    6.4380   -2.4846    0.0000 C   0  0
    7.1433   -2.0801    0.0000 N   0  0
    7.1433   -1.2629    0.0000 C   0  0
    6.4380   -0.8502    0.0000 N   0  0
    5.7327   -2.0801    0.0000 C   0  0
    5.7328   -1.2584    0.0000 N   0  0
    4.9513   -1.0044    0.0000 C   0  0
    4.4682   -1.6692    0.0000 C   0  0
    4.9512   -2.3339    0.0000 C   0  0
    6.4380   -3.3018    0.0000 N   0  0
    5.7303   -3.7104    0.0000 C   0  0
  6  4  1  0
  5  1  1  0
  1  2  2  0
  2  3  1  0
  3  4  2  0
  5  6  1  0
  6  7  1  0
  7  8  2  0
  8  9  1  0
  9  5  2  0
  1 10  1  0
 10 11  1  0
M  END