
  SciTegic09171211542D

 18 19  0  0  0  0            999 V2000
   18.8347  -14.7739    0.0000 C   0  0
   18.8335  -15.6011    0.0000 C   0  0
   19.5482  -16.0140    0.0000 C   0  0
   19.5464  -14.3611    0.0000 C   0  0
   20.2618  -14.7702    0.0000 C   0  0
   20.2666  -15.5966    0.0000 C   0  0
   21.0540  -15.8474    0.0000 N   0  0
   21.5360  -15.1760    0.0000 C   0  0
   21.0462  -14.5103    0.0000 S   0  0
   22.3608  -15.1711    0.0000 C   0  0
   18.1201  -14.3615    0.0000 N   0  0
   18.1199  -13.5366    0.0000 C   0  0
   17.4054  -13.1243    0.0000 C   0  0
   18.8343  -13.1240    0.0000 O   0  0
   16.6912  -13.5370    0.0000 C   0  0
   15.9766  -13.1246    0.0000 C   0  0
   15.2623  -13.5373    0.0000 O   0  0
   15.9764  -12.2997    0.0000 O   0  0
  8  9  1  0
  9  5  1  0
  4  1  1  0
  8 10  1  0
  5  6  1  0
  1 11  1  0
 11 12  1  0
  2  3  1  0
 12 13  1  0
  3  6  2  0
 12 14  2  0
  1  2  2  0
 13 15  1  0
  5  4  2  0
 15 16  1  0
  6  7  1  0
 16 17  1  0
  7  8  2  0
 16 18  2  0
M  END