
          11280715042D 1   1.00000     0.00000     0

 40 44  0     0  0            999 V2000
    4.5500   -3.0042    0.0000 N   0  0  3  0  0  0           0  0  0
    5.0292   -2.6542    0.0000 C   0  0  0  0  0  0           0  0  0
    4.8417   -2.0792    0.0000 N   0  0  3  0  0  0           0  0  0
    7.1375   -3.9042    0.0000 C   0  0  0  0  0  0           0  0  0
    4.2417   -2.0792    0.0000 N   0  0  0  0  0  0           0  0  0
    7.6250   -3.5542    0.0000 N   0  0  0  0  0  0           0  0  0
    6.6500   -3.5542    0.0000 N   0  0  0  0  0  0           0  0  0
    4.0625   -2.6542    0.0000 C   0  0  0  0  0  0           0  0  0
    6.8375   -2.9875    0.0000 N   0  0  0  0  0  0           0  0  0
    7.4375   -2.9792    0.0000 N   0  0  3  0  0  0           0  0  0
    7.1417   -4.5042    0.0000 C   0  0  0  0  0  0           0  0  0
    5.2000   -1.5917    0.0000 C   0  0  0  0  0  0           0  0  0
    6.6250   -4.8042    0.0000 C   0  0  0  0  0  0           0  0  0
    4.5500   -3.6042    0.0000 C   0  0  0  0  0  0           0  0  0
    5.6000   -2.8375    0.0000 O   0  0  0  0  0  0           0  0  0
    6.1042   -4.5042    0.0000 C   0  0  0  0  0  0           0  0  0
    4.9500   -1.0542    0.0000 C   0  0  3  0  0  0           0  0  0
    4.3500   -0.9917    0.0000 C   0  0  0  0  0  0           0  0  0
    5.5917   -4.8042    0.0000 C   0  0  0  0  0  0           0  0  0
    6.1125   -3.9042    0.0000 C   0  0  0  0  0  0           0  0  0
    5.0667   -3.9042    0.0000 C   0  0  0  0  0  0           0  0  0
    3.4917   -2.8417    0.0000 C   0  0  0  0  0  0           0  0  0
    5.0750   -4.5042    0.0000 C   0  0  0  0  0  0           0  0  0
    5.5875   -3.6042    0.0000 C   0  0  0  0  0  0           0  0  0
    7.7875   -2.4792    0.0000 C   0  0  0  0  0  0           0  0  0
    5.3000   -0.5625    0.0000 O   0  0  0  0  0  0           0  0  0
    7.6625   -4.8042    0.0000 C   0  0  0  0  0  0           0  0  0
    6.6250   -5.4042    0.0000 C   0  0  0  0  0  0           0  0  0
    4.0042   -1.4792    0.0000 C   0  0  0  0  0  0           0  0  0
    4.1042   -0.4500    0.0000 C   0  0  0  0  0  0           0  0  0
    5.9000   -0.6167    0.0000 C   0  0  0  0  0  0           0  0  0
    3.0417   -2.4417    0.0000 C   0  0  0  0  0  0           0  0  0
    2.4750   -2.6292    0.0000 C   0  0  0  0  0  0           0  0  0
    7.6625   -5.4042    0.0000 C   0  0  0  0  0  0           0  0  0
    7.1417   -5.7042    0.0000 C   0  0  0  0  0  0           0  0  0
    6.2417   -0.1292    0.0000 C   0  0  0  0  0  0           0  0  0
    2.0250   -2.2292    0.0000 C   0  0  0  0  0  0           0  0  0
    3.5125   -0.3917    0.0000 C   0  0  0  0  0  0           0  0  0
    3.4125   -1.4292    0.0000 C   0  0  0  0  0  0           0  0  0
    3.1625   -0.8792    0.0000 C   0  0  0  0  0  0           0  0  0
  2  1  1  0     0  0
  3  2  1  0     0  0
  4 11  1  0     0  0
  5  8  2  0     0  0
  6  4  2  0     0  0
  7  4  1  0     0  0
  8  1  1  0     0  0
  9  7  2  0     0  0
 10  6  1  0     0  0
 11 13  1  0     0  0
 12  3  1  0     0  0
 13 16  1  0     0  0
 14  1  1  0     0  0
 15  2  2  0     0  0
 16 20  2  0     0  0
 17 12  1  0     0  0
 18 17  1  0     0  0
 19 23  2  0     0  0
 20 24  1  0     0  0
 21 14  1  0     0  0
 22  8  1  0     0  0
 23 21  1  0     0  0
 24 21  2  0     0  0
 25 10  1  0     0  0
 26 17  1  0     0  0
 27 11  2  0     0  0
 28 13  2  0     0  0
 29 18  1  0     0  0
 30 18  2  0     0  0
 31 26  1  0     0  0
 32 22  1  0     0  0
 33 32  1  0     0  0
 34 35  2  0     0  0
 35 28  1  0     0  0
 36 31  1  0     0  0
 37 33  1  0     0  0
 38 30  1  0     0  0
 39 29  2  0     0  0
 40 38  2  0     0  0
  3  5  1  0     0  0
 19 16  1  0     0  0
 40 39  1  0     0  0
 34 27  1  0     0  0
 10  9  1  0     0  0
M  END