
  CDK    9/16/09,10:8

 33 35  0  0  0  0  0  0  0  0999 V2000
   16.0417  -22.7542    0.0000 C   0  0  0  0  0  0  0  0  0  0  0  0
   16.0417  -23.5792    0.0000 C   0  0  0  0  0  0  0  0  0  0  0  0
   16.7537  -23.9875    0.0000 C   0  0  0  0  0  0  0  0  0  0  0  0
   16.7537  -22.3375    0.0000 C   0  0  0  0  0  0  0  0  0  0  0  0
   17.4657  -22.7542    0.0000 C   0  0  0  0  0  0  0  0  0  0  0  0
   17.4622  -23.5792    0.0000 C   0  0  0  0  0  0  0  0  0  0  0  0
   18.1710  -23.9924    0.0000 C   0  0  0  0  0  0  0  0  0  0  0  0
   18.8878  -23.5852    0.0000 C   0  0  0  0  0  0  0  0  0  0  0  0
   18.1663  -24.8174    0.0000 O   0  0  0  0  0  0  0  0  0  0  0  0
   18.1780  -22.3424    0.0000 C   0  0  0  0  0  0  0  0  0  0  0  0
   18.8937  -22.7611    0.0000 C   0  0  0  0  0  0  0  0  0  0  0  0
   19.6074  -19.8539    0.0000 C   0  0  0  0  0  0  0  0  0  0  0  0
   18.8927  -20.2729    0.0000 C   0  0  0  0  0  0  0  0  0  0  0  0
   18.9015  -21.1057    0.0000 C   0  0  0  0  0  0  0  0  0  0  0  0
   18.1788  -21.5155    0.0000 C   0  0  0  0  0  0  0  0  0  0  0  0
   18.1708  -23.1667    0.0000 H   0  0  0  0  0  0  0  0  0  0  0  0
   18.1749  -19.8663    0.0000 C   0  0  0  0  0  0  0  0  0  0  0  0
   18.1682  -19.0413    0.0000 C   0  0  0  0  0  0  0  0  0  0  0  0
   17.3598  -17.8176    0.0000 O   0  0  0  0  0  0  0  0  0  0  0  0
   16.5514  -17.6576    0.0000 C   0  0  0  0  0  0  0  0  0  0  0  0
   16.1447  -18.3731    0.0000 C   0  0  0  0  0  0  0  0  0  0  0  0
   16.7018  -18.9771    0.0000 C   0  0  0  0  0  0  0  0  0  0  0  0
   16.2098  -16.9002    0.0000 O   0  0  0  0  0  0  0  0  0  0  0  0
   17.4583  -21.9292    0.0000 C   0  0  0  0  0  0  0  0  0  0  0  0
   16.5392  -19.7859    0.0000 C   0  0  0  0  0  0  0  0  0  0  0  0
   17.4542  -24.4000    0.0000 H   0  0  0  0  0  0  0  0  0  0  0  0
   16.9625  -24.7833    0.0000 C   0  0  0  0  0  0  0  0  0  0  0  0
   16.0333  -24.3958    0.0000 C   0  0  0  0  0  0  0  0  0  0  0  0
   16.0268  -25.2208    0.0000 O   0  0  0  0  0  0  0  0  0  0  0  0
   19.6108  -22.3532    0.0000 C   0  0  0  0  0  0  0  0  0  0  0  0
   18.8793  -18.6230    0.0000 O   0  0  0  0  0  0  0  0  0  0  0  0
   17.4504  -18.6346    0.0000 C   0  0  0  0  0  0  0  0  0  0  0  0
   18.1649  -18.2221    0.0000 H   0  0  0  0  0  0  0  0  0  0  0  0
  5 10  1  0  0  0  0 
 10 16  1  6  0  0  0 
  6  7  1  0  0  0  0 
 13 17  2  0  0  0  0 
  7  8  1  0  0  0  0 
 17 18  1  0  0  0  0 
  8 11  1  0  0  0  0 
 32 18  1  0  0  0  0 
 32 19  1  0  0  0  0 
  3  6  1  0  0  0  0 
  7  9  1  6  0  0  0 
 10 11  1  0  0  0  0 
  5  4  1  0  0  0  0 
 19 20  1  0  0  0  0 
 20 21  1  0  0  0  0 
 21 22  2  0  0  0  0 
 22 32  1  0  0  0  0 
  5  6  1  0  0  0  0 
 20 23  2  0  0  0  0 
  5 24  1  1  0  0  0 
  1  2  1  0  0  0  0 
 22 25  1  0  0  0  0 
  1  4  1  0  0  0  0 
  6 26  1  6  0  0  0 
  2  3  1  0  0  0  0 
  3 27  1  1  0  0  0 
 10 15  1  0  0  0  0 
  3 28  1  0  0  0  0 
 12 13  1  0  0  0  0 
 28 29  2  0  0  0  0 
 13 14  1  0  0  0  0 
 11 30  2  0  0  0  0 
 14 15  1  0  0  0  0 
 18 31  1  1  0  0  0 
 32 33  1  1  0  0  0 
M  END