
  SciTegic06051313552D

 63 69  0  0  0  0            999 V2000
   26.5605  -28.0484    0.0000 C   0  0
   26.0627  -27.3935    0.0000 C   0  0
   25.2478  -27.4981    0.0000 C   0  0
   24.9274  -28.2588    0.0000 N   0  0
   25.4281  -28.9158    0.0000 C   0  0
   26.2492  -28.8121    0.0000 C   0  0
   24.1088  -28.3627    0.0000 C   0  0
   23.7895  -29.1235    0.0000 C   0  0
   22.9705  -29.2236    0.0000 C   0  0
   22.6511  -29.9836    0.0000 C   0  0
   23.1505  -30.6415    0.0000 C   0  0
   23.9730  -30.5344    0.0000 C   0  0
   24.2885  -29.7744    0.0000 C   0  0
   22.4746  -28.5689    0.0000 C   0  0
   22.7975  -27.8084    0.0000 C   0  0
   22.3007  -27.1506    0.0000 C   0  0
   21.4809  -27.2521    0.0000 C   0  0
   21.1605  -28.0171    0.0000 C   0  0
   21.6593  -28.6717    0.0000 C   0  0
   20.9824  -26.5946    0.0000 Cl  0  0
   30.4080  -30.4956    0.0000 O   0  0
   31.1248  -30.0872    0.0000 S   0  0
   30.4127  -29.6706    0.0000 O   0  0
   31.0530  -26.4028    0.0000 O   0  0
   31.0720  -27.2317    0.0000 S   0  0
   31.7803  -26.8008    0.0000 O   0  0
   30.2480  -27.2502    0.0000 N   0  0
   31.5000  -27.9394    0.0000 C   0  0
   31.0998  -28.6614    0.0000 C   0  0
   31.5262  -29.3669    0.0000 C   0  0
   32.3520  -29.3505    0.0000 C   0  0
   32.7496  -28.6226    0.0000 C   0  0
   32.3209  -27.9201    0.0000 C   0  0
   32.7800  -30.0559    0.0000 N   0  0
   33.6049  -30.0379    0.0000 C   0  0  2  0  0  0
   34.0329  -30.7433    0.0000 C   0  0
   34.8578  -30.7254    0.0000 C   0  0
   35.2859  -31.4307    0.0000 N   0  0
   34.0018  -29.3145    0.0000 C   0  0
   34.8267  -29.2966    0.0000 S   0  0
   35.2236  -28.5732    0.0000 C   0  0
   36.0493  -28.5577    0.0000 C   0  0
   36.4461  -27.8352    0.0000 C   0  0
   36.0180  -27.1287    0.0000 C   0  0
   35.1889  -27.1495    0.0000 C   0  0
   34.7958  -27.8725    0.0000 C   0  0
   36.1066  -31.4069    0.0000 C   0  0
   29.8516  -27.9739    0.0000 C   0  0
   31.5547  -30.7957    0.0000 C   0  0
   31.1565  -31.5184    0.0000 F   0  0
   32.3796  -30.7793    0.0000 F   0  0
   31.9623  -31.5082    0.0000 F   0  0
   29.0583  -29.4154    0.0000 N   0  0
   29.8842  -29.3988    0.0000 C   0  0
   30.2850  -28.6746    0.0000 N   0  0
   28.6315  -28.7120    0.0000 C   0  0
   29.0278  -27.9885    0.0000 C   0  0
   28.6018  -27.2874    0.0000 C   0  0
   27.7776  -27.3037    0.0000 C   0  0
   27.3813  -28.0271    0.0000 N   0  0
   27.8091  -28.7344    0.0000 C   0  0
   34.8916  -32.1556    0.0000 C   0  0
   23.6095  -27.7057    0.0000 C   0  0
  1  2  1  0
  1  6  1  0
  2  3  1  0
  3  4  1  0
  4  5  1  0
  5  6  1  0
  4  7  1  0
  7  8  1  0
  8  9  2  0
  9 10  1  0
 10 11  2  0
 11 12  1  0
 12 13  2  0
 13  8  1  0
 14 15  2  0
 15 16  1  0
 16 17  2  0
 17 18  1  0
 18 19  2  0
 19 14  1  0
  9 14  1  0
 17 20  1  0
 22 21  2  0
 23 22  2  0
 25 24  2  0
 26 25  2  0
 27 25  1  0
 25 28  1  0
 28 29  2  0
 29 30  1  0
 30 31  2  0
 31 32  1  0
 32 33  2  0
 33 28  1  0
 31 34  1  0
 34 35  1  0
 35 36  1  0
 36 37  1  0
 37 38  1  0
 35 39  1  1
 39 40  1  0
 40 41  1  0
 41 42  2  0
 42 43  1  0
 43 44  2  0
 44 45  1  0
 45 46  2  0
 46 41  1  0
 38 47  1  0
 27 48  1  0
 30 22  1  0
 22 49  1  0
 49 50  1  0
 49 51  1  0
 49 52  1  0
 48 57  2  0
 48 55  1  0
 56 53  2  0
 53 54  1  0
 54 55  2  0
 56 57  1  0
 56 61  1  0
 57 58  1  0
 58 59  1  0
 59 60  1  0
 60 61  1  0
 60  1  1  0
 38 62  1  0
  7 63  1  0
M  END