
  SciTegic11201311142D

126123  0  0  0  0            999 V2000
   11.1292    2.3375    0.0000 O   0  0
   10.3042    2.3375    0.0000 S   0  0
   10.7167    1.6230    0.0000 O   0  0
   13.1174   -8.9288    0.0000 O   0  0
   13.8312   -7.6903    0.0000 C   0  0
   13.8312   -8.5153    0.0000 C   0  0  1  0  0  0
   14.5433   -8.9236    0.0000 C   0  0
   14.5433   -7.2736    0.0000 C   0  0
   15.2553   -7.6903    0.0000 C   0  0  1  0  0  0
   15.2518   -8.5152    0.0000 C   0  0  1  0  0  0
   15.9605   -8.9285    0.0000 C   0  0
   16.6774   -8.5213    0.0000 C   0  0
   15.9676   -7.2785    0.0000 C   0  0  2  0  0  0
   16.6770   -7.6988    0.0000 C   0  0  2  0  0  0
   16.6939   -6.0526    0.0000 C   0  0
   15.9729   -6.4562    0.0000 C   0  0
   17.4033   -6.4729    0.0000 C   0  0  1  0  0  0
   17.3943   -7.2945    0.0000 C   0  0  1  0  0  0
   18.1729   -7.5569    0.0000 C   0  0
   18.6631   -6.8975    0.0000 C   0  0
   18.1874   -6.2276    0.0000 C   0  0  2  0  0  0
   15.2479   -6.8653    0.0000 C   0  0
   15.9604   -8.1028    0.0000 H   0  0
   16.6687   -6.8736    0.0000 H   0  0
   17.3896   -8.1194    0.0000 H   0  0
   17.3979   -5.6444    0.0000 C   0  0
   18.4508   -5.4458    0.0000 C   0  0  1  0  0  0
   19.2596   -5.2831    0.0000 C   0  0
   17.9055   -4.8268    0.0000 C   0  0
   19.8050   -5.9021    0.0000 C   0  0
   20.6137   -5.7394    0.0000 C   0  0
   21.1591   -6.3584    0.0000 C   0  0
   21.9679   -6.1957    0.0000 C   0  0
   20.8956   -7.1402    0.0000 C   0  0
   19.0104   -6.2236    0.0000 H   0  0
   15.2437   -9.3361    0.0000 H   0  0
   11.9750   -6.4287    0.0000 N   0  0
   11.7249   -7.2149    0.0000 C   0  0
   12.3953   -7.6957    0.0000 C   0  0
   13.0598   -7.2067    0.0000 N   0  0
   12.8000   -6.4237    0.0000 N   0  0
   11.2660   -6.8013    0.0000 O   0  0
   10.5686   -6.3599    0.0000 S   0  0
   10.5350   -7.1847    0.0000 O   0  0
   10.0391   -5.2640    0.0000 S   0  0
    9.1587   -3.9884    0.0000 O   0  0
    9.9468   -4.2422    0.0000 S   0  0
    9.7725   -3.4328    0.0000 O   0  0
    8.4434   -1.7079    0.0000 O   0  0
    8.6186   -2.5180    0.0000 S   0  0
    9.2326   -1.9613    0.0000 O   0  0
    7.1524    0.8330    0.0000 O   0  0
    7.3275    0.0229    0.0000 S   0  0
    7.9415    0.5796    0.0000 O   0  0
    8.3996    2.8293    0.0000 O   0  0
    8.1477    2.0375    0.0000 S   0  0
    8.9593    2.2153    0.0000 O   0  0
   12.0095    1.7366    0.0000 O   0  0
   12.3848    1.0019    0.0000 S   0  0
   12.8334    1.6943    0.0000 O   0  0
   12.7371    0.0489    0.0000 O   0  0
   12.2920   -0.6505    0.0000 S   0  0
   13.1203   -0.6862    0.0000 O   0  0
   13.7392   -6.0051    0.0000 O   0  0
   14.1844   -5.3150    0.0000 S   0  0
   13.3642   -5.2745    0.0000 O   0  0
    9.5717    1.9600    0.0000 O   0  0
    9.5306    1.1361    0.0000 C   0  0  1  0  0  0
    8.7965    0.7625    0.0000 C   0  0  1  0  0  0
    8.7536   -0.0578    0.0000 C   0  0  2  0  0  0
    9.4445   -0.5091    0.0000 C   0  0  2  0  0  0
   10.1805   -0.1341    0.0000 O   0  0
   10.2254    0.6923    0.0000 C   0  0  2  0  0  0
   10.9594    1.0689    0.0000 C   0  0
    8.1047    1.2120    0.0000 O   0  0
    8.0180   -0.4314    0.0000 O   0  0
    9.4003   -1.3330    0.0000 O   0  0
   10.0916   -1.7832    0.0000 C   0  0  1  0  0  0
   10.0423   -2.6032    0.0000 C   0  0  1  0  0  0
   10.7295   -3.0531    0.0000 C   0  0  2  0  0  0
   11.4673   -2.6831    0.0000 C   0  0  2  0  0  0
   11.5136   -1.8585    0.0000 O   0  0
   10.8221   -1.4038    0.0000 C   0  0  2  0  0  0
   10.8644   -0.5799    0.0000 C   0  0
   11.6525    0.6216    0.0000 O   0  0
   11.5991   -0.2045    0.0000 O   0  0
    9.3051   -2.9735    0.0000 O   0  0
   10.6822   -3.8767    0.0000 O   0  0
   12.1569   -3.1360    0.0000 O   0  0
   12.1096   -3.9596    0.0000 C   0  0  1  0  0  0
   11.3758   -4.3295    0.0000 C   0  0  1  0  0  0
   11.3267   -5.1494    0.0000 C   0  0  2  0  0  0
   12.0143   -5.6060    0.0000 C   0  0  1  0  0  0
   12.7530   -5.2365    0.0000 O   0  0
   12.8041   -4.4105    0.0000 C   0  0  2  0  0  0
   10.6453   -4.7123    0.0000 O   0  0
   11.2950   -5.9775    0.0000 O   0  0
   13.5409   -4.0393    0.0000 C   0  0
   14.2308   -4.4919    0.0000 O   0  0
    8.7141   -0.8925    0.0000 H   0  0
   11.4359   -3.5106    0.0000 H   0  0
   10.1373   -0.9635    0.0000 H   0  0
   12.8463   -3.5893    0.0000 H   0  0
   14.8736   -5.7680    0.0000 O   0  5
   10.2150   -6.0700    0.0000 O   0  5
   12.2491   -1.4770    0.0000 O   0  5
   13.0797    0.5509    0.0000 O   0  5
    7.4562    2.4853    0.0000 O   0  5
    6.5911   -0.3547    0.0000 O   0  5
    7.8786   -2.8906    0.0000 O   0  5
    9.3376   -4.7966    0.0000 O   0  5
   10.0762   -4.4379    0.0000 O   0  0
    9.2327   -5.4372    0.0000 O   0  0
    9.7622   -6.5332    0.0000 O   0  5
   12.4004   -8.5207    0.0000 C   0  0
   10.3469    3.1604    0.0000 O   0  5
   15.4688    0.0937    0.0000 Na  0  3
   16.6250    0.1875    0.0000 Na  0  3
   17.8750    0.1562    0.0000 Na  0  3
   18.9687    0.1250    0.0000 Na  0  3
   16.0625   -0.8125    0.0000 Na  0  3
   17.1250   -0.6875    0.0000 Na  0  3
   18.6250   -0.8438    0.0000 Na  0  3
   16.6250   -1.5625    0.0000 Na  0  3
   17.8125   -1.5937    0.0000 Na  0  3
   17.3438   -2.1563    0.0000 Na  0  3
 62 61  2  0
 63 62  2  0
 27 29  1  6
  9  8  1  0
 28 30  1  0
 65 64  2  0
 66 65  2  0
 13 16  1  0
 30 31  1  0
 14 18  1  0
 31 32  1  0
 17 15  1  0
 68 67  1  6
 68 69  1  0
 32 33  1  0
 15 16  1  0
 32 34  1  0
 17 18  1  0
 21 35  1  6
 68 73  1  0
 69 70  1  0
 70 71  1  0
 71 72  1  0
 72 73  1  0
  9 10  1  0
 73 74  1  1
 10 36  1  6
 69 75  1  1
 37 38  1  0
 70 76  1  6
  2  1  2  0
 71 77  1  0
  3  2  2  0
 77 78  1  0
 78 79  1  0
  5  6  1  0
 18 19  1  0
 38 39  2  0
 39 40  1  0
 78 83  1  0
 79 80  1  0
 80 81  1  0
 81 82  1  0
 82 83  1  0
 40 41  2  0
 83 84  1  1
 41 37  1  0
 74 85  1  0
 43 42  2  0
 84 86  1  0
 44 43  2  0
 79 87  1  1
 19 20  1  0
 80 88  1  6
 20 21  1  0
 81 89  1  0
 21 17  1  0
 89 90  1  0
 90 91  1  0
  6  4  1  1
 47 46  2  0
 48 47  2  0
  9 13  1  0
  9 22  1  1
 90 95  1  0
 91 92  1  0
 92 93  1  0
 93 94  1  0
 94 95  1  0
 10 11  1  0
 91 96  1  1
 50 49  2  0
 92 97  1  6
 51 50  2  0
 95 98  1  1
 13 23  1  6
 98 99  1  0
 11 12  1  0
 71100  1  1
 14 24  1  1
 81101  1  1
 53 52  2  0
 78102  1  1
 54 53  2  0
 90103  1  1
 99 65  1  0
 12 14  1  0
 65104  1  0
 88 47  1  0
 96 45  1  0
 18 25  1  6
 45105  1  0
 86 62  1  0
 13 14  1  0
 62106  1  0
 85 59  1  0
 56 55  2  0
 59107  1  0
 75 56  1  0
 57 56  2  0
 56108  1  0
 76 53  1  0
 17 26  1  1
 53109  1  0
 87 50  1  0
  5  8  1  0
 50110  1  0
 21 27  1  0
 47111  1  0
 59 58  2  0
 45112  2  0
 60 59  2  0
 45113  2  0
 97 43  1  0
  6  7  1  0
 43114  1  0
 93 37  1  1
 27 28  1  0
 39115  1  0
115  4  1  0
 67  2  1  0
  7 10  1  0
  2116  1  0
M  CHG  8 104  -1 105  -1 106  -1 107  -1 108  -1 109  -1 110  -1 111  -1
M  CHG  8 114  -1 116  -1 117   1 118   1 119   1 120   1 121   1 122   1
M  CHG  4 123   1 124   1 125   1 126   1
M  END