
          11280715332D 1   1.00000     0.00000     0

 46 49  0     1  0            999 V2000
    7.6375   -3.2667    0.0000 C   0  0  0  0  0  0           0  0  0
    8.2500   -2.7167    0.0000 C   0  0  0  0  0  0           0  0  0
    0.4542   -1.4875    0.0000 N   0  0  0  0  0  0           0  0  0
    4.0417   -1.9000    0.0000 C   0  0  0  0  0  0           0  0  0
    1.8917   -1.4875    0.0000 C   0  0  0  0  0  0           0  0  0
    2.6125   -1.9000    0.0000 N   0  0  0  0  0  0           0  0  0
    4.7542   -1.4875    0.0000 N   0  0  0  0  0  0           0  0  0
    3.3250   -1.4875    0.0000 C   0  0  1  0  0  0           0  0  0
    1.1667   -1.8917    0.0000 C   0  0  0  0  0  0           0  0  0
    3.3250   -0.6625    0.0000 C   0  0  0  0  0  0           0  0  0
    7.8042   -4.0792    0.0000 N   0  0  0  0  0  0           0  0  0
    5.4667   -1.9000    0.0000 C   0  0  2  0  0  0           0  0  0
    3.7292    0.0583    0.0000 C   0  0  0  0  0  0           0  0  0
   -0.2458   -1.9000    0.0000 C   0  0  0  0  0  0           0  0  0
    7.6125   -1.4875    0.0000 N   0  0  0  0  0  0           0  0  0
    8.3250   -1.9000    0.0000 C   0  0  0  0  0  0           0  0  0
    6.1792   -1.4875    0.0000 C   0  0  2  0  0  0           0  0  0
    6.8500   -3.0167    0.0000 O   0  0  0  0  0  0           0  0  0
    4.0417   -2.7250    0.0000 O   0  0  0  0  0  0           0  0  0
    1.8917   -0.6542    0.0000 O   0  0  0  0  0  0           0  0  0
    5.4667   -2.7250    0.0000 C   0  0  0  0  0  0           0  0  0
    6.8917   -1.9000    0.0000 C   0  0  0  0  0  0           0  0  0
    8.5917   -4.3292    0.0000 C   0  0  3  0  0  0           0  0  0
    1.1667   -2.7125    0.0000 C   0  0  0  0  0  0           0  0  0
    4.5542    0.0625    0.0000 O   0  0  0  0  0  0           0  0  0
   -0.2458   -2.7167    0.0000 C   0  0  0  0  0  0           0  0  0
    0.4625   -3.1250    0.0000 C   0  0  0  0  0  0           0  0  0
    3.3125    0.7708    0.0000 N   0  0  0  0  0  0           0  0  0
    5.0500   -3.4292    0.0000 C   0  0  0  0  0  0           0  0  0
    6.1792   -0.6625    0.0000 O   0  0  0  0  0  0           0  0  0
    8.9250   -3.2000    0.0000 C   0  0  0  0  0  0           0  0  0
   -0.9625   -1.4792    0.0000 C   0  0  0  0  0  0           0  0  0
    9.0792   -1.5542    0.0000 C   0  0  0  0  0  0           0  0  0
    9.4167   -4.3750    0.0000 C   0  0  0  0  0  0           0  0  0
    8.7625   -5.1417    0.0000 C   0  0  0  0  0  0           0  0  0
    9.2042   -3.7792    0.0000 C   0  0  0  0  0  0           0  0  0
   -0.9583   -3.1292    0.0000 C   0  0  0  0  0  0           0  0  0
    4.2250   -3.4167    0.0000 C   0  0  0  0  0  0           0  0  0
    5.4500   -4.1417    0.0000 C   0  0  0  0  0  0           0  0  0
    9.6792   -2.8500    0.0000 C   0  0  0  0  0  0           0  0  0
   -1.6750   -1.8917    0.0000 C   0  0  0  0  0  0           0  0  0
    9.7542   -2.0292    0.0000 C   0  0  0  0  0  0           0  0  0
   -1.6750   -2.7167    0.0000 C   0  0  0  0  0  0           0  0  0
    5.0292   -4.8542    0.0000 C   0  0  0  0  0  0           0  0  0
    3.8042   -4.1250    0.0000 C   0  0  0  0  0  0           0  0  0
    4.2042   -4.8417    0.0000 C   0  0  0  0  0  0           0  0  0
  2  1  1  0     0  0
  3  9  2  0     0  0
  4  7  1  0     0  0
  5  6  1  0     0  0
  6  8  1  0     0  0
  7 12  1  0     0  0
  8  4  1  0     0  0
  9  5  1  0     0  0
  8 10  1  1     0  0
 11  1  1  0     0  0
 12 17  1  0     0  0
 13 10  1  0     0  0
 14  3  1  0     0  0
 15 16  1  0     0  0
 16  2  1  0     0  0
 17 22  1  0     0  0
 18  1  2  0     0  0
 19  4  2  0     0  0
 20  5  2  0     0  0
 12 21  1  6     0  0
 22 15  1  0     0  0
 23 11  1  0     0  0
 24  9  1  0     0  0
 25 13  2  0     0  0
 26 27  1  0     0  0
 27 24  2  0     0  0
 28 13  1  0     0  0
 29 21  1  0     0  0
 17 30  1  1     0  0
 31  2  2  0     0  0
 32 14  2  0     0  0
 33 16  2  0     0  0
 34 23  1  0     0  0
 35 23  1  0     0  0
 36 23  1  0     0  0
 37 26  2  0     0  0
 38 29  2  0     0  0
 39 29  1  0     0  0
 40 31  1  0     0  0
 41 32  1  0     0  0
 42 40  2  0     0  0
 43 37  1  0     0  0
 44 39  2  0     0  0
 45 38  1  0     0  0
 46 44  1  0     0  0
 33 42  1  0     0  0
 46 45  2  0     0  0
 26 14  1  0     0  0
 43 41  2  0     0  0
M  END