
  SciTegic12011114592D

 31 35  0  0  0  0            999 V2000
    7.8738  -11.1144    0.0000 N   0  0
    8.5896  -10.7043    0.0000 C   0  0
    8.5925   -9.8776    0.0000 N   0  0
    7.8735   -9.4629    0.0000 C   0  0
    7.8730   -8.6371    0.0000 N   0  0
    8.5883   -8.2237    0.0000 C   0  0
    9.3034  -11.1196    0.0000 S   0  0
   10.0200  -10.7092    0.0000 C   0  0
   10.7295  -11.1276    0.0000 C   0  0
   11.4455  -10.7180    0.0000 C   0  0
   11.4489   -9.8913    0.0000 C   0  0
   10.7301   -9.4761    0.0000 C   0  0
   10.0169   -9.8883    0.0000 C   0  0
   12.1648   -9.4799    0.0000 N   0  0
    9.3748   -8.4720    0.0000 C   0  0
    9.8543   -7.7997    0.0000 C   0  0
    9.3632   -7.1359    0.0000 N   0  0
    8.5800   -7.3979    0.0000 N   0  0
   10.6801   -7.7925    0.0000 C   0  0
    6.3856   -9.6239    0.0000 C   0  0
    5.9040  -10.2856    0.0000 C   0  0
    6.3847  -10.9481    0.0000 C   0  0
    7.1633  -10.6956    0.0000 N   0  0
    7.1639   -9.8772    0.0000 C   0  0
   12.8791   -9.8943    0.0000 C   0  0
   13.5951   -9.4829    0.0000 C   0  0
   14.3094   -9.8973    0.0000 N   0  0
   12.8774  -10.7201    0.0000 O   0  0
   15.0255   -9.4858    0.0000 C   0  0
   15.8483   -9.4856    0.0000 C   0  0
   15.4369   -8.7696    0.0000 C   0  0
 17 18  1  0
  2  3  1  0
 15 16  2  0
  2  7  1  0
  7  8  1  0
  6 15  1  0
 16 17  1  0
 18  6  2  0
  3  4  2  0
 16 19  1  0
 23 24  1  0
  8  9  2  0
  4 24  1  0
 21 22  2  0
  9 10  1  0
  1  2  2  0
 10 11  2  0
 20 21  1  0
 22 23  1  0
 24 20  2  0
  4  5  1  0
 14 25  1  0
 11 12  1  0
 25 26  1  0
 23  1  1  0
 26 27  1  0
 12 13  2  0
 25 28  2  0
 13  8  1  0
 27 29  1  0
 30 29  1  0
 31 30  1  0
 29 31  1  0
  5  6  1  0
 11 14  1  0
M  END