
  SciTegic10261211122D

161165  0  0  0  0            999 V2000
    6.2875   -0.8125    0.0000 N   0  3
    0.9833   -0.5375    0.0000 C   0  0
    5.6708   -0.5375    0.0000 C   0  0
   -1.0875    1.4583    0.0000 S   0  0
    7.7458    1.4583    0.0000 S   0  0
    0.3625   -0.8125    0.0000 N   0  0
    0.9833    1.4875    0.0000 S   0  0
    6.4000    0.2792    0.0000 C   0  0
    0.2583    0.2750    0.0000 C   0  0
    6.7375   -0.3042    0.0000 C   0  0
    0.9125    0.1375    0.0000 C   0  0
    5.7375    0.1375    0.0000 C   0  0
   -0.0875   -0.3042    0.0000 C   0  0
   -1.3500   -3.2167    0.0000 S   0  0
    3.3292   -0.5458    0.0000 C   0  0
    1.5708   -0.8792    0.0000 C   0  0
    5.0875   -0.8750    0.0000 C   0  0
    4.0958   -7.6292    0.0000 C   0  0
    7.4083    0.8667    0.0000 C   0  0
   -0.7542    0.8667    0.0000 C   0  0
    6.7333    0.8667    0.0000 C   0  0
   -0.0792    0.8667    0.0000 C   0  0
   -0.5208   -9.6958    0.0000 P   0  0
    5.5542  -11.8750    0.0000 P   0  0
    9.4208   -8.3375    0.0000 P   0  0
    3.6917   -8.8875    0.0000 C   0  0
    4.7417   -8.5333    0.0000 C   0  0
    3.5417   -8.5208    0.0000 C   0  0
    6.7167  -11.8250    0.0000 C   0  0
   -1.6917   -9.7333    0.0000 C   0  0
   10.5875   -8.2792    0.0000 C   0  0
    2.7417   -0.8833    0.0000 C   0  0
    3.9167   -0.8792    0.0000 C   0  0
    2.1583   -0.5375    0.0000 C   0  0
    4.5000   -0.5375    0.0000 C   0  0
    6.6917  -11.1458    0.0000 C   0  0
   10.6208   -8.9583    0.0000 C   0  0
   -2.2625  -10.0917    0.0000 C   0  0
    1.5708    1.1542    0.0000 C   0  0
    7.7042   -9.4250    0.0000 C   0  0
    3.2083  -11.9583    0.0000 C   0  0
    1.8208   -9.6000    0.0000 C   0  0
    3.7583  -10.9208    0.0000 N   0  0
    7.0750   -8.4333    0.0000 N   0  0
    1.1958   -8.6083    0.0000 N   0  0
    7.4125   -0.3042    0.0000 C   0  0
   -0.7583   -0.3042    0.0000 C   0  0
    4.0750   -6.9625    0.0000 N   0  0
    3.3292    0.1333    0.0000 O   0  0
   -1.4333    2.0458    0.0000 O   0  5
    8.0792    2.0458    0.0000 O   0  5
    0.3958    1.8292    0.0000 O   0  5
    1.2250   -9.2875    0.0000 C   0  0  1  0  0  0
    3.7833  -11.6000    0.0000 C   0  0  1  0  0  0
    7.6792   -8.7500    0.0000 C   0  0  1  0  0  0
   -1.0958  -10.0542    0.0000 C   0  0
    9.9875   -7.9667    0.0000 C   0  0
    6.1458  -12.1875    0.0000 C   0  0
    1.7667   -8.2500    0.0000 C   0  0
    6.5042   -8.7958    0.0000 C   0  0
    4.3333  -10.5625    0.0000 C   0  0
   -1.6917   -3.8000    0.0000 O   0  5
   -0.5000    1.7958    0.0000 O   0  0
   -1.6708    1.1125    0.0000 O   0  0
    8.3333    1.1208    0.0000 O   0  0
    7.1542    1.7917    0.0000 O   0  0
    1.3250    2.0792    0.0000 O   0  0
    0.6458    0.9042    0.0000 O   0  0
   -0.7208   -3.4625    0.0000 O   0  0
   -1.9792   -2.9750    0.0000 O   0  0
    3.4875   -6.6375    0.0000 C   0  0
    3.5083   -7.8667    0.0000 C   0  0
    4.7167   -7.8583    0.0000 C   0  0
    3.6583   -8.1958    0.0000 C   0  0
    3.0375   -9.1000    0.0000 C   0  0
    4.1333   -8.7125    0.0000 C   0  0
    4.3167   -9.1125    0.0000 C   0  0
   -2.3333   -8.0583    0.0000 C   0  0
    7.9458  -13.1333    0.0000 C   0  0
   11.6917   -6.8667    0.0000 C   0  0
    0.6500   -9.6500    0.0000 C   0  0
    4.3792  -11.9167    0.0000 C   0  0
    8.2500   -8.3875    0.0000 C   0  0
    5.7667   -3.8750    0.0000 C   0  0
    5.8750  -11.2750    0.0000 O   0  0
    9.0542   -7.7667    0.0000 O   0  0
   -0.8792   -9.1208    0.0000 O   0  0
    7.7500    0.2792    0.0000 C   0  0
   -1.0917    0.2792    0.0000 C   0  0
   11.1542   -7.9083    0.0000 C   0  0
    7.3208  -12.1417    0.0000 C   0  0
   -1.7125   -9.0542    0.0000 C   0  0
   -2.2458  -10.7708    0.0000 O   0  0
    6.0917  -10.8333    0.0000 O   0  0
   11.2250   -9.2708    0.0000 O   0  0
    2.3958   -9.2375    0.0000 O   0  0
    8.3083   -9.7417    0.0000 O   0  0
    3.2333  -12.6375    0.0000 O   0  0
    4.9542  -11.5583    0.0000 C   0  0
    8.8458   -8.7000    0.0000 C   0  0
    0.0542   -9.3333    0.0000 C   0  0
    6.3000   -1.4917    0.0000 C   0  0
    1.7417   -7.5708    0.0000 O   0  0
    6.5333   -9.4750    0.0000 O   0  0
    4.9292  -10.8792    0.0000 O   0  0
    2.9083   -6.9833    0.0000 O   0  0
   11.6625   -6.1875    0.0000 O   0  0
    8.5167  -12.7708    0.0000 O   0  0
   -2.9250   -7.7333    0.0000 O   0  0
    6.3458   -3.5208    0.0000 O   0  0
    2.1542    1.4917    0.0000 C   0  0
    1.5708    0.4708    0.0000 C   0  0
    2.9375   -8.2000    0.0000 C   0  0
    5.3333   -8.8458    0.0000 C   0  0
    3.7167   -9.5625    0.0000 C   0  0
    2.7417    0.4708    0.0000 C   0  0
   -0.1625  -10.2708    0.0000 O   0  0
    5.2333  -12.4750    0.0000 O   0  0
    9.7833   -8.9083    0.0000 O   0  0
    5.7833   -4.5500    0.0000 N   0  0
    0.2250   -1.4792    0.0000 C   0  0
   -2.3083   -8.7333    0.0000 C   0  0
   11.1250   -7.2333    0.0000 C   0  0
    7.3458  -12.8167    0.0000 C   0  0
   -1.2083   -2.5583    0.0000 C   0  0
    2.3667   -8.5625    0.0000 C   0  0
    4.3083   -9.8833    0.0000 C   0  0
    5.9083   -8.4833    0.0000 C   0  0
   -2.8667   -9.7750    0.0000 O   0  0
    7.2625  -10.7833    0.0000 O   0  0
   10.0542   -9.3292    0.0000 O   0  0
    7.1333   -9.7917    0.0000 O   0  0
    1.8500  -10.2792    0.0000 O   0  0
    2.6125  -11.6417    0.0000 O   0  0
    1.0875    0.7917    0.0000 C   0  0
    1.5667   -0.0375    0.0000 C   0  0
    5.5542    0.8000    0.0000 C   0  0
    5.0833   -0.0333    0.0000 C   0  0
   12.2958   -7.1750    0.0000 O   0  5
   -1.7542   -7.6958    0.0000 O   0  0
    7.9750  -13.8125    0.0000 O   0  0
    2.7417    1.1542    0.0000 C   0  0
    2.1583    0.1375    0.0000 C   0  0
    3.9125   -1.5583    0.0000 C   0  0
    2.7417   -1.5542    0.0000 C   0  0
    3.3250   -1.9000    0.0000 C   0  0
    3.4708   -5.9583    0.0000 C   0  0
    5.1750   -3.5500    0.0000 C   0  0
    5.2083   -4.9042    0.0000 C   0  0
    5.7250   -1.8417    0.0000 C   0  0
   -0.4208   -1.6833    0.0000 C   0  0
   -0.5625   -2.3458    0.0000 C   0  0
    5.1583   -2.8708    0.0000 C   0  0
    4.0500   -5.6042    0.0000 C   0  0
    4.6125   -4.5750    0.0000 C   0  0
    4.0375   -4.9250    0.0000 C   0  0
    5.7375   -2.5167    0.0000 C   0  0
    0.9750    2.8500    0.0000 Na  0  3
   -3.1125   -2.9792    0.0000 Na  0  3
    6.8125    3.4417    0.0000 Na  0  3
   -1.4250    3.0542    0.0000 Na  0  3
  2 16  2  0
  3  1  2  0
  4 20  1  0
  5 19  1  0
  6  2  1  0
  7 39  1  0
  8 10  2  0
  9 11  1  0
 10  1  1  0
 11  2  1  0
 12  3  1  0
 13  6  1  0
 14125  1  0
 15 33  2  0
 16 34  1  0
 17  3  1  0
 18 48  1  0
 19 88  1  0
 20 22  2  0
 21  8  1  0
 22  9  1  0
 23101  1  0
 24 99  1  0
 25100  1  0
 26 74  1  0
 27 73  1  0
 28 72  1  0
 29 58  1  0
 30 56  1  0
 31 57  1  0
 32 15  1  0
 33 35  1  0
 34 32  2  0
 35 17  2  0
 36 29  1  0
 37 31  1  0
 38 30  1  0
 39111  1  0
 40 55  1  0
 41 54  1  0
 53 42  1  6
 43 61  1  0
 44 60  1  0
 45 59  1  0
 46 10  1  0
 47 13  1  0
 48 71  1  0
 49 15  1  0
 50  4  1  0
 51  5  1  0
 52  7  1  0
 53 45  1  0
 54 43  1  1
 55 44  1  1
 56 23  1  0
 57 25  1  0
 58 24  1  0
 59126  1  0
 60128  1  0
 61127  1  0
 62 14  1  0
 63  4  2  0
 64  4  2  0
 65  5  2  0
 66  5  2  0
 67  7  2  0
 68  7  2  0
 69 14  2  0
 70 14  2  0
 71147  1  0
 72 18  1  0
 73 18  1  0
 74 18  1  0
 75 26  1  0
 76 28  1  0
 77 26  1  0
 78122  1  0
 79124  1  0
 80123  1  0
 81 53  1  0
 82 54  1  0
 83 55  1  0
 84148  1  0
 85 24  2  0
 86 25  2  0
 87 23  2  0
 88 46  2  0
 89 47  2  0
 90 31  1  0
 91 29  1  0
 92 30  1  0
 93 38  2  0
 94 36  2  0
 95 37  2  0
 96 42  2  0
 97 40  2  0
 98 41  2  0
 99 82  1  0
100 83  1  0
101 81  1  0
102  1  1  0
103 59  2  0
104 60  2  0
105 61  2  0
106 71  2  0
107 80  2  0
108 79  2  0
109 78  2  0
110 84  2  0
111142  2  0
112143  1  0
113 28  1  0
114 27  1  0
115 26  1  0
116 49  1  0
117 23  1  0
118 24  1  0
119 25  1  0
120 84  1  0
121  6  1  0
122 92  1  0
123 90  1  0
124 91  1  0
125152  1  0
126113  1  0
127115  1  0
128114  1  0
129 38  1  0
130 36  1  0
131 37  1  0
132 40  1  0
133 42  1  0
134 41  1  0
135 11  1  0
136 11  1  0
137 12  1  0
138 12  1  0
139 80  1  0
140 78  1  0
141 79  1  0
142116  1  0
143116  2  0
144 33  1  0
145146  1  0
146144  1  0
147154  1  0
148153  1  0
149120  1  0
150102  1  0
151121  1  0
152151  1  0
153157  1  0
154156  1  0
155149  1  0
156155  1  0
157150  1  0
 12  8  1  0
 21 19  2  0
145 32  1  0
112 39  2  0
  9 13  2  0
 89 20  1  0
 27 77  1  0
 28 75  1  0
 27 76  1  0
M  CHG  8   1   1  50  -1  51  -1  52  -1  62  -1 139  -1 158   1 159   1
M  CHG  2 160   1 161   1
M  END