
  CDK    12/20/10,15:21

 34 38  0  0  0  0  0  0  0  0999 V2000
    5.7736   -4.8708    0.0000 C   0  0  0  0  0  0  0  0  0  0  0  0
    5.7724   -5.6982    0.0000 C   0  0  0  0  0  0  0  0  0  0  0  0
    6.4872   -6.1110    0.0000 C   0  0  0  0  0  0  0  0  0  0  0  0
    7.2037   -5.6977    0.0000 C   0  0  0  0  0  0  0  0  0  0  0  0
    7.2008   -4.8672    0.0000 N   0  0  0  0  0  0  0  0  0  0  0  0
    6.4854   -4.4580    0.0000 C   0  0  0  0  0  0  0  0  0  0  0  0
    5.0576   -6.1101    0.0000 C   0  0  0  0  0  0  0  0  0  0  0  0
    4.3435   -5.6970    0.0000 N   0  0  0  0  0  0  0  0  0  0  0  0
    4.3481   -4.8678    0.0000 C   0  0  0  0  0  0  0  0  0  0  0  0
    3.6381   -4.4549    0.0000 C   0  0  0  0  0  0  0  0  0  0  0  0
    2.9208   -4.8633    0.0000 C   0  0  0  0  0  0  0  0  0  0  0  0
    2.9182   -5.6892    0.0000 C   0  0  0  0  0  0  0  0  0  0  0  0
    3.6328   -6.1068    0.0000 C   0  0  0  0  0  0  0  0  0  0  0  0
    2.2083   -4.4475    0.0000 C   0  0  0  0  0  0  0  0  0  0  0  0
    2.2120   -3.6225    0.0000 O   0  0  0  0  0  0  0  0  0  0  0  0
    1.4919   -4.8567    0.0000 N   0  0  0  0  0  0  0  0  0  0  0  0
    0.7758   -4.4416    0.0000 C   0  0  0  0  0  0  0  0  0  0  0  0
    0.0616   -4.8473    0.0000 C   0  0  0  0  0  0  0  0  0  0  0  0
    0.0536   -5.6727    0.0000 C   0  0  0  0  0  0  0  0  0  0  0  0
    0.7660   -6.0906    0.0000 C   0  0  0  0  0  0  0  0  0  0  0  0
    1.4864   -5.6833    0.0000 C   0  0  0  0  0  0  0  0  0  0  0  0
   -0.6643   -6.0792    0.0000 N   0  0  0  0  0  0  0  0  0  0  0  0
   -1.4169   -5.7365    0.0000 C   0  0  0  0  0  0  0  0  0  0  0  0
   -1.9741   -6.3450    0.0000 N   0  0  0  0  0  0  0  0  0  0  0  0
   -0.7592   -6.8980    0.0000 C   0  0  0  0  0  0  0  0  0  0  0  0
   -1.5648   -7.0648    0.0000 C   0  0  0  0  0  0  0  0  0  0  0  0
   -1.8216   -7.8444    0.0000 C   0  0  0  0  0  0  0  0  0  0  0  0
   -1.2739   -8.4579    0.0000 C   0  0  0  0  0  0  0  0  0  0  0  0
   -0.4660   -8.2866    0.0000 C   0  0  0  0  0  0  0  0  0  0  0  0
   -0.2129   -7.5072    0.0000 C   0  0  0  0  0  0  0  0  0  0  0  0
   -1.5817   -4.9282    0.0000 O   0  0  0  0  0  0  0  0  0  0  0  0
   -2.7939   -6.2526    0.0000 C   0  0  0  0  0  0  0  0  0  0  0  0
   -3.1238   -5.4965    0.0000 C   0  0  0  0  0  0  0  0  0  0  0  0
   -3.9436   -5.4041    0.0000 O   0  0  0  0  0  0  0  0  0  0  0  0
 16 17  1  0  0  0  0 
  7  8  1  0  0  0  0 
  8  9  1  0  0  0  0 
  4  5  1  0  0  0  0 
  2  3  1  0  0  0  0 
 16 21  1  0  0  0  0 
 17 18  1  0  0  0  0 
 18 19  1  0  0  0  0 
 19 20  1  0  0  0  0 
 20 21  1  0  0  0  0 
  5  6  2  0  0  0  0 
 19 22  1  0  0  0  0 
 22 23  1  0  0  0  0 
  6  1  1  0  0  0  0 
  8 13  1  0  0  0  0 
 23 24  1  0  0  0  0 
 24 26  1  0  0  0  0 
 25 22  1  0  0  0  0 
  9 10  1  0  0  0  0 
 10 11  1  0  0  0  0 
 25 26  2  0  0  0  0 
 11 12  1  0  0  0  0 
 26 27  1  0  0  0  0 
 12 13  1  0  0  0  0 
 27 28  2  0  0  0  0 
  1  2  2  0  0  0  0 
 28 29  1  0  0  0  0 
 11 14  1  0  0  0  0 
 29 30  2  0  0  0  0 
 30 25  1  0  0  0  0 
  2  7  1  0  0  0  0 
 23 31  2  0  0  0  0 
 14 15  2  0  0  0  0 
 24 32  1  0  0  0  0 
  3  4  2  0  0  0  0 
 32 33  1  0  0  0  0 
 14 16  1  0  0  0  0 
 33 34  1  0  0  0  0 
M  END