
          11280715362D 1   1.00000     0.00000     0

 39 42  0     1  0            999 V2000
    1.5875   -3.6417    0.0000 C   0  0  1  0  0  0           0  0  0
    1.4042   -2.8375    0.0000 C   0  0  2  0  0  0           0  0  0
    2.1667   -4.2250    0.0000 N   0  0  3  0  0  0           0  0  0
    0.8792   -4.0667    0.0000 C   0  0  0  0  0  0           0  0  0
    6.6917   -0.5000    0.0000 C   0  0  0  0  0  0           0  0  0
    0.5792   -2.7667    0.0000 C   0  0  3  0  0  0           0  0  0
    6.3625   -3.6292    0.0000 C   0  0  0  0  0  0           0  0  0
    3.8292   -1.2542    0.0000 C   0  0  0  0  0  0           0  0  0
    3.0167   -1.2792    0.0000 C   0  0  0  0  0  0           0  0  0
    0.1542   -2.0542    0.0000 O   0  0  0  0  0  0           0  0  0
    0.2542   -3.5167    0.0000 C   0  0  0  0  0  0           0  0  0
    6.2667    0.2125    0.0000 O   0  0  0  0  0  0           0  0  0
    7.0167   -3.3542    0.0000 O   0  0  0  0  0  0           0  0  0
    4.2292   -0.5417    0.0000 C   0  0  0  0  0  0           0  0  0
    2.6042   -0.5792    0.0000 C   0  0  0  0  0  0           0  0  0
    2.6167   -2.0042    0.0000 C   0  0  0  0  0  0           0  0  0
    4.2417   -1.9625    0.0000 C   0  0  0  0  0  0           0  0  0
    3.4917   -2.7875    0.0000 C   0  0  0  0  0  0           0  0  0
    4.3625   -2.8500    0.0000 C   0  0  0  0  0  0           0  0  0
    6.2875   -1.2167    0.0000 C   0  0  0  0  0  0           0  0  0
    2.1917   -2.6167    0.0000 O   0  0  0  0  0  0           0  0  0
    7.5167   -0.4875    0.0000 N   0  0  0  0  0  0           0  0  0
    5.4625   -1.2292    0.0000 C   0  0  0  0  0  0           0  0  0
    0.5625   -1.3375    0.0000 C   0  0  0  0  0  0           0  0  0
    1.3875   -1.3250    0.0000 C   0  0  0  0  0  0           0  0  0
    6.2625   -4.3292    0.0000 O   0  0  0  0  0  0           0  0  0
    5.0417   -0.5250    0.0000 C   0  0  0  0  0  0           0  0  0
    5.0625   -1.9500    0.0000 C   0  0  0  0  0  0           0  0  0
    1.7875   -0.6042    0.0000 C   0  0  0  0  0  0           0  0  0
    1.8000   -2.0167    0.0000 C   0  0  0  0  0  0           0  0  0
    2.9417   -3.9500    0.0000 C   0  0  0  0  0  0           0  0  0
    1.9000   -5.0000    0.0000 C   0  0  0  0  0  0           0  0  0
    2.8667   -3.1500    0.0000 C   0  0  0  0  0  0           0  0  0
    5.8000   -3.1917    0.0000 C   0  0  0  0  0  0           0  0  0
    4.8625   -3.4417    0.0000 C   0  0  0  0  0  0           0  0  0
    3.6417   -4.3792    0.0000 C   0  0  0  0  0  0           0  0  0
    2.3417   -5.6917    0.0000 C   0  0  0  0  0  0           0  0  0
    3.7417   -5.2000    0.0000 C   0  0  0  0  0  0           0  0  0
    3.1625   -5.7792    0.0000 C   0  0  0  0  0  0           0  0  0
  2  1  1  0     0  0
  1  3  1  1     0  0
  4  1  1  0     0  0
  5 20  1  0     0  0
  6  2  1  0     0  0
  7 34  1  0     0  0
  8  9  1  0     0  0
  9 16  1  0     0  0
 10  6  1  0     0  0
 11  4  1  0     0  0
 12  5  2  0     0  0
 13  7  2  0     0  0
 14  8  1  0     0  0
 15 29  1  0     0  0
 16 30  2  0     0  0
 17  8  2  0     0  0
 18 33  1  0     0  0
 19 18  2  0     0  0
 20 23  1  0     0  0
  2 21  1  6     0  0
 22  5  1  0     0  0
 23 28  2  0     0  0
 24 10  1  0     0  0
 25 24  1  0     0  0
 26  7  1  0     0  0
 27 14  2  0     0  0
 28 17  1  0     0  0
 29 25  2  0     0  0
 30 25  1  0     0  0
 31  3  1  0     0  0
 32  3  1  0     0  0
 33 21  1  0     0  0
 34 35  1  0     0  0
 35 19  1  0     0  0
 36 31  1  0     0  0
 37 32  1  0     0  0
 38 36  1  0     0  0
 39 37  1  0     0  0
  6 11  1  0     0  0
 38 39  1  0     0  0
  9 15  2  0     0  0
 23 27  1  0     0  0
M  END