
  SciTegic11201309402D

 61 67  0  0  0  0            999 V2000
   -1.6242   -8.3901    0.0000 N   0  0
    0.3146   -9.8028    0.0000 N   0  0
   -1.1438   -9.0593    0.0000 C   0  0
   -0.4747   -9.5455    0.0000 C   0  0  1  0  0  0
    3.3344   -6.7831    0.0000 N   0  0
   -1.8816   -7.6066    0.0000 C   0  0  2  0  0  0
    1.1382   -9.8028    0.0000 C   0  0
   -1.8816   -6.7831    0.0000 C   0  0
    3.3344   -7.6066    0.0000 C   0  0  2  0  0  0
    3.0770   -8.3901    0.0000 C   0  0
    2.5966   -9.0593    0.0000 N   0  0
    1.9274   -9.5455    0.0000 C   0  0  1  0  0  0
   -1.6242   -5.9938    0.0000 N   0  0
    0.4862  -10.6092    0.0000 C   0  0
   -2.2934   -8.8763    0.0000 C   0  0
    4.0492   -6.3655    0.0000 C   0  0
    3.0770   -5.9938    0.0000 C   0  0
   -2.7052   -7.6066    0.0000 C   0  0
   -1.0809  -10.0945    0.0000 C   0  0
    4.0492   -8.0184    0.0000 C   0  0
   -0.4747   -4.8442    0.0000 C   0  0
   -2.9625   -8.3901    0.0000 C   0  0
   -2.4649   -1.9789    0.0000 C   0  0
   -1.1438   -5.3247    0.0000 C   0  0  2  0  0  0
   -0.1315  -11.1583    0.0000 C   0  0
    4.7585   -6.7831    0.0000 C   0  0
   -0.9094  -10.9009    0.0000 C   0  0
    4.7585   -7.6066    0.0000 C   0  0
   -1.7272   -9.6484    0.0000 O   0  0
    0.3146   -4.5869    0.0000 N   0  0
    1.2697  -10.6092    0.0000 O   0  0
   -2.2477   -1.1839    0.0000 N   0  0
   -2.6880   -6.6458    0.0000 O   0  0
    3.8148   -8.7676    0.0000 O   0  0
    3.8148   -5.6163    0.0000 O   0  0
   -0.8407   -4.1065    0.0000 O   0  0
   -1.8816   -2.5623    0.0000 N   0  0
   -3.2542   -2.1962    0.0000 N   0  0
    2.3049  -10.2833    0.0000 C   0  0
    2.5966   -5.3247    0.0000 C   0  0
   -2.3792   -9.6999    0.0000 C   0  0
    1.8530  -10.9696    0.0000 O   0  0
   -3.7175   -8.7219    0.0000 C   0  0
    1.1382   -4.5869    0.0000 C   0  0
   -1.7272   -4.7413    0.0000 C   0  0
    0.0515  -11.9647    0.0000 C   0  0
    5.4791   -6.3655    0.0000 C   0  0
    5.4791   -8.0184    0.0000 C   0  0
   -1.5213  -11.4500    0.0000 C   0  0
   -2.0932   -3.3629    0.0000 C   0  0
   -1.5041   -3.9463    0.0000 C   0  0
    1.9274   -4.8442    0.0000 C   0  0
   -3.1341  -10.0373    0.0000 C   0  0
   -3.8033   -9.5455    0.0000 C   0  0
   -0.5662  -12.5138    0.0000 C   0  0
    6.1997   -7.6066    0.0000 C   0  0
    6.1997   -6.7831    0.0000 C   0  0
   -1.3497  -12.2678    0.0000 C   0  0
    3.6917   -8.5406    0.0000 H   0  0
   -2.5887   -6.8995    0.0000 H   0  0
   -1.4733   -9.5992    0.0000 H   0  0
  4  2  1  0
  3  1  1  0
  4  3  1  0
  9  5  1  0
  6  1  1  0
  7  2  1  0
  8  6  1  0
  9 10  1  0
 10 11  1  0
 11 12  1  0
 12  7  1  0
 13  8  1  0
 14  2  1  0
 15  1  1  0
 16  5  1  0
 17 40  1  0
 18  6  1  0
 19  4  1  0
 20  9  1  0
 21 24  1  0
 22 15  1  0
 23 37  1  0
 24 13  1  0
 25 27  2  0
 26 28  1  0
 27 19  1  0
 28 20  1  0
 29  3  2  0
 30 21  1  0
 31  7  2  0
 32 23  2  0
 33  8  2  0
 34 10  2  0
 35 17  2  0
 36 21  2  0
 37 50  1  0
 38 23  1  0
 12 39  1  1
 40 52  1  0
 41 15  1  0
 42 39  1  0
 43 22  1  0
 44 30  1  0
 24 45  1  1
 46 25  1  0
 47 26  2  0
 48 28  2  0
 49 27  1  0
 50 51  1  0
 51 45  1  0
 52 44  1  0
 53 41  1  0
 54 53  1  0
 55 58  1  0
 56 48  1  0
 57 56  2  0
 58 49  2  0
 18 22  1  0
 43 54  1  0
 14 25  1  0
 46 55  2  0
 17  5  1  0
 26 16  1  0
 57 47  1  0
  9 59  1  6
  6 60  1  6
  4 61  1  1
M  END