
          11280714582D 1   1.00000     0.00000     0

 39 42  0     1  0            999 V2000
    3.6792   -3.1625    0.0000 C   0  0  0  0  0  0           0  0  0
    9.3417   -2.9750    0.0000 S   0  0  3  0  0  0           0  0  0
    5.0167   -2.9917    0.0000 C   0  0  0  0  0  0           0  0  0
    4.2917   -2.5917    0.0000 C   0  0  0  0  0  0           0  0  0
    4.0292   -3.9125    0.0000 N   0  0  3  0  0  0           0  0  0
    4.8625   -3.8042    0.0000 N   0  0  0  0  0  0           0  0  0
    2.8875   -2.9167    0.0000 C   0  0  0  0  0  0           0  0  0
    8.5125   -2.9042    0.0000 N   0  0  0  0  0  0           0  0  0
    2.1917   -3.3875    0.0000 N   0  0  3  0  0  0           0  0  0
    7.8375   -2.4375    0.0000 C   0  0  2  0  0  0           0  0  0
    5.6417   -2.4500    0.0000 C   0  0  0  0  0  0           0  0  0
    8.4667   -1.8917    0.0000 C   0  0  0  0  0  0           0  0  0
   10.1167   -3.2542    0.0000 C   0  0  0  0  0  0           0  0  0
    6.4292   -2.7167    0.0000 N   0  0  0  0  0  0           0  0  0
   10.0792   -2.6250    0.0000 O   0  0  0  0  0  0           0  0  0
    9.6917   -3.7292    0.0000 O   0  0  0  0  0  0           0  0  0
    2.7667   -2.0917    0.0000 O   0  0  0  0  0  0           0  0  0
    7.0542   -2.1750    0.0000 C   0  0  0  0  0  0           0  0  0
    1.4875   -2.9667    0.0000 C   0  0  0  0  0  0           0  0  0
   -1.3875   -2.1375    0.0000 N   0  0  0  0  0  0           0  0  0
    5.4792   -1.6250    0.0000 O   0  0  0  0  0  0           0  0  0
    8.3042   -1.0792    0.0000 O   0  0  0  0  0  0           0  0  0
   10.2625   -4.0667    0.0000 C   0  0  0  0  0  0           0  0  0
   10.7417   -2.7167    0.0000 C   0  0  0  0  0  0           0  0  0
    3.5792   -4.6542    0.0000 C   0  0  0  0  0  0           0  0  0
    2.7500   -4.7750    0.0000 C   0  0  0  0  0  0           0  0  0
    9.2542   -2.1625    0.0000 O   0  0  0  0  0  0           0  0  0
    2.1417   -4.2167    0.0000 C   0  0  0  0  0  0           0  0  0
    0.7542   -3.3875    0.0000 C   0  0  0  0  0  0           0  0  0
   11.5167   -2.9917    0.0000 C   0  0  0  0  0  0           0  0  0
   11.0417   -4.3417    0.0000 C   0  0  0  0  0  0           0  0  0
   11.6625   -3.8042    0.0000 C   0  0  0  0  0  0           0  0  0
    0.0417   -2.9667    0.0000 C   0  0  3  0  0  0           0  0  0
   -0.6833   -1.7250    0.0000 C   0  0  0  0  0  0           0  0  0
   -1.3875   -2.9667    0.0000 C   0  0  0  0  0  0           0  0  0
   12.4542   -4.0792    0.0000 C   0  0  0  0  0  0           0  0  0
    0.0417   -2.1375    0.0000 C   0  0  0  0  0  0           0  0  0
   -0.6833   -3.3875    0.0000 C   0  0  0  0  0  0           0  0  0
    7.3667   -3.1125    0.0000 H   0  0  0  0  0  0           0  0  0
  2  8  1  0     0  0
  3  4  1  0     0  0
  4  1  2  0     0  0
  5  1  1  0     0  0
  6  5  1  0     0  0
  7  1  1  0     0  0
 10  8  1  1     0  0
  9  7  1  0     0  0
 10 18  1  0     0  0
 11  3  1  0     0  0
 12 10  1  0     0  0
 13  2  1  0     0  0
 14 11  1  0     0  0
 15  2  2  0     0  0
 16  2  2  0     0  0
 17  7  2  0     0  0
 18 14  1  0     0  0
 19  9  1  0     0  0
 20 35  1  0     0  0
 21 11  2  0     0  0
 22 12  2  0     0  0
 23 13  2  0     0  0
 24 13  1  0     0  0
 25  5  1  0     0  0
 26 25  1  0     0  0
 27 12  1  0     0  0
 28  9  1  0     0  0
 29 19  1  0     0  0
 30 24  2  0     0  0
 31 23  1  0     0  0
 32 30  1  0     0  0
 33 29  1  0     0  0
 34 37  1  0     0  0
 35 38  1  0     0  0
 36 32  1  0     0  0
 37 33  1  0     0  0
 38 33  1  0     0  0
 10 39  1  6     0  0
  3  6  2  0     0  0
 26 28  1  0     0  0
 20 34  1  0     0  0
 32 31  2  0     0  0
M  END