
  SciTegic01061414252D

 26 28  0  0  0  0            999 V2000
    3.9632   -6.9274    0.0000 O   0  0
    4.2255   -7.7068    0.0000 N   0  0
    5.0516   -7.7007    0.0000 C   0  0
    5.2989   -6.9143    0.0000 C   0  0
    4.6251   -6.4353    0.0000 C   0  0
    5.5381   -8.3642    0.0000 C   0  0
    6.3597   -8.2723    0.0000 O   0  0
    5.2104   -9.1236    0.0000 N   0  0
    5.7026   -9.7855    0.0000 C   0  0
    5.3733  -10.5393    0.0000 C   0  0
    4.6189   -5.6090    0.0000 C   0  0
    5.3306   -5.1894    0.0000 C   0  0
    5.3224   -4.3668    0.0000 C   0  0
    4.6045   -3.9602    0.0000 C   0  0
    3.8948   -4.3763    0.0000 C   0  0
    3.9010   -5.2025    0.0000 C   0  0
    3.1892   -5.6221    0.0000 O   0  0
    4.5983   -3.1340    0.0000 O   0  0
    6.0485   -5.5960    0.0000 O   0  0
    6.7582   -5.1799    0.0000 C   0  0
    7.4760   -5.5865    0.0000 C   0  0
    8.1878   -5.1668    0.0000 C   0  0
    8.1795   -4.3442    0.0000 C   0  0
    7.4616   -3.9376    0.0000 C   0  0
    6.7520   -4.3537    0.0000 C   0  0
    8.8913   -3.9245    0.0000 Cl  0  0
  1  2  1  0
  2  3  2  0
  3  4  1  0
  4  5  2  0
  1  5  1  0
  6  7  2  0
  6  8  1  0
  3  6  1  0
  9 10  1  0
  8  9  1  0
 11 12  1  0
 12 13  2  0
 13 14  1  0
 14 15  2  0
 15 16  1  0
 11 16  2  0
 16 17  1  0
 14 18  1  0
 20 21  1  0
 21 22  2  0
 22 23  1  0
 23 24  2  0
 24 25  1  0
 20 25  2  0
 19 20  1  0
 23 26  1  0
 12 19  1  0
  5 11  1  0
M  END