
  SciTegic11201309402D

 38 42  0  0  1  0            999 V2000
   -1.2547  -11.2568    0.0000 C   0  0
   -2.6842  -11.2313    0.0000 N   0  0
   -1.9615  -10.8310    0.0000 C   0  0  1  0  0  0
   -1.9475  -10.0084    0.0000 C   0  0
   -2.6541   -9.5827    0.0000 C   0  0
   -3.3749   -9.9794    0.0000 C   0  0
   -4.0816   -9.5535    0.0000 C   0  0
   -4.0676   -8.7310    0.0000 C   0  0
   -4.7743   -8.3052    0.0000 O   0  0
   -3.3448   -8.3307    0.0000 C   0  0
   -2.6380   -8.7565    0.0000 C   0  0
   -1.9158   -8.3576    0.0000 C   0  0
   -3.3913  -10.8061    0.0000 C   0  0
   -0.5326  -10.8577    0.0000 N   0  0
   -1.2701  -12.0817    0.0000 O   0  0
    0.1711  -11.2849    0.0000 C   0  0  1  0  0  0
    0.8911  -10.8893    0.0000 C   0  0
   -0.5219  -10.0333    0.0000 C   0  0
    0.2042   -9.6361    0.0000 C   0  0
    0.9082  -10.0634    0.0000 C   0  0
    1.6281   -9.6674    0.0000 C   0  0
    1.6452   -8.8442    0.0000 C   0  0
    0.9365   -8.4187    0.0000 C   0  0
    0.2194   -8.8172    0.0000 C   0  0
    0.1533  -12.1098    0.0000 C   0  0
   -0.5700  -12.5068    0.0000 O   0  0
    0.8588  -12.5376    0.0000 N   0  0
    1.5820  -12.1406    0.0000 C   0  0
    2.2875  -12.5685    0.0000 C   0  0
    2.3564  -13.3862    0.0000 N   0  0
    3.0487  -12.2448    0.0000 N   0  0
    3.5875  -12.8695    0.0000 C   0  0
    3.1570  -13.5726    0.0000 C   0  0
    3.5505  -14.2949    0.0000 C   0  0
    4.3744  -14.3153    0.0000 C   0  0
    4.8032  -13.6075    0.0000 C   0  0
    4.4072  -12.8881    0.0000 C   0  0
    3.2356  -11.4411    0.0000 C   0  0
 19 18  1  0
  7  8  2  0
  8  9  1  0
 19 20  2  0
  8 10  1  0
 20 21  1  0
 10 11  2  0
 21 22  2  0
  5 11  1  0
 22 23  1  0
 23 24  2  0
 24 19  1  0
 11 12  1  0
 16 25  1  1
  6 13  1  0
 25 26  2  0
  3  2  1  1
 25 27  1  0
  1  3  1  0
 27 28  1  0
  1 14  1  0
 28 29  1  0
 29 30  2  0
  3  4  1  0
  1 15  2  0
 30 33  1  0
 32 31  1  0
 31 29  1  0
 16 14  1  0
  4  5  1  0
 32 33  2  0
  5  6  2  0
 33 34  1  0
  6  7  1  0
 34 35  2  0
 14 18  1  0
 35 36  1  0
 16 17  1  0
 36 37  2  0
 37 32  1  0
 17 20  1  0
 31 38  1  0
M  END