
          08180812492D 1   1.00000     0.00000     0

 31 34  0     0  0            999 V2000
   12.8902  -16.9625    0.0000 C   0  0  0  0  0  0           0  0  0
   12.8891  -17.7898    0.0000 C   0  0  0  0  0  0           0  0  0
   13.6039  -18.2027    0.0000 C   0  0  0  0  0  0           0  0  0
   14.3203  -17.7894    0.0000 C   0  0  0  0  0  0           0  0  0
   14.3175  -16.9588    0.0000 C   0  0  0  0  0  0           0  0  0
   13.6021  -16.5497    0.0000 C   0  0  0  0  0  0           0  0  0
   12.1744  -18.2015    0.0000 C   0  0  0  0  0  0           0  0  0
   11.4319  -17.8419    0.0000 N   0  0  3  0  0  0           0  0  0
   12.1736  -19.0268    0.0000 O   0  0  0  0  0  0           0  0  0
   15.0304  -16.5436    0.0000 O   0  0  0  0  0  0           0  0  0
   15.0273  -15.7186    0.0000 C   0  0  0  0  0  0           0  0  0
   15.7420  -15.3083    0.0000 C   0  0  0  0  0  0           0  0  0
   15.7392  -14.4841    0.0000 C   0  0  0  0  0  0           0  0  0
   15.0226  -14.0734    0.0000 C   0  0  0  0  0  0           0  0  0
   14.3074  -14.4931    0.0000 C   0  0  0  0  0  0           0  0  0
   14.3137  -15.3159    0.0000 C   0  0  0  0  0  0           0  0  0
   15.0355  -18.2007    0.0000 C   0  0  0  0  0  0           0  0  0
   15.7493  -17.7871    0.0000 N   0  0  0  0  0  0           0  0  0
   16.4644  -18.1985    0.0000 C   0  0  0  0  0  0           0  0  0
   10.7880  -18.3545    0.0000 C   0  0  0  0  0  0           0  0  0
    9.9819  -18.1705    0.0000 C   0  0  0  0  0  0           0  0  0
   11.4327  -17.0178    0.0000 C   0  0  0  0  0  0           0  0  0
    9.6217  -17.4297    0.0000 C   0  0  0  0  0  0           0  0  0
   10.7865  -16.5026    0.0000 C   0  0  0  0  0  0           0  0  0
    9.9818  -16.6887    0.0000 N   0  0  3  0  0  0           0  0  0
    9.4676  -16.0435    0.0000 C   0  0  3  0  0  0           0  0  0
   15.0184  -13.2484    0.0000 S   0  0  0  0  0  0           0  0  0
   15.7308  -12.8323    0.0000 C   0  0  0  0  0  0           0  0  0
    9.3425  -15.2244    0.0000 C   0  0  0  0  0  0           0  0  0
    8.6973  -15.7386    0.0000 C   0  0  0  0  0  0           0  0  0
   16.4523  -14.0692    0.0000 C   0  0  0  0  0  0           0  0  0
  3  4  2  0     0  0
 15 16  2  0     0  0
 16 11  1  0     0  0
  7  8  1  0     0  0
  4 17  1  0     0  0
 17 18  1  0     0  0
  7  9  2  0     0  0
 18 19  1  0     0  0
  4  5  1  0     0  0
  8 20  1  0     0  0
  5 10  1  0     0  0
 20 21  1  0     0  0
  2  3  1  0     0  0
  8 22  1  0     0  0
 10 11  1  0     0  0
 21 23  1  0     0  0
  5  6  2  0     0  0
 22 24  1  0     0  0
 11 12  2  0     0  0
 23 25  1  0     0  0
 24 25  1  0     0  0
  6  1  1  0     0  0
 25 26  1  0     0  0
 12 13  1  0     0  0
 14 27  1  0     0  0
  1  2  2  0     0  0
 27 28  1  0     0  0
 29 26  1  0     0  0
 30 29  1  0     0  0
 26 30  1  0     0  0
 13 14  2  0     0  0
  2  7  1  0     0  0
 14 15  1  0     0  0
 13 31  1  0     0  0
M  END