
          11280715232D 1   1.00000     0.00000     0

 34 37  0     0  0            999 V2000
    3.7792   -2.2292    0.0000 N   0  0  3  0  0  0           0  0  0
    3.3250   -1.6042    0.0000 C   0  0  0  0  0  0           0  0  0
    3.3250   -2.8417    0.0000 C   0  0  0  0  0  0           0  0  0
    7.8792   -2.6292    0.0000 C   0  0  0  0  0  0           0  0  0
    3.5625   -0.8750    0.0000 C   0  0  0  0  0  0           0  0  0
    7.4917   -1.4542    0.0000 N   0  0  0  0  0  0           0  0  0
    7.2625   -2.1792    0.0000 N   0  0  0  0  0  0           0  0  0
    8.2542   -1.4542    0.0000 N   0  0  0  0  0  0           0  0  0
    2.5875   -1.8375    0.0000 C   0  0  3  0  0  0           0  0  0
    8.4917   -2.1792    0.0000 N   0  0  0  0  0  0           0  0  0
    7.8792   -3.3917    0.0000 C   0  0  0  0  0  0           0  0  0
    2.5875   -2.6167    0.0000 C   0  0  0  0  0  0           0  0  0
    7.2167   -3.7667    0.0000 C   0  0  0  0  0  0           0  0  0
    4.3167   -0.7125    0.0000 C   0  0  0  0  0  0           0  0  0
    4.5500   -2.2292    0.0000 C   0  0  0  0  0  0           0  0  0
    6.5500   -3.3792    0.0000 C   0  0  0  0  0  0           0  0  0
    3.5625   -3.5792    0.0000 O   0  0  0  0  0  0           0  0  0
    4.8292   -1.2875    0.0000 O   0  0  0  0  0  0           0  0  0
    5.8792   -3.7667    0.0000 C   0  0  0  0  0  0           0  0  0
    6.5500   -2.6167    0.0000 C   0  0  0  0  0  0           0  0  0
    5.2167   -2.6167    0.0000 C   0  0  0  0  0  0           0  0  0
    4.5542    0.0208    0.0000 O   0  0  0  0  0  0           0  0  0
    5.2167   -3.3792    0.0000 C   0  0  0  0  0  0           0  0  0
    5.8792   -2.2292    0.0000 C   0  0  0  0  0  0           0  0  0
    2.3792   -1.0875    0.0000 C   0  0  0  0  0  0           0  0  0
    1.8375   -2.0375    0.0000 C   0  0  0  0  0  0           0  0  0
    8.5417   -3.7667    0.0000 C   0  0  0  0  0  0           0  0  0
    7.2167   -4.5417    0.0000 C   0  0  0  0  0  0           0  0  0
    5.3125    0.1833    0.0000 C   0  0  0  0  0  0           0  0  0
    2.9292   -0.5375    0.0000 C   0  0  0  0  0  0           0  0  0
    1.6292   -2.7792    0.0000 C   0  0  0  0  0  0           0  0  0
    8.5292   -4.5500    0.0000 C   0  0  0  0  0  0           0  0  0
    7.8625   -4.9167    0.0000 C   0  0  0  0  0  0           0  0  0
    5.5542    0.9125    0.0000 C   0  0  0  0  0  0           0  0  0
  2  1  1  0     0  0
  3  1  1  0     0  0
  4 11  1  0     0  0
  5  2  2  0     0  0
  6  7  2  0     0  0
  7  4  1  0     0  0
  8 10  1  0     0  0
  9  2  1  0     0  0
 10  4  2  0     0  0
 11 13  2  0     0  0
 12  3  1  0     0  0
 13 16  1  0     0  0
 14  5  1  0     0  0
 15  1  1  0     0  0
 16 20  2  0     0  0
 17  3  2  0     0  0
 18 14  2  0     0  0
 19 23  2  0     0  0
 20 24  1  0     0  0
 21 15  1  0     0  0
 22 14  1  0     0  0
 23 21  1  0     0  0
 24 21  2  0     0  0
 25  9  1  0     0  0
 26  9  1  0     0  0
 27 11  1  0     0  0
 28 13  1  0     0  0
 29 22  1  0     0  0
 30 25  1  0     0  0
 31 26  1  0     0  0
 32 33  1  0     0  0
 33 28  2  0     0  0
 34 29  1  0     0  0
 12  9  1  0     0  0
 16 19  1  0     0  0
 32 27  2  0     0  0
  6  8  1  0     0  0
M  END