
  SciTegic10311316262D

 29 31  0  0  0  0            999 V2000
   13.3847  -26.5332    0.0000 C   0  0
   13.3835  -27.3606    0.0000 C   0  0
   14.0983  -27.7734    0.0000 C   0  0
   14.8148  -27.3601    0.0000 C   0  0
   14.8119  -26.5296    0.0000 C   0  0
   14.0965  -26.1204    0.0000 C   0  0
   15.5248  -26.1144    0.0000 N   0  0
   16.2408  -26.5242    0.0000 C   0  0
   16.9537  -26.1090    0.0000 C   0  0
   16.2439  -27.3492    0.0000 O   0  0
   17.6698  -26.5188    0.0000 S   0  0
   18.3827  -26.1036    0.0000 C   0  0
   19.0986  -26.5166    0.0000 N   0  0
   19.8094  -26.1049    0.0000 C   0  0
   19.8105  -25.2795    0.0000 C   0  0
   19.0946  -24.8675    0.0000 C   0  0
   18.3776  -25.2809    0.0000 N   0  0
   19.0943  -24.0425    0.0000 O   0  0
   20.5257  -24.8713    0.0000 C   0  0
   21.2402  -24.4588    0.0000 N   0  0
   20.5222  -26.5165    0.0000 C   0  0
   20.5208  -27.3426    0.0000 C   0  0
   21.2344  -27.7551    0.0000 C   0  0
   21.9499  -27.3425    0.0000 C   0  0
   21.9472  -26.5133    0.0000 C   0  0
   21.2330  -26.1046    0.0000 C   0  0
   22.6649  -27.7541    0.0000 Cl  0  0
   12.6687  -27.7725    0.0000 C   0  0
   12.6701  -26.1209    0.0000 Cl  0  0
  1  2  2  0
  2  3  1  0
  3  4  2  0
  4  5  1  0
  5  6  2  0
  6  1  1  0
  5  7  1  0
  7  8  1  0
  8  9  1  0
  8 10  2  0
  9 11  1  0
 11 12  1  0
 12 13  2  0
 12 17  1  0
 13 14  1  0
 14 15  2  0
 15 16  1  0
 16 17  1  0
 16 18  2  0
 19 20  3  0
 15 19  1  0
 21 22  2  0
 22 23  1  0
 23 24  2  0
 24 25  1  0
 25 26  2  0
 26 21  1  0
 14 21  1  0
 24 27  1  0
  2 28  1  0
  1 29  1  0
M  END