
          11280714512D 1   1.00000     0.00000     0

 24 25  0     0  0            999 V2000
    6.8875   -3.5792    0.0000 C   0  0  0  0  0  0           0  0  0
    6.1667   -3.1667    0.0000 C   0  0  0  0  0  0           0  0  0
    1.1667   -1.9542    0.0000 O   0  0  0  0  0  0           0  0  0
    0.4542   -2.3667    0.0000 C   0  0  0  0  0  0           0  0  0
    6.8917   -4.4042    0.0000 O   0  0  0  0  0  0           0  0  0
    4.0250   -1.9417    0.0000 N   0  0  0  0  0  0           0  0  0
    0.4542   -3.2000    0.0000 C   0  0  0  0  0  0           0  0  0
    5.4542   -3.5875    0.0000 C   0  0  0  0  0  0           0  0  0
    6.1625   -2.3417    0.0000 C   0  0  0  0  0  0           0  0  0
    4.7417   -2.3542    0.0000 C   0  0  0  0  0  0           0  0  0
    2.5917   -1.9500    0.0000 C   0  0  3  0  0  0           0  0  0
    1.8792   -2.3625    0.0000 C   0  0  0  0  0  0           0  0  0
    3.3125   -2.3542    0.0000 C   0  0  0  0  0  0           0  0  0
    7.6000   -3.1667    0.0000 O   0  0  0  0  0  0           0  0  0
    5.4417   -1.9375    0.0000 C   0  0  0  0  0  0           0  0  0
    4.7417   -3.1792    0.0000 C   0  0  0  0  0  0           0  0  0
    2.5917   -1.1250    0.0000 O   0  0  0  0  0  0           0  0  0
   -0.2625   -1.9542    0.0000 C   0  0  0  0  0  0           0  0  0
    1.1667   -3.6125    0.0000 C   0  0  0  0  0  0           0  0  0
   -0.2625   -3.6125    0.0000 C   0  0  0  0  0  0           0  0  0
    8.3125   -3.5750    0.0000 C   0  0  0  0  0  0           0  0  0
    9.0250   -3.1542    0.0000 C   0  0  0  0  0  0           0  0  0
   -0.9750   -2.3750    0.0000 C   0  0  0  0  0  0           0  0  0
   -0.9750   -3.2000    0.0000 C   0  0  0  0  0  0           0  0  0
  2  1  1  0     0  0
  3 12  1  0     0  0
  4  3  1  0     0  0
  5  1  2  0     0  0
  6 10  1  0     0  0
  7  4  1  0     0  0
  8  2  2  0     0  0
  9  2  1  0     0  0
 10 15  1  0     0  0
 11 13  1  0     0  0
 12 11  1  0     0  0
 13  6  1  0     0  0
 14  1  1  0     0  0
 15  9  2  0     0  0
 16  8  1  0     0  0
 17 11  1  0     0  0
 18  4  2  0     0  0
 19  7  1  0     0  0
 20  7  2  0     0  0
 21 14  1  0     0  0
 22 21  1  0     0  0
 23 18  1  0     0  0
 24 23  2  0     0  0
 10 16  2  0     0  0
 24 20  1  0     0  0
M  END