
  SciTegic05161214222D

 56 59  0  0  0  0            999 V2000
    7.7919   -3.1046    0.0000 C   0  0
    8.5067   -2.6926    0.0000 C   0  0  2  0  0  0
    3.5125   -2.2875    0.0000 C   0  0
    3.5125   -3.1125    0.0000 C   0  0
    4.2246   -3.5209    0.0000 O   0  0
    4.9366   -3.1125    0.0000 C   0  0
    4.9366   -2.2875    0.0000 C   0  0
    4.2246   -1.8709    0.0000 C   0  0
    2.7948   -1.8823    0.0000 S   0  0
    2.3865   -2.5992    0.0000 O   0  0
    3.2115   -2.5944    0.0000 O   0  0
   -0.0722    3.0542    0.0000 C   0  0
   -0.0734    2.2268    0.0000 C   0  0
    0.6414    1.8139    0.0000 C   0  0
    0.6396    3.4669    0.0000 C   0  0
    1.3550    3.0578    0.0000 C   0  0
    1.3558    2.2310    0.0000 C   0  0
    2.0711    1.8200    0.0000 N   0  0
    2.7861    2.2348    0.0000 C   0  0
    2.7813    3.0647    0.0000 C   0  0
    2.0654    3.4720    0.0000 C   0  0
    3.5022    1.8250    0.0000 C   0  0
    2.0611    4.3031    0.0000 C   0  0
    0.6433    0.9889    0.0000 O   0  0
    1.3588    0.5781    0.0000 C   0  0
    1.3607   -0.2469    0.0000 C   0  0
    0.6446   -0.6567    0.0000 C   0  0
    0.6461   -1.4809    0.0000 C   0  0
    1.3621   -1.8926    0.0000 C   0  0
    2.0780   -1.4740    0.0000 C   0  0
    2.0729   -0.6511    0.0000 C   0  0
   -0.0695   -0.2435    0.0000 Cl  0  0
    2.7846   -0.2338    0.0000 Cl  0  0
    3.5069   -1.4656    0.0000 N   0  0
    4.9358   -1.4573    0.0000 C   0  0
    5.6515   -1.8676    0.0000 N   0  0
    4.9333   -0.6323    0.0000 O   0  0
    5.6505   -2.6926    0.0000 C   0  0
    6.3621   -3.1028    0.0000 C   0  0
    7.0777   -2.6916    0.0000 N   0  0
    7.0772   -1.8656    0.0000 C   0  0
    6.3610   -1.4509    0.0000 C   0  0
    7.7913   -3.9296    0.0000 O   0  0
    9.2208   -3.1056    0.0000 C   0  0
    9.9356   -2.6936    0.0000 C   0  0
   10.6498   -3.1066    0.0000 C   0  0
    8.5072   -1.8676    0.0000 N   0  0
   11.3645   -2.6946    0.0000 C   0  0
   12.0787   -3.1076    0.0000 N   0  0
   11.4097   -1.9613    0.0000 F   0  0
   12.1241   -1.5488    0.0000 C   0  0
   12.8386   -1.9613    0.0000 F   0  0
   12.1180   -2.3696    0.0000 F   0  0
   12.1272   -0.7238    0.0000 C   0  0
   12.8432   -0.3140    0.0000 O   0  0
   11.4143   -0.3086    0.0000 O   0  0
 24 25  1  0
 13 14  1  0
 25 26  1  0
 14 17  2  0
 26 27  2  0
  6  7  1  0
 27 28  1  0
 16 15  2  0
 28 29  2  0
 15 12  1  0
 29 30  1  0
  7  8  1  0
 30 31  2  0
 31 26  1  0
 10  9  2  0
 27 32  1  0
 16 17  1  0
 31 33  1  0
 30  9  1  0
  9 11  2  0
  9 34  1  0
 34  8  1  0
 17 18  1  0
  8 35  1  0
 35 36  1  0
 18 19  2  0
 35 37  2  0
 36 38  1  0
  1  2  1  0
 19 20  1  0
  3  4  1  0
 20 21  2  0
 21 16  1  0
 36 42  1  0
 38 39  1  0
 39 40  1  0
 40 41  1  0
 41 42  1  0
 40  1  1  0
  3  8  1  0
  1 43  2  0
 19 22  1  0
  2 44  1  0
  4  5  1  0
 44 45  1  0
 21 23  1  0
 45 46  1  0
 12 13  2  0
 14 24  1  0
  2 47  1  1
 46 48  1  0
  5  6  1  0
 48 49  1  0
 50 51  1  0
 51 53  1  0
 51 54  1  0
 51 52  1  0
 54 55  1  0
 54 56  2  0
M  END