
          11280715012D 1   1.00000     0.00000     0

 40 43  0     1  0            999 V2000
    5.5750   -6.3625    0.0000 N   0  0  0  0  0  0           0  0  0
    6.0667   -6.7167    0.0000 C   0  0  0  0  0  0           0  0  0
    5.0917   -6.7167    0.0000 C   0  0  1  0  0  0           0  0  0
    7.1875   -5.8167    0.0000 C   0  0  0  0  0  0           0  0  0
    7.1875   -6.4167    0.0000 C   0  0  0  0  0  0           0  0  0
    6.6667   -6.7167    0.0000 C   0  0  0  0  0  0           0  0  0
    5.8750   -7.2875    0.0000 O   0  0  0  0  0  0           0  0  0
    4.4917   -6.7167    0.0000 C   0  0  0  0  0  0           0  0  0
    5.2750   -7.2875    0.0000 C   0  0  0  0  0  0           0  0  0
   10.3000   -5.8167    0.0000 C   0  0  0  0  0  0           0  0  0
    6.6625   -5.5167    0.0000 C   0  0  0  0  0  0           0  0  0
    7.7000   -5.5167    0.0000 C   0  0  0  0  0  0           0  0  0
    4.1917   -6.1917    0.0000 O   0  0  0  0  0  0           0  0  0
    6.1417   -4.6167    0.0000 N   0  0  0  0  0  0           0  0  0
   10.3000   -6.4167    0.0000 O   0  0  0  0  0  0           0  0  0
    4.1875   -7.2292    0.0000 N   0  0  0  0  0  0           0  0  0
   10.8167   -5.5167    0.0000 O   0  0  0  0  0  0           0  0  0
    7.7000   -6.7167    0.0000 C   0  0  0  0  0  0           0  0  0
    6.6625   -4.9167    0.0000 C   0  0  0  0  0  0           0  0  0
    6.6667   -7.3167    0.0000 C   0  0  0  0  0  0           0  0  0
    9.7750   -5.5167    0.0000 C   0  0  0  0  0  0           0  0  0
    5.6250   -4.9250    0.0000 C   0  0  0  0  0  0           0  0  0
    1.7917   -6.1792    0.0000 C   0  0  3  0  0  0           0  0  0
    8.2250   -5.8167    0.0000 C   0  0  0  0  0  0           0  0  0
    6.1417   -5.8167    0.0000 C   0  0  0  0  0  0           0  0  0
    3.5875   -7.2292    0.0000 C   0  0  0  0  0  0           0  0  0
    2.3917   -6.1792    0.0000 C   0  0  0  0  0  0           0  0  0
    1.5000   -5.6542    0.0000 C   0  0  0  0  0  0           0  0  0
    1.4917   -6.7000    0.0000 C   0  0  0  0  0  0           0  0  0
    9.2625   -5.8167    0.0000 C   0  0  0  0  0  0           0  0  0
    8.7417   -5.5167    0.0000 C   0  0  0  0  0  0           0  0  0
    3.2917   -6.7042    0.0000 C   0  0  0  0  0  0           0  0  0
    2.6917   -6.7042    0.0000 C   0  0  0  0  0  0           0  0  0
    5.6250   -5.5167    0.0000 C   0  0  0  0  0  0           0  0  0
    7.7125   -7.3167    0.0000 C   0  0  0  0  0  0           0  0  0
    7.1875   -7.6167    0.0000 C   0  0  0  0  0  0           0  0  0
    0.8875   -6.6917    0.0000 C   0  0  0  0  0  0           0  0  0
    0.9000   -5.6542    0.0000 C   0  0  0  0  0  0           0  0  0
    0.6000   -6.1667    0.0000 C   0  0  0  0  0  0           0  0  0
    5.0875   -6.1167    0.0000 H   0  0  0  0  0  0           0  0  0
  2  1  2  0     0  0
  3  1  1  0     0  0
  4  5  1  0     0  0
  5  6  2  0     0  0
  6  2  1  0     0  0
  7  2  1  0     0  0
  8  3  1  0     0  0
  9  3  1  0     0  0
 10 21  1  0     0  0
 11  4  1  0     0  0
 12  4  2  0     0  0
 13  8  2  0     0  0
 14 19  2  0     0  0
 15 10  2  0     0  0
 16  8  1  0     0  0
 17 10  1  0     0  0
 18  5  1  0     0  0
 19 11  1  0     0  0
 20  6  1  0     0  0
 21 30  1  0     0  0
 22 34  2  0     0  0
 23 27  1  0     0  0
 24 12  1  0     0  0
 25 11  2  0     0  0
 26 16  1  0     0  0
 27 33  1  0     0  0
 28 23  1  0     0  0
 29 23  1  0     0  0
 30 31  1  0     0  0
 31 24  1  0     0  0
 32 26  1  0     0  0
 33 32  1  0     0  0
 34 25  1  0     0  0
 35 36  1  0     0  0
 36 20  2  0     0  0
 37 29  1  0     0  0
 38 28  1  0     0  0
 39 37  1  0     0  0
  3 40  1  1     0  0
  9  7  1  0     0  0
 35 18  2  0     0  0
 14 22  1  0     0  0
 38 39  1  0     0  0
M  END