
          11280714522D 1   1.00000     0.00000     0

 24 21  0     1  0            999 V2000
    1.0500   -0.8542    0.0000 C   0  0  2  0  0  0           0  0  0
   -0.3833   -0.8542    0.0000 P   0  0  3  0  0  0           0  0  0
    1.7542    0.3875    0.0000 C   0  0  0  0  0  0           0  0  0
    1.0500   -0.0292    0.0000 C   0  0  0  0  0  0           0  0  0
    2.4667   -0.8542    0.0000 C   0  0  2  0  0  0           0  0  0
    1.7542   -1.2625    0.0000 C   0  0  2  0  0  0           0  0  0
    3.9000   -0.8542    0.0000 C   0  0  0  0  0  0           0  0  0
    1.7542    1.2125    0.0000 C   0  0  0  0  0  0           0  0  0
    0.3292   -1.2667    0.0000 O   0  0  0  0  0  0           0  0  0
    3.1875   -1.2667    0.0000 O   0  0  0  0  0  0           0  0  0
    4.6167   -1.2667    0.0000 C   0  0  0  0  0  0           0  0  0
    2.4667   -0.0292    0.0000 C   0  0  0  0  0  0           0  0  0
   -0.3833   -1.6500    0.0000 O   0  5  0  0  0  0           0  0  0
   -0.3833   -0.0292    0.0000 O   0  0  0  0  0  0           0  0  0
    1.0417    1.6250    0.0000 O   0  5  0  0  0  0           0  0  0
    4.6125   -2.0917    0.0000 O   0  5  0  0  0  0           0  0  0
    2.4750    1.6250    0.0000 O   0  0  0  0  0  0           0  0  0
    5.3292   -0.8542    0.0000 O   0  0  0  0  0  0           0  0  0
    3.9042   -0.0292    0.0000 C   0  0  0  0  0  0           0  0  0
   -1.2583   -0.8375    0.0000 O   0  0  0  0  0  0           0  0  0
    1.7542   -2.0875    0.0000 O   0  0  0  0  0  0           0  0  0
    6.1667   -2.0250    0.0000 Na  0  3  0  0  0  0           0  0  0
    0.9917    2.8125    0.0000 Na  0  3  0  0  0  0           0  0  0
   -0.7583   -2.6792    0.0000 Na  0  3  0  0  0  0           0  0  0
  2  9  1  0     0  0
  3  4  2  0     0  0
  4  1  1  0     0  0
  5  6  1  0     0  0
  6  1  1  0     0  0
  7 10  1  0     0  0
  8  3  1  0     0  0
  1  9  1  6     0  0
  5 10  1  1     0  0
 11  7  1  0     0  0
 12  5  1  0     0  0
 13  2  1  0     0  0
 14  2  2  0     0  0
 15  8  1  0     0  0
 16 11  1  0     0  0
 17  8  2  0     0  0
 18 11  2  0     0  0
 19  7  2  0     0  0
 20  2  1  0     0  0
  6 21  1  6     0  0
 12  3  1  0     0  0
M  CHG  6  13  -1  15  -1  16  -1  22   1  23   1  24   1
M  END