
          11280715492D 1   1.00000     0.00000     0

 38 42  0     0  0            999 V2000
   -2.7750   -3.7375    0.0000 N   0  0  3  0  0  0           0  0  0
   -2.7750   -4.5625    0.0000 C   0  0  0  0  0  0           0  0  0
   -2.0630   -4.9708    0.0000 N   0  0  3  0  0  0           0  0  0
   -2.0630   -3.3208    0.0000 C   0  0  0  0  0  0           0  0  0
   -1.3510   -3.7375    0.0000 C   0  0  0  0  0  0           0  0  0
   -1.3510   -4.5635    0.0000 C   0  0  0  0  0  0           0  0  0
   -0.5654   -4.8189    0.0000 C   0  0  0  0  0  0           0  0  0
   -0.0798   -4.1506    0.0000 C   0  0  0  0  0  0           0  0  0
   -0.5653   -3.4823    0.0000 N   0  0  0  0  0  0           0  0  0
   -2.0630   -2.4958    0.0000 O   0  0  0  0  0  0           0  0  0
   -3.4889   -4.9760    0.0000 O   0  0  0  0  0  0           0  0  0
    0.7442   -4.1504    0.0000 C   0  0  0  0  0  0           0  0  0
    1.1561   -4.8666    0.0000 C   0  0  0  0  0  0           0  0  0
    1.9803   -4.8669    0.0000 C   0  0  0  0  0  0           0  0  0
    2.3937   -4.1519    0.0000 C   0  0  0  0  0  0           0  0  0
    1.9767   -3.4351    0.0000 C   0  0  0  0  0  0           0  0  0
    1.1539   -3.4382    0.0000 C   0  0  0  0  0  0           0  0  0
    3.2187   -4.1508    0.0000 O   0  0  0  0  0  0           0  0  0
    3.6321   -4.8647    0.0000 C   0  0  0  0  0  0           0  0  0
    4.4571   -4.8636    0.0000 C   0  0  0  0  0  0           0  0  0
    4.8705   -5.5776    0.0000 O   0  0  0  0  0  0           0  0  0
    4.8687   -4.1486    0.0000 N   0  0  0  0  0  0           0  0  0
   -3.4907   -3.3271    0.0000 C   0  0  0  0  0  0           0  0  0
   -2.0634   -5.7958    0.0000 C   0  0  0  0  0  0           0  0  0
   -4.2039   -3.7417    0.0000 C   0  0  0  0  0  0           0  0  0
    5.6937   -4.1475    0.0000 C   0  0  0  0  0  0           0  0  0
    6.1027   -4.8633    0.0000 C   0  0  0  0  0  0           0  0  0
    6.9269   -4.8626    0.0000 C   0  0  0  0  0  0           0  0  0
    6.0985   -3.4350    0.0000 C   0  0  0  0  0  0           0  0  0
   -4.9196   -3.3313    0.0000 C   0  0  0  0  0  0           0  0  0
    6.9214   -3.4307    0.0000 C   0  0  0  0  0  0           0  0  0
    7.3376   -4.1445    0.0000 C   0  0  0  0  0  0           0  0  0
    8.1595   -4.1387    0.0000 C   0  0  0  0  0  0           0  0  0
    8.5743   -4.8531    0.0000 C   0  0  0  0  0  0           0  0  0
    9.3986   -4.8500    0.0000 C   0  0  0  0  0  0           0  0  0
    9.8089   -4.1333    0.0000 C   0  0  0  0  0  0           0  0  0
    9.3890   -3.4182    0.0000 C   0  0  0  0  0  0           0  0  0
    8.5661   -3.4248    0.0000 C   0  0  0  0  0  0           0  0  0
 15 18  1  0     0  0
  8  9  1  0     0  0
 18 19  1  0     0  0
  9  5  1  0     0  0
 19 20  1  0     0  0
  5  4  1  0     0  0
 20 21  2  0     0  0
  4 10  2  0     0  0
 20 22  1  0     0  0
  5  6  2  0     0  0
  1 23  1  0     0  0
  2 11  2  0     0  0
  3 24  1  0     0  0
 23 25  1  0     0  0
  1  2  1  0     0  0
 22 26  1  0     0  0
 12 13  2  0     0  0
 26 27  2  0     0  0
  1  4  1  0     0  0
 27 28  1  0     0  0
 28 32  2  0     0  0
 13 14  1  0     0  0
 31 29  2  0     0  0
 29 26  1  0     0  0
  2  3  1  0     0  0
 25 30  1  0     0  0
 14 15  2  0     0  0
  3  6  1  0     0  0
 31 32  1  0     0  0
 15 16  1  0     0  0
  6  7  1  0     0  0
 33 34  2  0     0  0
 16 17  2  0     0  0
 34 35  1  0     0  0
 17 12  1  0     0  0
 35 36  2  0     0  0
  8 12  1  0     0  0
 36 37  1  0     0  0
  7  8  2  0     0  0
 37 38  2  0     0  0
 38 33  1  0     0  0
 32 33  1  0     0  0
M  END