
          05080814042D 1   1.00000     0.00000     0

 38 42  0     1  0            999 V2000
    5.8640    2.0426    0.0000 C   0  0  0  0  0  0           0  0  0
    5.8628    1.2165    0.0000 C   0  0  0  0  0  0           0  0  0
    6.5765    0.8043    0.0000 C   0  0  0  0  0  0           0  0  0
    6.5747    2.4546    0.0000 C   0  0  0  0  0  0           0  0  0
    7.2889    2.0462    0.0000 C   0  0  0  0  0  0           0  0  0
    7.2923    1.2144    0.0000 C   0  0  0  0  0  0           0  0  0
    8.0103    0.8038    0.0000 C   0  0  0  0  0  0           0  0  0
    8.0036    2.4673    0.0000 C   0  0  0  0  0  0           0  0  0
    8.7262    2.0521    0.0000 C   0  0  2  0  0  0           0  0  0
    8.7272    1.2187    0.0000 C   0  0  2  0  0  0           0  0  0
    9.4455    0.8052    0.0000 N   0  0  3  0  0  0           0  0  0
   10.1673    1.2205    0.0000 C   0  0  0  0  0  0           0  0  0
   10.1662    2.0540    0.0000 C   0  0  1  0  0  0           0  0  0
    9.4434    2.4720    0.0000 C   0  0  0  0  0  0           0  0  0
    9.4454   -0.0185    0.0000 C   0  0  0  0  0  0           0  0  0
   10.8795    2.4659    0.0000 C   0  0  0  0  0  0           0  0  0
   11.5929    2.0543    0.0000 N   0  0  3  0  0  0           0  0  0
   10.8793    3.2895    0.0000 O   0  0  0  0  0  0           0  0  0
   11.5873    1.2259    0.0000 C   0  0  0  0  0  0           0  0  0
   12.2967    0.8144    0.0000 C   0  0  0  0  0  0           0  0  0
   13.0123    1.2228    0.0000 N   0  0  3  0  0  0           0  0  0
   13.0141    2.0475    0.0000 C   0  0  0  0  0  0           0  0  0
   12.3002    2.4636    0.0000 C   0  0  0  0  0  0           0  0  0
    8.7191    0.3952    0.0000 H   0  0  0  0  0  0           0  0  0
    8.7191    2.8786    0.0000 H   0  0  0  0  0  0           0  0  0
    6.5721    3.2788    0.0000 O   0  0  0  0  0  0           0  0  0
    5.8576    3.6885    0.0000 C   0  0  3  0  0  0           0  0  0
   13.7241    0.8085    0.0000 C   0  0  0  0  0  0           0  0  0
   13.7178   -0.0136    0.0000 C   0  0  0  0  0  0           0  0  0
   14.4288   -0.4278    0.0000 C   0  0  0  0  0  0           0  0  0
   15.1445   -0.0184    0.0000 C   0  0  0  0  0  0           0  0  0
   15.1448    0.8095    0.0000 C   0  0  0  0  0  0           0  0  0
   14.4332    1.2200    0.0000 C   0  0  0  0  0  0           0  0  0
   15.8622   -0.4330    0.0000 N   0  3  0  0  0  0           0  0  0
   16.5765   -0.0227    0.0000 O   0  0  0  0  0  0           0  0  0
   15.8604   -1.2567    0.0000 O   0  5  0  0  0  0           0  0  0
    5.8551    4.5148    0.0000 C   0  0  0  0  0  0           0  0  0
    5.1454    3.2746    0.0000 C   0  0  0  0  0  0           0  0  0
 17 19  1  0     0  0
  9  8  1  0     0  0
  9 10  1  0     0  0
  5  4  2  0     0  0
  4  1  1  0     0  0
  5  6  1  0     0  0
 17 23  1  0     0  0
 19 20  1  0     0  0
 20 21  1  0     0  0
 21 22  1  0     0  0
 22 23  1  0     0  0
 10 24  1  1     0  0
  2  3  1  0     0  0
  9 25  1  6     0  0
  3  6  2  0     0  0
  9 14  1  0     0  0
 10 11  1  0     0  0
 26 27  1  0     0  0
  4 26  1  0     0  0
 11 12  1  0     0  0
 21 28  1  0     0  0
 12 13  1  0     0  0
 28 29  2  0     0  0
 13 14  1  0     0  0
 29 30  1  0     0  0
  1  2  2  0     0  0
 30 31  2  0     0  0
 11 15  1  0     0  0
 31 32  1  0     0  0
  5  8  1  0     0  0
 32 33  2  0     0  0
 33 28  1  0     0  0
 13 16  1  1     0  0
  6  7  1  0     0  0
 16 17  1  0     0  0
 34 35  2  0     0  0
 34 36  1  0     0  0
 31 34  1  0     0  0
  7 10  1  0     0  0
 27 37  1  0     0  0
 16 18  2  0     0  0
 27 38  1  0     0  0
M  CHG  2  34   1  36  -1
M  END