
          11280714492D 1   1.00000     0.00000     0

 20 20  0     0  0            999 V2000
    1.9792   -1.9542    0.0000 C   0  0  3  0  0  0           0  0  0
    1.4542   -2.8542    0.0000 C   0  0  0  0  0  0           0  0  0
    1.4625   -3.6250    0.0000 N   0  0  0  0  0  0           0  0  0
    4.3917   -4.0917    0.0000 N   0  0  0  0  0  0           0  0  0
    1.9792   -2.5542    0.0000 C   0  0  0  0  0  0           0  0  0
    4.9167   -3.7917    0.0000 C   0  0  3  0  0  0           0  0  0
    2.3167   -4.0917    0.0000 O   0  0  0  0  0  0           0  0  0
    1.4625   -1.6542    0.0000 C   0  0  0  0  0  0           0  0  0
    0.9417   -2.5542    0.0000 C   0  0  0  0  0  0           0  0  0
    0.9417   -1.9542    0.0000 C   0  0  3  0  0  0           0  0  0
    3.3542   -4.0917    0.0000 C   0  0  3  0  0  0           0  0  0
    3.8750   -3.7917    0.0000 C   0  0  0  0  0  0           0  0  0
    2.8375   -3.7917    0.0000 C   0  0  0  0  0  0           0  0  0
    3.3542   -4.6917    0.0000 O   0  0  0  0  0  0           0  0  0
    2.5042   -1.6542    0.0000 C   0  0  0  0  0  0           0  0  0
    2.5625   -2.1125    0.0000 C   0  0  0  0  0  0           0  0  0
    5.4292   -3.4917    0.0000 C   0  0  0  0  0  0           0  0  0
    5.4292   -4.0917    0.0000 C   0  0  0  0  0  0           0  0  0
    4.9167   -3.1917    0.0000 C   0  0  0  0  0  0           0  0  0
    0.4250   -1.6500    0.0000 C   0  0  0  0  0  0           0  0  0
  2  5  1  0     0  0
  3  2  2  0     0  0
  4 12  1  0     0  0
  5  1  1  0     0  0
  6  4  1  0     0  0
  7  3  1  0     0  0
  8  1  1  0     0  0
  9 10  1  0     0  0
 10  8  1  0     0  0
 11 13  1  0     0  0
 12 11  1  0     0  0
 13  7  1  0     0  0
 14 11  1  0     0  0
 15  1  1  0     0  0
 16  1  1  0     0  0
 17  6  1  0     0  0
 18  6  1  0     0  0
 19  6  1  0     0  0
 20 10  1  0     0  0
  9  2  1  0     0  0
M  END