
  Mrv0541 04051115152D          

 54 57  0  0  0  0            999 V2000
   -1.8608    2.6303    0.0000 C   0  0  0  0  0  0  0  0  0  0  0  0
   -2.6308    2.9267    0.0000 C   0  0  0  0  0  0  0  0  0  0  0  0
   -2.7591    3.7416    0.0000 C   0  0  0  0  0  0  0  0  0  0  0  0
   -2.1175    4.2602    0.0000 C   0  0  0  0  0  0  0  0  0  0  0  0
   -1.3475    3.9639    0.0000 C   0  0  0  0  0  0  0  0  0  0  0  0
   -1.2192    3.1489    0.0000 C   0  0  0  0  0  0  0  0  0  0  0  0
    1.8605   -2.6299    0.0000 C   0  0  0  0  0  0  0  0  0  0  0  0
    2.6305   -2.9262    0.0000 C   0  0  0  0  0  0  0  0  0  0  0  0
    2.7588   -3.7412    0.0000 C   0  0  0  0  0  0  0  0  0  0  0  0
    2.1172   -4.2598    0.0000 C   0  0  0  0  0  0  0  0  0  0  0  0
    1.3472   -3.9634    0.0000 C   0  0  0  0  0  0  0  0  0  0  0  0
    1.2189   -3.1485    0.0000 C   0  0  0  0  0  0  0  0  0  0  0  0
    1.7322   -1.8149    0.0000 C   0  0  0  0  0  0  0  0  0  0  0  0
    0.9623   -1.5186    0.0000 O   0  0  0  0  0  0  0  0  0  0  0  0
    0.8339   -0.7036    0.0000 C   0  0  2  0  0  0  0  0  0  0  0  0
    0.0640   -0.4073    0.0000 C   0  0  1  0  0  0  0  0  0  0  0  0
   -0.0643    0.4077    0.0000 C   0  0  2  0  0  0  0  0  0  0  0  0
   -0.8342    0.7041    0.0000 C   0  0  2  0  0  0  0  0  0  0  0  0
   -1.4759    0.1854    0.0000 C   0  0  0  0  0  0  0  0  0  0  0  0
   -1.3475   -0.6295    0.0000 O   0  0  0  0  0  0  0  0  0  0  0  0
   -2.2458    0.4818    0.0000 N   0  0  0  0  0  0  0  0  0  0  0  0
   -2.8874   -0.0368    0.0000 C   0  0  1  0  0  0  0  0  0  0  0  0
   -2.7591   -0.8518    0.0000 C   0  0  0  0  0  0  0  0  0  0  0  0
   -3.4007   -1.3704    0.0000 C   0  0  0  0  0  0  0  0  0  0  0  0
   -1.9892   -1.1481    0.0000 C   0  0  0  0  0  0  0  0  0  0  0  0
   -3.6573    0.2595    0.0000 C   0  0  0  0  0  0  0  0  0  0  0  0
   -3.7857    1.0745    0.0000 O   0  0  0  0  0  0  0  0  0  0  0  0
   -4.2990   -0.2591    0.0000 N   0  0  0  0  0  0  0  0  0  0  0  0
   -5.0689    0.0373    0.0000 C   0  0  0  0  0  0  0  0  0  0  0  0
   -0.9626    1.5190    0.0000 O   0  0  0  0  0  0  0  0  0  0  0  0
   -1.7325    1.8154    0.0000 C   0  0  0  0  0  0  0  0  0  0  0  0
    0.5773    0.9263    0.0000 O   0  0  0  0  0  0  0  0  0  0  0  0
   -0.5776   -0.9259    0.0000 O   0  0  0  0  0  0  0  0  0  0  0  0
    1.4756   -0.1850    0.0000 C   0  0  0  0  0  0  0  0  0  0  0  0
    1.3472    0.6300    0.0000 O   0  0  0  0  0  0  0  0  0  0  0  0
    2.2455   -0.4813    0.0000 N   0  0  0  0  0  0  0  0  0  0  0  0
    2.8871    0.0373    0.0000 C   0  0  1  0  0  0  0  0  0  0  0  0
    2.7588    0.8522    0.0000 C   0  0  0  0  0  0  0  0  0  0  0  0
    3.4004    1.3708    0.0000 C   0  0  0  0  0  0  0  0  0  0  0  0
    1.9889    1.1486    0.0000 C   0  0  0  0  0  0  0  0  0  0  0  0
    3.6571   -0.2591    0.0000 C   0  0  0  0  0  0  0  0  0  0  0  0
    3.7854   -1.0740    0.0000 O   0  0  0  0  0  0  0  0  0  0  0  0
    4.2987    0.2595    0.0000 N   0  0  0  0  0  0  0  0  0  0  0  0
    5.0686   -0.0368    0.0000 C   0  0  0  0  0  0  0  0  0  0  0  0
   -2.0358    6.3935    0.0000 S   0  0  0  0  0  0  0  0  0  0  0  0
   -2.8507    6.2651    0.0000 C   0  0  0  0  0  0  0  0  0  0  0  0
   -2.9805    5.4504    0.0000 C   0  0  0  0  0  0  0  0  0  0  0  0
   -2.2458    5.0752    0.0000 C   0  0  0  0  0  0  0  0  0  0  0  0
   -1.6619    5.6580    0.0000 C   0  0  0  0  0  0  0  0  0  0  0  0
    2.8504   -6.2647    0.0000 S   0  0  0  0  0  0  0  0  0  0  0  0
    2.9802   -5.4499    0.0000 C   0  0  0  0  0  0  0  0  0  0  0  0
    2.2455   -5.0747    0.0000 C   0  0  0  0  0  0  0  0  0  0  0  0
    1.6616   -5.6576    0.0000 C   0  0  0  0  0  0  0  0  0  0  0  0
    2.0355   -6.3930    0.0000 C   0  0  0  0  0  0  0  0  0  0  0  0
  1  2  2  0  0  0  0
  1  6  1  0  0  0  0
  1 31  1  0  0  0  0
  2  3  1  0  0  0  0
  3  4  2  0  0  0  0
  4  5  1  0  0  0  0
  4 48  1  0  0  0  0
  5  6  2  0  0  0  0
  7  8  2  0  0  0  0
 12  7  1  0  0  0  0
 13  7  1  0  0  0  0
  8  9  1  0  0  0  0
 10  9  2  0  0  0  0
 10 11  1  0  0  0  0
 10 52  1  0  0  0  0
 11 12  2  0  0  0  0
 13 14  1  0  0  0  0
 15 14  1  6  0  0  0
 15 16  1  0  0  0  0
 15 34  1  0  0  0  0
 16 17  1  0  0  0  0
 16 33  1  6  0  0  0
 17 18  1  0  0  0  0
 17 32  1  6  0  0  0
 18 19  1  0  0  0  0
 18 30  1  6  0  0  0
 19 20  2  0  0  0  0
 19 21  1  0  0  0  0
 22 21  1  1  0  0  0
 22 23  1  0  0  0  0
 22 26  1  0  0  0  0
 23 24  1  0  0  0  0
 23 25  1  0  0  0  0
 26 27  2  0  0  0  0
 26 28  1  0  0  0  0
 29 28  1  0  0  0  0
 31 30  1  0  0  0  0
 34 35  2  0  0  0  0
 34 36  1  0  0  0  0
 37 36  1  1  0  0  0
 37 38  1  0  0  0  0
 37 41  1  0  0  0  0
 38 39  1  0  0  0  0
 38 40  1  0  0  0  0
 41 42  2  0  0  0  0
 41 43  1  0  0  0  0
 44 43  1  0  0  0  0
 46 45  1  0  0  0  0
 49 45  1  0  0  0  0
 46 47  2  0  0  0  0
 47 48  1  0  0  0  0
 48 49  2  0  0  0  0
 51 50  1  0  0  0  0
 54 50  1  0  0  0  0
 51 52  2  0  0  0  0
 52 53  1  0  0  0  0
 53 54  2  0  0  0  0
M  END