
          08180812472D 1   1.00000     0.00000     0

 26 29  0     1  0            999 V2000
   -4.9669  -21.4444    0.0000 C   0  0  1  0  0  0           0  0  0
   -4.9669  -20.6194    0.0000 C   0  0  0  0  0  0           0  0  0
   -4.2528  -20.2069    0.0000 C   0  0  0  0  0  0           0  0  0
   -4.2528  -21.8569    0.0000 C   0  0  0  0  0  0           0  0  0
   -3.5341  -21.4444    0.0000 C   0  0  2  0  0  0           0  0  0
   -2.8200  -21.8569    0.0000 C   0  0  0  0  0  0           0  0  0
   -2.1058  -21.4444    0.0000 C   0  0  2  0  0  0           0  0  0
   -2.1058  -20.6194    0.0000 C   0  0  1  0  0  0           0  0  0
   -1.3917  -20.2069    0.0000 C   0  0  2  0  0  0           0  0  0
   -0.6065  -20.4622    0.0000 C   0  0  0  0  0  0           0  0  0
   -0.1237  -19.7944    0.0000 C   0  0  0  0  0  0           0  0  0
   -0.6065  -19.1266    0.0000 C   0  0  1  0  0  0           0  0  0
   -1.3917  -19.3819    0.0000 C   0  0  2  0  0  0           0  0  0
   -1.3917  -18.5569    0.0000 C   0  0  0  0  0  0           0  0  0
   -2.1058  -18.9694    0.0000 C   0  0  0  0  0  0           0  0  0
   -2.8200  -19.3819    0.0000 C   0  0  0  0  0  0           0  0  0
   -2.8200  -20.2069    0.0000 C   0  0  2  0  0  0           0  0  0
   -3.5341  -20.6194    0.0000 C   0  0  1  0  0  0           0  0  0
   -3.5341  -19.7944    0.0000 C   0  0  0  0  0  0           0  0  0
   -2.8200  -21.0319    0.0000 H   0  0  0  0  0  0           0  0  0
   -2.1058  -19.7944    0.0000 H   0  0  0  0  0  0           0  0  0
   -1.3917  -21.0319    0.0000 H   0  0  0  0  0  0           0  0  0
   -0.3507  -18.3423    0.0000 O   0  0  0  0  0  0           0  0  0
   -5.6814  -21.8568    0.0000 O   0  0  0  0  0  0           0  0  0
   -1.3913  -21.8568    0.0000 C   0  0  0  0  0  0           0  0  0
   -3.5429  -22.2659    0.0000 H   0  0  0  0  0  0           0  0  0
  4  5  1  0     0  0
  5  6  1  0     0  0
  6  7  1  0     0  0
  7  8  1  0     0  0
  8  9  1  0     0  0
  9 10  1  0     0  0
 10 11  1  0     0  0
 11 12  1  0     0  0
 12 13  1  0     0  0
  9 13  1  0     0  0
 13 14  1  1     0  0
 13 15  1  0     0  0
 15 16  1  0     0  0
 16 17  1  0     0  0
  8 17  1  0     0  0
 17 18  1  0     0  0
  3 18  1  0     0  0
  5 18  1  0     0  0
 18 19  1  1     0  0
 17 20  1  6     0  0
  8 21  1  1     0  0
  9 22  1  6     0  0
 12 23  1  1     0  0
  1  2  1  0     0  0
  1 24  1  1     0  0
  2  3  1  0     0  0
  7 25  1  6     0  0
  1  4  1  0     0  0
  5 26  1  6     0  0
M  END