
          11280714442D 1   1.00000     0.00000     0

 19 22  0     0  0            999 V2000
   -0.0333   -0.4917    0.0000 C   0  0  0  0  0  0           0  0  0
   -0.7458   -0.0875    0.0000 C   0  0  0  0  0  0           0  0  0
    0.6750   -0.0792    0.0000 C   0  0  0  0  0  0           0  0  0
   -1.4500   -0.5042    0.0000 C   0  0  0  0  0  0           0  0  0
   -0.0333   -1.3042    0.0000 C   0  0  0  0  0  0           0  0  0
   -0.7500    0.7250    0.0000 C   0  0  0  0  0  0           0  0  0
    0.6667    0.7375    0.0000 C   0  0  0  0  0  0           0  0  0
    1.3875   -0.4792    0.0000 C   0  0  0  0  0  0           0  0  0
   -0.0458    1.1458    0.0000 C   0  0  0  0  0  0           0  0  0
   -1.4500   -1.3292    0.0000 C   0  0  0  0  0  0           0  0  0
   -0.7333   -1.7417    0.0000 C   0  0  0  0  0  0           0  0  0
    1.3750    1.1500    0.0000 C   0  0  0  0  0  0           0  0  0
    2.0917   -0.0667    0.0000 C   0  0  0  0  0  0           0  0  0
    2.0792    0.7500    0.0000 C   0  0  0  0  0  0           0  0  0
    2.8042   -0.4792    0.0000 O   0  0  0  0  0  0           0  0  0
   -2.1708   -0.0917    0.0000 C   0  0  0  0  0  0           0  0  0
   -2.1708   -1.7417    0.0000 C   0  0  0  0  0  0           0  0  0
   -2.8833   -0.5042    0.0000 C   0  0  0  0  0  0           0  0  0
   -2.8833   -1.3292    0.0000 C   0  0  0  0  0  0           0  0  0
  2  1  2  0     0  0
  3  1  1  0     0  0
  4  2  1  0     0  0
  5  1  1  0     0  0
  6  2  1  0     0  0
  7  3  2  0     0  0
  8  3  1  0     0  0
  9  7  1  0     0  0
 10 11  1  0     0  0
 11  5  2  0     0  0
 12  7  1  0     0  0
 13  8  2  0     0  0
 14 13  1  0     0  0
 15 13  1  0     0  0
 16  4  2  0     0  0
 17 10  2  0     0  0
 18 16  1  0     0  0
 19 17  1  0     0  0
  4 10  1  0     0  0
  6  9  2  0     0  0
 14 12  2  0     0  0
 18 19  2  0     0  0
M  END