
  SciTegic06051313522D

 23 25  0  0  0  0            999 V2000
   29.8770  -11.5769    0.0000 O   0  0
   29.4725  -12.2868    0.0000 S   0  0
   30.2896  -12.2821    0.0000 O   0  0
   29.4764  -14.7451    0.0000 C   0  0
   30.1861  -14.3357    0.0000 C   0  0
   30.1832  -13.5130    0.0000 C   0  0
   29.4746  -13.1078    0.0000 C   0  0
   30.8894  -13.1018    0.0000 N   0  0
   31.5986  -13.5077    0.0000 C   0  0
   28.7683  -14.3362    0.0000 C   0  0
   28.7696  -13.5151    0.0000 C   0  0
   27.9891  -13.2602    0.0000 N   0  0
   27.5054  -13.9238    0.0000 O   0  0
   27.9871  -14.5887    0.0000 N   0  0
   31.5984  -14.3226    0.0000 C   0  0
   32.3068  -14.7284    0.0000 C   0  0
   33.0139  -14.3171    0.0000 C   0  0
   33.0082  -13.4957    0.0000 C   0  0
   32.2992  -13.0935    0.0000 C   0  0
   33.7129  -13.0819    0.0000 F   0  0
   32.3095  -15.5456    0.0000 Cl  0  0
   28.7642  -11.8835    0.0000 N   0  0
   28.7624  -11.0664    0.0000 C   0  0
  2  1  2  0
  3  2  2  0
 10  4  1  0
  4  5  2  0
  5  6  1  0
  6  7  2  0
  7 11  1  0
  6  8  1  0
  8  9  1  0
 10 11  1  0
 11 12  2  0
 12 13  1  0
 13 14  1  0
 14 10  2  0
  9 15  2  0
 15 16  1  0
 16 17  2  0
 17 18  1  0
 18 19  2  0
 19  9  1  0
 18 20  1  0
 16 21  1  0
  7  2  1  0
  2 22  1  0
 22 23  1  0
M  END