
  CDK    9/16/09,9:58

 21 24  0  0  0  0  0  0  0  0999 V2000
   -5.3416  -14.3562    0.0000 C   0  0  0  0  0  0  0  0  0  0  0  0
   -5.3429  -15.1838    0.0000 C   0  0  0  0  0  0  0  0  0  0  0  0
   -4.6298  -15.5968    0.0000 C   0  0  0  0  0  0  0  0  0  0  0  0
   -4.6318  -13.9433    0.0000 C   0  0  0  0  0  0  0  0  0  0  0  0
   -3.9136  -14.3521    0.0000 C   0  0  0  0  0  0  0  0  0  0  0  0
   -3.9130  -15.1792    0.0000 C   0  0  0  0  0  0  0  0  0  0  0  0
   -3.1262  -15.4343    0.0000 N   0  0  0  0  0  0  0  0  0  0  0  0
   -2.6406  -14.7649    0.0000 C   0  0  0  0  0  0  0  0  0  0  0  0
   -3.1272  -14.0961    0.0000 N   0  0  0  0  0  0  0  0  0  0  0  0
   -1.8155  -14.7642    0.0000 N   0  0  0  0  0  0  0  0  0  0  0  0
   -1.4024  -15.4785    0.0000 C   0  0  0  0  0  0  0  0  0  0  0  0
   -1.8149  -16.1897    0.0000 C   0  0  0  0  0  0  0  0  0  0  0  0
   -1.4054  -16.9018    0.0000 C   0  0  0  0  0  0  0  0  0  0  0  0
   -0.5800  -16.9056    0.0000 C   0  0  0  0  0  0  0  0  0  0  0  0
   -0.5769  -15.4725    0.0000 C   0  0  0  0  0  0  0  0  0  0  0  0
   -0.1689  -16.1893    0.0000 C   0  0  0  0  0  0  0  0  0  0  0  0
    0.6541  -16.1934    0.0000 C   0  0  0  0  0  0  0  0  0  0  0  0
    1.0699  -15.4813    0.0000 C   0  0  0  0  0  0  0  0  0  0  0  0
    0.6569  -14.7637    0.0000 C   0  0  0  0  0  0  0  0  0  0  0  0
   -0.1648  -14.7632    0.0000 C   0  0  0  0  0  0  0  0  0  0  0  0
    1.0701  -14.0496    0.0000 C   0  0  0  0  0  0  0  0  0  0  0  0
  8 10  1  0  0  0  0 
  5  6  1  0  0  0  0 
 10 11  1  0  0  0  0 
 11 12  1  0  0  0  0 
  2  3  1  0  0  0  0 
  3  6  2  0  0  0  0 
 11 15  1  0  0  0  0 
 12 13  1  0  0  0  0 
 13 14  1  0  0  0  0 
 14 16  1  0  0  0  0 
  1  2  2  0  0  0  0 
  5  4  2  0  0  0  0 
 15 16  2  0  0  0  0 
  6  7  1  0  0  0  0 
 16 17  1  0  0  0  0 
  7  8  1  0  0  0  0 
 17 18  2  0  0  0  0 
  8  9  2  0  0  0  0 
 18 19  1  0  0  0  0 
  9  5  1  0  0  0  0 
 19 20  2  0  0  0  0 
 20 15  1  0  0  0  0 
  4  1  1  0  0  0  0 
 19 21  1  0  0  0  0 
M  END