
  SciTegic11201309402D

 69 72  0  0  1  0            999 V2000
    1.8917    1.9625    0.0000 N   0  0
    3.3042    1.1458    0.0000 C   0  0
    3.6292   -1.9417    0.0000 N   0  0
    3.7542    0.4583    0.0000 N   0  0
   -0.4250    1.3458    0.0000 N   0  0
    1.0667    2.0083    0.0000 C   0  0
    3.9292   -1.1667    0.0000 C   0  0
   -0.9458    0.6958    0.0000 C   0  0
    3.1125   -2.5875    0.0000 C   0  0  1  0  0  0
    2.6667    1.6625    0.0000 C   0  0  2  0  0  0
    3.9750   -0.3417    0.0000 C   0  0  1  0  0  0
   -1.2833   -0.9000    0.0000 N   0  0
    0.2667    1.7958    0.0000 C   0  0  1  0  0  0
   -1.0708   -1.6917    0.0000 C   0  0
   -1.2458   -0.0750    0.0000 C   0  0  2  0  0  0
    4.7917   -0.2542    0.0000 C   0  0
    3.6667   -3.2000    0.0000 C   0  0
   -0.6208   -2.3917    0.0000 C   0  0
    1.6167   -3.2500    0.0000 S   0  0
    0.8167   -3.2542    0.0000 S   0  0
    7.2042   -4.0875    0.0000 C   0  0
    5.4792   -0.7500    0.0000 C   0  0
    0.0167   -2.9042    0.0000 C   0  0
    3.9250    1.7000    0.0000 O   0  0
    0.9167    2.6208    0.0000 O   0  0
   -1.6625    1.1125    0.0000 O   0  0
    4.7375   -1.3417    0.0000 O   0  0
    2.4167   -3.0375    0.0000 C   0  0
   -2.0500    0.1000    0.0000 C   0  0
   -0.0708    2.5458    0.0000 C   0  0
   -1.8333   -2.0292    0.0000 O   0  0
    3.4042   -3.9875    0.0000 O   0  0
    7.6167   -3.3667    0.0000 O   0  0
    5.2917   -1.3750    0.0000 O   0  0
    4.4750   -3.0292    0.0000 N   0  0
    6.3875   -4.0875    0.0000 N   0  0
    7.6167   -4.8000    0.0000 C   0  0  2  0  0  0
    3.0792    2.3833    0.0000 C   0  0
    6.3000   -0.6625    0.0000 N   0  0
   -2.7708   -0.3042    0.0000 C   0  0
   -4.2083   -1.1167    0.0000 C   0  0
    8.4417   -4.8000    0.0000 N   0  0
    0.4167    3.2208    0.0000 C   0  0
   -3.4833    0.1125    0.0000 C   0  0
   -2.7708   -1.1292    0.0000 C   0  0
    4.7292   -6.9417    0.0000 N   0  0
   -3.4875   -1.5375    0.0000 C   0  0
   -4.1958   -0.2917    0.0000 C   0  0
   -4.9208   -1.5292    0.0000 O   0  0
    0.4917   -3.5292    0.0000 C   0  0
   -0.7500   -2.8125    0.0000 C   0  0
    5.0250   -3.6417    0.0000 C   0  0
    5.8292   -3.4667    0.0000 C   0  0
    5.1417   -6.2292    0.0000 C   0  0
    7.2042   -5.5125    0.0000 C   0  0
    2.6667    3.1083    0.0000 C   0  0
    3.9042    2.3833    0.0000 C   0  0
   -4.9250   -2.3542    0.0000 C   0  0
    1.2417    3.1333    0.0000 C   0  0
    0.0792    3.9708    0.0000 C   0  0
    5.9667   -6.2292    0.0000 C   0  0
    6.3792   -5.5125    0.0000 C   0  0
   -4.2208   -2.7667    0.0000 C   0  0
   -1.1625   -3.5292    0.0000 C   0  0
    0.0750   -4.2417    0.0000 C   0  0
    1.7250    3.8000    0.0000 C   0  0
    0.5667    4.6417    0.0000 C   0  0
   -0.7500   -4.2417    0.0000 C   0  0
    1.3875    4.5542    0.0000 C   0  0
  2 10  1  0
  3  7  1  0
  4  2  1  0
  5 13  1  0
  6  1  1  0
  7 11  1  0
  8  5  1  0
  9  3  1  0
 10  1  1  0
 11  4  1  0
 12 15  1  0
 13  6  1  0
 14 12  1  0
 15  8  1  0
 11 16  1  6
  9 17  1  1
 18 14  1  0
 19 28  1  0
 20 19  1  0
 21 36  1  0
 22 16  1  0
 23 18  1  0
 24  2  2  0
 25  6  2  0
 26  8  2  0
 27  7  2  0
  9 28  1  0
 15 29  1  6
 13 30  1  6
 31 14  2  0
 32 17  2  0
 33 21  2  0
 34 22  2  0
 35 17  1  0
 36 53  1  0
 37 21  1  0
 10 38  1  1
 39 22  1  0
 40 29  1  0
 41 47  1  0
 37 42  1  6
 43 30  1  0
 44 40  2  0
 45 40  1  0
 46 54  1  0
 47 45  2  0
 48 44  1  0
 49 41  1  0
 50 23  1  0
 51 23  1  0
 52 35  1  0
 53 52  1  0
 54 61  1  0
 37 55  1  0
 56 38  1  0
 57 38  1  0
 58 49  1  0
 59 43  1  0
 60 43  2  0
 61 62  1  0
 62 55  1  0
 63 58  1  0
 64 51  1  0
 65 50  1  0
 66 59  2  0
 67 60  1  0
 68 64  1  0
 69 67  2  0
 66 69  1  0
 48 41  2  0
 23 20  1  0
 65 68  1  0
M  END