
  SciTegic03291108512D

 25 27  0  0  0  0            999 V2000
    0.2030    3.0180    0.0000 O   0  0
   -1.2260    4.6680    0.0000 O   0  5
   -2.6549    4.6680    0.0000 O   0  0
   -1.9404    0.9555    0.0000 N   0  0
   -0.5115    1.7805    0.0000 N   0  0
   -1.9404    4.2555    0.0000 N   0  3
   -1.9404   -0.6945    0.0000 N   0  0
   -1.9404    1.7805    0.0000 C   0  0
   -1.2260    2.1930    0.0000 C   0  0
   -1.9404    3.4305    0.0000 C   0  0
   -1.2260    3.0180    0.0000 C   0  0
   -2.6549    2.1930    0.0000 C   0  0
   -2.6549    3.0180    0.0000 C   0  0
    0.2030    2.1930    0.0000 C   0  0
   -1.2260    0.5430    0.0000 C   0  0
   -2.6549    0.5430    0.0000 C   0  0
    0.9174    1.7805    0.0000 C   0  0
   -1.2260   -0.2820    0.0000 C   0  0
   -2.6549   -0.2820    0.0000 C   0  0
    1.6319    2.1930    0.0000 C   0  0
    0.9174    0.9555    0.0000 C   0  0
    2.3464    1.7805    0.0000 C   0  0
    1.6319    0.5430    0.0000 C   0  0
   -1.9404   -1.5195    0.0000 C   0  0
    2.3464    0.9555    0.0000 C   0  0
  1 14  2  0
  2  6  1  0
  3  6  2  0
  4  8  1  0
  4 15  1  0
  4 16  1  0
  5  9  1  0
  5 14  1  0
  6 10  1  0
  7 18  1  0
  7 19  1  0
  7 24  1  0
  8  9  1  0
  8 12  2  0
  9 11  2  0
 10 11  1  0
 10 13  2  0
 12 13  1  0
 14 17  1  0
 15 18  1  0
 16 19  1  0
 17 20  2  0
 17 21  1  0
 20 22  1  0
 21 23  2  0
 22 25  2  0
 23 25  1  0
M  CHG  2   2  -1   6   1
M  END