
  SciTegic12211612372D

 39 43  0  0  0  0            999 V2000
   -0.4439   -1.8202    0.0000 O   0  0
    0.7442   -1.6517    0.0000 S   0  0
    1.5291   -2.5594    0.0000 O   0  0
    3.1043   -2.6385    0.0000 C   0  0
    2.2325   -1.4158    0.0000 N   0  0
    6.7119   -0.9853    0.0000 C   0  0
    7.5843   -2.2056    0.0000 C   0  0
    6.9638   -3.5712    0.0000 C   0  0
    5.4708   -3.7166    0.0000 C   0  0
    4.5984   -2.4964    0.0000 C   0  0
    5.2190   -1.1307    0.0000 C   0  0
    7.3331    0.3810    0.0000 C   0  0  2  0  0  0
    6.4575    1.6000    0.0000 C   0  0
    4.9640    1.4523    0.0000 C   0  0
    4.2640    2.4269    0.0000 O   0  0
    4.4696    0.3589    0.0000 O   0  0
    4.9744   -4.8091    0.0000 C   0  0
    8.8268    0.5271    0.0000 C   0  0
    9.4401    1.8918    0.0000 C   0  0
   10.9514    2.0515    0.0000 C   0  0
    9.7095   -0.7085    0.0000 C   0  0
   11.2042   -0.5413    0.0000 C   0  0
   11.8176    0.8220    0.0000 C   0  0
   13.3015    0.6542    0.0000 N   0  0
   13.5983   -0.8189    0.0000 N   0  0
   12.3140   -1.5405    0.0000 N   0  0
   14.1127    1.5385    0.0000 C   0  0
   11.5722    3.4176    0.0000 O   0  0
   10.8750    4.3943    0.0000 C   0  0
    2.9404    0.0000    0.0000 C   0  0
    2.2507    1.3976    0.0000 C   0  0  2  0  0  0
    0.7805    1.6880    0.0000 O   0  0
    0.0000   -0.7623    0.0000 C   0  0
    0.0000    0.7623    0.0000 C   0  0
   -1.4884    1.5247    0.0000 C   0  0
   -2.8315    0.7623    0.0000 C   0  0
   -2.8315   -0.7623    0.0000 C   0  0
   -1.4884   -1.5247    0.0000 C   0  0
    2.9804    2.3502    0.0000 C   0  0
  2  1  2  0
  3  2  2  0
  4  5  1  0
  6  7  2  0
  7  8  1  0
  8  9  2  0
  9 10  1  0
 10 11  2  0
 11  6  1  0
  6 12  1  0
 12 13  1  6
 13 14  1  0
 14 15  2  0
 14 16  1  0
  9 17  1  0
 12 18  1  0
 18 19  2  0
 19 20  1  0
 20 23  2  0
 22 21  2  0
 21 18  1  0
 22 23  1  0
 23 24  1  0
 24 25  1  0
 25 26  2  0
 26 22  1  0
 24 27  1  0
 10  4  1  0
 20 28  1  0
 28 29  1  0
  5  2  1  0
  2 33  1  0
  5 30  1  0
 30 31  1  0
 34 32  1  0
 31 32  1  0
 33 34  2  0
 34 35  1  0
 35 36  2  0
 36 37  1  0
 37 38  2  0
 38 33  1  0
 31 39  1  6
M  END