
          11280715382D 1   1.00000     0.00000     0

 47 48  0     0  0            999 V2000
    9.3542   -4.1417    0.0000 C   0  0  0  0  0  0           0  0  0
    9.6500   -4.6042    0.0000 C   0  0  0  0  0  0           0  0  0
   -4.3708    3.1708    0.0000 C   0  0  0  0  0  0           0  0  0
   -4.6458    2.7083    0.0000 C   0  0  0  0  0  0           0  0  0
    8.5167   -3.7042    0.0000 N   0  0  0  0  0  0           0  0  0
   -3.5583    2.7083    0.0000 N   0  0  0  0  0  0           0  0  0
    5.4625   -2.4250    0.0000 N   0  0  0  0  0  0           0  0  0
   -0.5458    1.3083    0.0000 N   0  0  0  0  0  0           0  0  0
    9.3917   -5.0750    0.0000 O   0  0  0  0  0  0           0  0  0
    8.8125   -4.1667    0.0000 C   0  0  0  0  0  0           0  0  0
   -3.8250    3.1708    0.0000 C   0  0  0  0  0  0           0  0  0
    9.6042   -3.6750    0.0000 C   0  0  0  0  0  0           0  0  0
   10.1917   -4.5792    0.0000 C   0  0  0  0  0  0           0  0  0
   -4.3833    2.2375    0.0000 C   0  0  0  0  0  0           0  0  0
   -5.1958    2.7083    0.0000 C   0  0  0  0  0  0           0  0  0
   -4.6458    3.6458    0.0000 C   0  0  0  0  0  0           0  0  0
   -3.0083    2.7083    0.0000 C   0  0  0  0  0  0           0  0  0
   -1.0958    1.3083    0.0000 C   0  0  0  0  0  0           0  0  0
    6.0125   -2.4042    0.0000 C   0  0  0  0  0  0           0  0  0
   -0.2708    0.8375    0.0000 C   0  0  0  0  0  0           0  0  0
    5.1917   -1.9542    0.0000 C   0  0  0  0  0  0           0  0  0
    7.9750   -3.7292    0.0000 C   0  0  0  0  0  0           0  0  0
    9.6792   -5.5375    0.0000 C   0  0  0  0  0  0           0  0  0
    7.6792   -3.2792    0.0000 C   0  0  0  0  0  0           0  0  0
    6.3000   -2.8625    0.0000 C   0  0  0  0  0  0           0  0  0
    4.6500   -1.9542    0.0000 C   0  0  0  0  0  0           0  0  0
    0.2750    0.8375    0.0000 C   0  0  0  0  0  0           0  0  0
   -2.7333    2.2333    0.0000 C   0  0  0  0  0  0           0  0  0
   -1.3708    1.7708    0.0000 C   0  0  0  0  0  0           0  0  0
   -1.9125    1.7708    0.0000 C   0  0  0  0  0  0           0  0  0
    7.1375   -3.2917    0.0000 C   0  0  0  0  0  0           0  0  0
    0.5417    0.3750    0.0000 C   0  0  0  0  0  0           0  0  0
    1.0917    0.3750    0.0000 C   0  0  0  0  0  0           0  0  0
    1.3667   -0.0917    0.0000 C   0  0  0  0  0  0           0  0  0
    1.9125   -0.0917    0.0000 C   0  0  0  0  0  0           0  0  0
    2.1875   -0.5542    0.0000 C   0  0  0  0  0  0           0  0  0
    2.7292   -0.5542    0.0000 C   0  0  0  0  0  0           0  0  0
    3.0042   -1.0292    0.0000 C   0  0  0  0  0  0           0  0  0
    3.5542   -1.0292    0.0000 C   0  0  0  0  0  0           0  0  0
    3.8292   -1.4917    0.0000 C   0  0  0  0  0  0           0  0  0
    4.3750   -1.4917    0.0000 C   0  0  0  0  0  0           0  0  0
    6.8417   -2.8417    0.0000 C   0  0  0  0  0  0           0  0  0
   -2.1875    2.2333    0.0000 C   0  0  0  0  0  0           0  0  0
   10.1542   -3.6542    0.0000 C   0  0  0  0  0  0           0  0  0
   -5.4708    3.1708    0.0000 C   0  0  0  0  0  0           0  0  0
   10.4417   -4.1042    0.0000 C   0  0  0  0  0  0           0  0  0
   -5.1958    3.6458    0.0000 C   0  0  0  0  0  0           0  0  0
  2  1  2  0     0  0
  3 11  1  0     0  0
  4  3  1  0     0  0
  5 10  1  0     0  0
  6 17  1  0     0  0
  7 19  1  0     0  0
  8 20  1  0     0  0
  9  2  1  0     0  0
 10  1  1  0     0  0
 11  6  1  0     0  0
 12  1  1  0     0  0
 13  2  1  0     0  0
 14  4  1  0     0  0
 15  4  2  0     0  0
 16  3  2  0     0  0
 17 28  1  0     0  0
 18  8  1  0     0  0
 19 25  1  0     0  0
 20 27  1  0     0  0
 21  7  1  0     0  0
 22  5  1  0     0  0
 23  9  1  0     0  0
 24 22  1  0     0  0
 25 42  1  0     0  0
 26 21  1  0     0  0
 27 32  1  0     0  0
 28 43  1  0     0  0
 29 18  1  0     0  0
 30 29  1  0     0  0
 31 24  1  0     0  0
 32 33  1  0     0  0
 33 34  1  0     0  0
 34 35  1  0     0  0
 35 36  1  0     0  0
 36 37  1  0     0  0
 37 38  1  0     0  0
 38 39  1  0     0  0
 39 40  1  0     0  0
 40 41  1  0     0  0
 41 26  1  0     0  0
 42 31  1  0     0  0
 43 30  1  0     0  0
 44 12  2  0     0  0
 45 47  2  0     0  0
 46 44  1  0     0  0
 47 16  1  0     0  0
 13 46  2  0     0  0
 45 15  1  0     0  0
M  END