
          11280715132D 1   1.00000     0.00000     0

 30 32  0     0  0            999 V2000
    0.3542   -1.7167    0.0000 C   0  0  0  0  0  0           0  0  0
    0.3542   -1.1167    0.0000 C   0  0  0  0  0  0           0  0  0
   -0.1708   -2.0167    0.0000 N   0  0  3  0  0  0           0  0  0
   -0.6833   -1.1167    0.0000 N   0  0  3  0  0  0           0  0  0
   -0.6833   -1.7167    0.0000 C   0  0  0  0  0  0           0  0  0
    0.9250   -1.9042    0.0000 N   0  0  0  0  0  0           0  0  0
   -0.1708   -0.8167    0.0000 C   0  0  0  0  0  0           0  0  0
    1.2792   -1.4167    0.0000 C   0  0  0  0  0  0           0  0  0
    4.5542   -1.0250    0.0000 S   0  0  3  0  0  0           0  0  0
    0.9250   -0.9292    0.0000 N   0  0  0  0  0  0           0  0  0
    1.8625   -1.5667    0.0000 N   0  0  0  0  0  0           0  0  0
    2.1542   -1.0417    0.0000 C   0  0  0  0  0  0           0  0  0
    3.9542   -1.0292    0.0000 C   0  0  0  0  0  0           0  0  0
   -1.2000   -2.0125    0.0000 O   0  0  0  0  0  0           0  0  0
    4.4542   -1.6125    0.0000 O   0  0  0  0  0  0           0  0  0
    4.6417   -0.4292    0.0000 O   0  0  0  0  0  0           0  0  0
   -0.1708   -0.2167    0.0000 O   0  0  0  0  0  0           0  0  0
    2.7542   -1.0417    0.0000 C   0  0  0  0  0  0           0  0  0
    5.1417   -1.1167    0.0000 F   0  0  0  0  0  0           0  0  0
    1.8542   -0.5292    0.0000 O   0  0  0  0  0  0           0  0  0
   -0.1708   -2.6167    0.0000 C   0  0  0  0  0  0           0  0  0
   -1.2000   -0.8167    0.0000 C   0  0  0  0  0  0           0  0  0
    3.6417   -0.5125    0.0000 C   0  0  0  0  0  0           0  0  0
    3.6542   -1.5542    0.0000 C   0  0  0  0  0  0           0  0  0
    3.0500   -0.5167    0.0000 C   0  0  0  0  0  0           0  0  0
    3.0542   -1.5542    0.0000 C   0  0  0  0  0  0           0  0  0
   -0.6875   -2.9167    0.0000 C   0  0  0  0  0  0           0  0  0
   -1.2000   -0.2167    0.0000 C   0  0  0  0  0  0           0  0  0
   -0.6875   -3.5167    0.0000 C   0  0  0  0  0  0           0  0  0
   -1.7208    0.0833    0.0000 C   0  0  0  0  0  0           0  0  0
  2  1  2  0     0  0
  3  1  1  0     0  0
  4  5  1  0     0  0
  5  3  1  0     0  0
  6  1  1  0     0  0
  7  2  1  0     0  0
  8  6  1  0     0  0
  9 13  1  0     0  0
 10  2  1  0     0  0
 11  8  1  0     0  0
 12 11  1  0     0  0
 13 24  2  0     0  0
 14  5  2  0     0  0
 15  9  2  0     0  0
 16  9  2  0     0  0
 17  7  2  0     0  0
 18 12  1  0     0  0
 19  9  1  0     0  0
 20 12  2  0     0  0
 21  3  1  0     0  0
 22  4  1  0     0  0
 23 25  2  0     0  0
 24 26  1  0     0  0
 25 18  1  0     0  0
 26 18  2  0     0  0
 27 21  1  0     0  0
 28 22  1  0     0  0
 29 27  1  0     0  0
 30 28  1  0     0  0
 10  8  2  0     0  0
  4  7  1  0     0  0
 13 23  1  0     0  0
M  END