
  SciTegic01161211242D

 25 25  0  0  0  0            999 V2000
    1.2990   -0.7500    0.0000 C   0  0
    2.5973   -1.5031    0.0000 C   0  0
    2.5951   -3.0039    0.0000 N   0  0
    1.2990    0.7500    0.0000 C   0  0
    3.3372   -5.2929    0.0000 N   0  0
    2.5972    1.5031    0.0000 O   0  0
    3.8056   -3.8679    0.0000 C   0  0
    0.0000   -1.5000    0.0000 C   0  0
    0.0000    1.5000    0.0000 C   0  0
    1.3786   -3.8595    0.0000 C   0  0
    1.8372   -5.2877    0.0000 C   0  0
    3.6375   -0.9049    0.0000 C   0  0
   -1.2990   -0.7500    0.0000 C   0  0
   -1.2990    0.7500    0.0000 C   0  0
    5.1894    6.0109    0.0000 N   0  0
    2.5951    3.0039    0.0000 C   0  0
    3.8933    3.7570    0.0000 C   0  0  2  0  0  0
    3.8912    5.2578    0.0000 C   0  0
    0.0000   -2.7000    0.0000 Cl  0  0
    0.0000    2.7000    0.0000 Cl  0  0
    8.9854    1.4860    0.0000 Cl  0  0
    4.9336    3.1588    0.0000 O   0  0
    5.1872    7.5118    0.0000 C   0  0
    6.2252    8.1139    0.0000 C   0  0
    4.1469    8.1099    0.0000 C   0  0
  1  2  1  0
  2  3  1  0
  1  4  1  0
  4  6  1  0
  3  7  1  0
  5  7  2  0
  1  8  2  0
  4  9  2  0
  3 10  1  0
  5 11  1  0
 10 11  2  0
  2 12  2  0
  8 13  1  0
  9 14  1  0
 13 14  2  0
  6 16  1  0
 16 17  1  0
 15 18  1  0
 17 18  1  0
  8 19  1  0
  9 20  1  0
 17 22  1  6
 15 23  1  0
 23 24  1  0
 23 25  1  0
M  END