
          11280715112D 1   1.00000     0.00000     0

 22 24  0     0  0            999 V2000
    1.1792   -2.2792    0.0000 N   0  3  0  0  0  0           0  0  0
   -1.3958   -2.3000    0.0000 N   0  0  0  0  0  0           0  0  0
   -1.6875   -1.7792    0.0000 C   0  0  0  0  0  0           0  0  0
   -0.8083   -2.1792    0.0000 C   0  0  0  0  0  0           0  0  0
   -1.2875   -1.3417    0.0000 N   0  0  0  0  0  0           0  0  0
   -0.7458   -1.5875    0.0000 C   0  0  0  0  0  0           0  0  0
   -3.6583   -2.6542    0.0000 N   0  0  0  0  0  0           0  0  0
    0.6667   -2.5875    0.0000 C   0  0  0  0  0  0           0  0  0
   -0.3708   -2.5792    0.0000 C   0  0  0  0  0  0           0  0  0
   -3.8458   -2.0792    0.0000 C   0  0  0  0  0  0           0  0  0
    0.1500   -2.2875    0.0000 C   0  0  0  0  0  0           0  0  0
   -4.6333   -2.6500    0.0000 N   0  0  0  0  0  0           0  0  0
   -4.1458   -3.0042    0.0000 C   0  0  0  0  0  0           0  0  0
    1.7042   -2.5750    0.0000 O   0  5  0  0  0  0           0  0  0
    1.1667   -1.6792    0.0000 O   0  0  0  0  0  0           0  0  0
   -4.4458   -2.0792    0.0000 C   0  0  0  0  0  0           0  0  0
   -2.2875   -1.7792    0.0000 S   0  0  0  0  0  0           0  0  0
   -3.3208   -1.7875    0.0000 C   0  0  0  0  0  0           0  0  0
   -2.8083   -2.0875    0.0000 C   0  0  0  0  0  0           0  0  0
    0.6625   -3.1917    0.0000 C   0  0  0  0  0  0           0  0  0
   -0.3708   -3.1792    0.0000 C   0  0  0  0  0  0           0  0  0
    0.1417   -3.4792    0.0000 C   0  0  0  0  0  0           0  0  0
  2  4  1  0     0  0
  3  2  2  0     0  0
  4  9  1  0     0  0
  5  6  1  0     0  0
  6  4  2  0     0  0
  7 10  1  0     0  0
  8  1  1  0     0  0
  9 11  1  0     0  0
 10 18  1  0     0  0
 11  8  2  0     0  0
 12 16  1  0     0  0
 13  7  2  0     0  0
 14  1  1  0     0  0
 15  1  2  0     0  0
 16 10  2  0     0  0
 17  3  1  0     0  0
 18 19  1  0     0  0
 19 17  1  0     0  0
 20  8  1  0     0  0
 21 22  1  0     0  0
 22 20  2  0     0  0
 21  9  2  0     0  0
  3  5  1  0     0  0
 13 12  1  0     0  0
M  CHG  2   1   1  14  -1
M  END