
          11280715352D 1   1.00000     0.00000     0

 18 16  0     0  0            999 V2000
    2.5667   -3.8500    0.0000 C   0  0  0  0  0  0           0  0  0
    2.1542   -4.5667    0.0000 C   0  0  0  0  0  0           0  0  0
    2.1542   -3.1292    0.0000 O   0  0  0  0  0  0           0  0  0
    2.5667   -5.2875    0.0000 O   0  0  0  0  0  0           0  0  0
    2.6917   -1.5917    0.0000 N   0  0  0  0  0  0           0  0  0
    1.2667   -1.5792    0.0000 C   0  0  3  0  0  0           0  0  0
   -0.1583   -1.5792    0.0000 O   0  0  0  0  0  0           0  0  0
    1.3250   -4.5667    0.0000 O   0  0  0  0  0  0           0  0  0
    3.3917   -3.8500    0.0000 O   0  0  0  0  0  0           0  0  0
    1.9792   -1.1667    0.0000 C   0  0  0  0  0  0           0  0  0
    0.5542   -1.1667    0.0000 C   0  0  0  0  0  0           0  0  0
    1.2667   -2.4042    0.0000 O   0  0  0  0  0  0           0  0  0
    3.4125   -1.1792    0.0000 C   0  0  3  0  0  0           0  0  0
   -0.8750   -1.1667    0.0000 C   0  0  3  0  0  0           0  0  0
    3.4125   -0.3542    0.0000 C   0  0  0  0  0  0           0  0  0
    4.1250   -1.5917    0.0000 C   0  0  0  0  0  0           0  0  0
   -1.5875   -1.5792    0.0000 C   0  0  0  0  0  0           0  0  0
   -0.8708   -0.3417    0.0000 C   0  0  0  0  0  0           0  0  0
  2  1  1  0     0  0
  3  1  2  0     0  0
  4  2  2  0     0  0
  6 10  1  0     0  0
  7 11  1  0     0  0
  8  2  1  0     0  0
  9  1  1  0     0  0
 10  5  1  0     0  0
 11  6  1  0     0  0
 12  6  1  0     0  0
 13  5  1  0     0  0
 14  7  1  0     0  0
 15 13  1  0     0  0
 16 13  1  0     0  0
 17 14  1  0     0  0
 18 14  1  0     0  0
M  END