
  SciTegic09031215512D

 32 35  0  0  0  0            999 V2000
   -0.5875   -9.2333    0.0000 C   0  0  1  0  0  0
   -2.7250  -10.4708    0.0000 C   0  0  1  0  0  0
   -2.7250  -11.2958    0.0000 C   0  0
   -0.5875  -10.0583    0.0000 C   0  0  2  0  0  0
   -2.0125  -10.0583    0.0000 C   0  0  2  0  0  0
   -1.3000  -10.4708    0.0000 C   0  0  1  0  0  0
    0.2000   -8.9792    0.0000 C   0  0  2  0  0  0
   -2.0125  -11.7083    0.0000 C   0  0
   -1.3000   -8.8208    0.0000 C   0  0
   -1.3000  -11.2958    0.0000 C   0  0
   -2.0125   -9.2333    0.0000 C   0  0
    0.2000  -10.3083    0.0000 C   0  0
   -3.4375  -10.0583    0.0000 C   0  0
    0.6875   -9.6458    0.0000 C   0  0
   -3.4375  -11.7083    0.0000 C   0  0
    0.6375   -8.2708    0.0000 C   0  0  1  0  0  0
   -0.5875   -8.4083    0.0000 C   0  0
   -4.1500  -10.4708    0.0000 C   0  0
   -4.1500  -11.2958    0.0000 C   0  0  2  0  0  0
   -2.7250   -9.6458    0.0000 C   0  0
   -4.8750  -11.7083    0.0000 O   0  0
    1.8500   -7.5292    0.0000 C   0  0
    1.4625   -8.2542    0.0000 C   0  0
    0.2000   -7.5708    0.0000 C   0  0
    2.6750   -7.5083    0.0000 C   0  0
    3.0750   -6.7833    0.0000 C   0  0
    3.9000   -6.7583    0.0000 C   0  0
    2.6375   -6.0708    0.0000 C   0  0
   -1.3000   -9.6458    0.0000 H   0  0
   -0.5875  -10.8833    0.0000 H   0  0
    1.0250   -8.9792    0.0000 H   0  0
   -2.0125  -10.8833    0.0000 H   0  0
  2  5  1  0
  3  2  1  0
  4  1  1  0
  5 11  1  0
  6  4  1  0
  7  1  1  0
  8 10  1  0
  9  1  1  0
 10  6  1  0
 11  9  1  0
 12  4  1  0
 13  2  1  0
 14  7  1  0
 15  3  1  0
 16  7  1  0
  1 17  1  1
 18 13  1  0
 19 18  1  0
  2 20  1  1
 19 21  1  1
 22 23  1  0
 23 16  1  0
 16 24  1  6
 25 22  1  0
 26 25  1  0
 27 26  1  0
 28 26  2  0
  6 29  1  1
  4 30  1  6
  7 31  1  6
  5 32  1  6
 12 14  1  0
  6  5  1  0
  3  8  2  0
 15 19  1  0
M  END