
          11280715492D 1   1.00000     0.00000     0

 27 29  0     0  0            999 V2000
   12.0863  -24.1979    0.0000 C   0  0  0  0  0  0           0  0  0
   12.0851  -25.0229    0.0000 O   0  0  0  0  0  0           0  0  0
   12.8014  -23.7865    0.0000 N   0  0  0  0  0  0           0  0  0
   13.5153  -24.2000    0.0000 C   0  0  0  0  0  0           0  0  0
   13.5111  -25.0230    0.0000 C   0  0  0  0  0  0           0  0  0
   14.2241  -25.4364    0.0000 C   0  0  0  0  0  0           0  0  0
   14.9402  -25.0249    0.0000 C   0  0  0  0  0  0           0  0  0
   14.9387  -24.1956    0.0000 C   0  0  0  0  0  0           0  0  0
   14.2251  -23.7859    0.0000 C   0  0  0  0  0  0           0  0  0
    9.2333  -21.7250    0.0000 C   0  0  3  0  0  0           0  0  0
    9.2333  -22.5500    0.0000 C   0  0  0  0  0  0           0  0  0
    9.9454  -22.9583    0.0000 C   0  0  0  0  0  0           0  0  0
   10.6574  -22.5500    0.0000 N   0  0  3  0  0  0           0  0  0
   10.6574  -21.7250    0.0000 C   0  0  0  0  0  0           0  0  0
    9.9454  -21.3083    0.0000 C   0  0  0  0  0  0           0  0  0
    8.5177  -21.3146    0.0000 C   0  0  0  0  0  0           0  0  0
    7.8044  -21.7292    0.0000 C   0  0  0  0  0  0           0  0  0
    7.0500  -21.3960    0.0000 C   0  0  0  0  0  0           0  0  0
    6.4998  -22.0107    0.0000 N   0  0  0  0  0  0           0  0  0
    6.9144  -22.7240    0.0000 C   0  0  0  0  0  0           0  0  0
    7.7208  -22.5500    0.0000 N   0  0  0  0  0  0           0  0  0
   11.3712  -22.9635    0.0000 C   0  0  0  0  0  0           0  0  0
   11.3700  -23.7885    0.0000 C   0  0  0  0  0  0           0  0  0
   15.6546  -25.4375    0.0000 C   0  0  0  0  0  0           0  0  0
   15.6545  -26.2625    0.0000 O   0  0  0  0  0  0           0  0  0
   16.3691  -25.0251    0.0000 O   0  0  0  0  0  0           0  0  0
   16.3692  -24.2001    0.0000 C   0  0  0  0  0  0           0  0  0
 11 12  1  0     0  0
 12 13  1  0     0  0
 13 14  1  0     0  0
 14 15  1  0     0  0
  7  8  2  0     0  0
 10 16  1  0     0  0
 16 17  1  0     0  0
 17 18  2  0     0  0
  8  9  1  0     0  0
  9  4  2  0     0  0
 10 11  1  0     0  0
  4  5  1  0     0  0
 18 19  1  0     0  0
 19 20  1  0     0  0
 20 21  2  0     0  0
 21 17  1  0     0  0
  1  3  1  0     0  0
 13 22  1  0     0  0
  5  6  2  0     0  0
 22 23  1  0     0  0
 23  1  1  0     0  0
  1  2  2  0     0  0
  7 24  1  0     0  0
  6  7  1  0     0  0
 24 25  2  0     0  0
  3  4  1  0     0  0
 24 26  1  0     0  0
 10 15  1  0     0  0
 26 27  1  0     0  0
M  END