
          11280715102D 1   1.00000     0.00000     0

 23 25  0     0  0            999 V2000
    1.8542    1.6208    0.0000 C   0  0  0  0  0  0           0  0  0
    1.9792    2.4458    0.0000 N   0  0  0  0  0  0           0  0  0
    2.6042    1.2583    0.0000 C   0  0  0  0  0  0           0  0  0
    1.1417    1.2083    0.0000 C   0  0  0  0  0  0           0  0  0
    2.7917    2.5833    0.0000 O   0  0  0  0  0  0           0  0  0
    3.1750    1.8583    0.0000 C   0  0  0  0  0  0           0  0  0
    1.1417    0.3750    0.0000 C   0  0  0  0  0  0           0  0  0
    1.8542   -0.0292    0.0000 O   0  0  0  0  0  0           0  0  0
    4.0000    1.7583    0.0000 C   0  0  0  0  0  0           0  0  0
    1.8542   -0.8667    0.0000 C   0  0  0  0  0  0           0  0  0
   -0.2958   -2.1042    0.0000 C   0  0  0  0  0  0           0  0  0
    1.1375   -1.2792    0.0000 C   0  0  0  0  0  0           0  0  0
   -1.0125   -2.5292    0.0000 Br  0  0  0  0  0  0           0  0  0
    0.4250   -2.5167    0.0000 C   0  0  0  0  0  0           0  0  0
   -0.2958   -1.2792    0.0000 C   0  0  0  0  0  0           0  0  0
    1.1375   -2.1042    0.0000 C   0  0  0  0  0  0           0  0  0
    0.4250   -0.8667    0.0000 C   0  0  0  0  0  0           0  0  0
    0.4250    1.6208    0.0000 C   0  0  0  0  0  0           0  0  0
    5.1417    0.9083    0.0000 O   0  0  0  0  0  0           0  0  0
    4.3292    1.0083    0.0000 C   0  0  0  0  0  0           0  0  0
    0.4292   -0.0292    0.0000 C   0  0  0  0  0  0           0  0  0
   -0.2875    1.2000    0.0000 C   0  0  0  0  0  0           0  0  0
   -0.2875    0.3750    0.0000 C   0  0  0  0  0  0           0  0  0
  2  1  2  0     0  0
  3  1  1  0     0  0
  4  1  1  0     0  0
  5  2  1  0     0  0
  6  3  2  0     0  0
  7  4  1  0     0  0
  8  7  1  0     0  0
  9  6  1  0     0  0
 10  8  1  0     0  0
 11 15  2  0     0  0
 12 10  1  0     0  0
 13 11  1  0     0  0
 14 16  2  0     0  0
 15 17  1  0     0  0
 16 12  1  0     0  0
 17 12  2  0     0  0
 18  4  2  0     0  0
 19 20  1  0     0  0
 20  9  1  0     0  0
 21  7  2  0     0  0
 22 18  1  0     0  0
 23 22  2  0     0  0
  5  6  1  0     0  0
 21 23  1  0     0  0
 11 14  1  0     0  0
M  END