
  SciTegic04091416462D

 15 16  0  0  0  0            999 V2000
   20.9320   -2.6745    0.0000 C   0  0
   18.1006   -1.8572    0.0000 C   0  0
   18.0995   -2.6768    0.0000 C   0  0
   18.8075   -3.0857    0.0000 C   0  0
   19.5172   -2.6763    0.0000 C   0  0
   19.5143   -1.8536    0.0000 C   0  0
   18.8057   -1.4484    0.0000 N   0  0
   20.2255   -3.0838    0.0000 N   0  0
   20.9313   -1.8569    0.0000 O   0  0
   21.5700   -3.1806    0.0000 C   0  0
   21.5362   -3.9974    0.0000 N   0  0
   22.3035   -4.2811    0.0000 C   0  0
   22.8095   -3.6378    0.0000 C   0  0
   22.3531   -2.9588    0.0000 N   0  0
   22.6344   -2.1916    0.0000 C   0  0
  2  3  2  0
  3  4  1  0
  4  5  2  0
  5  6  1  0
  6  7  2  0
  7  2  1  0
  5  8  1  0
  8  1  1  0
  1  9  2  0
 11 12  1  0
 10 11  2  0
 12 13  2  0
 13 14  1  0
 14 10  1  0
  1 10  1  0
 14 15  1  0
M  END