
  SciTegic09261414462D

 30 33  0  0  0  0            999 V2000
   18.6303  -13.1989    0.0000 O   0  0
   17.8420  -13.4135    0.0000 S   0  0
   18.4220  -13.9889    0.0000 O   0  0
   15.0258  -15.0602    0.0000 C   0  0
   15.0247  -15.8798    0.0000 C   0  0
   15.7327  -16.2887    0.0000 C   0  0
   15.7309  -14.6514    0.0000 C   0  0
   16.4396  -15.0566    0.0000 C   0  0
   16.4403  -15.8756    0.0000 C   0  0
   17.1488  -16.2827    0.0000 C   0  0
   17.8571  -15.8719    0.0000 C   0  0
   17.8524  -15.0497    0.0000 C   0  0
   17.1433  -14.6464    0.0000 C   0  0
   17.1505  -17.0999    0.0000 O   0  0
   18.5664  -16.2777    0.0000 S   0  0
   17.1389  -13.8292    0.0000 N   0  0
   17.8401  -12.5997    0.0000 C   0  0
   18.5498  -12.1907    0.0000 C   0  0
   18.5458  -11.3743    0.0000 C   0  0
   17.8354  -10.9717    0.0000 C   0  0
   17.1275  -11.3854    0.0000 C   0  0
   17.1350  -12.2005    0.0000 C   0  0
   17.8299  -10.1545    0.0000 O   0  0
   18.5349   -9.7412    0.0000 C   0  0
   18.5696  -17.0949    0.0000 C   0  0
   17.9104  -17.5833    0.0000 N   0  0
   18.1659  -18.3595    0.0000 C   0  0
   18.9832  -18.3563    0.0000 N   0  0
   19.2325  -17.5781    0.0000 N   0  0
   19.2453  -10.1451    0.0000 C   0  0
  2  1  2  0
  3  2  2  0
  4  5  2  0
  5  6  1  0
  6  9  2  0
  8  7  2  0
  7  4  1  0
  8  9  1  0
  9 10  1  0
 10 11  2  0
 11 12  1  0
 12 13  2  0
 13  8  1  0
 10 14  1  0
 11 15  1  0
 13 16  1  0
 16  2  1  0
  2 17  1  0
 17 18  2  0
 18 19  1  0
 19 20  2  0
 20 21  1  0
 21 22  2  0
 22 17  1  0
 20 23  1  0
 23 24  1  0
 15 25  1  0
 25 26  1  0
 26 27  2  0
 27 28  1  0
 28 29  1  0
 29 25  2  0
 24 30  1  0
M  END