
  CDK    9/16/09,9:55

 31 34  0  0  0  0  0  0  0  0999 V2000
   -2.0981    0.3036    0.0000 C   0  0  0  0  0  0  0  0  0  0  0  0
   -2.0668   -0.5290    0.0000 N   0  0  0  0  0  0  0  0  0  0  0  0
   -1.3351   -0.9141    0.0000 C   0  0  0  0  0  0  0  0  0  0  0  0
   -0.6331   -0.4693    0.0000 C   0  0  0  0  0  0  0  0  0  0  0  0
   -0.6666    0.3593    0.0000 N   0  0  0  0  0  0  0  0  0  0  0  0
   -1.4038    0.7492    0.0000 C   0  0  0  0  0  0  0  0  0  0  0  0
    0.0347    0.8007    0.0000 S   0  0  0  0  0  0  0  0  0  0  0  0
    0.7232    1.2508    0.0000 C   0  0  0  0  0  0  0  0  0  0  0  0
    0.4788    0.1084    0.0000 O   0  0  0  0  0  0  0  0  0  0  0  0
   -0.4076    1.5016    0.0000 O   0  0  0  0  0  0  0  0  0  0  0  0
   -2.7601   -0.9665    0.0000 C   0  0  0  0  0  0  0  0  0  0  0  0
   -3.4906   -0.5856    0.0000 C   0  0  0  0  0  0  0  0  0  0  0  0
   -4.1910   -1.0270    0.0000 C   0  0  0  0  0  0  0  0  0  0  0  0
   -4.1581   -1.8517    0.0000 C   0  0  0  0  0  0  0  0  0  0  0  0
   -3.4208   -2.2364    0.0000 C   0  0  0  0  0  0  0  0  0  0  0  0
   -2.7238   -1.7925    0.0000 N   0  0  0  0  0  0  0  0  0  0  0  0
   -4.8544   -2.2973    0.0000 C   0  0  0  0  0  0  0  0  0  0  0  0
   -5.5749   -2.7082    0.0000 F   0  0  0  0  0  0  0  0  0  0  0  0
   -4.4267   -3.0046    0.0000 F   0  0  0  0  0  0  0  0  0  0  0  0
   -5.2773   -1.5843    0.0000 F   0  0  0  0  0  0  0  0  0  0  0  0
    0.7287    2.0652    0.0000 C   0  0  0  0  0  0  0  0  0  0  0  0
   -0.0005    1.7650    0.0000 C   0  0  0  0  0  0  0  0  0  0  0  0
    0.4344    2.2799    0.0000 C   0  0  0  0  0  0  0  0  0  0  0  0
    1.0512    2.6351    0.0000 C   0  0  0  0  0  0  0  0  0  0  0  0
    0.8457    3.3002    0.0000 C   0  0  0  0  0  0  0  0  0  0  0  0
    1.7332    2.1485    0.0000 C   0  0  0  0  0  0  0  0  0  0  0  0
    1.4146    1.6065    0.0000 C   0  0  0  0  0  0  0  0  0  0  0  0
    1.0507    4.0937    0.0000 C   0  0  0  0  0  0  0  0  0  0  0  0
    0.1319    3.7117    0.0000 C   0  0  0  0  0  0  0  0  0  0  0  0
    1.6284    3.2204    0.0000 H   0  0  0  0  0  0  0  0  0  0  0  0
    1.6113    0.8117    0.0000 O   0  0  0  0  0  0  0  0  0  0  0  0
 14 15  1  0  0  0  0 
  5  6  1  0  0  0  0 
 15 16  2  0  0  0  0 
 16 11  1  0  0  0  0 
  2 11  1  0  0  0  0 
 14 17  1  0  0  0  0 
  5  7  1  0  0  0  0 
 17 18  1  0  0  0  0 
  1  2  1  0  0  0  0 
 17 19  1  0  0  0  0 
 17 20  1  0  0  0  0 
  7  8  1  0  0  0  0 
  1  6  1  0  0  0  0 
  7  9  2  0  0  0  0 
  2  3  1  0  0  0  0 
  7 10  2  0  0  0  0 
  3  4  1  0  0  0  0 
 22 23  1  0  0  0  0 
 23 24  1  0  0  0  0 
 22 21  1  0  0  0  0 
 21 25  1  0  0  0  0 
 25 24  1  0  0  0  0 
 24 26  1  0  0  0  0 
 26 27  1  0  0  0  0 
 27 21  1  0  0  0  0 
 11 12  2  0  0  0  0 
 25 28  1  0  0  0  0 
 12 13  1  0  0  0  0 
 25 29  1  0  0  0  0 
 13 14  2  0  0  0  0 
 24 30  1  6  0  0  0 
  4  5  1  0  0  0  0 
 27 31  2  0  0  0  0 
 21  8  1  1  0  0  0 
M  END