
          11280714572D 1   1.00000     0.00000     0

 31 34  0     0  0            999 V2000
    4.5375   -2.4042    0.0000 C   0  0  0  0  0  0           0  0  0
    4.1375   -3.6875    0.0000 C   0  0  0  0  0  0           0  0  0
    4.7917   -3.1917    0.0000 S   0  0  0  0  0  0           0  0  0
    3.4625   -3.2000    0.0000 N   0  0  0  0  0  0           0  0  0
    3.7125   -2.4125    0.0000 C   0  0  0  0  0  0           0  0  0
    8.0417   -6.5167    0.0000 C   0  0  0  0  0  0           0  0  0
    7.0542   -7.4167    0.0000 N   0  0  0  0  0  0           0  0  0
    7.2167   -6.6125    0.0000 N   0  0  0  0  0  0           0  0  0
    7.7667   -7.8292    0.0000 N   0  0  0  0  0  0           0  0  0
    8.3792   -7.2667    0.0000 N   0  0  0  0  0  0           0  0  0
    5.0167   -1.7417    0.0000 C   0  0  0  0  0  0           0  0  0
    8.4417   -5.8042    0.0000 C   0  0  0  0  0  0           0  0  0
    4.1417   -4.5042    0.0000 N   0  0  3  0  0  0           0  0  0
    8.0250   -5.0875    0.0000 C   0  0  0  0  0  0           0  0  0
    7.2042   -5.0875    0.0000 C   0  0  0  0  0  0           0  0  0
    4.7292   -5.1000    0.0000 C   0  0  0  0  0  0           0  0  0
    4.6792   -0.9875    0.0000 O   0  0  0  0  0  0           0  0  0
    6.7917   -4.3750    0.0000 C   0  0  0  0  0  0           0  0  0
    6.8000   -5.8042    0.0000 C   0  0  0  0  0  0           0  0  0
    5.5542   -5.0917    0.0000 C   0  0  0  0  0  0           0  0  0
    5.8417   -1.8167    0.0000 O   0  0  0  0  0  0           0  0  0
    5.9667   -4.3792    0.0000 C   0  0  0  0  0  0           0  0  0
    5.9750   -5.8125    0.0000 C   0  0  0  0  0  0           0  0  0
    3.2250   -1.7500    0.0000 C   0  0  0  0  0  0           0  0  0
    9.2667   -5.7917    0.0000 C   0  0  0  0  0  0           0  0  0
    8.4375   -4.3667    0.0000 C   0  0  0  0  0  0           0  0  0
    3.3792   -4.8292    0.0000 C   0  0  0  0  0  0           0  0  0
    3.2750   -5.6417    0.0000 C   0  0  0  0  0  0           0  0  0
    9.6792   -5.0792    0.0000 C   0  0  0  0  0  0           0  0  0
    9.2625   -4.3667    0.0000 C   0  0  0  0  0  0           0  0  0
    2.5042   -5.9667    0.0000 C   0  0  0  0  0  0           0  0  0
  2  3  1  0     0  0
  3  1  1  0     0  0
  4  5  1  0     0  0
  5  1  2  0     0  0
  6 12  1  0     0  0
  7  8  2  0     0  0
  8  6  1  0     0  0
  9 10  1  0     0  0
 10  6  2  0     0  0
 11  1  1  0     0  0
 12 14  2  0     0  0
 13  2  1  0     0  0
 14 15  1  0     0  0
 15 19  2  0     0  0
 16 13  1  0     0  0
 17 11  2  0     0  0
 18 22  2  0     0  0
 19 23  1  0     0  0
 20 16  1  0     0  0
 21 11  1  0     0  0
 22 20  1  0     0  0
 23 20  2  0     0  0
 24  5  1  0     0  0
 25 12  1  0     0  0
 26 14  1  0     0  0
 27 13  1  0     0  0
 28 27  1  0     0  0
 29 30  1  0     0  0
 30 26  2  0     0  0
 31 28  1  0     0  0
  2  4  2  0     0  0
 18 15  1  0     0  0
 29 25  2  0     0  0
  9  7  1  0     0  0
M  END