
  SciTegic02271514582D

 13 14  0  0  0  0            999 V2000
   11.2916   -2.3608    0.0000 C   0  0
   11.9969   -1.9563    0.0000 N   0  0
   11.9969   -1.1391    0.0000 C   0  0
   11.2916   -0.7264    0.0000 N   0  0
   10.5863   -1.9563    0.0000 C   0  0
   10.5864   -1.1346    0.0000 N   0  0
    9.8049   -0.8806    0.0000 C   0  0
    9.3218   -1.5454    0.0000 C   0  0
    9.8048   -2.2101    0.0000 C   0  0
   11.2916   -3.1780    0.0000 N   0  0
   10.5839   -3.5866    0.0000 C   0  0
   10.5839   -4.4038    0.0000 C   0  0
    9.8762   -3.1780    0.0000 C   0  0
  6  4  1  0
  5  1  1  0
  1  2  2  0
  2  3  1  0
  3  4  2  0
  5  6  1  0
  6  7  1  0
  7  8  2  0
  8  9  1  0
  9  5  2  0
  1 10  1  0
 10 11  1  0
 11 12  1  0
 11 13  1  0
M  END