
          11280715512D 1   1.00000     0.00000     0

 37 40  0     0  0            999 V2000
    5.3361   -6.0541    0.0000 C   0  0  0  0  0  0           0  0  0
    5.3349   -6.8815    0.0000 C   0  0  0  0  0  0           0  0  0
    6.0497   -7.2944    0.0000 C   0  0  0  0  0  0           0  0  0
    6.0479   -5.6414    0.0000 C   0  0  0  0  0  0           0  0  0
    6.7681   -6.8786    0.0000 C   0  0  0  0  0  0           0  0  0
    6.7633   -6.0505    0.0000 C   0  0  0  0  0  0           0  0  0
    7.4104   -5.5246    0.0000 N   0  0  3  0  0  0           0  0  0
    7.4244   -7.3931    0.0000 C   0  0  0  0  0  0           0  0  0
    8.2226   -5.6989    0.0000 C   0  0  0  0  0  0           0  0  0
    8.2350   -7.2000    0.0000 N   0  0  0  0  0  0           0  0  0
    8.5874   -6.4453    0.0000 N   0  0  3  0  0  0           0  0  0
    8.7309   -5.0490    0.0000 O   0  0  0  0  0  0           0  0  0
    7.2479   -8.1990    0.0000 C   0  0  0  0  0  0           0  0  0
    6.4640   -8.4469    0.0000 C   0  0  0  0  0  0           0  0  0
    6.2862   -9.2535    0.0000 C   0  0  0  0  0  0           0  0  0
    6.8924   -9.8077    0.0000 C   0  0  0  0  0  0           0  0  0
    7.6800   -9.5608    0.0000 C   0  0  0  0  0  0           0  0  0
    7.8578   -8.7542    0.0000 N   0  0  0  0  0  0           0  0  0
    9.4123   -6.4379    0.0000 C   0  0  0  0  0  0           0  0  0
    9.8312   -7.1487    0.0000 C   0  0  0  0  0  0           0  0  0
   10.6562   -7.1413    0.0000 N   0  0  0  0  0  0           0  0  0
    9.4251   -7.8668    0.0000 O   0  0  0  0  0  0           0  0  0
    7.2179   -4.7224    0.0000 C   0  0  0  0  0  0           0  0  0
    7.8164   -4.1545    0.0000 C   0  0  0  0  0  0           0  0  0
    7.6239   -3.3523    0.0000 C   0  0  3  0  0  0           0  0  0
    8.6074   -4.3889    0.0000 O   0  0  0  0  0  0           0  0  0
    7.4042   -2.5500    0.0000 C   0  0  0  0  0  0           0  0  0
    8.4229   -3.1471    0.0000 C   0  0  0  0  0  0           0  0  0
    6.8266   -3.5644    0.0000 C   0  0  0  0  0  0           0  0  0
   11.0750   -7.8521    0.0000 C   0  0  0  0  0  0           0  0  0
   10.6670   -8.5680    0.0000 C   0  0  0  0  0  0           0  0  0
   11.0851   -9.2782    0.0000 C   0  0  0  0  0  0           0  0  0
   11.9110   -9.2713    0.0000 C   0  0  0  0  0  0           0  0  0
   12.3169   -8.5482    0.0000 C   0  0  0  0  0  0           0  0  0
   11.8964   -7.8409    0.0000 C   0  0  0  0  0  0           0  0  0
   13.1418   -8.5379    0.0000 N   0  0  0  0  0  0           0  0  0
   13.5454   -7.8183    0.0000 C   0  0  0  0  0  0           0  0  0
 17 18  2  0     0  0
 18 13  1  0     0  0
  7  9  1  0     0  0
 11 19  1  0     0  0
  4  1  1  0     0  0
 19 20  1  0     0  0
  8 10  2  0     0  0
 20 21  1  0     0  0
 20 22  2  0     0  0
  9 11  1  0     0  0
  7 23  1  0     0  0
 10 11  1  0     0  0
 23 24  1  0     0  0
  2  3  1  0     0  0
 24 25  1  0     0  0
  9 12  2  0     0  0
 24 26  2  0     0  0
  5  6  1  0     0  0
 25 27  1  0     0  0
  8 13  1  0     0  0
 25 28  1  0     0  0
  3  5  2  0     0  0
 25 29  1  0     0  0
  6  7  1  0     0  0
 21 30  1  0     0  0
  1  2  2  0     0  0
 30 31  2  0     0  0
  5  8  1  0     0  0
 31 32  1  0     0  0
  6  4  2  0     0  0
 32 33  2  0     0  0
 14 13  2  0     0  0
 33 34  1  0     0  0
 14 15  1  0     0  0
 34 35  2  0     0  0
 35 30  1  0     0  0
 15 16  2  0     0  0
 34 36  1  0     0  0
 16 17  1  0     0  0
 36 37  1  0     0  0
M  END