
  Mrv0541 09061316132D          

 25 28  0  0  0  0            999 V2000
    0.2031   -8.1070    0.0000 C   0  0  0  0  0  0  0  0  0  0  0  0
    1.3264   -7.3861    0.0000 N   0  0  0  0  0  0  0  0  0  0  0  0
    0.5029   -7.3386    0.0000 C   0  0  2  0  0  0  0  0  0  0  0  0
    1.5356   -8.1841    0.0000 C   0  0  0  0  0  0  0  0  0  0  0  0
    0.8395   -8.6347    0.0000 N   0  0  0  0  0  0  0  0  0  0  0  0
    0.8815   -9.4583    0.0000 C   0  0  0  0  0  0  0  0  0  0  0  0
    1.6181   -9.8377    0.0000 N   0  0  0  0  0  0  0  0  0  0  0  0
    0.1873   -9.9064    0.0000 O   0  0  0  0  0  0  0  0  0  0  0  0
    2.2737   -8.5571    0.0000 C   0  0  0  0  0  0  0  0  0  0  0  0
    2.3126   -9.3888    0.0000 C   0  0  0  0  0  0  0  0  0  0  0  0
    3.1157   -9.6087    0.0000 N   0  0  0  0  0  0  0  0  0  0  0  0
    3.5730   -8.9129    0.0000 C   0  0  0  0  0  0  0  0  0  0  0  0
    3.0526   -8.2631    0.0000 N   0  0  0  0  0  0  0  0  0  0  0  0
    0.0567   -6.6432    0.0000 C   0  0  0  0  0  0  0  0  0  0  0  0
    1.6588  -10.6629    0.0000 C   0  0  0  0  0  0  0  0  0  0  0  0
    0.4358   -5.9091    0.0000 C   0  0  0  0  0  0  0  0  0  0  0  0
    4.3962   -8.8716    0.0000 C   0  0  0  0  0  0  0  0  0  0  0  0
    4.8396   -9.5670    0.0000 C   0  0  0  0  0  0  0  0  0  0  0  0
    6.0385   -8.7920    0.0000 C   0  0  0  0  0  0  0  0  0  0  0  0
    4.7658   -8.1421    0.0000 C   0  0  0  0  0  0  0  0  0  0  0  0
    4.3533   -7.4277    0.0000 H   0  0  0  0  0  0  0  0  0  0  0  0
    5.5865   -8.0977    0.0000 C   0  0  0  0  0  0  0  0  0  0  0  0
    5.9990   -7.3832    0.0000 H   0  0  0  0  0  0  0  0  0  0  0  0
    5.6620   -9.5260    0.0000 C   0  0  0  0  0  0  0  0  0  0  0  0
    6.2453  -10.1094    0.0000 H   0  0  0  0  0  0  0  0  0  0  0  0
  4  2  2  0  0  0  0
  2  3  1  0  0  0  0
 10 11  1  0  0  0  0
 11 12  2  0  0  0  0
 12 13  1  0  0  0  0
 13  9  1  0  0  0  0
  4  9  1  0  0  0  0
  3 14  1  1  0  0  0
  5  6  1  0  0  0  0
  7 15  1  0  0  0  0
  6  7  1  0  0  0  0
 14 16  1  0  0  0  0
  7 10  1  0  0  0  0
 12 17  1  0  0  0  0
  3  1  1  0  0  0  0
 17 18  2  0  0  0  0
  6  8  2  0  0  0  0
 18 24  1  0  0  0  0
  9 10  2  0  0  0  0
 24 19  2  0  0  0  0
  4  5  1  0  0  0  0
 19 22  1  0  0  0  0
  1  5  1  0  0  0  0
 22 20  2  0  0  0  0
 20 17  1  0  0  0  0
 20 21  1  0  0  0  0
 22 23  1  0  0  0  0
 24 25  1  0  0  0  0
M  ISO  3  21   3  23   3  25   3
M  END