
  SciTegic12231509382D

 16 16  0  0  0  0            999 V2000
   25.8873  -19.8290    0.0000 C   0  0
   26.5872  -19.4040    0.0000 C   0  0
   25.1831  -19.4040    0.0000 O   0  0
   26.5872  -18.5790    0.0000 O   0  0
   24.4623  -19.8165    0.0000 C   0  0
   23.0248  -20.6415    0.0000 C   0  0
   27.3081  -19.8165    0.0000 O   0  0
   22.2997  -21.0540    0.0000 Cl  0  0
   24.4623  -20.6415    0.0000 C   0  0
   23.7206  -19.3914    0.0000 C   0  0
   23.7206  -21.0414    0.0000 C   0  0
   23.0248  -19.8165    0.0000 C   0  0
   25.4748  -20.5539    0.0000 C   0  0
   26.2998  -20.5539    0.0000 C   0  0
   28.0247  -19.4165    0.0000 C   0  0
   28.7372  -19.8290    0.0000 C   0  0
  2  1  1  0
  3  1  1  0
  4  2  2  0
  5  3  1  0
  6 12  2  0
  7  2  1  0
  8  6  1  0
  9  5  1  0
 10  5  2  0
 11  9  2  0
 12 10  1  0
 13  1  1  0
 14  1  1  0
 15  7  1  0
 16 15  1  0
  6 11  1  0
M  END