
          11280714442D 1   1.00000     0.00000     0

 31 33  0     0  0            999 V2000
    3.3750    0.4208    0.0000 N   0  0  0  0  0  0           0  0  0
    1.2917    0.4125    0.0000 O   0  0  0  0  0  0           0  0  0
    2.3375    0.4208    0.0000 C   0  0  3  0  0  0           0  0  0
    0.7750    0.7125    0.0000 C   0  0  0  0  0  0           0  0  0
    2.8542    0.7208    0.0000 C   0  0  0  0  0  0           0  0  0
    6.4917   -0.1792    0.0000 C   0  0  0  0  0  0           0  0  0
    5.4542    0.4250    0.0000 C   0  0  0  0  0  0           0  0  0
    1.8167    0.7208    0.0000 C   0  0  0  0  0  0           0  0  0
    7.0042   -0.4792    0.0000 F   0  0  0  0  0  0           0  0  0
   -0.2625    1.3125    0.0000 C   0  0  0  0  0  0           0  0  0
    4.9292    0.7250    0.0000 C   0  0  0  0  0  0           0  0  0
    0.7750    1.3208    0.0000 C   0  0  0  0  0  0           0  0  0
    0.2542    0.4125    0.0000 C   0  0  0  0  0  0           0  0  0
    6.4875    0.4333    0.0000 C   0  0  0  0  0  0           0  0  0
    5.9667   -0.4792    0.0000 C   0  0  0  0  0  0           0  0  0
    5.9667    0.7250    0.0000 C   0  0  0  0  0  0           0  0  0
    5.4542   -0.1792    0.0000 C   0  0  0  0  0  0           0  0  0
    0.2542    1.6208    0.0000 C   0  0  0  0  0  0           0  0  0
   -0.2625    0.7125    0.0000 C   0  0  0  0  0  0           0  0  0
    2.3375   -0.1792    0.0000 O   0  0  0  0  0  0           0  0  0
    4.4167    0.4208    0.0000 C   0  0  0  0  0  0           0  0  0
    3.8917    0.7208    0.0000 C   0  0  3  0  0  0           0  0  0
   -1.8208    1.6125    0.0000 O   0  0  0  0  0  0           0  0  0
   -3.6000    2.0375    0.0000 C   0  0  0  0  0  0           0  0  0
   -2.8583    1.6125    0.0000 C   0  0  3  0  0  0           0  0  0
   -2.3458    1.3125    0.0000 C   0  0  0  0  0  0           0  0  0
   -0.7833    1.6125    0.0000 C   0  0  0  0  0  0           0  0  0
   -3.4458    1.4583    0.0000 C   0  0  0  0  0  0           0  0  0
   -3.0208    2.1958    0.0000 C   0  0  0  0  0  0           0  0  0
   -1.3000    1.3125    0.0000 C   0  0  0  0  0  0           0  0  0
    3.8917    1.3208    0.0000 C   0  0  0  0  0  0           0  0  0
  2  8  1  0     0  0
  3  5  1  0     0  0
  4  2  1  0     0  0
  5  1  1  0     0  0
  6 15  2  0     0  0
  7 11  1  0     0  0
  8  3  1  0     0  0
  9  6  1  0     0  0
 10 19  2  0     0  0
 11 21  1  0     0  0
 12  4  1  0     0  0
 13  4  2  0     0  0
 14 16  2  0     0  0
 15 17  1  0     0  0
 16  7  1  0     0  0
 17  7  2  0     0  0
 18 12  2  0     0  0
 19 13  1  0     0  0
 20  3  1  0     0  0
 21 22  1  0     0  0
 22  1  1  0     0  0
 23 30  1  0     0  0
 24 29  1  0     0  0
 25 26  1  0     0  0
 26 23  1  0     0  0
 27 10  1  0     0  0
 28 25  1  0     0  0
 29 25  1  0     0  0
 30 27  1  0     0  0
 31 22  1  0     0  0
 14  6  1  0     0  0
 10 18  1  0     0  0
 24 28  1  0     0  0
M  END