
  SciTegic11161111432D

 36 42  0  0  0  0            999 V2000
   -2.0192   -8.1126    0.0000 C   0  0
   -1.1948   -8.1132    0.0000 C   0  0  2  0  0  0
   -0.7862   -8.8356    0.0000 C   0  0  1  0  0  0
   -1.2023   -9.5429    0.0000 C   0  0  2  0  0  0
   -0.7982  -10.2559    0.0000 C   0  0  2  0  0  0
    0.0238  -10.2638    0.0000 C   0  0  1  0  0  0
    0.4399   -9.5525    0.0000 C   0  0
    0.0342   -8.8372    0.0000 C   0  0
   -2.0295   -9.5401    0.0000 C   0  0
   -2.4366   -8.8281    0.0000 C   0  0
   -3.2539   -8.8235    0.0000 C   0  0
   -3.6706   -9.5292    0.0000 C   0  0
   -3.2637  -10.2452    0.0000 C   0  0
   -2.4399  -10.2515    0.0000 C   0  0
   -1.7290  -10.6644    0.0000 O   0  0
   -0.7784   -7.3970    0.0000 N   0  0
   -1.7887   -8.9552    0.0000 C   0  0
   -1.7847   -7.7628    0.0000 C   0  0
   -0.3776   -8.1126    0.0000 O   0  0
    0.4312  -10.9811    0.0000 N   0  0
   -3.6818  -10.9563    0.0000 O   0  0
   -0.8029  -11.0818    0.0000 H   0  0
    1.2579  -10.9880    0.0000 C   0  0
    1.6653  -11.7092    0.0000 C   0  0
    1.6771  -10.2776    0.0000 O   0  0
    1.2450  -12.4200    0.0000 C   0  0
    1.6518  -13.1368    0.0000 C   0  0
    2.4833  -13.1440    0.0000 C   0  0
    2.9025  -12.4285    0.0000 C   0  0
    2.4893  -11.7108    0.0000 C   0  0
    1.2321  -13.8510    0.0000 I   0  0
   -0.1429   -6.8697    0.0000 C   0  0
    0.6320   -7.1568    0.0000 C   0  0
    1.1617   -7.7898    0.0000 C   0  0
    1.4449   -7.0149    0.0000 C   0  0
   -0.4810   -7.6952    0.0000 H   0  0
  5  6  1  0
  4 17  1  1
  6  7  1  0
 17 18  1  0
 18 16  1  0
  7  8  1  0
  3 19  1  1
  9 10  2  0
  6 20  1  1
 13 21  1  0
  1 10  1  0
  5 22  1  1
  1  2  1  0
 20 23  1  0
  9  4  1  0
 23 24  1  0
  3  2  1  0
 23 25  2  0
  3  4  1  0
 24 26  2  0
  9 14  1  0
 26 27  1  0
 10 11  1  0
 27 28  2  0
 11 12  2  0
 28 29  1  0
 12 13  1  0
 29 30  2  0
 30 24  1  0
 13 14  2  0
 27 31  1  0
  3  8  1  0
 16 32  1  0
 14 15  1  0
 32 33  1  0
 34 33  1  0
 35 34  1  0
 33 35  1  0
  5 15  1  0
  4  5  1  0
  2 16  1  0
  2 36  1  6
M  ISO  1  31 125
M  END