
  Mrv0541 04051115152D          

 19 20  0  0  0  0            999 V2000
    0.7142    3.6640    0.0000 C   0  0  0  0  0  0  0  0  0  0  0  0
    0.7142    2.8390    0.0000 C   0  0  0  0  0  0  0  0  0  0  0  0
    1.4286    2.4265    0.0000 C   0  0  0  0  0  0  0  0  0  0  0  0
    1.4286    1.6015    0.0000 C   0  0  0  0  0  0  0  0  0  0  0  0
   -0.0003    1.6015    0.0000 C   0  0  0  0  0  0  0  0  0  0  0  0
   -0.0003    2.4265    0.0000 C   0  0  0  0  0  0  0  0  0  0  0  0
   -0.7148    0.3640    0.0000 C   0  0  0  0  0  0  0  0  0  0  0  0
   -1.4292   -0.0485    0.0000 C   0  0  0  0  0  0  0  0  0  0  0  0
   -1.4292   -0.8735    0.0000 C   0  0  0  0  0  0  0  0  0  0  0  0
    0.7142    1.1890    0.0000 N   0  0  0  0  0  0  0  0  0  0  0  0
   -0.7148    1.1890    0.0000 N   0  0  0  0  0  0  0  0  0  0  0  0
   -0.7148   -1.2860    0.0000 N   0  0  0  0  0  0  0  0  0  0  0  0
   -0.0003   -0.8735    0.0000 C   0  0  0  0  0  0  0  0  0  0  0  0
   -0.0003   -0.0485    0.0000 C   0  0  0  0  0  0  0  0  0  0  0  0
   -0.7148   -2.1110    0.0000 C   0  0  0  0  0  0  0  0  0  0  0  0
   -1.4292   -2.5235    0.0000 O   0  0  0  0  0  0  0  0  0  0  0  0
   -0.0003   -2.5235    0.0000 O   0  0  0  0  0  0  0  0  0  0  0  0
   -0.0003   -3.3485    0.0000 C   0  0  0  0  0  0  0  0  0  0  0  0
    0.7142   -3.7610    0.0000 C   0  0  0  0  0  0  0  0  0  0  0  0
  1  2  1  0  0  0  0
  2  3  1  0  0  0  0
  2  6  2  0  0  0  0
  3  4  2  0  0  0  0
  4 10  1  0  0  0  0
  5  6  1  0  0  0  0
  5 10  2  0  0  0  0
  5 11  1  0  0  0  0
  8  7  1  0  0  0  0
  7 11  1  0  0  0  0
 14  7  1  0  0  0  0
  8  9  1  0  0  0  0
  9 12  1  0  0  0  0
 13 12  1  0  0  0  0
 15 12  1  0  0  0  0
 13 14  1  0  0  0  0
 15 16  2  0  0  0  0
 15 17  1  0  0  0  0
 18 17  1  0  0  0  0
 18 19  1  0  0  0  0
M  END