
  SciTegic02271514372D

 24 25  0  0  0  0            999 V2000
    6.2288   -4.1521    0.0000 C   0  0
    6.9433   -4.5646    0.0000 C   0  0
    7.6577   -4.1521    0.0000 C   0  0
    8.3722   -4.5646    0.0000 C   0  0
    8.3722   -5.3896    0.0000 C   0  0
    7.6577   -5.8021    0.0000 C   0  0
    6.9433   -5.3896    0.0000 C   0  0
    6.2288   -3.3271    0.0000 O   0  0
    5.5143   -4.5646    0.0000 O   0  0
    7.6577   -3.3271    0.0000 C   0  0
    8.3722   -2.9146    0.0000 C   0  0
    8.3722   -2.0896    0.0000 C   0  0
    7.6577   -1.6771    0.0000 N   0  0
    7.6577   -0.8521    0.0000 C   0  0
    6.9433   -0.4396    0.0000 C   0  0
    6.9433    0.3854    0.0000 C   0  0
    7.6577    0.7979    0.0000 C   0  0
    8.3722    0.3854    0.0000 C   0  0
    8.3722   -0.4396    0.0000 C   0  0
    9.0867   -1.6771    0.0000 O   0  0
    6.2288   -5.8021    0.0000 O   0  0
    9.0867   -5.8021    0.0000 O   0  0
    9.0867   -4.1521    0.0000 Cl  0  0
    4.7999   -4.1521    0.0000 C   0  0
  1  2  1  0
  2  3  1  0
  3  4  2  0
  4  5  1  0
  5  6  2  0
  6  7  1  0
  2  7  2  0
  1  8  2  0
  1  9  1  0
 10 11  1  0
 11 12  1  0
 14 15  1  0
 15 16  2  0
 16 17  1  0
 17 18  2  0
 18 19  1  0
 14 19  2  0
 13 14  1  0
 12 13  1  0
 12 20  2  0
  3 10  1  0
  7 21  1  0
  5 22  1  0
  4 23  1  0
  9 24  1  0
M  END