
  SciTegic07101214422D

 25 27  0  0  0  0            999 V2000
   15.7277  -19.5416    0.0000 C   0  0
   15.7266  -20.3690    0.0000 C   0  0
   16.4414  -20.7819    0.0000 N   0  0
   17.1578  -20.3685    0.0000 C   0  0
   17.1550  -19.5380    0.0000 N   0  0
   16.4396  -19.1289    0.0000 N   0  0
   17.8730  -20.7799    0.0000 N   0  0
   15.0132  -19.1293    0.0000 C   0  0
   15.0118  -20.7809    0.0000 C   0  0
   15.0164  -18.3034    0.0000 C   0  0
   14.3027  -17.8911    0.0000 C   0  0
   13.5873  -18.3038    0.0000 N   0  0
   13.5902  -19.1331    0.0000 C   0  0
   14.3045  -19.5416    0.0000 C   0  0
   14.2993  -20.3664    0.0000 C   0  0
   13.5850  -20.7777    0.0000 C   0  0
   13.5839  -21.6035    0.0000 C   0  0
   14.3030  -22.0165    0.0000 C   0  0
   15.0144  -21.6028    0.0000 C   0  0
   14.3029  -17.0661    0.0000 C   0  0
   12.8773  -19.5483    0.0000 C   0  0
   12.1612  -19.1385    0.0000 F   0  0
   12.8804  -20.3733    0.0000 F   0  0
   12.1583  -19.9542    0.0000 F   0  0
   12.8696  -22.0164    0.0000 F   0  0
  6  1  1  0
 12 13  1  0
  1  2  2  0
 13 14  2  0
 14  8  1  0
  4  7  1  0
  9 15  2  0
  3  4  2  0
 15 16  1  0
  1  8  1  0
 16 17  2  0
 17 18  1  0
  2  9  1  0
 18 19  2  0
 19  9  1  0
  4  5  1  0
 11 20  1  0
  8 10  2  0
 13 21  1  0
  2  3  1  0
 21 22  1  0
 10 11  1  0
 21 23  1  0
  5  6  2  0
 21 24  1  0
 11 12  2  0
 17 25  1  0
M  END