
  SciTegic01181116592D

 16 18  0  0  0  0            999 V2000
   -3.3109  -19.0517    0.0000 C   0  0
   -2.5776  -18.7136    0.0000 N   0  0
   -3.1624  -18.3054    0.0000 C   0  0
   -1.7549  -19.0625    0.0000 C   0  0  2  0  0  0
   -2.7146  -17.6926    0.0000 C   0  0
   -2.4380  -17.9803    0.0000 C   0  0
   -1.6512  -18.3229    0.0000 C   0  0  1  0  0  0
   -2.4757  -17.0990    0.0000 C   0  0
   -0.9307  -17.9197    0.0000 N   0  0
   -1.3482  -19.7809    0.0000 C   0  0
   -1.7671  -20.4925    0.0000 C   0  0
   -2.5920  -20.4818    0.0000 C   0  0
   -3.0107  -21.1924    0.0000 C   0  0
   -2.6039  -21.9118    0.0000 C   0  0
   -1.7741  -21.9163    0.0000 N   0  0
   -1.3590  -21.2049    0.0000 C   0  0
  6  7  1  0
  6  8  1  0
  7  9  1  1
  1  2  1  0
  4 10  1  6
  1  3  1  0
 10 11  1  0
  2  4  1  0
 11 12  2  0
  2  5  1  0
 12 13  1  0
  3  6  1  0
 13 14  2  0
  4  7  1  0
 14 15  1  0
  5  8  1  0
 15 16  2  0
 16 11  1  0
M  END