
  SciTegic01161211242D

 26 26  0  0  0  0            999 V2000
    2.5989   -1.5004    0.0000 C   0  0
    2.5954   -3.0013    0.0000 C   0  0
    3.4604   -3.5030    0.0000 O   0  0
    3.8990   -0.7507    0.0000 C   0  0
    1.2990   -0.7500    0.0000 C   0  0
    1.2944   -3.7495    0.0000 O   0  0
   -0.0135   -7.4994    0.0000 N   0  0
    8.9979   -4.1279    0.0000 Cl  0  0
    3.9228   -2.2671    0.0000 C   0  0
    1.2909   -5.2503    0.0000 C   0  0
   -0.0101   -5.9986    0.0000 C   0  0
    1.2990    0.7500    0.0000 C   0  0
    0.0000   -1.5000    0.0000 C   0  0
    5.1977   -1.5014    0.0000 C   0  0
    3.8998    0.7493    0.0000 C   0  0
   -1.3145   -8.2476    0.0000 C   0  0
    1.2832   -8.2551    0.0000 C   0  0
    3.9221   -3.2671    0.0000 C   0  0
    1.2791   -9.4550    0.0000 C   0  0
   -1.3173   -9.4476    0.0000 C   0  0
    6.4971   -0.7521    0.0000 C   0  0
    5.1992    1.4986    0.0000 C   0  0
    0.0000    1.5000    0.0000 C   0  0
   -1.2990   -0.7500    0.0000 C   0  0
   -1.2990    0.7500    0.0000 C   0  0
    6.4979    0.7479    0.0000 C   0  0
  1  2  1  0
  2  3  2  0
  1  4  1  0
  1  5  1  0
  2  6  1  0
  1  9  1  0
  6 10  1  0
  7 11  1  0
 10 11  1  0
  5 12  2  0
  5 13  1  0
  4 14  1  0
  4 15  2  0
  7 16  1  0
  7 17  1  0
  9 18  1  0
 17 19  1  0
 16 20  1  0
 14 21  2  0
 15 22  1  0
 12 23  1  0
 13 24  2  0
 23 25  2  0
 24 25  1  0
 21 26  1  0
 22 26  2  0
M  END