
          11280715372D 1   1.00000     0.00000     0

 36 39  0     0  0            999 V2000
    4.6917   -6.9542    0.0000 C   0  0  0  0  0  0           0  0  0
    4.6917   -7.8375    0.0000 C   0  0  0  0  0  0           0  0  0
    3.1667   -6.9542    0.0000 N   0  0  3  0  0  0           0  0  0
    3.9292   -8.2750    0.0000 N   0  0  3  0  0  0           0  0  0
    3.1667   -7.8375    0.0000 C   0  0  0  0  0  0           0  0  0
    3.9292   -6.5042    0.0000 C   0  0  0  0  0  0           0  0  0
    5.5292   -6.6750    0.0000 N   0  0  0  0  0  0           0  0  0
    5.5417   -8.1042    0.0000 N   0  0  0  0  0  0           0  0  0
    6.0542   -7.3875    0.0000 C   0  0  0  0  0  0           0  0  0
    2.3500   -2.1000    0.0000 N   0  3  0  0  0  0           0  0  0
    2.3375   -1.2167    0.0000 N   0  5  0  0  0  0           0  0  0
    2.4042   -6.5125    0.0000 C   0  0  0  0  0  0           0  0  0
    2.3625   -2.9792    0.0000 N   0  0  0  0  0  0           0  0  0
    2.3750   -3.8625    0.0000 C   0  0  0  0  0  0           0  0  0
    6.9417   -7.3792    0.0000 C   0  0  0  0  0  0           0  0  0
    2.4042   -8.2792    0.0000 O   0  0  0  0  0  0           0  0  0
    1.6125   -4.3167    0.0000 C   0  0  0  0  0  0           0  0  0
    3.9292   -5.6250    0.0000 O   0  0  0  0  0  0           0  0  0
   10.9167   -8.1250    0.0000 C   0  0  0  0  0  0           0  0  0
    2.4000   -5.6292    0.0000 C   0  0  0  0  0  0           0  0  0
    1.6292   -5.2000    0.0000 C   0  0  0  0  0  0           0  0  0
    3.9292   -9.1542    0.0000 C   0  0  0  0  0  0           0  0  0
   11.3542   -7.3542    0.0000 O   0  0  0  0  0  0           0  0  0
    3.1417   -4.2917    0.0000 C   0  0  0  0  0  0           0  0  0
    7.3667   -6.6167    0.0000 C   0  0  0  0  0  0           0  0  0
    7.3792   -8.1417    0.0000 C   0  0  0  0  0  0           0  0  0
    9.5875   -7.3667    0.0000 O   0  0  0  0  0  0           0  0  0
   10.0292   -8.1292    0.0000 C   0  0  0  0  0  0           0  0  0
    0.8417   -3.8792    0.0000 I   0  0  0  0  0  0           0  0  0
    8.7042   -7.3750    0.0000 C   0  0  0  0  0  0           0  0  0
    3.1542   -5.1792    0.0000 C   0  0  0  0  0  0           0  0  0
   11.3625   -8.8875    0.0000 O   0  0  0  0  0  0           0  0  0
    8.2667   -8.1417    0.0000 C   0  0  0  0  0  0           0  0  0
    8.2542   -6.6042    0.0000 C   0  0  0  0  0  0           0  0  0
    3.1625   -9.5917    0.0000 C   0  0  0  0  0  0           0  0  0
    3.1625  -10.4792    0.0000 C   0  0  0  0  0  0           0  0  0
  2  1  2  0     0  0
  3  6  1  0     0  0
  4  2  1  0     0  0
  5  3  1  0     0  0
  6  1  1  0     0  0
  7  1  1  0     0  0
  8  2  1  0     0  0
  9  7  1  0     0  0
 10 13  2  0     0  0
 11 10  2  0     0  0
 12  3  1  0     0  0
 13 14  1  0     0  0
 14 24  2  0     0  0
 15  9  1  0     0  0
 16  5  2  0     0  0
 17 21  2  0     0  0
 18  6  2  0     0  0
 19 28  1  0     0  0
 20 12  1  0     0  0
 21 20  1  0     0  0
 22  4  1  0     0  0
 23 19  2  0     0  0
 24 31  1  0     0  0
 25 15  2  0     0  0
 26 15  1  0     0  0
 27 30  1  0     0  0
 28 27  1  0     0  0
 29 17  1  0     0  0
 30 33  1  0     0  0
 31 20  2  0     0  0
 32 19  1  0     0  0
 33 26  2  0     0  0
 34 25  1  0     0  0
 35 22  1  0     0  0
 36 35  1  0     0  0
  8  9  2  0     0  0
  4  5  1  0     0  0
 34 30  2  0     0  0
 14 17  1  0     0  0
M  CHG  2  10   1  11  -1
M  END