
  SciTegic12161611462D

 18 19  0  0  0  0            999 V2000
   -2.6111    0.7486    0.0000 C   0  0
   -2.6111   -0.7486    0.0000 C   0  0
   -1.2964   -1.4973    0.0000 C   0  0
   -1.2964    1.4973    0.0000 C   0  0
    0.0000    0.7486    0.0000 C   0  0
    0.0000   -0.7486    0.0000 C   0  0
    1.2964   -1.4973    0.0000 N   0  0
    2.5929   -0.7486    0.0000 C   0  0
    2.5929    0.7486    0.0000 C   0  0
    1.2964    1.4973    0.0000 C   0  0
   -3.9091   -1.5019    0.0000 N   0  0
   -3.9067   -3.0027    0.0000 S   0  0
   -2.8664   -3.6008    0.0000 C   0  0
    1.2964   -2.6973    0.0000 C   0  0
    1.2964    2.6973    0.0000 C   0  0
    3.6321   -1.3486    0.0000 O   0  0
   -4.9447   -3.6050    0.0000 O   0  0
   -3.9043   -4.2027    0.0000 O   0  0
  1  2  2  0
  2  3  1  0
  3  6  2  0
  5  4  2  0
  4  1  1  0
  5  6  1  0
  5 10  1  0
  6  7  1  0
  7  8  1  0
  8  9  1  0
  9 10  2  0
  2 11  1  0
 11 12  1  0
 12 13  1  0
  7 14  1  0
 10 15  1  0
  8 16  2  0
 12 17  2  0
 12 18  2  0
M  END