
  SciTegic01311317052D

 50 54  0  0  1  0            999 V2000
    5.0673   -7.4119    0.0000 C   0  0
    7.7194   -4.9509    0.0000 N   0  0
    4.3523   -7.8234    0.0000 C   0  0
    6.9504   -4.6516    0.0000 C   0  0
    6.4474   -3.3172    0.0000 C   0  0
    8.5218   -6.3476    0.0000 C   0  0
    5.6285   -8.0104    0.0000 C   0  0
    5.4165   -5.1172    0.0000 N   0  0
    8.3970   -7.1624    0.0000 N   0  0
    6.1274   -4.7140    0.0000 C   0  0  1  0  0  0
    8.2806   -5.5537    0.0000 C   0  0  2  0  0  0
    4.9509   -5.8031    0.0000 C   0  0
    7.0086   -2.1076    0.0000 N   0  0
    6.4017   -8.3097    0.0000 N   0  0
    6.2895   -2.5066    0.0000 C   0  0
    3.6415   -7.4077    0.0000 N   0  0
    5.8862   -3.9200    0.0000 C   0  0
    7.2622   -3.4170    0.0000 C   0  0
    4.8262   -6.6220    0.0000 C   0  0
    7.6114   -2.6688    0.0000 C   0  0
    4.3523   -8.6465    0.0000 O   0  0
    7.9356   -7.8441    0.0000 C   0  0  2  0  0  0
    7.0751   -3.8327    0.0000 O   0  0
    9.3448   -6.2770    0.0000 O   0  0
    8.9956   -5.1422    0.0000 C   0  0
    5.1671   -8.6963    0.0000 O   0  0
    4.1819   -5.5038    0.0000 O   0  0
    7.2248   -8.2557    0.0000 C   0  0
    2.9306   -7.8192    0.0000 C   0  0
    8.4968   -8.4469    0.0000 C   0  0
    9.7065   -5.5537    0.0000 C   0  0
    8.2557   -9.2326    0.0000 C   0  0
    2.2115   -9.0538    0.0000 O   0  0
    1.5007   -7.8109    0.0000 O   0  0
    7.7361   -4.0904    0.0000 C   0  0
    2.2115   -7.4077    0.0000 C   0  0
    2.9224   -8.6423    0.0000 C   0  0
    8.4345   -2.5939    0.0000 C   0  0
    9.7065   -6.3768    0.0000 C   0  0
   10.4256   -5.1422    0.0000 C   0  0
    7.4493   -9.4197    0.0000 C   0  0
    8.8169   -9.8395    0.0000 C   0  0
    8.5592   -4.0198    0.0000 C   0  0
    8.9083   -3.2674    0.0000 C   0  0
   11.1406   -5.5537    0.0000 C   0  0
   10.4256   -6.7966    0.0000 C   0  0
    8.5716  -10.6293    0.0000 C   0  0
    7.2081  -10.2053    0.0000 C   0  0
    7.7693  -10.8122    0.0000 C   0  0
   11.1406   -6.3768    0.0000 C   0  0
  2  4  1  0
  3  1  1  0
  4 10  1  0
  5 17  1  0
  6  9  1  0
  7  1  1  0
  8 12  1  0
  9 22  1  0
 10  8  1  0
 11  2  1  0
 12 19  1  0
 13 15  1  0
 14  7  1  0
 15  5  2  0
 16  3  1  0
 10 17  1  1
 18  5  1  0
 19  1  1  0
 20 18  2  0
 21  3  2  0
 22 28  1  0
 23  4  2  0
 24  6  2  0
 11 25  1  1
 26  7  2  0
 27 12  2  0
 28 14  1  0
 29 16  1  0
 22 30  1  1
 31 25  1  0
 32 30  1  0
 33 37  1  0
 34 36  1  0
 35 18  1  0
 36 29  1  0
 37 29  1  0
 38 20  1  0
 39 31  2  0
 40 31  1  0
 41 32  1  0
 42 32  2  0
 43 35  2  0
 44 43  1  0
 45 40  2  0
 46 39  1  0
 47 42  1  0
 48 41  2  0
 49 47  2  0
 50 45  1  0
 11  6  1  0
 13 20  1  0
 49 48  1  0
 44 38  2  0
 46 50  2  0
M  END