
          11280714472D 1   1.00000     0.00000     0

 26 29  0     0  0            999 V2000
    1.9667   -3.3917    0.0000 N   0  0  3  0  0  0           0  0  0
    2.3125   -2.9042    0.0000 C   0  0  0  0  0  0           0  0  0
    1.9542   -2.4167    0.0000 C   0  0  0  0  0  0           0  0  0
    1.3875   -2.6125    0.0000 C   0  0  0  0  0  0           0  0  0
    1.3917   -3.2125    0.0000 C   0  0  0  0  0  0           0  0  0
    2.9042   -2.8375    0.0000 C   0  0  3  0  0  0           0  0  0
    1.9625   -3.9917    0.0000 C   0  0  0  0  0  0           0  0  0
    0.8667   -3.5167    0.0000 C   0  0  0  0  0  0           0  0  0
    3.8542   -3.2542    0.0000 C   0  0  0  0  0  0           0  0  0
    0.8667   -2.3125    0.0000 C   0  0  0  0  0  0           0  0  0
    3.2625   -3.3167    0.0000 C   0  0  0  0  0  0           0  0  0
    4.1000   -2.7042    0.0000 O   0  0  0  0  0  0           0  0  0
    2.1917   -1.8667    0.0000 C   0  0  0  0  0  0           0  0  0
    0.3500   -2.6125    0.0000 C   0  0  0  0  0  0           0  0  0
    1.4375   -4.2917    0.0000 C   0  0  0  0  0  0           0  0  0
    0.3500   -3.2167    0.0000 C   0  0  0  0  0  0           0  0  0
    0.3917   -4.8792    0.0000 C   0  0  0  0  0  0           0  0  0
    4.2125   -3.7417    0.0000 O   0  0  0  0  0  0           0  0  0
   -0.1708   -2.3167    0.0000 F   0  0  0  0  0  0           0  0  0
   -0.1250   -5.1792    0.0000 Cl  0  0  0  0  0  0           0  0  0
    3.1500   -2.2917    0.0000 C   0  0  0  0  0  0           0  0  0
    1.4375   -4.8875    0.0000 C   0  0  0  0  0  0           0  0  0
    0.9167   -3.9792    0.0000 C   0  0  0  0  0  0           0  0  0
    0.4000   -4.2792    0.0000 C   0  0  0  0  0  0           0  0  0
    0.9167   -5.1792    0.0000 C   0  0  0  0  0  0           0  0  0
    2.7917   -1.8042    0.0000 C   0  0  0  0  0  0           0  0  0
  2  1  1  0     0  0
  3  2  2  0     0  0
  4  5  1  0     0  0
  5  1  1  0     0  0
  6  2  1  0     0  0
  7  1  1  0     0  0
  8  5  2  0     0  0
  9 11  1  0     0  0
 10  4  2  0     0  0
 11  6  1  0     0  0
 12  9  2  0     0  0
 13  3  1  0     0  0
 14 16  2  0     0  0
 15  7  1  0     0  0
 16  8  1  0     0  0
 17 24  2  0     0  0
 18  9  1  0     0  0
 19 14  1  0     0  0
 20 17  1  0     0  0
 21  6  1  0     0  0
 22 15  1  0     0  0
 23 15  2  0     0  0
 24 23  1  0     0  0
 25 22  2  0     0  0
 26 21  1  0     0  0
  3  4  1  0     0  0
 17 25  1  0     0  0
 10 14  1  0     0  0
 26 13  1  0     0  0
M  END