
  CDK    9/16/09,9:55

 15 16  0  0  0  0  0  0  0  0999 V2000
   -4.1243   -1.0307    0.0000 C   0  0  0  0  0  0  0  0  0  0  0  0
   -4.1256   -1.8578    0.0000 C   0  0  0  0  0  0  0  0  0  0  0  0
   -3.4130   -2.2705    0.0000 C   0  0  0  0  0  0  0  0  0  0  0  0
   -3.4149   -0.6181    0.0000 C   0  0  0  0  0  0  0  0  0  0  0  0
   -2.6973   -1.0266    0.0000 C   0  0  0  0  0  0  0  0  0  0  0  0
   -2.6962   -1.8536    0.0000 C   0  0  0  0  0  0  0  0  0  0  0  0
   -1.9807   -2.2643    0.0000 C   0  0  0  0  0  0  0  0  0  0  0  0
   -1.2656   -1.8493    0.0000 C   0  0  0  0  0  0  0  0  0  0  0  0
   -1.2707   -1.0193    0.0000 C   0  0  0  0  0  0  0  0  0  0  0  0
   -1.9868   -0.6123    0.0000 C   0  0  0  0  0  0  0  0  0  0  0  0
   -1.9914    0.2123    0.0000 C   0  0  0  0  0  0  0  0  0  0  0  0
   -1.2797    0.6286    0.0000 P   0  0  0  0  0  0  0  0  0  0  0  0
   -0.5726    1.0490    0.0000 O   0  0  0  0  0  0  0  0  0  0  0  0
   -0.8609   -0.0816    0.0000 O   0  0  0  0  0  0  0  0  0  0  0  0
   -1.6969    1.3398    0.0000 O   0  0  0  0  0  0  0  0  0  0  0  0
  1  2  2  0  0  0  0 
  7  8  2  0  0  0  0 
  5  4  2  0  0  0  0 
  8  9  1  0  0  0  0 
  4  1  1  0  0  0  0 
  9 10  2  0  0  0  0 
 10  5  1  0  0  0  0 
 10 11  1  0  0  0  0 
  2  3  1  0  0  0  0 
 11 12  1  0  0  0  0 
  5  6  1  0  0  0  0 
 12 13  1  0  0  0  0 
  3  6  2  0  0  0  0 
 12 14  1  0  0  0  0 
  6  7  1  0  0  0  0 
 12 15  2  0  0  0  0 
M  END