
  SciTegic12231509382D

 17 17  0  0  0  0            999 V2000
    1.2608   -0.7279    0.0000 Cl  0  0
   -2.3115   -0.3154    0.0000 S   0  0
    1.2608    0.9221    0.0000 O   0  0
   -3.7405   -0.3154    0.0000 N   0  0
   -3.0260   -1.5529    0.0000 N   0  0
    0.5464    0.5096    0.0000 C   0  0
    0.5464   -0.3154    0.0000 C   0  0
   -0.8826   -0.3154    0.0000 C   0  0
   -0.1681   -0.7279    0.0000 C   0  0
   -0.1681    0.9221    0.0000 C   0  0
   -0.8826    0.5096    0.0000 C   0  0
   -1.5971   -0.7279    0.0000 C   0  0
    1.9753    0.5096    0.0000 C   0  0
   -3.0260   -0.7279    0.0000 C   0  0
    2.6898    0.9221    0.0000 C   0  0
    3.4042    0.5096    0.0000 C   0  0
    4.1187    0.9221    0.0000 C   0  0
  1  7  1  0
  2 12  1  0
  2 14  1  0
  3  6  1  0
  3 13  1  0
  4 14  2  0
 14  5  1  0
  6  7  1  0
  6 10  2  0
  7  9  2  0
  8  9  1  0
  8 11  2  0
  8 12  1  0
 10 11  1  0
 13 15  1  0
 15 16  1  0
 16 17  1  0
M  END