
  SciTegic03291108522D

 25 27  0  0  0  0            999 V2000
    2.0182   -0.4142    0.0000 S   0  0
    4.1616   -0.0017    0.0000 O   0  0
    2.2722    2.7298    0.0000 O   0  0
    0.8745    2.4327    0.0000 O   0  0
    1.2175    0.8188    0.0000 N   0  0
    0.5501   -0.3373    0.0000 N   0  0
    0.4105    0.9903    0.0000 C   0  0
   -0.0020    0.2758    0.0000 C   0  0
    1.3038   -0.0017    0.0000 C   0  0
   -0.0020    1.7048    0.0000 C   0  0
    1.8306    1.3708    0.0000 C   0  0
   -0.8270    0.2758    0.0000 C   0  0
   -0.8270    1.7048    0.0000 C   0  0
   -1.2395    0.9903    0.0000 C   0  0
    1.6591    2.1778    0.0000 C   0  0
    4.8761   -0.4142    0.0000 C   0  0
    2.7327   -0.0017    0.0000 C   0  0
    5.5906   -0.0017    0.0000 C   0  0
    4.8761   -1.2392    0.0000 C   0  0
    3.4472   -0.4142    0.0000 C   0  0
    6.3051   -0.4142    0.0000 C   0  0
    5.5906   -1.6517    0.0000 C   0  0
    6.3051   -1.2392    0.0000 C   0  0
    5.5906    0.8233    0.0000 C   0  0
    4.1616   -1.6517    0.0000 C   0  0
  1  9  1  0
  1 17  1  0
  2 16  1  0
  2 20  1  0
  3 15  2  0
  4 15  1  0
  5  7  1  0
  5  9  1  0
  5 11  1  0
  6  8  1  0
  6  9  2  0
  7  8  1  0
  7 10  2  0
  8 12  2  0
 10 13  1  0
 11 15  1  0
 12 14  1  0
 13 14  2  0
 16 18  1  0
 16 19  2  0
 17 20  1  0
 18 21  2  0
 18 24  1  0
 19 22  1  0
 19 25  1  0
 21 23  1  0
 22 23  2  0
M  END