
          11280715362D 1   1.00000     0.00000     0

 23 26  0     0  0            999 V2000
    3.7875   -7.6167    0.0000 C   0  0  0  0  0  0           0  0  0
    3.8000   -8.4375    0.0000 C   0  0  0  0  0  0           0  0  0
    4.5042   -7.1917    0.0000 C   0  0  0  0  0  0           0  0  0
    8.2167   -7.8792    0.0000 N   0  0  3  0  0  0           0  0  0
    3.0167   -8.7000    0.0000 S   0  0  0  0  0  0           0  0  0
    8.9917   -7.6125    0.0000 C   0  0  0  0  0  0           0  0  0
    6.6625   -8.4167    0.0000 N   0  0  3  0  0  0           0  0  0
    4.5167   -8.8417    0.0000 C   0  0  0  0  0  0           0  0  0
    5.2292   -8.4292    0.0000 C   0  0  3  0  0  0           0  0  0
    3.0042   -7.3667    0.0000 C   0  0  0  0  0  0           0  0  0
    2.5250   -8.0417    0.0000 C   0  0  0  0  0  0           0  0  0
    5.2250   -7.6000    0.0000 C   0  0  0  0  0  0           0  0  0
    9.6167   -8.1542    0.0000 N   0  0  0  0  0  0           0  0  0
    4.5000   -6.3667    0.0000 O   0  0  0  0  0  0           0  0  0
    8.0542   -8.6917    0.0000 C   0  0  0  0  0  0           0  0  0
    7.5917   -7.3417    0.0000 C   0  0  0  0  0  0           0  0  0
    5.9500   -8.8375    0.0000 C   0  0  0  0  0  0           0  0  0
    6.8042   -7.6125    0.0000 C   0  0  0  0  0  0           0  0  0
    7.2792   -8.9625    0.0000 C   0  0  0  0  0  0           0  0  0
    9.1417   -6.8042    0.0000 C   0  0  0  0  0  0           0  0  0
   10.3917   -7.8792    0.0000 C   0  0  0  0  0  0           0  0  0
    9.9167   -6.5292    0.0000 C   0  0  0  0  0  0           0  0  0
   10.5500   -7.0667    0.0000 C   0  0  0  0  0  0           0  0  0
  2  1  2  0     0  0
  3  1  1  0     0  0
  4 15  1  0     0  0
  5  2  1  0     0  0
  6  4  1  0     0  0
  7 17  1  0     0  0
  8  2  1  0     0  0
  9 12  1  0     0  0
 10  1  1  0     0  0
 11 10  2  0     0  0
 12  3  1  0     0  0
 13  6  2  0     0  0
 14  3  2  0     0  0
 15 19  1  0     0  0
 16 18  1  0     0  0
 17  9  1  0     0  0
 18  7  1  0     0  0
 19  7  1  0     0  0
 20  6  1  0     0  0
 21 13  1  0     0  0
 22 20  2  0     0  0
 23 22  1  0     0  0
  5 11  1  0     0  0
  9  8  1  0     0  0
  4 16  1  0     0  0
 23 21  2  0     0  0
M  END