
          11280715102D 1   1.00000     0.00000     0

 24 26  0     0  0            999 V2000
    2.7292    1.0708    0.0000 C   0  0  0  0  0  0           0  0  0
    2.5667    1.8833    0.0000 N   0  0  0  0  0  0           0  0  0
    2.0167    0.6500    0.0000 C   0  0  0  0  0  0           0  0  0
    3.5542    0.9750    0.0000 C   0  0  0  0  0  0           0  0  0
    3.2792    2.2833    0.0000 O   0  0  0  0  0  0           0  0  0
    3.8875    1.7333    0.0000 C   0  0  0  0  0  0           0  0  0
    2.0167   -0.1792    0.0000 C   0  0  0  0  0  0           0  0  0
    1.2917    1.0625    0.0000 C   0  0  0  0  0  0           0  0  0
    2.7292   -0.5917    0.0000 O   0  0  0  0  0  0           0  0  0
    1.3000   -0.5917    0.0000 C   0  0  0  0  0  0           0  0  0
    0.5792    0.6500    0.0000 C   0  0  0  0  0  0           0  0  0
    2.7292   -1.4167    0.0000 C   0  0  0  0  0  0           0  0  0
    2.0042   -1.8375    0.0000 C   0  0  0  0  0  0           0  0  0
    0.5792   -2.6625    0.0000 C   0  0  0  0  0  0           0  0  0
    0.5792   -0.1792    0.0000 C   0  0  0  0  0  0           0  0  0
   -0.1333    1.0583    0.0000 Br  0  0  0  0  0  0           0  0  0
    2.0042   -2.6625    0.0000 C   0  0  0  0  0  0           0  0  0
    1.2917   -1.4250    0.0000 C   0  0  0  0  0  0           0  0  0
    0.5792   -1.8375    0.0000 C   0  0  0  0  0  0           0  0  0
    1.2917   -3.0750    0.0000 C   0  0  0  0  0  0           0  0  0
    4.6917    1.9083    0.0000 C   0  0  0  0  0  0           0  0  0
   -0.1333   -3.0750    0.0000 O   0  0  0  0  0  0           0  0  0
    5.2500    1.2958    0.0000 O   0  0  0  0  0  0           0  0  0
   -0.1333   -3.9000    0.0000 C   0  0  0  0  0  0           0  0  0
  2  1  2  0     0  0
  3  1  1  0     0  0
  4  1  1  0     0  0
  5  2  1  0     0  0
  6  4  2  0     0  0
  7  3  1  0     0  0
  8  3  2  0     0  0
  9  7  1  0     0  0
 10  7  2  0     0  0
 11  8  1  0     0  0
 12  9  1  0     0  0
 13 12  1  0     0  0
 14 19  2  0     0  0
 15 11  2  0     0  0
 16 11  1  0     0  0
 17 13  1  0     0  0
 18 13  2  0     0  0
 19 18  1  0     0  0
 20 17  2  0     0  0
 21  6  1  0     0  0
 22 14  1  0     0  0
 23 21  1  0     0  0
 24 22  1  0     0  0
  5  6  1  0     0  0
 10 15  1  0     0  0
 20 14  1  0     0  0
M  END