
          11280715372D 1   1.00000     0.00000     0

 35 36  0     1  0            999 V2000
    3.2542   -2.6292    0.0000 P   0  0  3  0  0  0           0  0  0
    6.4042   -4.4625    0.0000 C   0  0  0  0  0  0           0  0  0
    7.9542   -4.1667    0.0000 C   0  0  0  0  0  0           0  0  0
    6.9167   -4.1625    0.0000 N   0  0  0  0  0  0           0  0  0
    5.8792   -4.1625    0.0000 C   0  0  1  0  0  0           0  0  0
    5.3542   -4.4625    0.0000 N   0  0  0  0  0  0           0  0  0
    8.4792   -4.4750    0.0000 N   0  0  0  0  0  0           0  0  0
    7.4417   -4.4667    0.0000 C   0  0  1  0  0  0           0  0  0
    4.8292   -4.1542    0.0000 C   0  0  0  0  0  0           0  0  0
    3.7792   -2.3250    0.0000 O   0  0  0  0  0  0           0  0  0
    7.9542   -5.9750    0.0000 C   0  0  0  0  0  0           0  0  0
    2.9542   -2.1042    0.0000 O   0  0  0  0  0  0           0  0  0
    6.4042   -5.0667    0.0000 O   0  0  0  0  0  0           0  0  0
    7.9542   -3.5625    0.0000 O   0  0  0  0  0  0           0  0  0
    5.8792   -3.5500    0.0000 C   0  0  0  0  0  0           0  0  0
    4.4167   -3.8250    0.0000 O   0  0  0  0  0  0           0  0  0
    8.4792   -6.2792    0.0000 O   0  0  0  0  0  0           0  0  0
    7.4417   -5.0750    0.0000 C   0  0  0  0  0  0           0  0  0
    2.7292   -2.9375    0.0000 O   0  0  0  0  0  0           0  0  0
    3.5542   -3.1500    0.0000 O   0  0  0  0  0  0           0  0  0
    7.9542   -5.3750    0.0000 C   0  0  0  0  0  0           0  0  0
    4.3167   -2.6375    0.0000 C   0  0  0  0  0  0           0  0  0
    5.3542   -3.2417    0.0000 C   0  0  0  0  0  0           0  0  0
    9.0042   -4.1750    0.0000 C   0  0  0  0  0  0           0  0  0
    7.4417   -6.2750    0.0000 O   0  0  0  0  0  0           0  0  0
    4.8292   -3.5375    0.0000 C   0  0  0  0  0  0           0  0  0
    5.3542   -2.6375    0.0000 C   0  0  0  0  0  0           0  0  0
    4.3167   -3.2375    0.0000 C   0  0  0  0  0  0           0  0  0
    4.8292   -2.3375    0.0000 C   0  0  0  0  0  0           0  0  0
    4.3167   -4.4542    0.0000 C   0  0  0  0  0  0           0  0  0
    9.5167   -4.4750    0.0000 C   0  0  0  0  0  0           0  0  0
    9.0042   -3.5750    0.0000 C   0  0  0  0  0  0           0  0  0
    9.5167   -3.2750    0.0000 C   0  0  0  0  0  0           0  0  0
   10.0417   -4.1750    0.0000 C   0  0  0  0  0  0           0  0  0
   10.0417   -3.5750    0.0000 C   0  0  0  0  0  0           0  0  0
  2  5  1  0     0  0
  3  8  1  0     0  0
  4  2  1  0     0  0
  5 15  1  1     0  0
  6  5  1  0     0  0
  7  3  1  0     0  0
  8  4  1  0     0  0
  9  6  1  0     0  0
 10  1  1  0     0  0
 11 21  1  0     0  0
 12  1  2  0     0  0
 13  2  2  0     0  0
 14  3  2  0     0  0
 15 23  1  0     0  0
 16  9  2  0     0  0
 17 11  2  0     0  0
  8 18  1  6     0  0
 19  1  1  0     0  0
 20  1  1  0     0  0
 21 18  1  0     0  0
 22 10  1  0     0  0
 23 27  1  0     0  0
 24  7  1  0     0  0
 25 11  1  0     0  0
 26 28  1  0     0  0
 27 29  2  0     0  0
 28 22  2  0     0  0
 29 22  1  0     0  0
 30  9  1  0     0  0
 31 24  2  0     0  0
 32 24  1  0     0  0
 33 32  2  0     0  0
 34 31  1  0     0  0
 35 33  1  0     0  0
 26 23  2  0     0  0
 34 35  2  0     0  0
M  END