
          11280715072D 1   1.00000     0.00000     0

 27 29  0     1  0            999 V2000
    3.0750   -0.4917    0.0000 C   0  0  1  0  0  0           0  0  0
    3.7875   -0.9042    0.0000 C   0  0  2  0  0  0           0  0  0
    3.7875   -0.0792    0.0000 C   0  0  0  0  0  0           0  0  0
    0.9375   -0.9125    0.0000 C   0  0  0  0  0  0           0  0  0
    2.3625   -0.9042    0.0000 C   0  0  0  0  0  0           0  0  0
    0.9292   -1.7375    0.0000 C   0  0  0  0  0  0           0  0  0
    1.6500   -0.5000    0.0000 C   0  0  0  0  0  0           0  0  0
    3.7792   -1.7292    0.0000 C   0  0  0  0  0  0           0  0  0
    0.2250   -0.4917    0.0000 C   0  0  3  0  0  0           0  0  0
    0.2250   -2.1417    0.0000 C   0  0  3  0  0  0           0  0  0
    1.6417   -2.1500    0.0000 C   0  0  0  0  0  0           0  0  0
    5.2000   -3.3875    0.0000 C   0  0  0  0  0  0           0  0  0
    4.4917   -2.1417    0.0000 C   0  0  0  0  0  0           0  0  0
    5.1917   -4.2125    0.0000 C   0  0  0  0  0  0           0  0  0
    4.4875   -2.9667    0.0000 C   0  0  0  0  0  0           0  0  0
    2.3625   -1.7375    0.0000 C   0  0  0  0  0  0           0  0  0
   -0.4833   -0.9125    0.0000 C   0  0  0  0  0  0           0  0  0
   -0.4833   -1.7375    0.0000 C   0  0  0  0  0  0           0  0  0
    4.4792   -4.6167    0.0000 O   0  0  0  0  0  0           0  0  0
    3.0667    0.3333    0.0000 C   0  0  0  0  0  0           0  0  0
    5.9042   -4.6292    0.0000 O   0  0  0  0  0  0           0  0  0
   -0.4958   -0.0792    0.0000 C   0  0  0  0  0  0           0  0  0
    0.9375   -0.0792    0.0000 C   0  0  0  0  0  0           0  0  0
    0.9375   -2.5542    0.0000 C   0  0  0  0  0  0           0  0  0
   -0.4958   -2.5542    0.0000 C   0  0  0  0  0  0           0  0  0
    3.7750   -3.3792    0.0000 C   0  0  0  0  0  0           0  0  0
    4.5000   -0.4917    0.0000 H   0  0  0  0  0  0           0  0  0
  2  1  1  0     0  0
  3  1  1  0     0  0
  4  7  1  0     0  0
  5  1  1  0     0  0
  6 11  1  0     0  0
  7  5  2  0     0  0
  8  2  1  0     0  0
  9  4  1  0     0  0
 10  6  1  0     0  0
 11 16  2  0     0  0
 12 15  2  0     0  0
 13  8  2  0     0  0
 14 12  1  0     0  0
 15 13  1  0     0  0
 16  5  1  0     0  0
 17  9  1  0     0  0
 18 10  1  0     0  0
 19 14  2  0     0  0
  1 20  1  1     0  0
 21 14  1  0     0  0
 22  9  1  0     0  0
 23  9  1  0     0  0
 24 10  1  0     0  0
 25 10  1  0     0  0
 26 15  1  0     0  0
  2 27  1  1     0  0
  3  2  1  0     0  0
  4  6  2  0     0  0
 17 18  1  0     0  0
M  END