
  SciTegic12171313022D

 32 35  0  0  0  0            999 V2000
   21.1625  -12.8483    0.0000 C   0  0
   21.1614  -13.6757    0.0000 C   0  0
   21.8762  -14.0886    0.0000 C   0  0
   22.5926  -13.6752    0.0000 C   0  0
   22.5898  -12.8447    0.0000 C   0  0
   21.8744  -12.4356    0.0000 C   0  0
   20.4466  -14.0876    0.0000 N   0  0
   20.4459  -14.9126    0.0000 C   0  0
   19.7311  -15.3246    0.0000 N   0  0
   21.1601  -15.3257    0.0000 O   0  0
   19.7305  -16.1496    0.0000 C   0  0
   19.0671  -16.6324    0.0000 N   0  0
   19.3214  -17.4172    0.0000 N   0  0
   20.1464  -17.4179    0.0000 C   0  0
   20.4019  -16.6335    0.0000 C   0  0
   20.6309  -18.0857    0.0000 C   0  0
   20.2948  -18.8391    0.0000 C   0  0
   21.4514  -18.0000    0.0000 C   0  0
   21.0390  -18.7942    0.0000 C   0  0
   18.2712  -16.4152    0.0000 C   0  0
   18.0664  -15.6191    0.0000 C   0  0
   17.2713  -15.4019    0.0000 C   0  0
   16.6844  -15.9829    0.0000 C   0  0
   16.8980  -16.7842    0.0000 C   0  0
   17.6927  -16.9977    0.0000 C   0  0
   15.8882  -15.7669    0.0000 C   0  0
   23.2637  -12.3687    0.0000 C   0  0
   24.0442  -12.6316    0.0000 N   0  0
   24.5381  -11.9707    0.0000 N   0  0
   24.0621  -11.2968    0.0000 C   0  0
   23.2742  -11.5413    0.0000 N   0  0
   22.6131  -11.0478    0.0000 C   0  0
  1  2  2  0
  2  3  1  0
  3  4  2  0
  4  5  1  0
  5  6  2  0
  6  1  1  0
  2  7  1  0
  7  8  1  0
  8  9  1  0
  8 10  2  0
  9 11  1  0
 11 12  1  0
 12 13  1  0
 13 14  2  0
 14 15  1  0
 15 11  2  0
 14 16  1  0
 16 17  1  0
 16 18  1  0
 16 19  1  0
 12 20  1  0
 20 21  2  0
 21 22  1  0
 22 23  2  0
 23 24  1  0
 24 25  2  0
 25 20  1  0
 23 26  1  0
  5 27  1  0
 27 28  2  0
 28 29  1  0
 29 30  2  0
 30 31  1  0
 31 27  1  0
 31 32  1  0
M  END