
          11280715032D 1   1.00000     0.00000     0

 21 22  0     0  0            999 V2000
    3.3250   -2.1917    0.0000 S   0  0  3  0  0  0           0  0  0
    5.7167   -2.1792    0.0000 C   0  0  0  0  0  0           0  0  0
    3.9250   -2.1917    0.0000 C   0  0  0  0  0  0           0  0  0
    3.3167   -1.5917    0.0000 O   0  0  0  0  0  0           0  0  0
    3.3167   -2.7917    0.0000 O   0  0  0  0  0  0           0  0  0
    6.0167   -2.6917    0.0000 N   0  0  0  0  0  0           0  0  0
    5.1167   -2.1792    0.0000 C   0  0  0  0  0  0           0  0  0
    2.7250   -2.1875    0.0000 N   0  0  0  0  0  0           0  0  0
    6.6167   -2.6917    0.0000 C   0  0  0  0  0  0           0  0  0
    6.0125   -1.6542    0.0000 O   0  0  0  0  0  0           0  0  0
    4.2250   -2.7042    0.0000 C   0  0  0  0  0  0           0  0  0
    4.2167   -1.6667    0.0000 C   0  0  0  0  0  0           0  0  0
    4.8125   -1.6667    0.0000 C   0  0  0  0  0  0           0  0  0
    4.8167   -2.7042    0.0000 C   0  0  0  0  0  0           0  0  0
    6.9250   -3.2042    0.0000 S   0  0  0  0  0  0           0  0  0
    7.5250   -3.2042    0.0000 C   0  0  0  0  0  0           0  0  0
    7.8250   -3.7167    0.0000 C   0  0  0  0  0  0           0  0  0
    7.8167   -2.6792    0.0000 C   0  0  0  0  0  0           0  0  0
    8.4125   -2.6750    0.0000 C   0  0  0  0  0  0           0  0  0
    8.4250   -3.7167    0.0000 C   0  0  0  0  0  0           0  0  0
    8.7167   -3.1917    0.0000 C   0  0  0  0  0  0           0  0  0
  2  7  1  0     0  0
  3  1  1  0     0  0
  4  1  2  0     0  0
  5  1  2  0     0  0
  6  2  1  0     0  0
  7 13  1  0     0  0
  8  1  1  0     0  0
  9  6  1  0     0  0
 10  2  2  0     0  0
 11  3  2  0     0  0
 12  3  1  0     0  0
 13 12  2  0     0  0
 14 11  1  0     0  0
 15  9  1  0     0  0
 16 15  1  0     0  0
 17 16  2  0     0  0
 18 16  1  0     0  0
 19 18  2  0     0  0
 20 17  1  0     0  0
 21 19  1  0     0  0
  7 14  2  0     0  0
 21 20  2  0     0  0
M  END