
  CDK    9/16/09,9:58

 19 22  0  0  0  0  0  0  0  0999 V2000
   -5.5181  -16.1597    0.0000 C   0  0  0  0  0  0  0  0  0  0  0  0
   -5.5194  -16.9878    0.0000 C   0  0  0  0  0  0  0  0  0  0  0  0
   -4.8060  -17.4008    0.0000 C   0  0  0  0  0  0  0  0  0  0  0  0
   -4.8080  -15.7467    0.0000 C   0  0  0  0  0  0  0  0  0  0  0  0
   -4.0895  -16.1558    0.0000 C   0  0  0  0  0  0  0  0  0  0  0  0
   -4.0890  -16.9832    0.0000 C   0  0  0  0  0  0  0  0  0  0  0  0
   -3.3019  -17.2384    0.0000 N   0  0  0  0  0  0  0  0  0  0  0  0
   -2.8159  -16.5686    0.0000 C   0  0  0  0  0  0  0  0  0  0  0  0
   -3.3028  -15.8996    0.0000 N   0  0  0  0  0  0  0  0  0  0  0  0
   -1.9905  -16.5680    0.0000 N   0  0  0  0  0  0  0  0  0  0  0  0
   -1.5783  -17.2842    0.0000 C   0  0  0  0  0  0  0  0  0  0  0  0
   -0.7523  -15.8559    0.0000 C   0  0  0  0  0  0  0  0  0  0  0  0
   -1.5804  -15.8528    0.0000 C   0  0  0  0  0  0  0  0  0  0  0  0
   -0.3404  -16.5722    0.0000 C   0  0  0  0  0  0  0  0  0  0  0  0
   -0.7568  -17.2807    0.0000 C   0  0  0  0  0  0  0  0  0  0  0  0
   -0.3515  -17.9936    0.0000 C   0  0  0  0  0  0  0  0  0  0  0  0
    0.4702  -17.9991    0.0000 C   0  0  0  0  0  0  0  0  0  0  0  0
    0.8847  -17.2858    0.0000 C   0  0  0  0  0  0  0  0  0  0  0  0
    0.4770  -16.5758    0.0000 C   0  0  0  0  0  0  0  0  0  0  0  0
  9  5  1  0  0  0  0 
  4  1  1  0  0  0  0 
  8 10  1  0  0  0  0 
 10 11  1  0  0  0  0 
  5  6  1  0  0  0  0 
  2  3  1  0  0  0  0 
 10 13  1  0  0  0  0 
 11 15  1  0  0  0  0 
 14 12  1  0  0  0  0 
 12 13  1  0  0  0  0 
  3  6  2  0  0  0  0 
  1  2  2  0  0  0  0 
 14 15  2  0  0  0  0 
  5  4  2  0  0  0  0 
 15 16  1  0  0  0  0 
  6  7  1  0  0  0  0 
 16 17  2  0  0  0  0 
  7  8  1  0  0  0  0 
 17 18  1  0  0  0  0 
  8  9  2  0  0  0  0 
 18 19  2  0  0  0  0 
 19 14  1  0  0  0  0 
M  END