
  SciTegic05171617292D

 44 49  0  0  0  0            999 V2000
    0.0203   11.5128    0.0000 C   0  0
   -0.8122   10.6485    0.0000 C   0  0
   -0.3969    9.2071    0.0000 C   0  0
   -1.4375    8.1268    0.0000 C   0  0
   -2.8881    8.4875    0.0000 C   0  0
   -3.3087    9.9292    0.0000 C   0  0
   -2.2681   11.0095    0.0000 C   0  0
   -4.0118    7.4927    0.0000 N   0  0
   -5.4782    7.8082    0.0000 N   0  0
   -6.2314    6.5110    0.0000 C   0  0
   -5.2305    5.3938    0.0000 C   0  0
   -3.8775    6.0115    0.0000 C   0  0
   -2.5812    5.2552    0.0000 N   0  0
   -2.5870    3.7544    0.0000 C   0  0
   -3.6288    3.1588    0.0000 O   0  0
   -1.2907    2.9981    0.0000 N   0  0
   -1.2964    1.4973    0.0000 C   0  0
   -2.6111    0.7486    0.0000 C   0  0
   -2.6111   -0.7486    0.0000 C   0  0
   -1.2964   -1.4973    0.0000 C   0  0
   -1.2907   -2.9981    0.0000 O   0  0
   -2.5870   -3.7544    0.0000 C   0  0
   -2.5835   -5.2544    0.0000 C   0  0
   -3.8807   -6.0076    0.0000 C   0  0
   -5.1815   -5.2608    0.0000 N   0  0
   -5.1852   -3.7608    0.0000 C   0  0
   -6.4852   -3.0109    0.0000 N   0  0
   -6.4868   -1.5101    0.0000 C   0  0
   -7.7850   -0.7586    0.0000 C   0  0
   -7.7835    0.7414    0.0000 C   0  0
   -6.4837    1.4900    0.0000 C   0  0
   -5.1854    0.7387    0.0000 C   0  0
   -5.1870   -0.7613    0.0000 C   0  0
   -3.8880   -3.0076    0.0000 N   0  0
    0.0000   -0.7486    0.0000 C   0  0
    1.2964   -1.4973    0.0000 C   0  0
    2.5929   -0.7486    0.0000 C   0  0
    2.5929    0.7486    0.0000 C   0  0
    1.2964    1.4973    0.0000 C   0  0
    0.0000    0.7486    0.0000 C   0  0
   -7.7218    6.3581    0.0000 C   0  0
   -8.4254    7.3302    0.0000 C   0  0
   -8.2123    5.2629    0.0000 C   0  0
   -8.9155    6.2350    0.0000 C   0  0
  1  2  1  0
  2  3  2  0
  3  4  1  0
  4  5  2  0
  5  6  1  0
  6  7  2  0
  2  7  1  0
  5  8  1  0
  8  9  1  0
  9 10  2  0
 10 11  1  0
 11 12  2  0
  8 12  1  0
 12 13  1  0
 13 14  1  0
 14 15  2  0
 14 16  1  0
 16 17  1  0
 17 18  1  0
 18 19  2  0
 19 20  1  0
 20 21  1  0
 21 22  1  0
 22 23  2  0
 23 24  1  0
 24 25  2  0
 25 26  1  0
 26 27  1  0
 27 28  1  0
 28 29  2  0
 29 30  1  0
 30 31  2  0
 31 32  1  0
 32 33  2  0
 28 33  1  0
 26 34  2  0
 22 34  1  0
 20 35  2  0
 35 36  1  0
 36 37  2  0
 37 38  1  0
 38 39  2  0
 39 40  1  0
 17 40  2  0
 35 40  1  0
 10 41  1  0
 41 42  1  0
 41 43  1  0
 41 44  1  0
M  END