
  Mrv0541 06041409262D          

 17 18  0  0  0  0            999 V2000
   13.8799  -11.0610    0.0000 S   0  0  0  0  0  0  0  0  0  0  0  0
   14.5898  -10.6565    0.0000 N   0  0  0  0  0  0  0  0  0  0  0  0
   15.2542  -11.1394    0.0000 C   0  0  0  0  0  0  0  0  0  0  0  0
   16.0343  -10.8835    0.0000 N   0  0  0  0  0  0  0  0  0  0  0  0
   15.2584  -11.9566    0.0000 C   0  0  0  0  0  0  0  0  0  0  0  0
   16.5172  -11.5439    0.0000 O   0  0  0  0  0  0  0  0  0  0  0  0
   13.1782  -10.6524    0.0000 C   0  0  0  0  0  0  0  0  0  0  0  0
   16.0384  -12.2083    0.0000 C   0  0  0  0  0  0  0  0  0  0  0  0
   14.2802  -11.7667    0.0000 O   0  0  0  0  0  0  0  0  0  0  0  0
   13.4630  -11.7667    0.0000 O   0  0  0  0  0  0  0  0  0  0  0  0
   12.4684  -11.0610    0.0000 C   0  0  0  0  0  0  0  0  0  0  0  0
   13.1865   -9.8476    0.0000 C   0  0  0  0  0  0  0  0  0  0  0  0
   11.7543   -9.8352    0.0000 C   0  0  0  0  0  0  0  0  0  0  0  0
   11.0610   -9.4142    0.0000 N   0  0  0  0  0  0  0  0  0  0  0  0
   11.7543  -10.6400    0.0000 C   0  0  0  0  0  0  0  0  0  0  0  0
   12.4807   -9.4266    0.0000 C   0  0  0  0  0  0  0  0  0  0  0  0
   16.2902  -12.9843    0.0000 C   0  0  0  0  0  0  0  0  0  0  0  0
  2  1  1  0  0  0  0
  3  2  1  0  0  0  0
  4  3  2  0  0  0  0
  5  3  1  0  0  0  0
  6  4  1  0  0  0  0
  7  1  1  0  0  0  0
  8  5  2  0  0  0  0
  9  1  2  0  0  0  0
 10  1  2  0  0  0  0
 11  7  1  0  0  0  0
 12  7  2  0  0  0  0
 13 15  1  0  0  0  0
 14 13  1  0  0  0  0
 15 11  2  0  0  0  0
 16 12  1  0  0  0  0
 17  8  1  0  0  0  0
 16 13  2  0  0  0  0
  6  8  1  0  0  0  0
M  END