
  CDK    9/16/09,9:46

 22 23  0  0  0  0  0  0  0  0999 V2000
    1.8125    1.9917    0.0000 C   0  0  0  0  0  0  0  0  0  0  0  0
    1.8125    1.1667    0.0000 C   0  0  0  0  0  0  0  0  0  0  0  0
    2.5245    0.7583    0.0000 C   0  0  0  0  0  0  0  0  0  0  0  0
    3.2365    1.1667    0.0000 C   0  0  0  0  0  0  0  0  0  0  0  0
    3.2365    1.9917    0.0000 C   0  0  0  0  0  0  0  0  0  0  0  0
    2.5245    2.4083    0.0000 O   0  0  0  0  0  0  0  0  0  0  0  0
    3.9522    2.4021    0.0000 O   0  0  0  0  0  0  0  0  0  0  0  0
    3.9504    0.7531    0.0000 O   0  0  0  0  0  0  0  0  0  0  0  0
    2.5245   -0.0667    0.0000 O   0  0  0  0  0  0  0  0  0  0  0  0
    1.0986    0.7531    0.0000 O   0  0  0  0  0  0  0  0  0  0  0  0
    1.0968    2.4021    0.0000 C   0  0  0  0  0  0  0  0  0  0  0  0
    1.0944    3.2271    0.0000 O   0  0  0  0  0  0  0  0  0  0  0  0
    3.8296    3.4146    0.0000 C   0  0  0  0  0  0  0  0  0  0  0  0
    1.8100   -0.4792    0.0000 C   0  0  0  0  0  0  0  0  0  0  0  0
    1.8100   -1.3042    0.0000 C   0  0  0  0  0  0  0  0  0  0  0  0
    1.0956   -0.0667    0.0000 O   0  0  0  0  0  0  0  0  0  0  0  0
    1.0924   -1.7133    0.0000 C   0  0  0  0  0  0  0  0  0  0  0  0
    1.0920   -2.5375    0.0000 C   0  0  0  0  0  0  0  0  0  0  0  0
    2.5239   -2.5339    0.0000 C   0  0  0  0  0  0  0  0  0  0  0  0
    2.5207   -1.7111    0.0000 C   0  0  0  0  0  0  0  0  0  0  0  0
    1.8071   -2.9509    0.0000 C   0  0  0  0  0  0  0  0  0  0  0  0
    1.8071   -3.7759    0.0000 C   0  0  0  0  0  0  0  0  0  0  0  0
  3  4  1  0  0  0  0 
  1 11  1  1  0  0  0 
  4  5  1  0  0  0  0 
 11 12  1  0  0  0  0 
  5  6  1  0  0  0  0 
  7 13  1  0  0  0  0 
  9 14  1  0  0  0  0 
  5  7  1  1  0  0  0 
 14 15  1  0  0  0  0 
  1  2  1  0  0  0  0 
 14 16  2  0  0  0  0 
  4  8  1  1  0  0  0 
 15 17  2  0  0  0  0 
  1  6  1  0  0  0  0 
 17 18  1  0  0  0  0 
  3  9  1  1  0  0  0 
 18 21  2  0  0  0  0 
  2  3  1  0  0  0  0 
 21 19  1  0  0  0  0 
  2 10  1  1  0  0  0 
 19 20  2  0  0  0  0 
 20 15  1  0  0  0  0 
 21 22  1  0  0  0  0 
M  END