
  SciTegic12121614122D

 33 36  0  0  0  0            999 V2000
   -6.4988    7.2101    0.0000 C   0  0
   -6.5006    6.0101    0.0000 N   0  0
   -5.2025    5.2568    0.0000 C   0  0
   -7.5410    5.4120    0.0000 C   0  0
   -5.2049    3.7560    0.0000 C   0  0
   -3.9067    3.0027    0.0000 C   0  0
   -3.9091    1.5019    0.0000 N   0  0
   -2.8664    3.6008    0.0000 O   0  0
   -2.6111    0.7486    0.0000 C   0  0
   -2.6111   -0.7486    0.0000 C   0  0
   -1.2964   -1.4973    0.0000 C   0  0
   -1.2964    1.4973    0.0000 C   0  0
   -3.9091   -1.5019    0.0000 O   0  0
   -3.9067   -3.0027    0.0000 C   0  0  1  0  0  0
   -5.1171   -3.8670    0.0000 C   0  0
   -4.6484   -5.2919    0.0000 C   0  0
   -3.1484   -5.2864    0.0000 O   0  0
   -2.6901   -3.8581    0.0000 C   0  0
    0.0000    0.7486    0.0000 C   0  0
    0.0000   -0.7486    0.0000 C   0  0
    1.2964   -1.4973    0.0000 N   0  0
    2.5929   -0.7486    0.0000 C   0  0
    2.5929    0.7486    0.0000 N   0  0
    1.2964    1.4973    0.0000 C   0  0
    1.2995    2.9981    0.0000 N   0  0
    2.6003    3.7467    0.0000 C   0  0
    2.6056    5.2467    0.0000 C   0  0
    3.9072    5.9922    0.0000 C   0  0
    5.2037    5.2377    0.0000 C   0  0
    5.1985    3.7377    0.0000 C   0  0
    3.8969    2.9922    0.0000 C   0  0
    6.2450    5.8341    0.0000 F   0  0
    3.9114    7.1922    0.0000 Cl  0  0
  1  2  1  0
  2  3  1  0
  2  4  1  0
  3  5  2  0
  5  6  1  0
  6  7  1  0
  6  8  2  0
  7  9  1  0
  9 10  2  0
 10 11  1  0
 11 20  2  0
 19 12  2  0
 12  9  1  0
 10 13  1  0
 14 13  1  6
 14 15  1  0
 15 16  1  0
 16 17  1  0
 17 18  1  0
 18 14  1  0
 19 20  1  0
 20 21  1  0
 21 22  2  0
 22 23  1  0
 23 24  2  0
 24 19  1  0
 24 25  1  0
 25 26  1  0
 26 27  2  0
 27 28  1  0
 28 29  2  0
 29 30  1  0
 30 31  2  0
 31 26  1  0
 29 32  1  0
 28 33  1  0
M  END