
  SciTegic01161211252D

 28 31  0  0  0  0            999 V2000
    2.0140  -23.0461    0.0000 C   0  0
    2.0127  -23.8732    0.0000 C   0  0
    2.7253  -24.2859    0.0000 C   0  0
    3.4442  -23.8727    0.0000 C   0  0
    3.4411  -23.0420    0.0000 C   0  0
    2.7233  -22.6335    0.0000 C   0  0
    2.7243  -25.1056    0.0000 C   0  0
    2.7201  -26.7540    0.0000 C   0  0
    3.4373  -26.3386    0.0000 C   0  0
    3.4354  -25.5161    0.0000 C   0  0
    2.7195  -21.8089    0.0000 N   0  0
    3.4315  -21.3934    0.0000 C   0  0
    3.4277  -20.5688    0.0000 O   0  0
    4.1476  -21.8022    0.0000 N   0  0
    4.8598  -21.3867    0.0000 C   0  0
    5.5765  -21.7987    0.0000 C   0  0
    6.2881  -21.3838    0.0000 C   0  0
    6.2847  -20.5584    0.0000 C   0  0
    5.5637  -20.1496    0.0000 C   0  0
    4.8549  -20.5668    0.0000 C   0  0
    2.0062  -26.3398    0.0000 C   0  0
    2.0117  -25.5129    0.0000 C   0  0
    1.2269  -25.2521    0.0000 C   0  0
    0.7365  -25.9179    0.0000 N   0  0
    1.2180  -26.5900    0.0000 N   0  0
    0.9775  -24.4663    0.0000 N   0  0
    5.5790  -22.6233    0.0000 F   0  0
    5.5569  -19.3251    0.0000 C   0  0
 12 13  2  0
  1  2  2  0
 12 14  1  0
  7 22  2  0
 14 15  1  0
  3  4  2  0
 15 16  2  0
 21  8  2  0
 16 17  1  0
 17 18  2  0
  8  9  1  0
 18 19  1  0
  4  5  1  0
 19 20  2  0
 20 15  1  0
 21 22  1  0
  9 10  2  0
 10  7  1  0
  3  7  1  0
  2  3  1  0
  6 11  1  0
 22 23  1  0
 23 24  2  0
 24 25  1  0
 25 21  1  0
  5  6  2  0
 23 26  1  0
 11 12  1  0
 16 27  1  0
  6  1  1  0
 19 28  1  0
M  END