
          11280715042D 1   1.00000     0.00000     0

 60 64  0     1  0            999 V2000
    5.0917   -3.0042    0.0000 C   0  0  0  0  0  0           0  0  0
    6.7042   -9.0167    0.0000 C   0  0  0  0  0  0           0  0  0
   10.8167   -4.6042    0.0000 C   0  0  0  0  0  0           0  0  0
    6.5292   -4.6500    0.0000 C   0  0  0  0  0  0           0  0  0
    8.6667   -4.2125    0.0000 C   0  0  0  0  0  0           0  0  0
    3.7500   -2.9792    0.0000 N   0  0  0  0  0  0           0  0  0
    9.3917   -4.6167    0.0000 N   0  0  0  0  0  0           0  0  0
    7.2417   -4.2292    0.0000 N   0  0  0  0  0  0           0  0  0
   11.5292   -4.1792    0.0000 N   0  0  0  0  0  0           0  0  0
   10.1042   -4.1917    0.0000 C   0  0  1  0  0  0           0  0  0
    4.4167   -3.4750    0.0000 C   0  0  0  0  0  0           0  0  0
   10.0917   -3.3750    0.0000 C   0  0  0  0  0  0           0  0  0
    5.8167   -4.2417    0.0000 C   0  0  2  0  0  0           0  0  0
    7.9625   -4.6292    0.0000 C   0  0  3  0  0  0           0  0  0
    6.2875   -9.7292    0.0000 N   0  0  0  0  0  0           0  0  0
   12.2417   -4.5792    0.0000 C   0  0  1  0  0  0           0  0  0
   12.9542   -4.1625    0.0000 C   0  0  0  0  0  0           0  0  0
    4.8500   -2.2167    0.0000 C   0  0  0  0  0  0           0  0  0
    5.8125   -3.4167    0.0000 C   0  0  0  0  0  0           0  0  0
    5.1042   -4.6542    0.0000 N   0  0  0  0  0  0           0  0  0
    9.6125   -2.6375    0.0000 C   0  0  0  0  0  0           0  0  0
    6.6917  -10.4417    0.0000 C   0  0  0  0  0  0           0  0  0
    6.2917   -8.3000    0.0000 N   0  0  0  0  0  0           0  0  0
    4.0125   -2.2167    0.0000 C   0  0  0  0  0  0           0  0  0
    5.1042   -5.4792    0.0000 C   0  0  0  0  0  0           0  0  0
    7.5292   -9.0167    0.0000 O   0  0  0  0  0  0           0  0  0
   10.8292   -5.4292    0.0000 O   0  0  0  0  0  0           0  0  0
    8.6625   -3.3875    0.0000 O   0  0  0  0  0  0           0  0  0
    6.5417   -5.4042    0.0000 O   0  0  0  0  0  0           0  0  0
    7.9625   -5.4542    0.0000 C   0  0  0  0  0  0           0  0  0
   12.2542   -5.4042    0.0000 C   0  0  0  0  0  0           0  0  0
   12.9417   -3.3375    0.0000 O   0  0  0  0  0  0           0  0  0
    6.2792  -11.1542    0.0000 C   0  0  0  0  0  0           0  0  0
    8.7875   -2.6292    0.0000 O   0  0  0  0  0  0           0  0  0
    5.8292   -5.8917    0.0000 O   0  0  0  0  0  0           0  0  0
   13.6750   -4.5667    0.0000 N   0  0  0  0  0  0           0  0  0
    6.7042   -7.5875    0.0000 C   0  0  0  0  0  0           0  0  0
    7.5417   -6.1667    0.0000 C   0  0  0  0  0  0           0  0  0
   11.8417   -6.1167    0.0000 C   0  0  0  0  0  0           0  0  0
    5.4542  -11.1500    0.0000 Cl  0  0  0  0  0  0           0  0  0
   10.0167   -1.9167    0.0000 O   0  0  0  0  0  0           0  0  0
   11.0042   -7.5375    0.0000 C   0  0  0  0  0  0           0  0  0
    7.5375   -7.5875    0.0000 C   0  0  0  0  0  0           0  0  0
    6.3000   -6.8667    0.0000 C   0  0  0  0  0  0           0  0  0
    7.9500   -6.8750    0.0000 C   0  0  0  0  0  0           0  0  0
   11.0167   -6.1042    0.0000 C   0  0  0  0  0  0           0  0  0
   12.2417   -6.8292    0.0000 C   0  0  0  0  0  0           0  0  0
    6.7167   -6.1542    0.0000 C   0  0  0  0  0  0           0  0  0
   11.8292   -7.5417    0.0000 C   0  0  0  0  0  0           0  0  0
   10.5917   -6.8167    0.0000 C   0  0  0  0  0  0           0  0  0
    5.2792   -1.4917    0.0000 C   0  0  0  0  0  0           0  0  0
    7.5167  -10.4417    0.0000 C   0  0  0  0  0  0           0  0  0
    4.4000   -5.9042    0.0000 C   0  0  0  0  0  0           0  0  0
    3.5917   -1.4917    0.0000 C   0  0  0  0  0  0           0  0  0
    6.6875  -11.8667    0.0000 C   0  0  0  0  0  0           0  0  0
   10.5792   -8.2500    0.0000 C   0  0  0  0  0  0           0  0  0
    4.8625   -0.7667    0.0000 C   0  0  0  0  0  0           0  0  0
    7.9292  -11.1542    0.0000 C   0  0  0  0  0  0           0  0  0
    4.0167   -0.7625    0.0000 C   0  0  0  0  0  0           0  0  0
    7.5125  -11.8750    0.0000 C   0  0  0  0  0  0           0  0  0
  2 23  1  0     0  0
  3 10  1  0     0  0
  4 13  1  0     0  0
  5 14  1  0     0  0
  6 11  1  0     0  0
  7  5  1  0     0  0
  8  4  1  0     0  0
  9  3  1  0     0  0
 10  7  1  0     0  0
 11  1  2  0     0  0
 10 12  1  1     0  0
 13 19  1  1     0  0
 14  8  1  0     0  0
 15  2  1  0     0  0
 16  9  1  0     0  0
 17 16  1  0     0  0
 18  1  1  0     0  0
 19  1  1  0     0  0
 20 13  1  0     0  0
 21 12  1  0     0  0
 22 15  1  0     0  0
 23 37  1  0     0  0
 24 18  2  0     0  0
 25 20  1  0     0  0
 26  2  2  0     0  0
 27  3  2  0     0  0
 28  5  2  0     0  0
 29  4  2  0     0  0
 30 14  1  0     0  0
 16 31  1  1     0  0
 32 17  2  0     0  0
 33 22  2  0     0  0
 34 21  2  0     0  0
 35 25  2  0     0  0
 36 17  1  0     0  0
 37 44  2  0     0  0
 38 30  1  0     0  0
 39 31  1  0     0  0
 40 33  1  0     0  0
 41 21  1  0     0  0
 42 49  1  0     0  0
 43 45  2  0     0  0
 44 48  1  0     0  0
 45 38  1  0     0  0
 46 39  2  0     0  0
 47 39  1  0     0  0
 48 38  2  0     0  0
 49 47  2  0     0  0
 50 46  1  0     0  0
 51 18  1  0     0  0
 52 22  1  0     0  0
 53 25  1  0     0  0
 54 24  1  0     0  0
 55 33  1  0     0  0
 56 42  1  0     0  0
 57 51  2  0     0  0
 58 52  2  0     0  0
 59 57  1  0     0  0
 60 58  1  0     0  0
  6 24  1  0     0  0
 59 54  2  0     0  0
 37 43  1  0     0  0
 42 50  2  0     0  0
 60 55  2  0     0  0
M  END