
          11280715102D 1   1.00000     0.00000     0

 31 33  0     1  0            999 V2000
    3.8250   -5.8750    0.0000 C   0  0  0  0  0  0           0  0  0
    3.8250   -6.4750    0.0000 C   0  0  0  0  0  0           0  0  0
    3.3042   -6.7750    0.0000 N   0  0  0  0  0  0           0  0  0
    2.7875   -5.8750    0.0000 N   0  0  0  0  0  0           0  0  0
    3.3042   -5.5750    0.0000 C   0  0  0  0  0  0           0  0  0
    2.7875   -6.4750    0.0000 C   0  0  0  0  0  0           0  0  0
    7.3750   -5.3875    0.0000 C   0  0  0  0  0  0           0  0  0
    4.3417   -5.5750    0.0000 S   0  0  0  0  0  0           0  0  0
    7.9667   -5.4542    0.0000 C   0  0  0  0  0  0           0  0  0
    6.9667   -5.8292    0.0000 S   0  0  0  0  0  0           0  0  0
    4.3375   -6.7750    0.0000 N   0  0  0  0  0  0           0  0  0
    8.2125   -6.0042    0.0000 N   0  0  0  0  0  0           0  0  0
    7.0750   -4.8667    0.0000 C   0  0  0  0  0  0           0  0  0
    6.4250   -5.5875    0.0000 C   0  0  0  0  0  0           0  0  0
    9.1625   -5.5875    0.0000 C   0  0  0  0  0  0           0  0  0
    8.8042   -6.0667    0.0000 C   0  0  1  0  0  0           0  0  0
    6.4875   -4.9875    0.0000 C   0  0  0  0  0  0           0  0  0
    3.3042   -4.9750    0.0000 O   0  0  0  0  0  0           0  0  0
    9.8875   -7.2292    0.0000 C   0  0  0  0  0  0           0  0  0
    8.3250   -4.9667    0.0000 O   0  0  0  0  0  0           0  0  0
    9.7542   -5.6500    0.0000 O   0  0  0  0  0  0           0  0  0
    2.2667   -6.7667    0.0000 N   0  0  0  0  0  0           0  0  0
   10.4792   -7.3000    0.0000 O   0  0  0  0  0  0           0  0  0
    4.8625   -5.8792    0.0000 C   0  0  3  0  0  0           0  0  0
    9.0500   -6.6167    0.0000 C   0  0  0  0  0  0           0  0  0
    4.8542   -6.4792    0.0000 C   0  0  0  0  0  0           0  0  0
    9.6417   -6.6792    0.0000 C   0  0  0  0  0  0           0  0  0
    5.9042   -5.8792    0.0000 C   0  0  0  0  0  0           0  0  0
    8.9167   -5.0375    0.0000 O   0  0  0  0  0  0           0  0  0
    9.5292   -7.7167    0.0000 O   0  0  0  0  0  0           0  0  0
    5.3792   -5.5792    0.0000 C   0  0  0  0  0  0           0  0  0
  2  1  1  0     0  0
  3  2  2  0     0  0
  4  5  1  0     0  0
  5  1  2  0     0  0
  6  4  2  0     0  0
  7 10  1  0     0  0
  8  1  1  0     0  0
  9  7  1  0     0  0
 10 14  1  0     0  0
 11  2  1  0     0  0
 12  9  1  0     0  0
 13 17  1  0     0  0
 14 28  1  0     0  0
 16 15  1  1     0  0
 16 12  1  0     0  0
 17 14  2  0     0  0
 18  5  1  0     0  0
 19 27  1  0     0  0
 20  9  2  0     0  0
 21 15  2  0     0  0
 22  6  1  0     0  0
 23 19  2  0     0  0
 24  8  1  0     0  0
 25 16  1  0     0  0
 26 24  1  0     0  0
 27 25  1  0     0  0
 28 31  1  0     0  0
 29 15  1  0     0  0
 30 19  1  0     0  0
 31 24  1  0     0  0
 11 26  1  0     0  0
  6  3  1  0     0  0
  7 13  2  0     0  0
M  END