
          11280714502D 1   1.00000     0.00000     0

  8  8  0     0  0            999 V2000
    5.5250   -6.4667    0.0000 C   0  0  0  0  0  0           0  0  0
    5.8250   -6.9792    0.0000 C   0  0  0  0  0  0           0  0  0
    5.8167   -5.9500    0.0000 C   0  0  0  0  0  0           0  0  0
    6.7292   -6.4625    0.0000 C   0  0  0  0  0  0           0  0  0
    6.4250   -6.9792    0.0000 C   0  0  0  0  0  0           0  0  0
    6.4250   -5.9417    0.0000 C   0  0  0  0  0  0           0  0  0
    5.5167   -5.4292    0.0000 C   0  0  0  0  0  0           0  0  0
    5.5250   -7.5042    0.0000 C   0  0  0  0  0  0           0  0  0
  2  1  1  0     0  0
  3  1  2  0     0  0
  4  6  2  0     0  0
  5  2  2  0     0  0
  6  3  1  0     0  0
  7  3  1  0     0  0
  8  2  1  0     0  0
  4  5  1  0     0  0
M  END