
  SciTegic02271514582D

 16 18  0  0  0  0            999 V2000
   34.4866   -2.7570    0.0000 C   0  0
   35.1919   -2.3525    0.0000 N   0  0
   35.1919   -1.5353    0.0000 C   0  0
   34.4866   -1.1226    0.0000 N   0  0
   33.7814   -2.3525    0.0000 C   0  0
   33.7814   -1.5308    0.0000 N   0  0
   32.9999   -1.2768    0.0000 C   0  0
   32.5168   -1.9416    0.0000 C   0  0
   32.9998   -2.6063    0.0000 C   0  0
   34.4866   -3.5742    0.0000 O   0  0
   35.1944   -3.9828    0.0000 C   0  0
   35.1901   -4.8010    0.0000 C   0  0
   35.8970   -5.2095    0.0000 C   0  0
   36.6057   -4.8009    0.0000 C   0  0
   36.6031   -3.9795    0.0000 N   0  0
   35.8956   -3.5747    0.0000 C   0  0
  6  4  1  0
  5  1  1  0
  1  2  2  0
  2  3  1  0
  3  4  2  0
  5  6  1  0
  6  7  1  0
  7  8  2  0
  8  9  1  0
  9  5  2  0
  1 10  1  0
 10 11  1  0
 11 12  2  0
 12 13  1  0
 13 14  2  0
 14 15  1  0
 15 16  2  0
 16 11  1  0
M  END