
  SciTegic10041313232D

 55 61  0  0  1  0            999 V2000
    6.4736  -25.3708    0.0000 C   0  0
    6.4724  -26.1982    0.0000 C   0  0
    7.1872  -26.6110    0.0000 C   0  0
    7.1854  -24.9580    0.0000 C   0  0
    7.9008  -25.3672    0.0000 C   0  0
    7.9042  -26.2002    0.0000 C   0  0
    8.6234  -26.6115    0.0000 C   0  0
    9.3438  -26.1943    0.0000 C   0  0
    7.4042  -27.3625    0.0000 N   0  0
    8.4042  -27.4042    0.0000 C   0  0
    8.6166  -24.9454    0.0000 C   0  0
    9.3423  -25.3607    0.0000 C   0  0  2  0  0  0
   10.0608  -24.9422    0.0000 N   0  0
   10.0600  -24.1067    0.0000 C   0  0
    9.3342  -23.6913    0.0000 C   0  0  1  0  0  0
    8.6094  -24.1116    0.0000 C   0  0
   10.7763  -25.3530    0.0000 C   0  0
    9.3319  -22.8663    0.0000 C   0  0
   10.0453  -22.4518    0.0000 N   0  0
    8.6163  -22.4558    0.0000 O   0  0
   10.0430  -21.6269    0.0000 C   0  0  2  0  0  0
   10.7563  -21.2124    0.0000 C   0  0
    9.3273  -21.2163    0.0000 C   0  0
    9.3250  -20.3914    0.0000 C   0  0
   11.4719  -21.6229    0.0000 N   0  0
   10.7540  -20.3874    0.0000 O   0  0
   12.1852  -21.2084    0.0000 C   0  0  2  0  0  0
   12.7758  -21.6814    0.0000 C   0  0
   12.1829  -20.3834    0.0000 C   0  0
   12.8962  -19.9689    0.0000 C   0  0
   12.4625  -22.4292    0.0000 O   0  0
   13.5780  -21.4887    0.0000 N   0  0
   10.0542  -25.7708    0.0000 H   0  0
   10.0374  -19.9807    0.0000 C   0  0
   10.0354  -19.1564    0.0000 C   0  0
    9.3192  -18.7451    0.0000 C   0  0
    8.6036  -19.1641    0.0000 C   0  0
    8.6090  -19.9869    0.0000 C   0  0
    9.3145  -17.9150    0.0000 N   0  3
    8.5983  -17.5054    0.0000 O   0  0
   10.0273  -17.4996    0.0000 O   0  5
   12.8939  -19.1439    0.0000 C   0  0
   13.6082  -18.7340    0.0000 C   0  0
   13.6079  -17.9126    0.0000 C   0  0
   12.8941  -17.4982    0.0000 C   0  0
   12.1789  -17.9115    0.0000 C   0  0
   12.1776  -18.7391    0.0000 C   0  0
   14.1419  -22.0905    0.0000 C   0  0
   14.9410  -21.9006    0.0000 C   0  0
   15.1794  -21.1104    0.0000 C   0  0
   14.6123  -20.5099    0.0000 C   0  0
   13.8067  -20.6997    0.0000 C   0  0
   15.5067  -22.5011    0.0000 C   0  0
   15.2695  -23.2912    0.0000 O   0  0
   16.3096  -22.3115    0.0000 N   0  0
 22 26  2  0
 25 27  1  0
  2  3  1  0
 27 28  1  0
  3  6  2  0
 27 29  1  1
  1  2  2  0
 29 30  1  0
  5 11  1  0
 28 31  2  0
 11 16  2  0
 28 32  1  0
 12 13  1  0
 12 33  1  1
 13 14  1  0
 24 34  2  0
 14 15  1  0
 34 35  1  0
 15 16  1  0
 35 36  2  0
  6  7  1  0
 36 37  1  0
 13 17  1  0
 37 38  2  0
 38 24  1  0
  7  8  1  0
 15 18  1  1
  8 12  1  0
 39 40  2  0
 39 41  1  0
 36 39  1  0
 18 19  1  0
 30 42  1  0
 42 43  1  0
  5  4  2  0
 18 20  2  0
  3  9  1  0
 19 21  1  0
  4  1  1  0
 42 47  1  0
 43 44  1  0
 44 45  1  0
 45 46  1  0
 46 47  1  0
 32 48  1  0
 21 22  1  0
  7 10  2  0
 21 23  1  1
  9 10  1  0
 23 24  1  0
 32 52  1  0
 48 49  1  0
 49 50  1  0
 50 51  1  0
 51 52  1  0
 11 12  1  0
 49 53  1  0
 22 25  1  0
 53 54  2  0
  5  6  1  0
 53 55  1  0
M  CHG  2  39   1  41  -1
M  END