
          11280715492D 1   1.00000     0.00000     0

 24 27  0     0  0            999 V2000
    0.8535   -4.6998    0.0000 C   0  0  0  0  0  0           0  0  0
    0.1213   -4.3623    0.0000 N   0  0  3  0  0  0           0  0  0
    0.7052   -3.9547    0.0000 C   0  0  0  0  0  0           0  0  0
   -0.6999   -4.7147    0.0000 C   0  0  0  0  0  0           0  0  0
    0.2581   -3.3471    0.0000 C   0  0  0  0  0  0           0  0  0
   -0.0181   -3.6301    0.0000 C   0  0  3  0  0  0           0  0  0
   -0.8035   -3.9764    0.0000 C   0  0  3  0  0  0           0  0  0
    0.0196   -2.7543    0.0000 C   0  0  0  0  0  0           0  0  0
   -1.0241   -3.1765    0.0000 O   0  0  0  0  0  0           0  0  0
   -1.8218   -2.9689    0.0000 C   0  0  0  0  0  0           0  0  0
   -1.6069   -4.1881    0.0000 C   0  0  0  0  0  0           0  0  0
   -2.4062   -4.4004    0.0000 C   0  0  0  0  0  0           0  0  0
   -3.2055   -4.6127    0.0000 C   0  0  3  0  0  0           0  0  0
   -4.0049   -4.8251    0.0000 C   0  0  0  0  0  0           0  0  0
   -2.9939   -5.4094    0.0000 C   0  0  3  0  0  0           0  0  0
   -3.4172   -3.8160    0.0000 O   0  0  0  0  0  0           0  0  0
   -4.5902   -4.2392    0.0000 C   0  0  0  0  0  0           0  0  0
   -5.3853   -4.4510    0.0000 C   0  0  0  0  0  0           0  0  0
   -5.6018   -5.2501    0.0000 C   0  0  0  0  0  0           0  0  0
   -5.0162   -5.8373    0.0000 C   0  0  0  0  0  0           0  0  0
   -4.2204   -5.6225    0.0000 C   0  0  0  0  0  0           0  0  0
   -3.4062   -6.1212    0.0000 C   0  0  0  0  0  0           0  0  0
   -2.6932   -6.5349    0.0000 C   0  0  0  0  0  0           0  0  0
   -2.2795   -5.8220    0.0000 C   0  0  0  0  0  0           0  0  0
  2  4  1  0     0  0
 11 12  3  0     0  0
  2  5  1  0     0  0
 12 13  1  0     0  0
  3  6  1  0     0  0
 13 14  1  0     0  0
  4  7  1  0     0  0
 13 15  1  0     0  0
  5  8  1  0     0  0
 13 16  1  0     0  0
  6  7  1  0     0  0
 14 17  2  0     0  0
  6  8  1  0     0  0
 17 18  1  0     0  0
 18 19  2  0     0  0
  7  9  1  0     0  0
 19 20  1  0     0  0
  1  2  1  0     0  0
 20 21  2  0     0  0
 21 14  1  0     0  0
 15 22  1  0     0  0
  9 10  1  0     0  0
  1  3  1  0     0  0
  7 11  1  0     0  0
 22 23  1  0     0  0
 23 24  1  0     0  0
 24 15  1  0     0  0
M  END