
  Mrv0541 04051115152D          

 29 32  0  0  0  0            999 V2000
    4.1993    0.8169    0.0000 C   0  0  0  0  0  0  0  0  0  0  0  0
    3.4848    0.4044    0.0000 C   0  0  0  0  0  0  0  0  0  0  0  0
    3.4848   -0.4206    0.0000 C   0  0  0  0  0  0  0  0  0  0  0  0
    2.7703   -0.8331    0.0000 C   0  0  0  0  0  0  0  0  0  0  0  0
    2.0559   -0.4206    0.0000 C   0  0  0  0  0  0  0  0  0  0  0  0
    2.0559    0.4044    0.0000 C   0  0  0  0  0  0  0  0  0  0  0  0
    2.7703    0.8169    0.0000 C   0  0  0  0  0  0  0  0  0  0  0  0
   -2.2310   -0.4206    0.0000 C   0  0  0  0  0  0  0  0  0  0  0  0
   -2.9454   -0.8331    0.0000 C   0  0  0  0  0  0  0  0  0  0  0  0
   -3.6599   -0.4206    0.0000 C   0  0  0  0  0  0  0  0  0  0  0  0
   -3.6599    0.4044    0.0000 C   0  0  0  0  0  0  0  0  0  0  0  0
   -2.9454    0.8169    0.0000 C   0  0  0  0  0  0  0  0  0  0  0  0
   -2.2310    0.4044    0.0000 C   0  0  0  0  0  0  0  0  0  0  0  0
   -2.5581   -1.5615    0.0000 C   0  0  0  0  0  0  0  0  0  0  0  0
   -3.3327   -1.5615    0.0000 C   0  0  0  0  0  0  0  0  0  0  0  0
   -3.3327    1.5453    0.0000 C   0  0  0  0  0  0  0  0  0  0  0  0
   -2.5581    1.5453    0.0000 C   0  0  0  0  0  0  0  0  0  0  0  0
    4.1993    1.6419    0.0000 O   0  0  0  0  0  0  0  0  0  0  0  0
    4.9138    0.4044    0.0000 O   0  0  0  0  0  0  0  0  0  0  0  0
    1.3414   -0.8331    0.0000 C   0  0  0  0  0  0  0  0  0  0  0  0
    0.6269   -0.4206    0.0000 C   0  0  0  0  0  0  0  0  0  0  0  0
    0.6269    0.4044    0.0000 C   0  0  0  0  0  0  0  0  0  0  0  0
    1.3414    0.8169    0.0000 C   0  0  0  0  0  0  0  0  0  0  0  0
   -0.8020   -0.4206    0.0000 C   0  0  0  0  0  0  0  0  0  0  0  0
   -1.5165   -0.8331    0.0000 C   0  0  0  0  0  0  0  0  0  0  0  0
   -1.5165    0.8169    0.0000 C   0  0  0  0  0  0  0  0  0  0  0  0
   -0.8020    0.4044    0.0000 C   0  0  0  0  0  0  0  0  0  0  0  0
   -0.0875   -0.8331    0.0000 C   0  0  1  0  0  0  0  0  0  0  0  0
   -0.0875   -1.6581    0.0000 O   0  0  0  0  0  0  0  0  0  0  0  0
  1  2  1  0  0  0  0
  1 18  2  0  0  0  0
  1 19  1  0  0  0  0
  2  3  2  0  0  0  0
  7  2  1  0  0  0  0
  3  4  1  0  0  0  0
  4  5  2  0  0  0  0
  6  5  1  0  0  0  0
  5 20  1  0  0  0  0
  6  7  2  0  0  0  0
  6 23  1  0  0  0  0
  8  9  1  0  0  0  0
  8 13  2  0  0  0  0
 25  8  1  0  0  0  0
  9 10  1  0  0  0  0
  9 14  1  0  0  0  0
  9 15  1  0  0  0  0
 10 11  1  0  0  0  0
 11 12  1  0  0  0  0
 12 13  1  0  0  0  0
 12 16  1  0  0  0  0
 12 17  1  0  0  0  0
 13 26  1  0  0  0  0
 20 21  2  0  0  0  0
 21 22  1  0  0  0  0
 28 21  1  0  0  0  0
 22 23  2  0  0  0  0
 24 25  2  0  0  0  0
 24 27  1  0  0  0  0
 28 24  1  0  0  0  0
 26 27  2  0  0  0  0
 28 29  1  6  0  0  0
M  END