
  SciTegic12231509382D

 32 36  0  0  0  0            999 V2000
    5.7575   -6.2115    0.0000 C   0  0
    5.7534   -5.3943    0.0000 N   0  0
    6.4672   -6.6165    0.0000 O   0  0
    5.0518   -6.6236    0.0000 C   0  0
    4.2981   -6.2969    0.0000 N   0  0
    3.7543   -6.9069    0.0000 C   0  0
    4.1665   -7.6126    0.0000 S   0  0
    4.9649   -7.4386    0.0000 C   0  0
    6.4130   -4.9043    0.0000 C   0  0  1  0  0  0
    6.1565   -4.1284    0.0000 C   0  0
    5.3393   -4.1325    0.0000 C   0  0
    5.0908   -4.9110    0.0000 C   0  0
    7.1921   -5.1507    0.0000 C   0  0
    7.7951   -4.5992    0.0000 C   0  0
    8.5929   -4.7606    0.0000 O   0  0
    8.9960   -4.0497    0.0000 C   0  0
    8.4444   -3.4467    0.0000 N   0  0
    7.7005   -3.7850    0.0000 N   0  0
    9.8030   -3.9565    0.0000 C   0  0
   10.2881   -4.6155    0.0000 C   0  0
   11.0994   -4.5242    0.0000 C   0  0
   11.4267   -3.7745    0.0000 C   0  0
   10.9366   -3.1153    0.0000 C   0  0
   10.1270   -3.2099    0.0000 C   0  0
    2.9412   -6.8256    0.0000 C   0  0
    5.5732   -7.9842    0.0000 C   0  0
    5.4009   -8.7819    0.0000 C   0  0
    6.0084   -9.3274    0.0000 C   0  0
    6.7861   -9.0736    0.0000 C   0  0
    6.9528   -8.2692    0.0000 C   0  0
    6.3440   -7.7273    0.0000 C   0  0
    4.6235   -9.0337    0.0000 F   0  0
  1  2  1  0
  1  3  2  0
  1  4  1  0
  4  5  1  0
  5  6  2  0
  6  7  1  0
  7  8  1  0
  8  4  2  0
  2  9  1  0
  9 10  1  0
 10 11  1  0
 11 12  1  0
 12  2  1  0
  9 13  1  1
 13 14  1  0
 14 15  1  0
 15 16  1  0
 16 17  2  0
 17 18  1  0
 18 14  2  0
 19 20  2  0
 20 21  1  0
 21 22  2  0
 22 23  1  0
 23 24  2  0
 24 19  1  0
 16 19  1  0
  6 25  1  0
  8 26  1  0
 26 27  2  0
 27 28  1  0
 28 29  2  0
 29 30  1  0
 30 31  2  0
 31 26  1  0
 27 32  1  0
M  END