
  SciTegic05281317142D

 24 26  0  0  0  0            999 V2000
   -2.5706    2.2287    0.0000 N   0  0
    0.0000   -0.7486    0.0000 C   0  0
    0.0000    0.7486    0.0000 C   0  0
   -2.6111    0.7486    0.0000 C   0  0  2  0  0  0
   -1.2964    1.4973    0.0000 C   0  0
   -1.2964   -1.4973    0.0000 C   0  0
   -1.2690    2.9758    0.0000 C   0  0
   -2.6111   -0.7486    0.0000 C   0  0
    1.2964   -1.4973    0.0000 C   0  0
   -1.2642    4.4766    0.0000 C   0  0
    1.2964   -2.6973    0.0000 O   0  0
   -3.8667    2.9855    0.0000 C   0  0
    0.0375    5.2237    0.0000 C   0  0
    1.2964    1.4973    0.0000 C   0  0
    2.5929    0.7486    0.0000 C   0  0
    2.5929   -0.7486    0.0000 C   0  0
    0.0444    6.7237    0.0000 C   0  0
    1.3332    4.4678    0.0000 C   0  0
   -3.8602    4.4863    0.0000 C   0  0
   -4.8965    5.0915    0.0000 C   0  0
    2.6356    5.2118    0.0000 C   0  0
    1.3469    7.4678    0.0000 C   0  0
    2.6425    6.7118    0.0000 C   0  0
   -3.4663    0.2303    0.0000 H   0  0
  2  6  1  0
  3  5  1  0
  4  1  1  6
  5  4  1  0
  6  8  1  0
  7  1  1  0
  8  4  1  0
  9  2  2  0
 10  7  1  0
 11  9  1  0
  1 12  1  0
 13 10  1  0
 14  3  2  0
 15 14  1  0
 16  9  1  0
 17 13  2  0
 18 13  1  0
 19 12  1  0
 20 19  1  0
 21 18  2  0
 22 17  1  0
 23 21  1  0
  4 24  1  1
  2  3  1  0
 22 23  2  0
 16 15  2  0
M  END