
  CDK    9/16/09,9:58

 19 22  0  0  0  0  0  0  0  0999 V2000
    2.4825  -16.2474    0.0000 C   0  0  0  0  0  0  0  0  0  0  0  0
    2.4812  -17.0750    0.0000 C   0  0  0  0  0  0  0  0  0  0  0  0
    3.1942  -17.4879    0.0000 C   0  0  0  0  0  0  0  0  0  0  0  0
    3.1922  -15.8346    0.0000 C   0  0  0  0  0  0  0  0  0  0  0  0
    3.9104  -16.2435    0.0000 C   0  0  0  0  0  0  0  0  0  0  0  0
    3.9109  -17.0704    0.0000 C   0  0  0  0  0  0  0  0  0  0  0  0
    4.6976  -17.3255    0.0000 N   0  0  0  0  0  0  0  0  0  0  0  0
    5.1833  -16.6561    0.0000 C   0  0  0  0  0  0  0  0  0  0  0  0
    4.6966  -15.9874    0.0000 N   0  0  0  0  0  0  0  0  0  0  0  0
    6.0083  -16.6555    0.0000 N   0  0  0  0  0  0  0  0  0  0  0  0
    6.4213  -17.3696    0.0000 C   0  0  0  0  0  0  0  0  0  0  0  0
    6.0899  -18.1249    0.0000 C   0  0  0  0  0  0  0  0  0  0  0  0
    6.7033  -18.6765    0.0000 C   0  0  0  0  0  0  0  0  0  0  0  0
    7.2454  -17.4566    0.0000 C   0  0  0  0  0  0  0  0  0  0  0  0
    7.4171  -18.2622    0.0000 C   0  0  0  0  0  0  0  0  0  0  0  0
    8.1992  -18.5148    0.0000 C   0  0  0  0  0  0  0  0  0  0  0  0
    8.8102  -17.9627    0.0000 C   0  0  0  0  0  0  0  0  0  0  0  0
    8.6339  -17.1549    0.0000 C   0  0  0  0  0  0  0  0  0  0  0  0
    7.8520  -16.9062    0.0000 C   0  0  0  0  0  0  0  0  0  0  0  0
  9  5  1  0  0  0  0 
  4  1  1  0  0  0  0 
  8 10  1  0  0  0  0 
  5  6  1  0  0  0  0 
 10 11  1  0  0  0  0 
 11 12  1  0  0  0  0 
  2  3  1  0  0  0  0 
 12 13  1  0  0  0  0 
 13 15  1  0  0  0  0 
 14 11  1  0  0  0  0 
  3  6  2  0  0  0  0 
  1  2  2  0  0  0  0 
 14 15  2  0  0  0  0 
  5  4  2  0  0  0  0 
 15 16  1  0  0  0  0 
  6  7  1  0  0  0  0 
 16 17  2  0  0  0  0 
  7  8  1  0  0  0  0 
 17 18  1  0  0  0  0 
  8  9  2  0  0  0  0 
 18 19  2  0  0  0  0 
 19 14  1  0  0  0  0 
M  END