
  SciTegic12231509382D

 26 29  0  0  0  0            999 V2000
    1.7138    1.2033    0.0000 C   0  0
    1.7138   -1.2033    0.0000 C   0  0
    0.2917    0.7475    0.0000 C   0  0
    0.2917   -0.7475    0.0000 C   0  0
    2.5889    0.0182    0.0000 C   0  0
    8.0653   -3.8290    0.0000 C   0  0
    3.6552   -2.9294    0.0000 N   0  0
    2.1855   -2.6254    0.0000 C   0  0
    9.0596   -2.7047    0.0000 C   0  0
    6.5944   -3.5310    0.0000 C   0  0
    2.0825    2.3453    0.0000 O   0  0
    8.4467   -4.9668    0.0000 O   0  0
   10.5302   -3.0004    0.0000 C   0  0
    8.5804   -1.2832    0.0000 C   0  0
    5.5991   -4.6533    0.0000 C   0  0
    6.1201   -2.1080    0.0000 C   0  0
    4.1295   -4.3524    0.0000 C   0  0
    4.6506   -1.8071    0.0000 C   0  0
   11.0424   -0.4533    0.0000 C   0  0
    9.5718   -0.1576    0.0000 C   0  0
   11.5216   -1.8747    0.0000 C   0  0
   11.8355    0.4472    0.0000 F   0  0
   -1.0028    1.5132    0.0000 C   0  0
   -1.0028   -1.5132    0.0000 C   0  0
   -2.3155    0.7475    0.0000 C   0  0
   -2.3155   -0.7475    0.0000 C   0  0
  1  3  1  0
  2  4  1  0
  3  4  2  0
  1  5  1  0
  2  5  1  0
  2  8  1  0
  7  8  1  0
  6  9  1  0
  6 10  1  0
  1 11  2  0
  6 12  2  0
  9 13  2  0
  9 14  1  0
 10 15  1  0
 10 16  1  0
  7 17  1  0
 15 17  1  0
  7 18  1  0
 16 18  1  0
 14 20  2  0
 19 20  1  0
 13 21  1  0
 19 21  2  0
 19 22  1  0
  3 23  1  0
  4 24  1  0
 23 25  2  0
 24 26  2  0
 25 26  1  0
M  END