
  SciTegic12231509382D

 34 38  0  0  0  0            999 V2000
    3.1525  -15.5554    0.0000 C   0  0
    3.7055  -16.1718    0.0000 C   0  0
    4.5305  -16.1718    0.0000 C   0  0
    4.9430  -16.8835    0.0000 C   0  0
    4.5305  -17.5994    0.0000 C   0  0
    3.7055  -17.5994    0.0000 C   0  0
    3.2930  -16.8835    0.0000 C   0  0
    2.4870  -16.7153    0.0000 C   0  0
    1.8175  -17.1959    0.0000 C   0  0
    1.0631  -16.8624    0.0000 C   0  0
    0.9782  -16.0402    0.0000 C   0  0
    1.6436  -15.5554    0.0000 C   0  0
    2.3981  -15.8930    0.0000 C   0  0
    5.7680  -16.8835    0.0000 C   0  0
    6.1805  -17.5994    0.0000 O   0  0
    6.1805  -16.1718    0.0000 N   0  0
    7.0055  -16.1718    0.0000 C   0  0
    7.4180  -16.8835    0.0000 C   0  0
    8.2430  -16.8835    0.0000 C   0  0
    8.6555  -17.5994    0.0000 C   0  0
    9.4805  -17.5994    0.0000 N   0  0
    9.8930  -16.8835    0.0000 C   0  0
   10.7180  -16.8835    0.0000 C   0  0
   11.1305  -17.5994    0.0000 N   0  0
   10.7180  -18.3153    0.0000 C   0  0
    9.8930  -18.3153    0.0000 C   0  0
   11.9554  -17.5994    0.0000 C   0  0
   12.3679  -16.8835    0.0000 C   0  0
   13.1929  -16.8835    0.0000 C   0  0
   13.6054  -17.5994    0.0000 C   0  0
   13.1929  -18.3153    0.0000 C   0  0
   12.3679  -18.3153    0.0000 C   0  0
   13.6054  -16.1718    0.0000 Cl  0  0
   11.9554  -16.1718    0.0000 Cl  0  0
  1  2  1  0
  2  3  1  0
  3  4  2  0
  4  5  1  0
  5  6  2  0
  6  7  1  0
  2  7  2  0
  7  8  1  0
  8  9  1  0
  9 10  2  0
 10 11  1  0
 11 12  2  0
 12 13  1  0
  8 13  2  0
  1 13  1  0
 14 15  2  0
 14 16  1  0
  4 14  1  0
 17 18  1  0
 18 19  1  0
 19 20  1  0
 21 22  1  0
 22 23  1  0
 23 24  1  0
 24 25  1  0
 25 26  1  0
 21 26  1  0
 27 28  1  0
 28 29  2  0
 29 30  1  0
 30 31  2  0
 31 32  1  0
 27 32  2  0
 29 33  1  0
 28 34  1  0
 24 27  1  0
 20 21  1  0
 16 17  1  0
M  END