
  Mrv0541 05211314572D          

 26 24  0  0  0  0            999 V2000
   -2.7876    2.1731    0.0000 C   0  0  0  0  0  0  0  0  0  0  0  0
   -3.5413    1.8375    0.0000 N   0  0  0  0  0  0  0  0  0  0  0  0
    3.7289   -0.7189    0.0000 N   0  0  0  0  0  0  0  0  0  0  0  0
   -2.8738    2.9936    0.0000 C   0  0  0  0  0  0  0  0  0  0  0  0
   -0.6442   -1.5394    0.0000 C   0  0  0  0  0  0  0  0  0  0  0  0
   -4.0933    2.4506    0.0000 C   0  0  0  0  0  0  0  0  0  0  0  0
   -3.6808    3.1651    0.0000 N   0  0  0  0  0  0  0  0  0  0  0  0
    4.9483   -1.2619    0.0000 N   0  0  0  0  0  0  0  0  0  0  0  0
    4.5358   -0.5474    0.0000 C   0  0  0  0  0  0  0  0  0  0  0  0
    3.6426   -1.5394    0.0000 C   0  0  0  0  0  0  0  0  0  0  0  0
   -1.3587   -1.9519    0.0000 N   0  0  0  0  0  0  0  0  0  0  0  0
    4.3963   -1.8750    0.0000 C   0  0  0  0  0  0  0  0  0  0  0  0
    0.0703   -1.9519    0.0000 N   0  0  0  0  0  0  0  0  0  0  0  0
   -0.6442   -0.7144    0.0000 N   0  0  0  0  0  0  0  0  0  0  0  0
   -2.0731    1.7606    0.0000 C   0  0  0  0  0  0  0  0  0  0  0  0
   -2.0731    0.9356    0.0000 S   0  0  0  0  0  0  0  0  0  0  0  0
    7.1876    0.0000    0.0000 Cl  0  0  0  0  0  0  0  0  0  0  0  0
    0.0000   -3.6019    0.0000 Cl  0  0  0  0  0  0  0  0  0  0  0  0
    2.2393   -3.6019    0.0000 Cl  0  0  0  0  0  0  0  0  0  0  0  0
   -2.2607    3.5456    0.0000 C   0  0  0  0  0  0  0  0  0  0  0  0
    2.9282   -1.9519    0.0000 C   0  0  0  0  0  0  0  0  0  0  0  0
   -1.3587   -0.3019    0.0000 C   0  0  0  0  0  0  0  0  0  0  0  0
    0.7848   -1.5394    0.0000 C   0  0  0  0  0  0  0  0  0  0  0  0
   -1.3587    0.5231    0.0000 C   0  0  0  0  0  0  0  0  0  0  0  0
    2.2137   -1.5394    0.0000 C   0  0  0  0  0  0  0  0  0  0  0  0
    1.4992   -1.9519    0.0000 C   0  0  0  0  0  0  0  0  0  0  0  0
  1  2  1  0  0  0  0
  1  4  2  0  0  0  0
  2  6  2  0  0  0  0
  4  7  1  0  0  0  0
  6  7  1  0  0  0  0
  3  9  2  0  0  0  0
  8  9  1  0  0  0  0
  3 10  1  0  0  0  0
  5 11  1  0  0  0  0
  8 12  1  0  0  0  0
 10 12  2  0  0  0  0
  5 13  1  0  0  0  0
  5 14  2  0  0  0  0
  1 15  1  0  0  0  0
 15 16  1  0  0  0  0
  4 20  1  0  0  0  0
 10 21  1  0  0  0  0
 14 22  1  0  0  0  0
 13 23  1  0  0  0  0
 16 24  1  0  0  0  0
 22 24  1  0  0  0  0
 21 25  1  0  0  0  0
 23 26  1  0  0  0  0
 25 26  1  0  0  0  0
M  END