
  SciTegic02011310452D

 28 30  0  0  0  0            999 V2000
    1.4499  -29.2378    0.0000 C   0  0
    1.4487  -30.0659    0.0000 N   0  0
    2.1641  -30.4791    0.0000 C   0  0
    2.8811  -30.0654    0.0000 N   0  0
    2.8783  -29.2342    0.0000 C   0  0
    2.1623  -28.8246    0.0000 C   0  0
    3.5919  -28.8186    0.0000 N   0  0
    4.3085  -29.2287    0.0000 C   0  0
    4.3082  -30.0521    0.0000 C   0  0
    5.0241  -30.4621    0.0000 C   0  0
    5.7385  -30.0466    0.0000 C   0  0
    5.7328  -29.2166    0.0000 C   0  0
    5.0164  -28.8103    0.0000 C   0  0
    2.1639  -31.3048    0.0000 N   0  0
    2.8789  -31.7178    0.0000 C   0  0
    2.8745  -32.5417    0.0000 C   0  0
    3.5886  -32.9547    0.0000 C   0  0
    4.3048  -32.5419    0.0000 C   0  0
    4.3024  -31.7119    0.0000 C   0  0
    3.5876  -31.3027    0.0000 C   0  0
    5.0090  -27.9846    0.0000 O   0  0
    5.7203  -27.5653    0.0000 C   0  0
    5.7130  -26.7396    0.0000 F   0  0
    6.4391  -27.9717    0.0000 F   0  0
    6.4306  -27.1443    0.0000 F   0  0
    5.0223  -32.9534    0.0000 C   0  0
    5.0233  -33.7791    0.0000 O   0  0
    5.7370  -32.5397    0.0000 O   0  0
  1  2  2  0
  2  3  1  0
  3  4  2  0
  4  5  1  0
  5  6  2  0
  6  1  1  0
  5  7  1  0
  7  8  1  0
  8  9  2  0
  9 10  1  0
 10 11  2  0
 11 12  1  0
 12 13  2  0
 13  8  1  0
  3 14  1  0
 14 15  1  0
 15 16  2  0
 16 17  1  0
 17 18  2  0
 18 19  1  0
 19 20  2  0
 20 15  1  0
 13 21  1  0
 21 22  1  0
 22 23  1  0
 22 24  1  0
 22 25  1  0
 26 27  1  0
 26 28  2  0
 18 26  1  0
M  END