
          11280715342D 1   1.00000     0.00000     0

 21 21  0     0  0            999 V2000
   -0.6083   -1.4542    0.0000 S   0  0  3  0  0  0           0  0  0
    2.6875   -1.4417    0.0000 C   0  0  0  0  0  0           0  0  0
    3.1042   -2.1542    0.0000 N   0  0  0  0  0  0           0  0  0
    3.9292   -2.1417    0.0000 C   0  0  3  0  0  0           0  0  0
    4.3375   -1.4292    0.0000 C   0  0  0  0  0  0           0  0  0
    4.3417   -2.8542    0.0000 C   0  0  0  0  0  0           0  0  0
    0.2167   -1.4542    0.0000 C   0  0  0  0  0  0           0  0  0
    5.1625   -1.4250    0.0000 C   0  0  0  0  0  0           0  0  0
   -0.6083   -2.2792    0.0000 O   0  0  0  0  0  0           0  0  0
   -0.6083   -0.6292    0.0000 O   0  0  0  0  0  0           0  0  0
    1.8625   -1.4417    0.0000 C   0  0  0  0  0  0           0  0  0
   -1.4333   -1.4500    0.0000 N   0  0  0  0  0  0           0  0  0
    3.0917   -0.7250    0.0000 O   0  0  0  0  0  0           0  0  0
    3.9375   -3.5750    0.0000 O   0  0  0  0  0  0           0  0  0
    5.5792   -2.1375    0.0000 O   0  0  0  0  0  0           0  0  0
    0.6167   -0.7417    0.0000 C   0  0  0  0  0  0           0  0  0
    0.6292   -2.1667    0.0000 C   0  0  0  0  0  0           0  0  0
    1.4542   -2.1625    0.0000 C   0  0  0  0  0  0           0  0  0
    1.4417   -0.7292    0.0000 C   0  0  0  0  0  0           0  0  0
    5.1667   -2.8542    0.0000 O   0  0  0  0  0  0           0  0  0
    5.5667   -0.7042    0.0000 O   0  0  0  0  0  0           0  0  0
  2 11  1  0     0  0
  3  2  1  0     0  0
  4  3  1  0     0  0
  5  4  1  0     0  0
  6  4  1  0     0  0
  7  1  1  0     0  0
  8  5  1  0     0  0
  9  1  2  0     0  0
 10  1  2  0     0  0
 11 18  2  0     0  0
 12  1  1  0     0  0
 13  2  2  0     0  0
 14  6  2  0     0  0
 15  8  2  0     0  0
 16  7  1  0     0  0
 17  7  2  0     0  0
 18 17  1  0     0  0
 19 16  2  0     0  0
 20  6  1  0     0  0
 21  8  1  0     0  0
 11 19  1  0     0  0
M  END