
  SciTegic02211318192D

 30 31  0  0  0  0            999 V2000
   -2.2649   -3.1285    0.0000 C   0  0
   -1.5556   -3.5346    0.0000 N   0  0
   -0.8407   -3.1228    0.0000 C   0  0
   -2.9798   -3.5403    0.0000 C   0  0
   -0.1201   -3.5232    0.0000 N   0  0
    0.5891   -3.1114    0.0000 C   0  0  1  0  0  0
    2.0819   -3.1114    0.0000 N   0  0
    3.3344   -4.4326    0.0000 C   0  0
    4.9816   -3.0084    0.0000 C   0  0
    3.7462   -3.7233    0.0000 C   0  0
    4.5698   -3.7233    0.0000 C   0  0
    1.3269   -3.5403    0.0000 C   0  0
   -2.2763   -2.3050    0.0000 O   0  0
   -3.6890   -3.1285    0.0000 C   0  0
    0.5891   -2.2363    0.0000 C   0  0
   -0.8407   -2.2992    0.0000 O   0  0
    4.4497   -2.3736    0.0000 O   0  0
    2.5109   -4.4326    0.0000 O   0  0
    1.3269   -1.8074    0.0000 C   0  0
    1.4985   -2.4594    0.0000 C   0  0
    2.0819   -2.2363    0.0000 C   0  0
    0.8808   -2.9512    0.0000 C   0  0
    5.7881   -2.8712    0.0000 O   0  0
    3.7462   -5.1474    0.0000 O   0  0
   -2.9798   -4.3753    0.0000 C   0  0
   -3.7004   -2.3050    0.0000 O   0  0
   -4.4039   -3.5403    0.0000 C   0  0
   -4.4096   -1.9046    0.0000 C   0  0
   -3.6890   -4.7871    0.0000 C   0  0
   -4.4039   -4.3753    0.0000 C   0  0
  2  1  1  0
  3  2  1  0
  4  1  1  0
  5  3  1  0
  6  5  1  6
  7 12  1  0
  9 11  1  0
 10  8  1  0
 11 10  2  0
 12  6  1  0
 13  1  2  0
 14  4  2  0
 15  6  1  0
 16  3  2  0
 17  9  2  0
 18  8  2  0
 19 15  1  0
 20 15  1  0
 21  7  1  0
 22  7  1  0
 23  9  1  0
 24  8  1  0
 25  4  1  0
 26 14  1  0
 27 14  1  0
 28 26  1  0
 29 25  2  0
 30 29  1  0
 30 27  2  0
 20 22  1  0
 19 21  1  0
M  END