
  SciTegic02181312462D

 35 38  0  0  0  0            999 V2000
    1.7114   -4.9196    0.0000 C   0  0
    1.7102   -5.7392    0.0000 C   0  0
    2.4183   -6.1481    0.0000 C   0  0
    2.4165   -4.5108    0.0000 C   0  0
    3.9089   -4.6598    0.0000 C   0  0
    3.1251   -4.9160    0.0000 C   0  0
    3.1276   -5.7413    0.0000 C   0  0
    3.9140   -5.9926    0.0000 N   0  0
    4.3947   -5.3217    0.0000 C   0  0
    4.1709   -6.7683    0.0000 C   0  0
    5.2107   -5.3163    0.0000 C   0  0
    5.6227   -6.0233    0.0000 C   0  0
    6.4391   -6.0190    0.0000 C   0  0
    6.8445   -5.3085    0.0000 N   0  0
    6.4275   -4.6008    0.0000 C   0  0
    5.6125   -4.6086    0.0000 C   0  0
    6.8514   -6.7246    0.0000 C   0  0
    6.4465   -7.4344    0.0000 O   0  0
    7.6686   -6.7204    0.0000 N   0  0
    8.0809   -7.4260    0.0000 C   0  0  1  0  0  0
    8.8980   -7.4217    0.0000 C   0  0
    7.6759   -8.1358    0.0000 C   0  0
    9.3103   -8.1273    0.0000 C   0  0
    9.3030   -6.7119    0.0000 C   0  0
    6.8296   -3.8893    0.0000 C   0  0
    7.6468   -3.8818    0.0000 N   0  0
    6.4145   -3.1854    0.0000 O   0  0
    8.0488   -3.1704    0.0000 C   0  0
    8.8660   -3.1629    0.0000 C   0  0
    9.2680   -2.4514    0.0000 C   0  0
   10.0823   -2.4491    0.0000 N   0  0
   10.4843   -1.7385    0.0000 C   0  0
   10.0692   -1.0336    0.0000 C   0  0
    9.2478   -1.0438    0.0000 C   0  0
    8.8495   -1.7549    0.0000 C   0  0
  1  2  2  0
  2  3  1  0
  3  7  2  0
  6  4  2  0
  4  1  1  0
  6  7  1  0
  5  6  1  0
  7  8  1  0
  8  9  1  0
  9  5  2  0
  8 10  1  0
 11 12  2  0
 12 13  1  0
 13 14  2  0
 14 15  1  0
 15 16  2  0
 16 11  1  0
  9 11  1  0
 13 17  1  0
 17 18  2  0
 17 19  1  0
 19 20  1  0
 20 21  1  0
 20 22  1  1
 21 23  1  0
 21 24  1  0
 15 25  1  0
 25 26  1  0
 25 27  2  0
 26 28  1  0
 28 29  1  0
 29 30  1  0
 30 31  2  0
 31 32  1  0
 32 33  2  0
 33 34  1  0
 34 35  2  0
 35 30  1  0
M  END