
  SciTegic04091416462D

 15 16  0  0  0  0            999 V2000
   12.7518  -18.2383    0.0000 C   0  0
    9.9204  -17.4210    0.0000 C   0  0
    9.9193  -18.2405    0.0000 C   0  0
   10.6273  -18.6495    0.0000 C   0  0
   11.3370  -18.2401    0.0000 C   0  0
   11.3342  -17.4174    0.0000 C   0  0
   10.6256  -17.0121    0.0000 N   0  0
   12.0454  -18.6475    0.0000 N   0  0
   12.7511  -17.4206    0.0000 O   0  0
   13.3898  -18.7444    0.0000 C   0  0
   13.3560  -19.5612    0.0000 S   0  0
   14.1234  -19.8448    0.0000 C   0  0
   14.6293  -19.2016    0.0000 C   0  0
   14.1729  -18.5226    0.0000 C   0  0
   14.4543  -17.7554    0.0000 C   0  0
  2  3  2  0
  3  4  1  0
  4  5  2  0
  5  6  1  0
  6  7  2  0
  7  2  1  0
  5  8  1  0
  8  1  1  0
  1  9  2  0
 11 12  1  0
 10 11  1  0
 12 13  2  0
 13 14  1  0
 14 10  2  0
  1 10  1  0
 14 15  1  0
M  END