
  SciTegic09261414462D

 17 19  0  0  0  0            999 V2000
   25.3480   -3.1614    0.0000 C   0  0
   25.3469   -3.9810    0.0000 C   0  0
   26.0549   -4.3899    0.0000 C   0  0
   26.0531   -2.7526    0.0000 C   0  0
   26.7618   -3.1578    0.0000 C   0  0
   26.7606   -3.9830    0.0000 C   0  0
   27.4707   -4.3943    0.0000 C   0  0
   28.1865   -3.9851    0.0000 C   0  0
   28.1877   -3.1599    0.0000 N   0  0
   27.4730   -2.7440    0.0000 C   0  0
   28.8964   -2.7530    0.0000 C   0  0
   29.6031   -3.1633    0.0000 C   0  0
   29.6838   -3.9736    0.0000 N   0  0
   30.4827   -4.1455    0.0000 C   0  0
   30.8930   -3.4387    0.0000 N   0  0
   30.3476   -2.8302    0.0000 C   0  0
   30.5177   -2.0309    0.0000 C   0  0
  1  2  2  0
  2  3  1  0
  3  6  2  0
  5  4  2  0
  4  1  1  0
  5  6  1  0
  5 10  1  0
  6  7  1  0
  7  8  1  0
  8  9  1  0
  9 10  1  0
  9 11  1  0
 11 12  1  0
 12 13  1  0
 13 14  1  0
 14 15  2  0
 15 16  1  0
 16 12  2  0
 16 17  1  0
M  END