
  Mrv0541 04051115152D          

  7  6  0  0  0  0            999 V2000
   -1.9316   -0.0630    0.0000 N   0  0  0  0  0  0  0  0  0  0  0  0
   -1.2172    0.3495    0.0000 C   0  0  0  0  0  0  0  0  0  0  0  0
   -0.5027   -0.0630    0.0000 C   0  0  0  0  0  0  0  0  0  0  0  0
    0.2118    0.3495    0.0000 C   0  0  0  0  0  0  0  0  0  0  0  0
    0.9263   -0.0630    0.0000 C   0  0  0  0  0  0  0  0  0  0  0  0
    1.6407    0.3495    0.0000 O   0  0  0  0  0  0  0  0  0  0  0  0
    0.9263   -0.8880    0.0000 O   0  0  0  0  0  0  0  0  0  0  0  0
  2  1  1  0  0  0  0
  2  3  1  0  0  0  0
  3  4  1  0  0  0  0
  5  4  1  0  0  0  0
  5  6  2  0  0  0  0
  5  7  1  0  0  0  0
M  END