
  SciTegic12171313022D

 29 31  0  0  0  0            999 V2000
    4.3795   -9.3068    0.0000 T   0  0
    6.5288   -4.7761    0.0000 C   0  0
    8.6828   -3.5262    0.0000 C   0  0
    6.5273   -5.6011    0.0000 N   0  0
    7.2487   -4.3653    0.0000 C   0  0
    5.0928   -9.7197    0.0000 C   0  0
    7.9600   -3.1102    0.0000 C   0  0
    5.8151   -4.3632    0.0000 C   0  0
    9.4035   -5.5953    0.0000 O   0  0
    7.9554   -2.2852    0.0000 O   0  0
    5.8162   -3.5358    0.0000 C   0  0
    5.0924  -10.5449    0.0000 T   0  0
    5.1007   -5.5986    0.0000 O   0  0
    8.6863   -4.3593    0.0000 C   0  0
    9.4049   -4.7698    0.0000 C   0  0
    6.5214   -7.2440    0.0000 C   0  0
    7.2453   -3.5321    0.0000 C   0  0
    5.8132   -6.0124    0.0000 C   0  0
   10.1176   -4.3559    0.0000 O   0  0
    5.1028   -3.1234    0.0000 Br  0  0
    5.8117   -6.8373    0.0000 C   0  0
    5.8067   -8.4825    0.0000 C   0  0
    7.9670   -4.7766    0.0000 O   0  0
    6.5233   -8.0668    0.0000 C   0  0
    5.8063   -9.3075    0.0000 O   0  0
    4.3794  -10.1323    0.0000 T   0  0
    6.5269   -3.1230    0.0000 C   0  0
    5.0953   -7.2438    0.0000 C   0  0
    5.0935   -8.0680    0.0000 C   0  0
 25  6  1  0
  3  7  1  0
  4 18  1  0
 28 29  1  0
 23 14  1  0
 14 15  1  0
  8  2  1  0
 18 13  2  0
 17  5  1  0
  7 10  2  0
 29 22  2  0
 22 24  1  0
  2  5  2  0
  6 26  1  0
 15 19  2  0
 21 28  2  0
 17  7  1  0
 22 25  1  0
 27 11  1  0
 11 20  1  0
 16 21  1  0
  6  1  1  0
 11  8  2  0
 15  9  1  0
 24 16  2  0
  6 12  1  0
 17 27  2  0
 14  3  2  0
 18 21  1  0
  2  4  1  0
  5 23  1  0
M  END