
          05080814042D 1   1.00000     0.00000     0

 42 46  0     1  0            999 V2000
   -4.7187   -9.5844    0.0000 C   0  0  0  0  0  0           0  0  0
   -4.7199  -10.4103    0.0000 C   0  0  0  0  0  0           0  0  0
   -4.0063  -10.8226    0.0000 C   0  0  0  0  0  0           0  0  0
   -4.0081   -9.1722    0.0000 C   0  0  0  0  0  0           0  0  0
   -3.2938   -9.5807    0.0000 C   0  0  0  0  0  0           0  0  0
   -3.2904  -10.4124    0.0000 C   0  0  0  0  0  0           0  0  0
   -2.5724  -10.8231    0.0000 C   0  0  0  0  0  0           0  0  0
   -2.5792   -9.1596    0.0000 C   0  0  0  0  0  0           0  0  0
   -1.8566   -9.5748    0.0000 C   0  0  2  0  0  0           0  0  0
   -1.8556  -10.4082    0.0000 C   0  0  2  0  0  0           0  0  0
   -1.1372  -10.8217    0.0000 N   0  0  3  0  0  0           0  0  0
   -0.4154  -10.4063    0.0000 C   0  0  0  0  0  0           0  0  0
   -0.4165   -9.5730    0.0000 C   0  0  1  0  0  0           0  0  0
   -1.1393   -9.1549    0.0000 C   0  0  0  0  0  0           0  0  0
   -1.1373  -11.6453    0.0000 C   0  0  0  0  0  0           0  0  0
    0.2967   -9.1610    0.0000 C   0  0  0  0  0  0           0  0  0
    1.0102   -9.5726    0.0000 N   0  0  3  0  0  0           0  0  0
    0.2965   -8.3373    0.0000 O   0  0  0  0  0  0           0  0  0
    1.0046  -10.4010    0.0000 C   0  0  0  0  0  0           0  0  0
    1.7139  -10.8126    0.0000 C   0  0  0  0  0  0           0  0  0
    2.4295  -10.4040    0.0000 N   0  0  3  0  0  0           0  0  0
    2.4313   -9.5794    0.0000 C   0  0  0  0  0  0           0  0  0
    1.7174   -9.1633    0.0000 C   0  0  0  0  0  0           0  0  0
   -1.8637  -11.2317    0.0000 H   0  0  0  0  0  0           0  0  0
   -1.8637   -8.7482    0.0000 H   0  0  0  0  0  0           0  0  0
   -4.0107   -8.3481    0.0000 O   0  0  0  0  0  0           0  0  0
   -4.7253   -7.9386    0.0000 S   0  0  3  0  0  0           0  0  0
   -5.4411   -7.5252    0.0000 C   0  0  3  0  0  0           0  0  0
   -5.1360   -8.6525    0.0000 O   0  0  0  0  0  0           0  0  0
   -4.3121   -7.2260    0.0000 O   0  0  0  0  0  0           0  0  0
   -6.1567   -7.1134    0.0000 F   0  0  0  0  0  0           0  0  0
   -5.0298   -6.8117    0.0000 F   0  0  0  0  0  0           0  0  0
   -5.8534   -8.2383    0.0000 F   0  0  0  0  0  0           0  0  0
    3.1393  -10.8157    0.0000 C   0  0  0  0  0  0           0  0  0
    3.1351  -11.6404    0.0000 C   0  0  0  0  0  0           0  0  0
    3.8460  -12.0547    0.0000 C   0  0  0  0  0  0           0  0  0
    4.5618  -11.6453    0.0000 C   0  0  0  0  0  0           0  0  0
    4.5621  -10.8174    0.0000 C   0  0  0  0  0  0           0  0  0
    3.8504  -10.4068    0.0000 C   0  0  0  0  0  0           0  0  0
    5.2795  -12.0598    0.0000 N   0  3  0  0  0  0           0  0  0
    5.9937  -11.6496    0.0000 O   0  0  0  0  0  0           0  0  0
    5.2777  -12.8835    0.0000 O   0  5  0  0  0  0           0  0  0
  5  4  2  0     0  0
  4  1  1  0     0  0
  5  6  1  0     0  0
 17 23  1  0     0  0
 19 20  1  0     0  0
 20 21  1  0     0  0
 21 22  1  0     0  0
 22 23  1  0     0  0
 10 24  1  1     0  0
  2  3  1  0     0  0
  9 25  1  6     0  0
  3  6  2  0     0  0
  4 26  1  0     0  0
  9 14  1  0     0  0
 26 27  1  0     0  0
 10 11  1  0     0  0
 27 28  1  0     0  0
 11 12  1  0     0  0
 27 29  2  0     0  0
 12 13  1  0     0  0
 27 30  2  0     0  0
 13 14  1  0     0  0
 28 31  1  0     0  0
  1  2  2  0     0  0
 28 32  1  0     0  0
 11 15  1  0     0  0
 28 33  1  0     0  0
  5  8  1  0     0  0
 13 16  1  1     0  0
 34 35  2  0     0  0
  6  7  1  0     0  0
 35 36  1  0     0  0
 16 17  1  0     0  0
 36 37  2  0     0  0
  7 10  1  0     0  0
 37 38  1  0     0  0
 16 18  2  0     0  0
 38 39  2  0     0  0
 39 34  1  0     0  0
 21 34  1  0     0  0
 17 19  1  0     0  0
  9  8  1  0     0  0
  9 10  1  0     0  0
 40 41  2  0     0  0
 40 42  1  0     0  0
 37 40  1  0     0  0
M  CHG  2  40   1  42  -1
M  END