
  SciTegic09261414532D

 38 43  0  0  0  0            999 V2000
   12.0749   -8.9726    0.0000 C   0  0
   12.0737   -9.7921    0.0000 C   0  0
   12.7818  -10.2011    0.0000 C   0  0
   12.7800   -8.5637    0.0000 C   0  0
   13.4886   -8.9690    0.0000 C   0  0
   13.4934   -9.7876    0.0000 C   0  0
   14.2734  -10.0360    0.0000 N   0  0
   14.7508   -9.3709    0.0000 C   0  0
   14.2657   -8.7115    0.0000 N   0  0
   14.5305  -10.8117    0.0000 C   0  0
   13.9872  -11.4222    0.0000 C   0  0
   13.1885  -11.2545    0.0000 C   0  0
   12.6455  -11.8641    0.0000 C   0  0
   12.9024  -12.6408    0.0000 C   0  0
   13.7073  -12.8043    0.0000 C   0  0
   14.2469  -12.1934    0.0000 C   0  0
   15.5671   -9.3648    0.0000 N   0  0
   15.9787  -10.0719    0.0000 C   0  0
   16.7923  -10.0690    0.0000 C   0  0
   17.2006   -9.3607    0.0000 C   0  0
   16.7890   -8.6536    0.0000 C   0  0
   15.9692   -8.6548    0.0000 C   0  0
   18.0177   -9.3590    0.0000 C   0  0
   18.4278  -10.0658    0.0000 O   0  0
   18.4248   -8.6504    0.0000 O   0  0
   18.0207  -10.7744    0.0000 C   0  0
   18.4308  -11.4813    0.0000 C   0  0
   18.0237  -12.1898    0.0000 N   0  0
   17.2116  -12.2793    0.0000 C   0  0
   17.0434  -13.0790    0.0000 N   0  0
   17.7520  -13.4861    0.0000 C   0  0
   18.3580  -12.9379    0.0000 C   0  0
   16.6643  -11.6767    0.0000 C   0  0
   16.9157  -10.8980    0.0000 C   0  0
   16.3675  -10.2930    0.0000 C   0  0
   15.5679  -10.4654    0.0000 C   0  0
   15.3193  -11.2484    0.0000 C   0  0
   15.8692  -11.8500    0.0000 C   0  0
  1  2  2  0
  2  3  1  0
  3  6  2  0
  5  4  2  0
  4  1  1  0
  5  6  1  0
  6  7  1  0
  7  8  1  0
  8  9  2  0
  9  5  1  0
  7 10  1  0
 10 11  1  0
 11 12  2  0
 12 13  1  0
 13 14  2  0
 14 15  1  0
 15 16  2  0
 16 11  1  0
 17 18  1  0
 17 22  1  0
 18 19  1  0
 19 20  1  0
 20 21  1  0
 21 22  1  0
  8 17  1  0
 20 23  1  0
 23 24  1  0
 23 25  2  0
 24 26  1  0
 26 27  1  0
 27 28  1  0
 28 29  1  0
 29 30  2  0
 30 31  1  0
 31 32  2  0
 32 28  1  0
 33 34  2  0
 34 35  1  0
 35 36  2  0
 36 37  1  0
 37 38  2  0
 38 33  1  0
 29 33  1  0
M  END