
          11280714502D 1   1.00000     0.00000     0

 31 33  0     0  0            999 V2000
    7.6500   -1.7625    0.0000 N   0  0  3  0  0  0           0  0  0
    7.6417   -2.5917    0.0000 C   0  0  0  0  0  0           0  0  0
    8.3542   -1.3500    0.0000 C   0  0  0  0  0  0           0  0  0
    8.3542   -3.0042    0.0000 C   0  0  0  0  0  0           0  0  0
    9.0750   -1.7667    0.0000 N   0  0  0  0  0  0           0  0  0
    3.3625   -2.5875    0.0000 N   0  0  3  0  0  0           0  0  0
    9.0750   -2.5917    0.0000 C   0  0  0  0  0  0           0  0  0
    2.6500   -3.0000    0.0000 C   0  0  0  0  0  0           0  0  0
    2.6500   -3.8292    0.0000 C   0  0  0  0  0  0           0  0  0
    4.7917   -4.2292    0.0000 C   0  0  3  0  0  0           0  0  0
    4.7917   -1.7625    0.0000 N   0  0  3  0  0  0           0  0  0
    1.9292   -4.2417    0.0000 C   0  0  0  0  0  0           0  0  0
    1.9292   -2.5875    0.0000 C   0  0  0  0  0  0           0  0  0
    6.9292   -3.0000    0.0000 O   0  0  0  0  0  0           0  0  0
    3.3625   -4.2417    0.0000 O   0  0  0  0  0  0           0  0  0
    8.3625   -0.5250    0.0000 O   0  0  0  0  0  0           0  0  0
    4.0792   -2.9917    0.0000 C   0  0  0  0  0  0           0  0  0
    3.3542   -1.7625    0.0000 C   0  0  0  0  0  0           0  0  0
    6.9292   -1.3500    0.0000 C   0  0  0  0  0  0           0  0  0
    4.0750   -3.8250    0.0000 C   0  0  0  0  0  0           0  0  0
    1.2167   -3.8292    0.0000 C   0  0  0  0  0  0           0  0  0
    4.9292   -5.0792    0.0000 F   0  0  0  0  0  0           0  0  0
    5.5917   -3.9167    0.0000 F   0  0  0  0  0  0           0  0  0
    5.4417   -4.6042    0.0000 F   0  0  0  0  0  0           0  0  0
    4.7917   -2.5875    0.0000 C   0  0  0  0  0  0           0  0  0
    4.0750   -1.3500    0.0000 C   0  0  0  0  0  0           0  0  0
    6.2167   -1.7625    0.0000 C   0  0  0  0  0  0           0  0  0
    1.2167   -3.0000    0.0000 C   0  0  0  0  0  0           0  0  0
    8.3542   -3.8292    0.0000 C   0  0  0  0  0  0           0  0  0
    5.5042   -1.3500    0.0000 C   0  0  0  0  0  0           0  0  0
    0.5042   -4.2375    0.0000 F   0  0  0  0  0  0           0  0  0
  2  1  1  0     0  0
  3  1  1  0     0  0
  4  2  1  0     0  0
  5  3  1  0     0  0
  6 18  1  0     0  0
  7  5  1  0     0  0
  8  6  1  0     0  0
  9  8  1  0     0  0
 10 20  1  0     0  0
 11 30  1  0     0  0
 12  9  2  0     0  0
 13  8  2  0     0  0
 14  2  2  0     0  0
 15  9  1  0     0  0
 16  3  2  0     0  0
 17 25  1  0     0  0
 18 26  1  0     0  0
 19  1  1  0     0  0
 20 15  1  0     0  0
 21 28  2  0     0  0
 22 10  1  0     0  0
 23 10  1  0     0  0
 24 10  1  0     0  0
 25 11  1  0     0  0
 26 11  1  0     0  0
 27 19  1  0     0  0
 28 13  1  0     0  0
 29  4  1  0     0  0
 30 27  1  0     0  0
 31 21  1  0     0  0
  4  7  2  0     0  0
  6 17  1  0     0  0
 21 12  1  0     0  0
M  END