
  SciTegic12231509382D

 29 33  0  0  0  0            999 V2000
   -1.4042   -0.5208    0.0000 C   0  0
   -0.5792   -0.5208    0.0000 C   0  0
   -1.8167    0.1917    0.0000 C   0  0
   -1.8167   -1.2375    0.0000 C   0  0
   -2.6417    0.1917    0.0000 C   0  0
   -0.0958   -1.1917    0.0000 N   0  0
   -2.6417   -1.2375    0.0000 N   0  0
   -0.0958    0.1458    0.0000 N   0  0
   -3.0542   -0.5208    0.0000 C   0  0
    0.6875   -0.1083    0.0000 C   0  0
    2.8333    0.3042    0.0000 N   0  0
    0.6875   -0.9333    0.0000 C   0  0
    1.4042    0.3042    0.0000 C   0  0
    2.1167   -0.1083    0.0000 C   0  0
    4.2625    1.1292    0.0000 N   0  0
   -3.0542    0.9083    0.0000 C   0  0
   -1.4042   -1.9500    0.0000 O   0  0
   -1.4042    0.9083    0.0000 N   0  0
    3.5458   -0.1083    0.0000 C   0  0
    2.8333    1.1292    0.0000 C   0  0
    1.4042   -1.3458    0.0000 C   0  0
    2.1167   -0.9333    0.0000 C   0  0
    3.5458    1.5417    0.0000 C   0  0
    4.2625    0.3042    0.0000 C   0  0
   -2.6417    1.6208    0.0000 F   0  0
   -3.8792   -0.5208    0.0000 C   0  0
    4.9750    1.5417    0.0000 C   0  0
   -4.2917    0.1917    0.0000 C   0  0
   -3.8792    0.9083    0.0000 C   0  0
  2  1  1  0
  3  1  2  0
  4  1  1  0
  5  3  1  0
  6  2  2  0
  7  4  1  0
  8  2  1  0
  9  5  2  0
 10  8  1  0
 11 14  1  0
 12  6  1  0
 13 10  2  0
 14 13  1  0
 15 23  1  0
 16  5  1  0
 17  4  2  0
 18  3  1  0
 19 11  1  0
 20 11  1  0
 21 12  2  0
 22 21  1  0
 23 20  1  0
 24 19  1  0
 25 16  1  0
 26  9  1  0
 27 15  1  0
 28 29  1  0
 29 16  2  0
 10 12  1  0
  7  9  1  0
 22 14  2  0
 28 26  2  0
 24 15  1  0
M  END