
  SciTegic01201417202D

122126  0  0  0  0            999 V2000
   12.4582   -4.1059    0.0000 N   0  0
   12.4582   -4.9263    0.0000 C   0  0  1  0  0  0
   13.8828   -4.9263    0.0000 O   0  0
   11.7425   -5.3399    0.0000 C   0  0
   13.1720   -5.3399    0.0000 C   0  0
   13.1720   -6.1604    0.0000 N   0  0
   13.8828   -6.5769    0.0000 C   0  0
   13.1720   -7.8140    0.0000 O   0  0
   13.8828   -7.4022    0.0000 C   0  0
   14.5937   -6.1604    0.0000 C   0  0
   14.5937   -7.8140    0.0000 N   0  0
   14.5937   -8.6392    0.0000 C   0  0  2  0  0  0
   15.3123   -9.8732    0.0000 O   0  0
   15.3123   -9.0479    0.0000 C   0  0
   13.8828   -9.0479    0.0000 C   0  0
   13.8828   -9.8732    0.0000 C   0  0
   14.5937  -10.2850    0.0000 O   0  0
   13.1720  -10.2850    0.0000 N   0  0
   16.0230   -8.6392    0.0000 N   0  0
   16.0230   -7.8140    0.0000 C   0  0  2  0  0  0
   16.7369   -6.5769    0.0000 O   0  0
   16.7369   -7.4022    0.0000 C   0  0
   15.3123   -7.4022    0.0000 C   0  0
   15.3123   -6.5769    0.0000 S   0  0
   17.4478   -7.8140    0.0000 N   0  0
   18.1663   -7.4022    0.0000 C   0  0  2  0  0  0
   19.5880   -7.4022    0.0000 O   0  0
   18.8772   -7.8140    0.0000 C   0  0
   18.1663   -6.5769    0.0000 C   0  0
   17.4478   -6.1604    0.0000 O   0  0
   18.8772   -8.6392    0.0000 N   0  0
   18.1663   -9.0479    0.0000 C   0  0  2  0  0  0
   18.8772  -10.2850    0.0000 O   0  0
   18.1663   -9.8732    0.0000 C   0  0
   17.4478   -8.6392    0.0000 C   0  0
   16.7369   -9.0479    0.0000 O   0  0
   17.4478  -10.2850    0.0000 N   0  0
   17.4478  -11.1103    0.0000 C   0  0
   18.8772  -11.1103    0.0000 O   0  0
   18.1663  -11.5191    0.0000 C   0  0
   18.1663  -12.3442    0.0000 N   0  0
   18.8772  -12.7560    0.0000 C   0  0  2  0  0  0
   19.5880  -11.5191    0.0000 O   0  0
   19.5880  -12.3442    0.0000 C   0  0
   18.8772  -13.5813    0.0000 C   0  0
   20.3366  -13.7222    0.0000 C   0  0
   19.5715  -14.0215    0.0000 C   0  0
   20.8614  -14.3586    0.0000 N   0  0
   19.6226  -14.8483    0.0000 C   0  0
   20.4171  -15.0520    0.0000 C   0  0
   20.6381  -15.8495    0.0000 C   0  0
   20.0574  -16.4332    0.0000 C   0  0
   19.2629  -16.2265    0.0000 C   0  0
   19.0390  -15.4319    0.0000 C   0  0
   20.3066  -12.7560    0.0000 N   0  0
   21.0204  -12.3442    0.0000 C   0  0  1  0  0  0
   20.3066  -11.1103    0.0000 O   0  0
   21.7361  -12.7560    0.0000 C   0  0
   21.0204  -11.5191    0.0000 C   0  0
   20.0341   -8.4834    0.0000 N   0  0
   20.8400   -8.2988    0.0000 C   0  0
   21.4060   -8.8955    0.0000 N   0  0
   21.0774   -7.5083    0.0000 N   0  0
   21.7361  -11.1103    0.0000 N   0  0
   21.7361  -10.2850    0.0000 C   0  0  2  0  0  0
   22.4421   -9.0479    0.0000 O   0  0
   22.4421   -9.8732    0.0000 C   0  0
   21.1685   -9.6859    0.0000 C   0  0
   20.3665   -9.8748    0.0000 C   0  0
   19.7967   -9.2738    0.0000 C   0  0
   23.1607  -10.2850    0.0000 N   0  0
   23.8716   -9.8732    0.0000 C   0  0  2  0  0  0
   23.1607   -8.6392    0.0000 O   0  0
   23.8716   -9.0479    0.0000 C   0  0
   24.5902  -10.2850    0.0000 C   0  0
   24.5902  -11.1103    0.0000 C   0  0
   25.3010  -11.5191    0.0000 O   0  0
   23.8716  -11.5191    0.0000 O   0  0
   24.5902   -8.6392    0.0000 N   0  0
   25.3010   -9.0479    0.0000 C   0  0  2  0  0  0
   26.7305   -9.0479    0.0000 O   0  0
   26.0148   -8.6392    0.0000 C   0  0
   25.3010   -9.8732    0.0000 C   0  0
   26.0967  -11.1000    0.0000 N   0  0
   26.9065  -11.2705    0.0000 C   0  0
   27.3194  -10.5603    0.0000 N   0  0
   26.7668   -9.9501    0.0000 C   0  0
   26.0148  -10.2850    0.0000 C   0  0
   26.0148   -7.8140    0.0000 N   0  0
   26.7305   -7.4022    0.0000 C   0  0  2  0  0  0
   27.4412   -6.1604    0.0000 O   0  0
   26.7305   -6.5769    0.0000 C   0  0
   27.4412   -7.8140    0.0000 C   0  0
   27.4412   -8.6392    0.0000 O   0  0
   28.8660   -5.3399    0.0000 N   0  0
   28.8660   -6.1604    0.0000 C   0  0
   29.5845   -6.5769    0.0000 N   0  0
   28.1552   -6.5769    0.0000 N   0  0
   26.0148   -6.1604    0.0000 N   0  0
   26.0148   -5.3399    0.0000 C   0  0  2  0  0  0
   25.3010   -4.1059    0.0000 O   0  0
   25.3010   -4.9263    0.0000 C   0  0
   26.7305   -4.9263    0.0000 C   0  0
   27.4412   -5.3399    0.0000 C   0  0
   28.1552   -4.9263    0.0000 C   0  0
   24.5902   -5.3399    0.0000 N   0  0
   23.8716   -4.9263    0.0000 C   0  0
   23.1607   -3.6893    0.0000 O   0  0
   23.8716   -4.1059    0.0000 C   0  0
   23.1607   -5.3399    0.0000 C   0  0
   24.5902   -3.6893    0.0000 N   0  0
   24.5902   -2.8688    0.0000 C   0  0  2  0  0  0
   26.0148   -2.8688    0.0000 O   0  0
   25.3010   -2.4553    0.0000 C   0  0
   23.8716   -2.4553    0.0000 C   0  0
   23.8716   -1.6349    0.0000 S   0  0
   25.3010   -1.6349    0.0000 N   0  0
   14.5937   -5.3399    0.0000 Se  0  0
   23.1607   -6.1604    0.0000 Se  0  0
   16.7369   -9.8732    0.0000 C   0  0
   25.3053   -3.2801    0.0000 H   0  0
   15.3082   -8.2259    0.0000 H   0  0
  5  6  1  0
  9 11  1  0
 14 19  1  0
 22 25  1  0
 28 31  1  0
 34 37  1  0
 40 41  1  0
 44 55  1  0
 59 64  1  0
 67 71  1  0
 74 79  1  0
 82 89  1  0
 92 99  1  0
102106  1  0
109111  1  0
114117  1  0
  2  1  1  6
  2  5  1  0
  5  3  2  0
  2  4  1  0
  7  6  1  0
  7  9  1  0
  9  8  2  0
  7 10  1  0
 12 11  1  0
 12 14  1  0
 14 13  2  0
 12 15  1  6
 15 16  1  0
 16 17  2  0
 16 18  1  0
 20 19  1  0
 20 22  1  0
 22 21  2  0
 20 23  1  0
 23 24  1  0
 26 25  1  0
 26 28  1  0
 28 27  2  0
 26 29  1  1
 29 30  1  0
 32 31  1  0
 32 34  1  0
 34 33  2  0
 32 35  1  6
 35 36  1  0
 37 38  1  0
 38 40  1  0
 40 39  2  0
 41 42  1  0
 42 44  1  0
 44 43  2  0
 42 45  1  6
 45 47  1  0
 46 47  2  0
 47 49  1  0
 48 46  1  0
 50 48  1  0
 49 50  2  0
 50 51  1  0
 51 52  2  0
 52 53  1  0
 53 54  2  0
 54 49  1  0
 55 56  1  0
 56 59  1  0
 59 57  2  0
 56 58  1  6
 60 61  1  0
 61 62  1  0
 61 63  2  0
 65 64  1  1
 65 67  1  0
 67 66  2  0
 65 68  1  0
 68 69  1  0
 69 70  1  0
 70 60  1  0
 72 71  1  0
 72 74  1  0
 74 73  2  0
 72 75  1  6
 75 76  1  0
 76 77  2  0
 76 78  1  0
 80 79  1  0
 80 82  1  0
 82 81  2  0
 80 83  1  6
 83 88  1  0
 84 85  1  0
 85 86  2  0
 86 87  1  0
 87 88  2  0
 88 84  1  0
 90 89  1  0
 90 92  1  0
 92 91  2  0
 90 93  1  6
 93 94  1  0
 95 96  1  0
 96 97  1  0
 96 98  2  0
100 99  1  0
100102  1  0
102101  2  0
100103  1  6
103104  1  0
104105  1  0
105 95  1  0
107106  1  0
107109  1  0
109108  2  0
107110  1  0
112111  1  0
112114  1  0
114113  2  0
112115  1  0
115116  1  0
 10118  1  0
110119  1  0
 37120  1  0
118119  1  0
 24116  1  0
112121  1  6
 20122  1  6
M  END