
          11280715132D 1   1.00000     0.00000     0

 35 38  0     0  0            999 V2000
    1.9667   -1.7167    0.0000 C   0  0  0  0  0  0           0  0  0
    1.9667   -1.1167    0.0000 C   0  0  0  0  0  0           0  0  0
    1.4417   -2.0167    0.0000 N   0  0  3  0  0  0           0  0  0
    0.9292   -1.1167    0.0000 N   0  0  3  0  0  0           0  0  0
    0.9292   -1.7167    0.0000 C   0  0  0  0  0  0           0  0  0
    2.5375   -1.9000    0.0000 N   0  0  0  0  0  0           0  0  0
    1.4417   -0.8167    0.0000 C   0  0  0  0  0  0           0  0  0
    2.5375   -0.9292    0.0000 N   0  0  0  0  0  0           0  0  0
    2.8917   -1.4167    0.0000 C   0  0  0  0  0  0           0  0  0
   -2.1958   -4.7042    0.0000 S   0  0  3  0  0  0           0  0  0
   -1.6750   -4.4042    0.0000 C   0  0  0  0  0  0           0  0  0
   -0.1208   -3.5125    0.0000 C   0  0  0  0  0  0           0  0  0
    0.4125   -2.0125    0.0000 O   0  0  0  0  0  0           0  0  0
   -2.6083   -4.0667    0.0000 O   0  0  0  0  0  0           0  0  0
   -1.6833   -5.3417    0.0000 O   0  0  0  0  0  0           0  0  0
    1.4417   -0.2167    0.0000 O   0  0  0  0  0  0           0  0  0
   -0.6333   -3.8042    0.0000 C   0  0  0  0  0  0           0  0  0
   -2.6833   -5.1917    0.0000 F   0  0  0  0  0  0           0  0  0
    3.4917   -1.4167    0.0000 C   0  0  3  0  0  0           0  0  0
    1.4417   -2.6167    0.0000 C   0  0  0  0  0  0           0  0  0
   -0.1125   -2.9125    0.0000 O   0  0  0  0  0  0           0  0  0
    0.4125   -0.8167    0.0000 C   0  0  0  0  0  0           0  0  0
   -1.6708   -3.8042    0.0000 C   0  0  0  0  0  0           0  0  0
   -1.1500   -4.7042    0.0000 C   0  0  0  0  0  0           0  0  0
   -1.1500   -3.5042    0.0000 C   0  0  0  0  0  0           0  0  0
   -0.6333   -4.4042    0.0000 C   0  0  0  0  0  0           0  0  0
    0.4042   -3.8125    0.0000 O   0  0  0  0  0  0           0  0  0
    0.9250   -2.9125    0.0000 C   0  0  0  0  0  0           0  0  0
    0.9250   -3.5125    0.0000 C   0  0  0  0  0  0           0  0  0
    3.8417   -0.9292    0.0000 C   0  0  0  0  0  0           0  0  0
    3.8417   -1.9000    0.0000 C   0  0  0  0  0  0           0  0  0
    0.4042   -0.2167    0.0000 C   0  0  0  0  0  0           0  0  0
   -0.1083    0.0833    0.0000 C   0  0  0  0  0  0           0  0  0
    4.4125   -1.7167    0.0000 C   0  0  0  0  0  0           0  0  0
    4.4125   -1.1167    0.0000 C   0  0  0  0  0  0           0  0  0
  2  1  2  0     0  0
  3  1  1  0     0  0
  4  5  1  0     0  0
  5  3  1  0     0  0
  6  1  1  0     0  0
  7  2  1  0     0  0
  8  2  1  0     0  0
  9  6  1  0     0  0
 10 11  1  0     0  0
 11 24  1  0     0  0
 12 27  1  0     0  0
 13  5  2  0     0  0
 14 10  2  0     0  0
 15 10  2  0     0  0
 16  7  2  0     0  0
 17 12  1  0     0  0
 18 10  1  0     0  0
 19  9  1  0     0  0
 20  3  1  0     0  0
 21 12  2  0     0  0
 22  4  1  0     0  0
 23 25  1  0     0  0
 24 26  2  0     0  0
 25 17  2  0     0  0
 26 17  1  0     0  0
 27 29  1  0     0  0
 28 20  1  0     0  0
 29 28  1  0     0  0
 30 19  1  0     0  0
 31 19  1  0     0  0
 32 22  1  0     0  0
 33 32  1  0     0  0
 34 31  1  0     0  0
 35 30  1  0     0  0
  8  9  2  0     0  0
  4  7  1  0     0  0
 35 34  1  0     0  0
 11 23  2  0     0  0
M  END