
  SciTegic05061409282D

 21 19  0  0  0  0            999 V2000
   10.2249   -1.8416    0.0000 C   0  0
   11.0499   -1.8416    0.0000 C   0  0
   11.4624   -2.5561    0.0000 C   0  0
   12.2874   -2.5561    0.0000 C   0  0
   12.6999   -3.2706    0.0000 C   0  0
   13.5249   -3.2706    0.0000 C   0  0
   13.9374   -3.9851    0.0000 C   0  0
   14.7624   -3.9851    0.0000 O   0  0
   13.5249   -4.6995    0.0000 O   0  5
    9.8124   -2.5561    0.0000 C   0  0
    8.9874   -2.5561    0.0000 C   0  0
    8.5749   -3.2706    0.0000 C   0  0
    7.7499   -3.2706    0.0000 C   0  0
    7.3374   -3.9851    0.0000 C   0  0
    6.5125   -3.9851    0.0000 C   0  0
    6.1000   -4.6995    0.0000 C   0  0
    5.2750   -4.6995    0.0000 C   0  0
    4.8625   -5.4140    0.0000 C   0  0
    4.0375   -5.4140    0.0000 C   0  0
    3.6250   -6.1284    0.0000 C   0  0
   15.5831   -4.1583    0.0000 K   0  3
  1  2  2  0
  2  3  1  0
  3  4  1  0
  4  5  1  0
  5  6  1  0
  6  7  1  0
  7  8  2  0
  7  9  1  0
  1 10  1  0
 10 11  1  0
 11 12  1  0
 12 13  1  0
 13 14  1  0
 14 15  1  0
 15 16  1  0
 16 17  1  0
 17 18  1  0
 18 19  1  0
 19 20  1  0
M  CHG  2   9  -1  21   1
M  END