
  CDK    9/16/09,9:46

 88 90  0  0  0  0  0  0  0  0999 V2000
   -1.7050    0.2063    0.0000 C   0  0  0  0  0  0  0  0  0  0  0  0
   -0.9906    0.6188    0.0000 C   0  0  0  0  0  0  0  0  0  0  0  0
   -0.2761    0.2063    0.0000 N   0  0  0  0  0  0  0  0  0  0  0  0
   -0.9906    1.4438    0.0000 O   0  0  0  0  0  0  0  0  0  0  0  0
   -2.4195    0.6188    0.0000 N   0  0  0  0  0  0  0  0  0  0  0  0
   -2.4195    1.4438    0.0000 C   0  0  0  0  0  0  0  0  0  0  0  0
   -3.1340    1.8563    0.0000 C   0  0  0  0  0  0  0  0  0  0  0  0
   -3.1340    2.6813    0.0000 C   0  0  0  0  0  0  0  0  0  0  0  0
   -3.8485    3.0938    0.0000 C   0  0  0  0  0  0  0  0  0  0  0  0
   -3.8485    3.9188    0.0000 N   0  0  0  0  0  0  0  0  0  0  0  0
    0.4385    0.6188    0.0000 C   0  0  0  0  0  0  0  0  0  0  0  0
   -0.2761   -0.6188    0.0000 C   0  0  0  0  0  0  0  0  0  0  0  0
   -0.9906   -1.0313    0.0000 C   0  0  0  0  0  0  0  0  0  0  0  0
   -0.9906   -1.8563    0.0000 C   0  0  0  0  0  0  0  0  0  0  0  0
   -1.7050   -0.6188    0.0000 C   0  0  0  0  0  0  0  0  0  0  0  0
    1.1529    0.2063    0.0000 C   0  0  0  0  0  0  0  0  0  0  0  0
    1.8674    0.6188    0.0000 N   0  0  0  0  0  0  0  0  0  0  0  0
    1.1529   -0.6188    0.0000 O   0  0  0  0  0  0  0  0  0  0  0  0
    2.5819    0.2063    0.0000 C   0  0  0  0  0  0  0  0  0  0  0  0
    3.2963    0.6188    0.0000 C   0  0  0  0  0  0  0  0  0  0  0  0
    4.0109    0.2063    0.0000 N   0  0  0  0  0  0  0  0  0  0  0  0
    3.2963    1.4438    0.0000 O   0  0  0  0  0  0  0  0  0  0  0  0
    1.8674    1.4438    0.0000 C   0  0  0  0  0  0  0  0  0  0  0  0
    1.1529    1.8563    0.0000 C   0  0  0  0  0  0  0  0  0  0  0  0
    1.1529    2.6813    0.0000 C   0  0  0  0  0  0  0  0  0  0  0  0
    0.4385    3.0938    0.0000 C   0  0  0  0  0  0  0  0  0  0  0  0
    0.4385    3.9188    0.0000 N   0  0  0  0  0  0  0  0  0  0  0  0
    4.7254    0.6188    0.0000 C   0  0  0  0  0  0  0  0  0  0  0  0
    4.0109   -0.6188    0.0000 C   0  0  0  0  0  0  0  0  0  0  0  0
    3.2963   -1.0313    0.0000 C   0  0  0  0  0  0  0  0  0  0  0  0
    4.7254   -1.0313    0.0000 C   0  0  0  0  0  0  0  0  0  0  0  0
    2.5827   -0.6151    0.0000 C   0  0  0  0  0  0  0  0  0  0  0  0
    1.8687   -1.0270    0.0000 C   0  0  0  0  0  0  0  0  0  0  0  0
    1.8683   -1.8529    0.0000 C   0  0  0  0  0  0  0  0  0  0  0  0
    2.5878   -2.2652    0.0000 C   0  0  0  0  0  0  0  0  0  0  0  0
    3.2989   -1.8510    0.0000 C   0  0  0  0  0  0  0  0  0  0  0  0
    5.4398    0.2063    0.0000 C   0  0  0  0  0  0  0  0  0  0  0  0
    6.1543    0.6188    0.0000 N   0  0  0  0  0  0  0  0  0  0  0  0
    5.4398   -0.6188    0.0000 O   0  0  0  0  0  0  0  0  0  0  0  0
    6.8688    0.2063    0.0000 C   0  0  0  0  0  0  0  0  0  0  0  0
    7.5832    0.6188    0.0000 C   0  0  0  0  0  0  0  0  0  0  0  0
    6.1543    1.4438    0.0000 C   0  0  0  0  0  0  0  0  0  0  0  0
    5.4398    1.8563    0.0000 C   0  0  0  0  0  0  0  0  0  0  0  0
    5.4419    2.6824    0.0000 C   0  0  0  0  0  0  0  0  0  0  0  0
    4.0155    1.8530    0.0000 C   0  0  0  0  0  0  0  0  0  0  0  0
    4.7298    1.4442    0.0000 C   0  0  0  0  0  0  0  0  0  0  0  0
    4.0129    2.6823    0.0000 C   0  0  0  0  0  0  0  0  0  0  0  0
    4.7264    3.0925    0.0000 C   0  0  0  0  0  0  0  0  0  0  0  0
    4.5567    3.8979    0.0000 O   0  0  0  0  0  0  0  0  0  0  0  0
    3.7382    3.9855    0.0000 C   0  0  0  0  0  0  0  0  0  0  0  0
    3.4023    3.2342    0.0000 O   0  0  0  0  0  0  0  0  0  0  0  0
    8.2978    0.2063    0.0000 N   0  0  0  0  0  0  0  0  0  0  0  0
    7.5832    1.4438    0.0000 O   0  0  0  0  0  0  0  0  0  0  0  0
    8.2978   -0.6188    0.0000 C   0  0  0  0  0  0  0  0  0  0  0  0
    9.0123    0.6188    0.0000 C   0  0  0  0  0  0  0  0  0  0  0  0
    9.7267    0.2063    0.0000 C   0  0  0  0  0  0  0  0  0  0  0  0
   10.4412    0.6188    0.0000 N   0  0  0  0  0  0  0  0  0  0  0  0
    9.7267   -0.6188    0.0000 O   0  0  0  0  0  0  0  0  0  0  0  0
    7.5832   -1.0313    0.0000 C   0  0  0  0  0  0  0  0  0  0  0  0
    7.5832   -1.8563    0.0000 C   0  0  0  0  0  0  0  0  0  0  0  0
    6.8688   -2.2688    0.0000 C   0  0  0  0  0  0  0  0  0  0  0  0
    6.8688   -3.0938    0.0000 N   0  0  0  0  0  0  0  0  0  0  0  0
   11.1557    0.2063    0.0000 C   0  0  0  0  0  0  0  0  0  0  0  0
   10.4412    1.4438    0.0000 C   0  0  0  0  0  0  0  0  0  0  0  0
    9.7267    1.8563    0.0000 C   0  0  0  0  0  0  0  0  0  0  0  0
    9.7267    2.6813    0.0000 C   0  0  0  0  0  0  0  0  0  0  0  0
    9.0123    1.4438    0.0000 C   0  0  0  0  0  0  0  0  0  0  0  0
   11.8703    0.6188    0.0000 C   0  0  0  0  0  0  0  0  0  0  0  0
   12.5847    0.2063    0.0000 N   0  0  0  0  0  0  0  0  0  0  0  0
   11.8703    1.4438    0.0000 O   0  0  0  0  0  0  0  0  0  0  0  0
   12.5847   -0.6188    0.0000 C   0  0  0  0  0  0  0  0  0  0  0  0
   13.2992    0.6188    0.0000 C   0  0  0  0  0  0  0  0  0  0  0  0
   14.0136    0.2063    0.0000 C   0  0  0  0  0  0  0  0  0  0  0  0
   14.7281    0.6188    0.0000 N   0  0  0  0  0  0  0  0  0  0  0  0
   14.0136   -0.6188    0.0000 O   0  0  0  0  0  0  0  0  0  0  0  0
   15.4427    0.2063    0.0000 C   0  0  0  0  0  0  0  0  0  0  0  0
   14.7281    1.4438    0.0000 C   0  0  0  0  0  0  0  0  0  0  0  0
   16.1572    0.6188    0.0000 C   0  0  0  0  0  0  0  0  0  0  0  0
   16.8716    0.2063    0.0000 N   0  0  0  0  0  0  0  0  0  0  0  0
   16.1572    1.4438    0.0000 O   0  0  0  0  0  0  0  0  0  0  0  0
   11.8703   -1.0313    0.0000 C   0  0  0  0  0  0  0  0  0  0  0  0
   11.8703   -1.8563    0.0000 C   0  0  0  0  0  0  0  0  0  0  0  0
   11.1557   -2.2688    0.0000 C   0  0  0  0  0  0  0  0  0  0  0  0
   11.1557   -3.0938    0.0000 N   0  0  0  0  0  0  0  0  0  0  0  0
   14.0136    1.8563    0.0000 C   0  0  0  0  0  0  0  0  0  0  0  0
   14.0136    2.6813    0.0000 C   0  0  0  0  0  0  0  0  0  0  0  0
   13.2992    3.0938    0.0000 C   0  0  0  0  0  0  0  0  0  0  0  0
   13.2992    3.9188    0.0000 N   0  0  0  0  0  0  0  0  0  0  0  0
 43 44  2  0  0  0  0 
 44 48  1  0  0  0  0 
  5  6  1  0  0  0  0 
 47 45  1  0  0  0  0 
 17 23  1  0  0  0  0 
 45 46  2  0  0  0  0 
 46 43  1  0  0  0  0 
 47 48  2  0  0  0  0 
  3 12  1  0  0  0  0 
 23 24  1  0  0  0  0 
  1  2  1  0  0  0  0 
 24 25  1  0  0  0  0 
 12 13  1  0  0  0  0 
 48 49  1  0  0  0  0 
 49 50  1  0  0  0  0 
 50 51  1  0  0  0  0 
 51 47  1  0  0  0  0 
 25 26  1  0  0  0  0 
 41 52  1  0  0  0  0 
  6  7  1  0  0  0  0 
 41 53  2  0  0  0  0 
 26 27  1  0  0  0  0 
 52 54  1  0  0  0  0 
 13 14  1  0  0  0  0 
 52 55  1  0  0  0  0 
 21 28  1  0  0  0  0 
 55 56  1  0  0  0  0 
  2  4  2  0  0  0  0 
 56 57  1  0  0  0  0 
 21 29  1  0  0  0  0 
 56 58  2  0  0  0  0 
 13 15  1  0  0  0  0 
 54 59  1  0  0  0  0 
 29 30  1  0  0  0  0 
 59 60  1  0  0  0  0 
  7  8  1  0  0  0  0 
 60 61  1  0  0  0  0 
 29 31  1  0  0  0  0 
 61 62  1  0  0  0  0 
 11 16  1  0  0  0  0 
 57 63  1  0  0  0  0 
 30 32  2  0  0  0  0 
 57 64  1  0  0  0  0 
 64 65  1  0  0  0  0 
 32 33  1  0  0  0  0 
 65 66  1  0  0  0  0 
 16 17  1  0  0  0  0 
 65 67  1  0  0  0  0 
 33 34  2  0  0  0  0 
 63 68  1  0  0  0  0 
  8  9  1  0  0  0  0 
 68 69  1  0  0  0  0 
 34 35  1  0  0  0  0 
 68 70  2  0  0  0  0 
 16 18  2  0  0  0  0 
 69 71  1  0  0  0  0 
 35 36  2  0  0  0  0 
 69 72  1  0  0  0  0 
 36 30  1  0  0  0  0 
 72 73  1  0  0  0  0 
  1  5  1  0  0  0  0 
 73 74  1  0  0  0  0 
 28 37  1  0  0  0  0 
 73 75  2  0  0  0  0 
 17 19  1  0  0  0  0 
 74 76  1  0  0  0  0 
 37 38  1  0  0  0  0 
 74 77  1  0  0  0  0 
  9 10  1  0  0  0  0 
 76 78  1  0  0  0  0 
 37 39  2  0  0  0  0 
 78 79  1  0  0  0  0 
 19 20  1  0  0  0  0 
 78 80  2  0  0  0  0 
 38 40  1  0  0  0  0 
 71 81  1  0  0  0  0 
  2  3  1  0  0  0  0 
 81 82  1  0  0  0  0 
 40 41  1  0  0  0  0 
 82 83  1  0  0  0  0 
 20 21  1  0  0  0  0 
 83 84  1  0  0  0  0 
 38 42  1  0  0  0  0 
 77 85  1  0  0  0  0 
  3 11  1  0  0  0  0 
 85 86  1  0  0  0  0 
 42 43  1  0  0  0  0 
 86 87  1  0  0  0  0 
 20 22  2  0  0  0  0 
 87 88  1  0  0  0  0 
M  END