
          05080814042D 1   1.00000     0.00000     0

 27 29  0     0  0            999 V2000
    0.0194    2.3334    0.0000 C   0  0  0  0  0  0           0  0  0
    0.0182    1.5060    0.0000 C   0  0  0  0  0  0           0  0  0
    0.7331    1.0931    0.0000 C   0  0  0  0  0  0           0  0  0
    1.4495    1.5065    0.0000 C   0  0  0  0  0  0           0  0  0
    1.4466    2.3370    0.0000 C   0  0  0  0  0  0           0  0  0
    0.7313    2.7461    0.0000 C   0  0  0  0  0  0           0  0  0
    2.1646    1.0951    0.0000 N   0  0  0  0  0  0           0  0  0
    2.1659    0.2701    0.0000 C   0  0  0  0  0  0           0  0  0
    2.8810   -0.1413    0.0000 O   0  0  0  0  0  0           0  0  0
    1.4521   -0.1435    0.0000 C   0  0  0  0  0  0           0  0  0
    0.7401    0.2717    0.0000 C   0  0  0  0  0  0           0  0  0
    0.0267   -0.1412    0.0000 C   0  0  0  0  0  0           0  0  0
    0.0276   -0.9671    0.0000 C   0  0  0  0  0  0           0  0  0
    0.7477   -1.3783    0.0000 C   0  0  0  0  0  0           0  0  0
    1.4581   -0.9630    0.0000 C   0  0  0  0  0  0           0  0  0
    0.7519   -2.2033    0.0000 S   0  0  3  0  0  0           0  0  0
    0.7458   -3.0250    0.0000 N   0  0  3  0  0  0           0  0  0
    1.5769   -2.2043    0.0000 O   0  0  0  0  0  0           0  0  0
   -0.0731   -2.2057    0.0000 O   0  0  0  0  0  0           0  0  0
    0.0294   -3.4293    0.0000 C   0  0  0  0  0  0           0  0  0
    0.0214   -4.2474    0.0000 C   0  0  0  0  0  0           0  0  0
    0.7281   -4.6674    0.0000 O   0  0  0  0  0  0           0  0  0
    1.4445   -4.2630    0.0000 C   0  0  0  0  0  0           0  0  0
    1.4543   -3.4388    0.0000 C   0  0  0  0  0  0           0  0  0
    2.1596    2.7522    0.0000 C   0  0  0  0  0  0           0  0  0
    2.8771    2.3426    0.0000 O   0  0  0  0  0  0           0  0  0
    2.1580    3.5774    0.0000 O   0  0  0  0  0  0           0  0  0
  1  2  2  0     0  0
 13 14  1  0     0  0
  4  7  1  0     0  0
 14 15  2  0     0  0
 15 10  1  0     0  0
  3  4  2  0     0  0
 14 16  1  0     0  0
  7  8  1  0     0  0
 16 17  1  0     0  0
 16 18  2  0     0  0
  8  9  2  0     0  0
 16 19  2  0     0  0
 17 20  1  0     0  0
  4  5  1  0     0  0
  8 10  1  0     0  0
  2  3  1  0     0  0
 10 11  2  0     0  0
  5  6  2  0     0  0
 17 24  1  0     0  0
 20 21  1  0     0  0
 21 22  1  0     0  0
 22 23  1  0     0  0
 23 24  1  0     0  0
 11 12  1  0     0  0
  5 25  1  0     0  0
  6  1  1  0     0  0
 12 13  2  0     0  0
 25 26  1  0     0  0
 25 27  2  0     0  0
M  END