
  SciTegic04151115542D

 31 32  0  0  0  0            999 V2000
   12.1652   -6.2500    0.0000 C   0  0
   12.1641   -7.0773    0.0000 C   0  0
   12.8789   -7.4902    0.0000 C   0  0
   13.5953   -7.0769    0.0000 C   0  0
   13.5925   -6.2463    0.0000 C   0  0
   12.8771   -5.8372    0.0000 C   0  0
   11.4507   -5.8376    0.0000 O   0  0
   11.4505   -5.0126    0.0000 C   0  0
   11.4493   -7.4893    0.0000 S   0  0
   10.7351   -7.0762    0.0000 N   0  0
   11.0292   -8.2000    0.0000 O   0  0
   12.0292   -8.0708    0.0000 O   0  0
   14.3105   -7.4882    0.0000 C   0  0
   15.0243   -7.0746    0.0000 C   0  0  2  0  0  0
   15.7394   -7.4860    0.0000 N   0  0
   15.0230   -6.2496    0.0000 C   0  0
   16.4532   -7.0724    0.0000 C   0  0
   17.1683   -7.4837    0.0000 C   0  0
   17.8822   -7.0701    0.0000 O   0  0
   18.5973   -7.4815    0.0000 C   0  0
   18.5943   -8.3053    0.0000 C   0  0
   19.3086   -8.7166    0.0000 C   0  0
   20.0234   -8.3029    0.0000 C   0  0
   20.0195   -7.4736    0.0000 C   0  0
   19.3046   -7.0660    0.0000 C   0  0
   17.8794   -8.7169    0.0000 O   0  0
   17.1654   -8.3035    0.0000 C   0  0
   16.4504   -8.7152    0.0000 C   0  0
   15.7365   -8.3018    0.0000 F   0  0
   16.4494   -9.5402    0.0000 F   0  0
   15.7333   -9.1208    0.0000 F   0  0
  3  4  2  0
 14 16  1  1
  7  8  1  0
 15 17  1  0
 17 18  1  0
  2  9  1  0
 18 19  1  0
  4  5  1  0
 19 20  1  0
  9 10  1  0
 20 21  2  0
  2  3  1  0
 21 22  1  0
  9 11  2  0
 22 23  2  0
  5  6  2  0
 23 24  1  0
  9 12  2  0
 24 25  2  0
 25 20  1  0
  6  1  1  0
 21 26  1  0
  4 13  1  0
 26 27  1  0
  1  2  2  0
 27 28  1  0
 13 14  1  0
 28 29  1  0
  1  7  1  0
 28 30  1  0
 14 15  1  0
 28 31  1  0
M  END