
  SciTegic12231509382D

 11 10  0  0  0  0            999 V2000
   16.5089  -13.2855    0.0000 P   0  0
   16.2943  -14.0697    0.0000 O   0  0
   15.6917  -13.2897    0.0000 O   0  0
   19.3567  -11.1476    0.0000 C   0  0
   18.9440  -10.4419    0.0000 O   0  0
   18.9481  -11.8534    0.0000 N   0  0
   17.0867  -13.8592    0.0000 O   0  0
   16.9134  -12.5798    0.0000 C   0  0
   17.7306  -12.5715    0.0000 C   0  0
   19.3650  -12.5592    0.0000 O   0  0
   18.1309  -11.8617    0.0000 C   0  0
  2  1  1  0
  3  1  2  0
  4  6  1  0
  5  4  2  0
  6 11  1  0
  7  1  1  0
  8  1  1  0
  9  8  1  0
 10  6  1  0
 11  9  1  0
M  END