
          11280714462D 1   1.00000     0.00000     0

 31 35  0     1  0            999 V2000
    2.7917   -3.1417    0.0000 C   0  0  2  0  0  0           0  0  0
    2.0792   -3.5542    0.0000 N   0  0  3  0  0  0           0  0  0
    2.7917   -2.3167    0.0000 C   0  0  1  0  0  0           0  0  0
    3.5125   -1.9042    0.0000 N   0  0  0  0  0  0           0  0  0
    3.5125   -3.5542    0.0000 C   0  0  3  0  0  0           0  0  0
    4.2292   -0.6750    0.0000 C   0  0  0  0  0  0           0  0  0
    2.1000   -1.9042    0.0000 C   0  0  3  0  0  0           0  0  0
    3.5167   -1.0792    0.0000 C   0  0  0  0  0  0           0  0  0
    2.4917   -2.8375    0.0000 C   0  0  0  0  0  0           0  0  0
    1.3750   -3.1417    0.0000 C   0  0  0  0  0  0           0  0  0
    4.9417   -1.0917    0.0000 C   0  0  0  0  0  0           0  0  0
    4.2250   -3.1417    0.0000 C   0  0  0  0  0  0           0  0  0
    3.5042   -4.3792    0.0000 C   0  0  0  0  0  0           0  0  0
    1.6917   -2.6167    0.0000 C   0  0  0  0  0  0           0  0  0
    1.3750   -2.3167    0.0000 C   0  0  0  0  0  0           0  0  0
    5.5250   -1.6750    0.0000 O   0  0  0  0  0  0           0  0  0
    4.2292    0.1458    0.0000 C   0  0  0  0  0  0           0  0  0
    5.6542   -0.6792    0.0000 C   0  0  0  0  0  0           0  0  0
    4.9375   -3.5542    0.0000 C   0  0  0  0  0  0           0  0  0
    4.2250   -2.3250    0.0000 C   0  0  0  0  0  0           0  0  0
    2.7917   -4.7917    0.0000 C   0  0  0  0  0  0           0  0  0
    4.2167   -4.7917    0.0000 C   0  0  0  0  0  0           0  0  0
    6.3167   -1.4542    0.0000 C   0  0  0  0  0  0           0  0  0
    4.9417    0.5583    0.0000 C   0  0  0  0  0  0           0  0  0
    5.6625    0.1458    0.0000 C   0  0  0  0  0  0           0  0  0
    5.6542   -3.1500    0.0000 C   0  0  0  0  0  0           0  0  0
    2.7917   -5.6167    0.0000 C   0  0  0  0  0  0           0  0  0
    4.2250   -5.6167    0.0000 C   0  0  0  0  0  0           0  0  0
    4.9375   -1.9042    0.0000 C   0  0  0  0  0  0           0  0  0
    3.5042   -6.0292    0.0000 C   0  0  0  0  0  0           0  0  0
    5.6542   -2.3250    0.0000 C   0  0  0  0  0  0           0  0  0
  2  1  1  0     0  0
  3  1  1  0     0  0
  3  4  1  6     0  0
  1  5  1  6     0  0
  6  8  1  0     0  0
  7  3  1  0     0  0
  8  4  1  0     0  0
  9  2  1  0     0  0
 10  2  1  0     0  0
 11  6  2  0     0  0
 12  5  1  0     0  0
 13  5  1  0     0  0
 14  7  1  0     0  0
 15  7  1  0     0  0
 16 11  1  0     0  0
 17  6  1  0     0  0
 18 11  1  0     0  0
 19 12  2  0     0  0
 20 12  1  0     0  0
 21 13  2  0     0  0
 22 13  1  0     0  0
 23 16  1  0     0  0
 24 17  2  0     0  0
 25 24  1  0     0  0
 26 19  1  0     0  0
 27 21  1  0     0  0
 28 22  2  0     0  0
 29 20  2  0     0  0
 30 28  1  0     0  0
 31 29  1  0     0  0
 15 10  1  0     0  0
  9 14  1  0     0  0
 27 30  2  0     0  0
 26 31  2  0     0  0
 18 25  2  0     0  0
M  END