
          11280714482D 1   1.00000     0.00000     0

  7  7  0     0  0            999 V2000
    7.1792   -1.2625    0.0000 C   0  0  0  0  0  0           0  0  0
    7.8875   -1.6667    0.0000 N   0  0  0  0  0  0           0  0  0
    8.6000   -1.2625    0.0000 C   0  0  0  0  0  0           0  0  0
    7.1792   -0.4375    0.0000 C   0  0  0  0  0  0           0  0  0
    6.4625   -1.6750    0.0000 O   0  0  0  0  0  0           0  0  0
    8.6000   -0.4375    0.0000 C   0  0  0  0  0  0           0  0  0
    7.8875   -0.0167    0.0000 C   0  0  0  0  0  0           0  0  0
  2  1  2  0     0  0
  3  2  1  0     0  0
  4  1  1  0     0  0
  5  1  1  0     0  0
  6  7  1  0     0  0
  7  4  2  0     0  0
  3  6  2  0     0  0
M  END