
  CDK    9/16/09,9:46

106111  0  0  0  0  0  0  0  0999 V2000
   12.4642    0.4142    0.0000 N   0  0  0  0  0  0  0  0  0  0  0  0
   14.6066    0.8249    0.0000 N   0  0  0  0  0  0  0  0  0  0  0  0
   15.3101    0.3937    0.0000 C   0  0  0  0  0  0  0  0  0  0  0  0
   16.0564    1.6126    0.0000 O   0  0  0  0  0  0  0  0  0  0  0  0
   16.0349    0.7876    0.0000 C   0  0  0  0  0  0  0  0  0  0  0  0
   15.2859   -0.4317    0.0000 C   0  0  0  0  0  0  0  0  0  0  0  0
   15.9985   -0.8474    0.0000 C   0  0  0  0  0  0  0  0  0  0  0  0
   15.9944   -1.6724    0.0000 C   0  0  0  0  0  0  0  0  0  0  0  0
   16.7152   -0.4382    0.0000 C   0  0  0  0  0  0  0  0  0  0  0  0
   16.7383    0.3564    0.0000 N   0  0  0  0  0  0  0  0  0  0  0  0
   17.4677    0.7503    0.0000 C   0  0  0  0  0  0  0  0  0  0  0  0
   18.8960    0.7129    0.0000 O   0  0  0  0  0  0  0  0  0  0  0  0
   18.1711    0.3191    0.0000 C   0  0  0  0  0  0  0  0  0  0  0  0
   17.4893    1.5752    0.0000 C   0  0  0  0  0  0  0  0  0  0  0  0
   18.2357    2.7941    0.0000 C   0  0  0  0  0  0  0  0  0  0  0  0
   18.2141    1.9692    0.0000 C   0  0  0  0  0  0  0  0  0  0  0  0
   18.9175    1.5380    0.0000 C   0  0  0  0  0  0  0  0  0  0  0  0
   19.6424    1.9319    0.0000 C   0  0  0  0  0  0  0  0  0  0  0  0
   19.6639    2.7569    0.0000 C   0  0  0  0  0  0  0  0  0  0  0  0
   18.9605    3.1881    0.0000 C   0  0  0  0  0  0  0  0  0  0  0  0
   20.3888    3.1508    0.0000 O   0  0  0  0  0  0  0  0  0  0  0  0
   18.1496   -0.5060    0.0000 N   0  0  0  0  0  0  0  0  0  0  0  0
   18.8050   -1.0102    0.0000 C   0  0  0  0  0  0  0  0  0  0  0  0
   19.5039    0.2580    0.0000 O   0  0  0  0  0  0  0  0  0  0  0  0
   19.5013   -0.5658    0.0000 C   0  0  0  0  0  0  0  0  0  0  0  0
   18.5290   -1.7892    0.0000 C   0  0  0  0  0  0  0  0  0  0  0  0
   17.4691   -0.9759    0.0000 C   0  0  0  0  0  0  0  0  0  0  0  0
   17.7040   -1.7678    0.0000 C   0  0  0  0  0  0  0  0  0  0  0  0
   20.2118   -0.9838    0.0000 N   0  0  0  0  0  0  0  0  0  0  0  0
   20.9294   -0.5768    0.0000 C   0  0  0  0  0  0  0  0  0  0  0  0
   21.6329   -1.8197    0.0000 O   0  0  0  0  0  0  0  0  0  0  0  0
   21.6399   -0.9949    0.0000 C   0  0  0  0  0  0  0  0  0  0  0  0
   20.9365    0.2481    0.0000 C   0  0  0  0  0  0  0  0  0  0  0  0
   20.2216    0.6650    0.0000 S   0  0  0  0  0  0  0  0  0  0  0  0
   22.3576   -0.5878    0.0000 O   0  0  0  0  0  0  0  0  0  0  0  0
   13.1763    0.8245    0.0000 C   0  0  0  0  0  0  0  0  0  0  0  0
   13.8917    0.4130    0.0000 C   0  0  0  0  0  0  0  0  0  0  0  0
   13.8929   -0.4123    0.0000 O   0  0  0  0  0  0  0  0  0  0  0  0
   11.1381    0.4863    0.0000 C   0  0  0  0  0  0  0  0  0  0  0  0
   11.3490   -0.3070    0.0000 C   0  0  0  0  0  0  0  0  0  0  0  0
   12.1685   -0.3516    0.0000 C   0  0  0  0  0  0  0  0  0  0  0  0
   11.8273    0.9318    0.0000 C   0  0  0  0  0  0  0  0  0  0  0  0
   -3.1586   -2.8102    0.0000 N   0  0  0  0  0  0  0  0  0  0  0  0
   -3.8730   -3.2228    0.0000 C   0  0  0  0  0  0  0  0  0  0  0  0
   -4.5873   -2.8102    0.0000 N   0  0  0  0  0  0  0  0  0  0  0  0
   -3.8730   -4.0481    0.0000 N   0  0  0  0  0  0  0  0  0  0  0  0
   -3.8730   -0.7470    0.0000 N   0  0  0  0  0  0  0  0  0  0  0  0
   -3.1586   -0.3343    0.0000 C   0  0  0  0  0  0  0  0  0  0  0  0
   -3.8730    0.9036    0.0000 O   0  0  0  0  0  0  0  0  0  0  0  0
   -3.1586    0.4910    0.0000 C   0  0  0  0  0  0  0  0  0  0  0  0
   -2.4396   -0.7470    0.0000 C   0  0  0  0  0  0  0  0  0  0  0  0
   -2.4396   -1.5722    0.0000 C   0  0  0  0  0  0  0  0  0  0  0  0
   -3.1586   -1.9849    0.0000 C   0  0  0  0  0  0  0  0  0  0  0  0
   -2.4396    0.9036    0.0000 N   0  0  0  0  0  0  0  0  0  0  0  0
   -1.7252    0.4910    0.0000 C   0  0  0  0  0  0  0  0  0  0  0  0
   -1.0108    1.7289    0.0000 O   0  0  0  0  0  0  0  0  0  0  0  0
   -1.0108    0.9036    0.0000 C   0  0  0  0  0  0  0  0  0  0  0  0
   -1.7252   -0.3343    0.0000 C   0  0  0  0  0  0  0  0  0  0  0  0
   -1.0108   -1.5722    0.0000 C   0  0  0  0  0  0  0  0  0  0  0  0
   -1.0108   -0.7470    0.0000 C   0  0  0  0  0  0  0  0  0  0  0  0
   -0.2964   -0.3343    0.0000 C   0  0  0  0  0  0  0  0  0  0  0  0
    0.4179   -0.7470    0.0000 C   0  0  0  0  0  0  0  0  0  0  0  0
    0.4179   -1.5722    0.0000 C   0  0  0  0  0  0  0  0  0  0  0  0
   -0.2964   -1.9849    0.0000 C   0  0  0  0  0  0  0  0  0  0  0  0
   -0.2964    0.4910    0.0000 N   0  0  0  0  0  0  0  0  0  0  0  0
    0.4179    0.9036    0.0000 C   0  0  0  0  0  0  0  0  0  0  0  0
    1.1323   -0.3343    0.0000 O   0  0  0  0  0  0  0  0  0  0  0  0
    1.1323    0.4910    0.0000 C   0  0  0  0  0  0  0  0  0  0  0  0
    0.4179    1.7289    0.0000 C   0  0  0  0  0  0  0  0  0  0  0  0
    1.8467    0.9036    0.0000 N   0  0  0  0  0  0  0  0  0  0  0  0
    2.5611    0.4910    0.0000 C   0  0  0  0  0  0  0  0  0  0  0  0
    3.2754    1.7289    0.0000 O   0  0  0  0  0  0  0  0  0  0  0  0
    3.2754    0.9036    0.0000 C   0  0  0  0  0  0  0  0  0  0  0  0
    2.5611   -0.3343    0.0000 C   0  0  0  0  0  0  0  0  0  0  0  0
    3.2754   -0.7470    0.0000 O   0  0  0  0  0  0  0  0  0  0  0  0
    1.8467   -0.7470    0.0000 C   0  0  0  0  0  0  0  0  0  0  0  0
    3.9898    0.4910    0.0000 N   0  0  0  0  0  0  0  0  0  0  0  0
    4.7087    0.9036    0.0000 C   0  0  0  0  0  0  0  0  0  0  0  0
    5.4231   -0.3343    0.0000 O   0  0  0  0  0  0  0  0  0  0  0  0
    5.4231    0.4910    0.0000 C   0  0  0  0  0  0  0  0  0  0  0  0
    6.1375    0.9036    0.0000 N   0  0  0  0  0  0  0  0  0  0  0  0
    6.8519    0.4910    0.0000 C   0  0  0  0  0  0  0  0  0  0  0  0
    7.5662    1.7289    0.0000 O   0  0  0  0  0  0  0  0  0  0  0  0
    7.5662    0.9036    0.0000 C   0  0  0  0  0  0  0  0  0  0  0  0
    6.8504   -0.3329    0.0000 C   0  0  0  0  0  0  0  0  0  0  0  0
    8.2806    0.4910    0.0000 N   0  0  0  0  0  0  0  0  0  0  0  0
    8.9950    0.9036    0.0000 C   0  0  0  0  0  0  0  0  0  0  0  0
    9.7094   -0.3343    0.0000 O   0  0  0  0  0  0  0  0  0  0  0  0
    9.7094    0.4910    0.0000 C   0  0  0  0  0  0  0  0  0  0  0  0
    8.9950    1.7289    0.0000 C   0  0  0  0  0  0  0  0  0  0  0  0
   10.4237    1.7289    0.0000 C   0  0  0  0  0  0  0  0  0  0  0  0
    9.7094    2.1416    0.0000 C   0  0  0  0  0  0  0  0  0  0  0  0
    9.7094    2.9669    0.0000 C   0  0  0  0  0  0  0  0  0  0  0  0
   10.4237    3.3795    0.0000 C   0  0  0  0  0  0  0  0  0  0  0  0
   11.1381    2.9669    0.0000 C   0  0  0  0  0  0  0  0  0  0  0  0
   11.1381    2.1416    0.0000 C   0  0  0  0  0  0  0  0  0  0  0  0
   10.4237    0.9036    0.0000 N   0  0  0  0  0  0  0  0  0  0  0  0
    0.4126    2.5584    0.0000 C   0  0  0  0  0  0  0  0  0  0  0  0
    1.2432    1.7316    0.0000 C   0  0  0  0  0  0  0  0  0  0  0  0
   -0.4074    1.7221    0.0000 S   0  0  0  0  0  0  0  0  0  0  0  0
    7.5639   -0.7473    0.0000 C   0  0  0  0  0  0  0  0  0  0  0  0
    7.5359   -1.5682    0.0000 N   0  0  0  0  0  0  0  0  0  0  0  0
    8.3119   -1.8493    0.0000 C   0  0  0  0  0  0  0  0  0  0  0  0
    8.8190   -1.1981    0.0000 N   0  0  0  0  0  0  0  0  0  0  0  0
    8.3564   -0.5148    0.0000 C   0  0  0  0  0  0  0  0  0  0  0  0
   11.8721    1.7559    0.0000 O   0  0  0  0  0  0  0  0  0  0  0  0
 25 24  2  0  0  0  0 
 23 26  1  0  0  0  0 
 27 28  1  0  0  0  0 
 28 26  1  0  0  0  0 
 27 22  1  0  0  0  0 
 30 29  1  1  0  0  0 
 30 32  1  0  0  0  0 
 32 31  2  0  0  0  0 
 30 33  1  0  0  0  0 
 33 34  1  0  0  0  0 
  5 10  1  0  0  0  0 
 36 37  1  0  0  0  0 
 37  2  1  0  0  0  0 
 13 22  1  0  0  0  0 
 37 38  2  0  0  0  0 
 36  1  1  0  0  0  0 
 39 40  1  0  0  0  0 
 25 29  1  0  0  0  0 
 32 35  1  0  0  0  0 
  3  2  1  0  0  0  0 
  3  5  1  0  0  0  0 
 40 41  1  0  0  0  0 
 41  1  1  0  0  0  0 
  1 42  1  0  0  0  0 
 42 39  1  0  0  0  0 
  5  4  2  0  0  0  0 
  3  6  1  6  0  0  0 
  6  7  1  0  0  0  0 
  7  8  1  0  0  0  0 
  7  9  1  0  0  0  0 
 11 10  1  1  0  0  0 
 11 13  1  0  0  0  0 
 13 12  2  0  0  0  0 
 11 14  1  0  0  0  0 
 14 16  1  0  0  0  0 
 50 54  1  0  0  0  0 
 57 65  1  0  0  0  0 
 68 70  1  0  0  0  0 
 73 77  1  0  0  0  0 
 80 81  1  0  0  0  0 
 84 86  1  0  0  0  0 
 89 97  1  0  0  0  0 
 43 44  1  0  0  0  0 
 44 45  1  0  0  0  0 
 44 46  2  0  0  0  0 
 48 47  1  6  0  0  0 
 48 50  1  0  0  0  0 
 50 49  2  0  0  0  0 
 48 51  1  0  0  0  0 
 51 52  1  0  0  0  0 
 52 53  1  0  0  0  0 
 53 43  1  0  0  0  0 
 55 54  1  0  0  0  0 
 55 57  1  0  0  0  0 
 57 56  2  0  0  0  0 
 55 58  1  6  0  0  0 
 58 60  1  0  0  0  0 
 59 60  2  0  0  0  0 
 60 61  1  0  0  0  0 
 61 62  2  0  0  0  0 
 62 63  1  0  0  0  0 
 63 64  2  0  0  0  0 
 64 59  1  0  0  0  0 
 66 65  1  1  0  0  0 
 66 68  1  0  0  0  0 
 68 67  2  0  0  0  0 
 66 69  1  0  0  0  0 
 71 70  1  6  0  0  0 
 71 73  1  0  0  0  0 
 73 72  2  0  0  0  0 
 71 74  1  0  0  0  0 
 74 75  1  6  0  0  0 
 74 76  1  0  0  0  0 
 77 78  1  0  0  0  0 
 78 80  1  0  0  0  0 
 80 79  2  0  0  0  0 
 82 81  1  0  0  0  0 
 82 84  1  0  0  0  0 
 84 83  2  0  0  0  0 
 82 85  1  6  0  0  0 
 87 86  1  1  0  0  0 
 87 89  1  0  0  0  0 
 89 88  2  0  0  0  0 
 87 90  1  0  0  0  0 
 90 92  1  0  0  0  0 
 91 92  2  0  0  0  0 
 92 93  1  0  0  0  0 
 93 94  2  0  0  0  0 
 94 95  1  0  0  0  0 
 95 96  2  0  0  0  0 
 96 91  1  0  0  0  0 
 15 16  2  0  0  0  0 
 69 98  1  0  0  0  0 
 16 17  1  0  0  0  0 
 69 99  1  0  0  0  0 
 17 18  2  0  0  0  0 
 69100  1  0  0  0  0 
 18 19  1  0  0  0  0 
 85101  1  0  0  0  0 
101102  1  0  0  0  0 
 19 20  2  0  0  0  0 
 20 15  1  0  0  0  0 
 19 21  1  0  0  0  0 
 22 23  1  0  0  0  0 
102103  1  0  0  0  0 
103104  2  0  0  0  0 
104105  1  0  0  0  0 
105101  2  0  0  0  0 
 39 97  1  1  0  0  0 
 23 25  1  6  0  0  0 
 42106  2  0  0  0  0 
M  END