
  Mrv0541 04051115152D          

 23 24  0  0  0  0            999 V2000
   -0.1794   -2.9881    0.0000 N   0  0  0  0  0  0  0  0  0  0  0  0
    0.5351   -2.5756    0.0000 C   0  0  0  0  0  0  0  0  0  0  0  0
    0.5351   -1.7506    0.0000 N   0  0  0  0  0  0  0  0  0  0  0  0
   -0.1794   -1.3381    0.0000 C   0  0  0  0  0  0  0  0  0  0  0  0
   -0.8939   -1.7506    0.0000 C   0  0  0  0  0  0  0  0  0  0  0  0
   -0.8939   -2.5756    0.0000 C   0  0  0  0  0  0  0  0  0  0  0  0
   -0.1794   -0.5131    0.0000 N   0  0  0  0  0  0  0  0  0  0  0  0
    0.5351    0.7244    0.0000 C   0  0  0  0  0  0  0  0  0  0  0  0
   -0.1794    1.1369    0.0000 C   0  0  0  0  0  0  0  0  0  0  0  0
   -0.1794    1.9619    0.0000 C   0  0  0  0  0  0  0  0  0  0  0  0
    0.5351    2.3744    0.0000 C   0  0  0  0  0  0  0  0  0  0  0  0
    1.2495    1.9619    0.0000 C   0  0  0  0  0  0  0  0  0  0  0  0
    1.2495    1.1369    0.0000 C   0  0  0  0  0  0  0  0  0  0  0  0
    0.5351    3.1994    0.0000 S   0  0  0  0  0  0  0  0  0  0  0  0
    0.5351    4.0244    0.0000 O   0  0  0  0  0  0  0  0  0  0  0  0
   -0.2899    3.1994    0.0000 O   0  0  0  0  0  0  0  0  0  0  0  0
    1.3601    3.1994    0.0000 N   0  0  0  0  0  0  0  0  0  0  0  0
   -1.6084   -1.3381    0.0000 N   0  3  0  0  0  0  0  0  0  0  0  0
   -2.3228   -1.7506    0.0000 O   0  5  0  0  0  0  0  0  0  0  0  0
   -1.6084   -0.5131    0.0000 O   0  0  0  0  0  0  0  0  0  0  0  0
   -1.6084   -2.9881    0.0000 O   0  0  0  0  0  0  0  0  0  0  0  0
   -1.6084   -3.8131    0.0000 C   0  0  0  0  0  0  0  0  0  0  0  0
    0.5351   -0.1006    0.0000 C   0  0  0  0  0  0  0  0  0  0  0  0
  2  1  2  0  0  0  0
  6  1  1  0  0  0  0
  2  3  1  0  0  0  0
  4  3  2  0  0  0  0
  4  5  1  0  0  0  0
  4  7  1  0  0  0  0
  5  6  2  0  0  0  0
  5 18  1  0  0  0  0
  6 21  1  0  0  0  0
 23  7  1  0  0  0  0
  8  9  2  0  0  0  0
 13  8  1  0  0  0  0
 23  8  1  0  0  0  0
 10  9  1  0  0  0  0
 10 11  2  0  0  0  0
 11 12  1  0  0  0  0
 11 14  1  0  0  0  0
 12 13  2  0  0  0  0
 15 14  2  0  0  0  0
 16 14  2  0  0  0  0
 17 14  1  0  0  0  0
 18 19  1  0  0  0  0
 18 20  2  0  0  0  0
 22 21  1  0  0  0  0
M  CHG  2  18   1  19  -1
M  END