
          08180812472D 1   1.00000     0.00000     0

 18 19  0     1  0            999 V2000
    2.2595    0.1421    0.0000 C   0  0  0  0  0  0           0  0  0
    2.2595   -0.6875    0.0000 C   0  0  0  0  0  0           0  0  0
    2.9740   -1.1000    0.0000 C   0  0  0  0  0  0           0  0  0
    3.6930   -0.6875    0.0000 C   0  0  0  0  0  0           0  0  0
    3.6930    0.1421    0.0000 C   0  0  0  0  0  0           0  0  0
    2.9740    0.5591    0.0000 C   0  0  3  0  0  0           0  0  0
    2.9728    1.3841    0.0000 C   0  0  2  0  0  0           0  0  0
    3.6866    1.7976    0.0000 C   0  0  2  0  0  0           0  0  0
    2.2578    1.7956    0.0000 C   0  0  0  0  0  0           0  0  0
    1.5439    1.3821    0.0000 C   0  0  0  0  0  0           0  0  0
    4.4017    1.3861    0.0000 C   0  0  3  0  0  0           0  0  0
    3.6855    2.6225    0.0000 C   0  0  0  0  0  0           0  0  0
    2.9706    3.0340    0.0000 C   0  0  0  0  0  0           0  0  0
    4.3990    0.5582    0.0000 C   0  0  0  0  0  0           0  0  0
    5.1100    0.1468    0.0000 C   0  0  0  0  0  0           0  0  0
    5.8263    0.5568    0.0000 C   0  0  0  0  0  0           0  0  0
    5.8270    1.3826    0.0000 C   0  0  0  0  0  0           0  0  0
    5.1116    1.7987    0.0000 C   0  0  0  0  0  0           0  0  0
  2  3  1  0     0  0
  9 10  1  0     0  0
  3  4  1  0     0  0
  8 11  1  0     0  0
  4  5  1  0     0  0
  8 12  1  1     0  0
  5  6  1  0     0  0
 12 13  1  0     0  0
 11 14  1  0     0  0
  6  7  1  0     0  0
  1  2  1  0     0  0
  7  8  1  0     0  0
  1  6  1  0     0  0
  7  9  1  1     0  0
 11 18  1  0     0  0
 14 15  1  0     0  0
 15 16  1  0     0  0
 16 17  1  0     0  0
 17 18  1  0     0  0
M  END