
  SciTegic02271514372D

 34 37  0  0  0  0            999 V2000
   10.9085   -5.5187    0.0000 S   0  0
   11.6218   -5.1176    0.0000 C   0  0
   11.6305   -4.3004    0.0000 C   0  0
   12.3397   -3.8993    0.0000 C   0  0
   13.0444   -4.3154    0.0000 C   0  0
   13.0358   -5.1325    0.0000 C   0  0
   12.3224   -5.5336    0.0000 C   0  0
   13.7537   -3.9142    0.0000 C   0  0
    8.0738   -3.8874    0.0000 O   0  0
    7.3688   -4.2960    0.0000 C   0  0  1  0  0  0
    7.3688   -5.1132    0.0000 C   0  0  2  0  0  0
    8.0738   -5.5218    0.0000 O   0  0
    6.6597   -5.5218    0.0000 C   0  0  1  0  0  0
    6.6597   -6.3389    0.0000 O   0  0
    5.9506   -5.1132    0.0000 C   0  0  1  0  0  0
    5.2457   -5.5218    0.0000 O   0  0
    5.9506   -4.2960    0.0000 C   0  0  2  0  0  0
    6.6597   -3.8874    0.0000 O   0  0
    5.2457   -3.8874    0.0000 C   0  0
    4.5366   -4.2960    0.0000 O   0  0
    8.7829   -4.2960    0.0000 C   0  0
   10.1969   -4.2960    0.0000 C   0  0
    9.4919   -3.8874    0.0000 C   0  0
    9.4919   -3.0702    0.0000 C   0  0
   10.1969   -2.6616    0.0000 C   0  0
   10.1969   -1.8444    0.0000 C   0  0
   10.9060   -1.4358    0.0000 C   0  0
   11.6110   -1.8444    0.0000 C   0  0
   11.6110   -2.6616    0.0000 C   0  0
   10.9060   -3.0702    0.0000 C   0  0
   10.9060   -3.8874    0.0000 O   0  0
   10.1969   -5.1132    0.0000 N   0  0
   10.4955   -6.2239    0.0000 O   0  0
   11.3127   -6.2239    0.0000 O   0  0
  2  3  1  0
  3  4  2  0
  4  5  1  0
  5  6  2  0
  6  7  1  0
  2  7  2  0
  1  2  1  0
  5  8  1  0
 10  9  1  1
 10 11  1  0
 11 12  1  6
 11 13  1  0
 13 14  1  1
 13 15  1  0
 15 16  1  1
 15 17  1  0
 17 18  1  0
 17 19  1  1
 19 20  1  0
 10 18  1  0
 22 23  1  0
 23 24  2  0
 24 25  1  0
 25 26  1  0
 26 27  2  0
 27 28  1  0
 28 29  2  0
 29 30  1  0
 25 30  2  0
 30 31  1  0
 22 31  1  0
 22 32  2  0
 21 23  1  0
  9 21  1  0
 32  1  1  0
  1 33  2  0
  1 34  2  0
M  END