
          11280714512D 1   1.00000     0.00000     0

 29 30  0     0  0            999 V2000
    9.6792   -3.5667    0.0000 C   0  0  0  0  0  0           0  0  0
    6.1042   -2.3417    0.0000 C   0  0  0  0  0  0           0  0  0
   10.3917   -3.1542    0.0000 C   0  0  0  0  0  0           0  0  0
    8.9667   -3.1625    0.0000 C   0  0  0  0  0  0           0  0  0
    5.3917   -1.9375    0.0000 C   0  0  0  0  0  0           0  0  0
    6.1042   -3.1667    0.0000 O   0  0  0  0  0  0           0  0  0
   10.3875   -2.3250    0.0000 C   0  0  0  0  0  0           0  0  0
    1.1042   -1.9542    0.0000 O   0  0  0  0  0  0           0  0  0
    8.9625   -2.3375    0.0000 C   0  0  0  0  0  0           0  0  0
    2.5292   -1.9500    0.0000 C   0  0  3  0  0  0           0  0  0
    6.8167   -1.9292    0.0000 O   0  0  0  0  0  0           0  0  0
    1.8167   -2.3625    0.0000 C   0  0  0  0  0  0           0  0  0
    3.9625   -1.9417    0.0000 N   0  0  0  0  0  0           0  0  0
    9.6667   -1.9167    0.0000 C   0  0  0  0  0  0           0  0  0
    9.6792   -4.3917    0.0000 O   0  0  0  0  0  0           0  0  0
    0.3917   -2.3667    0.0000 C   0  0  0  0  0  0           0  0  0
   11.1125   -3.5667    0.0000 O   0  0  0  0  0  0           0  0  0
    2.5292   -1.1250    0.0000 O   0  0  0  0  0  0           0  0  0
    7.5292   -2.3417    0.0000 C   0  0  0  0  0  0           0  0  0
    4.6792   -2.3542    0.0000 C   0  0  0  0  0  0           0  0  0
    3.2500   -2.3542    0.0000 C   0  0  0  0  0  0           0  0  0
    8.2500   -1.9292    0.0000 C   0  0  0  0  0  0           0  0  0
    8.9667   -4.8125    0.0000 C   0  0  0  0  0  0           0  0  0
    0.3917   -3.2000    0.0000 C   0  0  0  0  0  0           0  0  0
   -0.3250   -1.9542    0.0000 C   0  0  0  0  0  0           0  0  0
   11.1167   -4.3917    0.0000 C   0  0  0  0  0  0           0  0  0
   -1.0375   -2.3750    0.0000 C   0  0  0  0  0  0           0  0  0
   -0.3250   -3.6125    0.0000 C   0  0  0  0  0  0           0  0  0
   -1.0375   -3.2000    0.0000 C   0  0  0  0  0  0           0  0  0
  2 11  1  0     0  0
  3  1  2  0     0  0
  4  1  1  0     0  0
  5  2  1  0     0  0
  6  2  2  0     0  0
  7  3  1  0     0  0
  8 12  1  0     0  0
  9  4  2  0     0  0
 10 21  1  0     0  0
 11 19  1  0     0  0
 12 10  1  0     0  0
 13 20  1  0     0  0
 14  9  1  0     0  0
 15  1  1  0     0  0
 16  8  1  0     0  0
 17  3  1  0     0  0
 18 10  1  0     0  0
 19 22  1  0     0  0
 20  5  1  0     0  0
 21 13  1  0     0  0
 22  9  1  0     0  0
 23 15  1  0     0  0
 24 16  1  0     0  0
 25 16  2  0     0  0
 26 17  1  0     0  0
 27 25  1  0     0  0
 28 24  2  0     0  0
 29 27  2  0     0  0
  7 14  2  0     0  0
 29 28  1  0     0  0
M  END