
  SciTegic06051313522D

 18 20  0  0  0  0            999 V2000
   -0.6694   -1.0628    0.0000 C   0  0
   -0.7183   -1.8906    0.0000 C   0  0
   -0.0212   -2.3392    0.0000 C   0  0
    0.0836   -0.6975    0.0000 C   0  0
    0.7108   -1.1512    0.0000 C   0  0
    0.7278   -1.9528    0.0000 C   0  0
    1.4446   -2.3460    0.0000 C   0  0
    2.1415   -1.9218    0.0000 C   0  0
    2.1240   -1.0977    0.0000 C   0  0
    1.3972   -0.6967    0.0000 C   0  0
    0.3306    0.0791    0.0000 C   0  0
    1.1556    0.1028    0.0000 C   0  0
   -0.1633    0.7369    0.0000 O   0  0
    1.6348    0.7616    0.0000 C   0  0
    2.4477    0.6807    0.0000 C   0  0
    1.3012    1.5097    0.0000 C   0  0
    3.2648    0.5922    0.0000 N   0  0
    0.9672    2.2544    0.0000 N   0  0
  1  2  2  0
  2  3  1  0
  3  6  2  0
  5  4  2  0
  4  1  1  0
  5  6  1  0
  6  7  1  0
  7  8  2  0
  8  9  1  0
  9 10  2  0
 10  5  1  0
  4 11  1  0
 10 12  1  0
 11 12  1  0
 11 13  2  0
 12 14  2  0
 14 15  1  0
 14 16  1  0
 15 17  3  0
 16 18  3  0
M  END