
  Mrv0541 05211314572D          

 16 17  0  0  0  0            999 V2000
   -0.2738   -0.4407    0.0000 C   0  0  0  0  0  0  0  0  0  0  0  0
    0.2111   -1.1082    0.0000 C   0  0  0  0  0  0  0  0  0  0  0  0
   -1.5113    0.2737    0.0000 C   0  0  0  0  0  0  0  0  0  0  0  0
   -2.3318    0.3600    0.0000 N   0  0  0  0  0  0  0  0  0  0  0  0
    0.9957   -0.8532    0.0000 C   0  0  0  0  0  0  0  0  0  0  0  0
    0.9957   -0.0282    0.0000 C   0  0  0  0  0  0  0  0  0  0  0  0
   -1.1757    1.0274    0.0000 N   0  0  0  0  0  0  0  0  0  0  0  0
    0.2111    0.2267    0.0000 C   0  0  0  0  0  0  0  0  0  0  0  0
   -1.0988   -0.4407    0.0000 C   0  0  0  0  0  0  0  0  0  0  0  0
    4.6640    0.0000    0.0000 Cl  0  0  0  0  0  0  0  0  0  0  0  0
   -2.5033    1.1669    0.0000 C   0  0  0  0  0  0  0  0  0  0  0  0
   -1.7888    1.5794    0.0000 C   0  0  0  0  0  0  0  0  0  0  0  0
    1.7102   -1.2657    0.0000 C   0  0  0  0  0  0  0  0  0  0  0  0
    1.7102    0.3843    0.0000 C   0  0  0  0  0  0  0  0  0  0  0  0
    2.4247   -0.8532    0.0000 C   0  0  0  0  0  0  0  0  0  0  0  0
    2.4247   -0.0282    0.0000 C   0  0  0  0  0  0  0  0  0  0  0  0
  1  2  2  0  0  0  0
  3  4  2  0  0  0  0
  2  5  1  0  0  0  0
  5  6  2  0  0  0  0
  3  7  1  0  0  0  0
  1  8  1  0  0  0  0
  6  8  1  0  0  0  0
  1  9  1  0  0  0  0
  3  9  1  0  0  0  0
  4 11  1  0  0  0  0
  7 12  1  0  0  0  0
 11 12  1  0  0  0  0
  5 13  1  0  0  0  0
  6 14  1  0  0  0  0
 13 15  2  0  0  0  0
 14 16  2  0  0  0  0
 15 16  1  0  0  0  0
M  END