
  SciTegic12201110432D

  8  8  0  0  0  0            999 V2000
   -0.7554    1.2745    0.0000 O   0  0
    0.6736    1.2745    0.0000 O   0  0
   -0.0409    0.8620    0.0000 C   0  0
   -0.0409    0.0370    0.0000 C   0  0
    0.6265   -0.4479    0.0000 C   0  0
    0.3716   -1.2325    0.0000 C   0  0
   -0.4534   -1.2325    0.0000 C   0  0
   -0.7084   -0.4479    0.0000 N   0  0
  3  1  2  0
  3  2  1  0
  3  4  1  0
  4  5  2  0
  4  8  1  0
  5  6  1  0
  6  7  2  0
  7  8  1  0
M  END