
          11280715122D 1   1.00000     0.00000     0

 33 36  0     0  0            999 V2000
    5.0667   -0.8875    0.0000 S   0  0  3  0  0  0           0  0  0
    6.6667   -6.3167    0.0000 C   0  0  0  0  0  0           0  0  0
    6.1375   -7.5500    0.0000 N   0  0  0  0  0  0           0  0  0
    6.8417   -7.1292    0.0000 N   0  0  0  0  0  0           0  0  0
    5.5167   -7.0167    0.0000 N   0  0  0  0  0  0           0  0  0
    3.6542   -1.1625    0.0000 C   0  0  0  0  0  0           0  0  0
    3.6542   -1.9917    0.0000 C   0  0  0  0  0  0           0  0  0
    5.8500   -6.2417    0.0000 N   0  0  0  0  0  0           0  0  0
    4.2792   -0.6167    0.0000 N   0  0  0  0  0  0           0  0  0
    7.2167   -5.7042    0.0000 C   0  0  0  0  0  0           0  0  0
    4.3667   -2.4042    0.0000 N   0  0  3  0  0  0           0  0  0
    7.2167   -4.8792    0.0000 C   0  0  0  0  0  0           0  0  0
    2.9417   -2.4042    0.0000 N   0  0  0  0  0  0           0  0  0
    5.6917   -0.3417    0.0000 O   0  0  0  0  0  0           0  0  0
    4.4417   -1.4292    0.0000 O   0  0  0  0  0  0           0  0  0
    6.5042   -4.4667    0.0000 C   0  0  0  0  0  0           0  0  0
    4.3667   -3.2292    0.0000 C   0  0  0  0  0  0           0  0  0
    5.7917   -4.8792    0.0000 C   0  0  0  0  0  0           0  0  0
    6.5042   -3.6375    0.0000 C   0  0  0  0  0  0           0  0  0
    5.0792   -3.6417    0.0000 C   0  0  0  0  0  0           0  0  0
    5.8500   -1.1542    0.0000 C   0  0  0  0  0  0           0  0  0
    5.7875   -3.2250    0.0000 C   0  0  0  0  0  0           0  0  0
    5.0792   -4.4667    0.0000 C   0  0  0  0  0  0           0  0  0
    2.9417   -0.7500    0.0000 C   0  0  0  0  0  0           0  0  0
    5.0792   -1.9917    0.0000 C   0  0  0  0  0  0           0  0  0
    7.9292   -6.1167    0.0000 C   0  0  0  0  0  0           0  0  0
    7.9292   -4.4667    0.0000 C   0  0  0  0  0  0           0  0  0
    2.2292   -1.9917    0.0000 C   0  0  0  0  0  0           0  0  0
    5.7875   -2.4042    0.0000 C   0  0  0  0  0  0           0  0  0
    2.2292   -1.1667    0.0000 C   0  0  0  0  0  0           0  0  0
    8.6417   -4.8750    0.0000 C   0  0  0  0  0  0           0  0  0
    8.6417   -5.7042    0.0000 C   0  0  0  0  0  0           0  0  0
    6.4917   -1.9917    0.0000 C   0  0  0  0  0  0           0  0  0
  2 10  1  0     0  0
  3  4  2  0     0  0
  4  2  1  0     0  0
  5  8  1  0     0  0
  6  9  1  0     0  0
  7  6  1  0     0  0
  8  2  2  0     0  0
  9  1  1  0     0  0
 10 12  2  0     0  0
 11  7  1  0     0  0
 12 16  1  0     0  0
 13  7  2  0     0  0
 14  1  2  0     0  0
 15  1  2  0     0  0
 16 18  2  0     0  0
 17 11  1  0     0  0
 18 23  1  0     0  0
 19 22  2  0     0  0
 20 17  1  0     0  0
 21  1  1  0     0  0
 22 20  1  0     0  0
 23 20  2  0     0  0
 24  6  2  0     0  0
 25 11  1  0     0  0
 26 10  1  0     0  0
 27 12  1  0     0  0
 28 30  2  0     0  0
 29 25  1  0     0  0
 30 24  1  0     0  0
 31 27  2  0     0  0
 32 31  1  0     0  0
 33 29  1  0     0  0
 13 28  1  0     0  0
 19 16  1  0     0  0
 32 26  2  0     0  0
  3  5  1  0     0  0
M  END