
          11280715392D 1   1.00000     0.00000     0

 20 22  0     0  0            999 V2000
   -0.8208   -1.1875    0.0000 C   0  0  0  0  0  0           0  0  0
   -0.1083   -0.7750    0.0000 N   0  0  0  0  0  0           0  0  0
    0.6042   -1.1875    0.0000 C   0  0  0  0  0  0           0  0  0
   -1.5833   -0.8500    0.0000 C   0  0  0  0  0  0           0  0  0
    4.2500   -2.2625    0.0000 N   0  0  3  0  0  0           0  0  0
   -1.7208   -2.1750    0.0000 N   0  0  0  0  0  0           0  0  0
    3.4625   -2.0125    0.0000 C   0  0  0  0  0  0           0  0  0
    3.4542   -1.1792    0.0000 C   0  0  0  0  0  0           0  0  0
   -0.9125   -2.0042    0.0000 O   0  0  0  0  0  0           0  0  0
    4.7292   -1.5917    0.0000 C   0  0  0  0  0  0           0  0  0
    4.2417   -0.9250    0.0000 C   0  0  0  0  0  0           0  0  0
   -2.1333   -1.4625    0.0000 C   0  0  0  0  0  0           0  0  0
    1.3167   -0.7750    0.0000 N   0  0  0  0  0  0           0  0  0
    2.7417   -2.4250    0.0000 C   0  0  0  0  0  0           0  0  0
    2.7417   -0.7750    0.0000 C   0  0  0  0  0  0           0  0  0
    2.0375   -1.1875    0.0000 C   0  0  0  0  0  0           0  0  0
    0.6042   -2.0125    0.0000 O   0  0  0  0  0  0           0  0  0
    2.0292   -2.0125    0.0000 C   0  0  0  0  0  0           0  0  0
    4.5042   -3.0417    0.0000 C   0  0  0  0  0  0           0  0  0
   -2.9500   -1.3750    0.0000 C   0  0  0  0  0  0           0  0  0
  2  1  1  0     0  0
  3  2  1  0     0  0
  4  1  2  0     0  0
  5  7  1  0     0  0
  6  9  1  0     0  0
  7 14  2  0     0  0
  8 15  2  0     0  0
  9  1  1  0     0  0
 10 11  2  0     0  0
 11  8  1  0     0  0
 12  4  1  0     0  0
 13  3  1  0     0  0
 14 18  1  0     0  0
 15 16  1  0     0  0
 16 13  1  0     0  0
 17  3  2  0     0  0
 18 16  2  0     0  0
 19  5  1  0     0  0
 20 12  1  0     0  0
 12  6  2  0     0  0
  8  7  1  0     0  0
  5 10  1  0     0  0
M  END