
  SciTegic09261414532D

 36 41  0  0  0  0            999 V2000
    0.8983   -3.5783    0.0000 C   0  0
    0.8972   -2.7547    0.0000 C   0  0
    1.6052   -2.3416    0.0000 C   0  0
    1.6034   -3.9872    0.0000 C   0  0
    2.3162   -3.5819    0.0000 C   0  0
    2.3210   -2.7592    0.0000 C   0  0
    3.1051   -2.5108    0.0000 N   0  0
    3.5866   -3.1759    0.0000 C   0  0
    3.0974   -3.8394    0.0000 N   0  0
    3.3663   -1.7309    0.0000 C   0  0
    2.8189   -1.1163    0.0000 C   0  0
    4.4059   -3.1812    0.0000 C   0  0
    4.8812   -3.8502    0.0000 C   0  0
    5.6623   -3.6034    0.0000 N   0  0
    5.6676   -2.7840    0.0000 C   0  0
    4.8898   -2.5271    0.0000 C   0  0
    2.6550   -0.3070    0.0000 C   0  0
    2.0405   -0.8502    0.0000 C   0  0
    6.3343   -2.3053    0.0000 C   0  0
    7.0833   -2.6483    0.0000 C   0  0
    7.7512   -2.1688    0.0000 C   0  0
    7.6714   -1.3505    0.0000 C   0  0
    6.9179   -1.0140    0.0000 C   0  0
    6.2531   -1.4914    0.0000 C   0  0
    4.6232   -4.6297    0.0000 C   0  0
    3.8185   -4.7939    0.0000 C   0  0
    5.1698   -5.2450    0.0000 C   0  0
    6.3244   -4.0880    0.0000 C   0  0
    7.0772   -3.7605    0.0000 C   0  0
    7.7393   -4.2492    0.0000 C   0  0
    8.4921   -3.9176    0.0000 N   0  0
    9.1971   -4.3367    0.0000 C   0  0
    9.8080   -3.7897    0.0000 N   0  0
    9.4804   -3.0368    0.0000 C   0  0
    8.6631   -3.1171    0.0000 C   0  0
    9.2755   -5.1542    0.0000 C   0  0
  1  2  2  0
  2  3  1  0
  3  6  2  0
  5  4  2  0
  4  1  1  0
  5  6  1  0
  6  7  1  0
  7  8  1  0
  8  9  2  0
  9  5  1  0
  7 10  1  0
 10 11  1  0
  8 12  1  0
 12 13  2  0
 13 14  1  0
 14 15  1  0
 15 16  2  0
 16 12  1  0
 17 11  1  0
 18 17  1  0
 11 18  1  0
 19 20  2  0
 20 21  1  0
 21 22  2  0
 22 23  1  0
 23 24  2  0
 24 19  1  0
 15 19  1  0
 13 25  1  0
 25 26  1  0
 25 27  1  0
 14 28  1  0
 28 29  1  0
 29 30  1  0
 30 31  1  0
 31 32  1  0
 32 33  2  0
 33 34  1  0
 34 35  2  0
 35 31  1  0
 32 36  1  0
M  END