
  SciTegic10121214022D

 25 24  0  0  0  0            999 V2000
   11.3417   -9.7333    0.0000 C   0  0  2  0  0  0
   11.3417  -10.5583    0.0000 C   0  0  2  0  0  0
   12.0537  -10.9667    0.0000 C   0  0  1  0  0  0
   12.7657  -10.5583    0.0000 C   0  0  2  0  0  0
   12.7657   -9.7333    0.0000 C   0  0
   12.0537   -9.3167    0.0000 N   0  0
   13.4796  -10.9719    0.0000 N   0  0
   12.0537  -11.7917    0.0000 O   0  0
   10.6278  -10.9719    0.0000 O   0  0
   10.6260   -9.3229    0.0000 C   0  0
   10.6236   -8.4979    0.0000 O   0  0
   14.1946  -10.5604    0.0000 C   0  0
   14.9085  -10.9739    0.0000 C   0  0
   14.1958   -9.7354    0.0000 O   0  0
   11.3392  -12.2042    0.0000 C   0  0  1  0  0  0
   11.3392  -13.0292    0.0000 C   0  0
   10.6247  -11.7917    0.0000 C   0  0
   10.6247  -13.4417    0.0000 O   0  0
   12.0537  -13.4417    0.0000 N   0  0
   12.0537  -14.2667    0.0000 C   0  0  2  0  0  0
   12.7682  -14.6792    0.0000 C   0  0
   11.3392  -14.6792    0.0000 C   0  0
   12.7682  -15.5042    0.0000 O   0  0
   13.4826  -14.2667    0.0000 O   0  0
   18.1313   -8.5625    0.0000 Cl  0  0
  7 12  1  0
  5  6  1  0
 12 13  1  0
 12 14  2  0
  4  7  1  6
  8 15  1  0
  1  2  1  0
 15 16  1  0
  3  8  1  1
 15 17  1  1
  1  6  1  0
 16 18  2  0
  2  9  1  6
 16 19  1  0
  2  3  1  0
 19 20  1  0
  1 10  1  1
 20 21  1  0
  3  4  1  0
 20 22  1  6
 10 11  1  0
 21 23  2  0
  4  5  1  0
 21 24  1  0
M  END