
  SciTegic12171313052D

 40 44  0  0  0  0            999 V2000
   20.5854  -25.3058    0.0000 C   0  0
   21.2884  -24.8738    0.0000 C   0  0
   22.0133  -25.2659    0.0000 C   0  0
   22.0355  -26.0900    0.0000 C   0  0
   21.3325  -26.5221    0.0000 C   0  0
   20.6074  -26.1300    0.0000 C   0  0
   19.8603  -24.9138    0.0000 C   0  0
   19.1563  -25.3497    0.0000 C   0  0
   18.4312  -24.9576    0.0000 C   0  0
   18.4051  -24.1323    0.0000 C   0  0
   19.1081  -23.7002    0.0000 C   0  0
   19.8332  -24.0924    0.0000 C   0  0
   21.2623  -24.0484    0.0000 C   0  0
   20.5373  -23.6563    0.0000 O   0  0
   21.9652  -23.6165    0.0000 O   0  0
   17.6802  -23.7402    0.0000 C   0  0
   18.3076  -22.4086    0.0000 C   0  0
   18.0335  -21.6349    0.0000 N   0  0
   17.2054  -21.6558    0.0000 C   0  0
   16.9734  -22.4475    0.0000 C   0  0
   17.6580  -22.9161    0.0000 N   0  0
   16.6384  -21.0598    0.0000 C   0  0
   15.8355  -21.2543    0.0000 C   0  0
   15.6034  -22.0461    0.0000 C   0  0
   16.1732  -22.6472    0.0000 C   0  0
   19.0993  -22.6406    0.0000 C   0  0
   19.6953  -22.0736    0.0000 C   0  0
   20.4870  -22.3056    0.0000 C   0  0
   16.8704  -20.2680    0.0000 C   0  0
   14.8033  -22.2458    0.0000 C   0  0
   14.2335  -21.6446    0.0000 O   0  0
   14.5712  -23.0375    0.0000 N   0  0
   13.7683  -23.2320    0.0000 C   0  0
   13.5363  -24.0237    0.0000 C   0  0
   12.7332  -24.2183    0.0000 C   0  0
   12.5012  -25.0100    0.0000 C   0  0
   11.6982  -25.2045    0.0000 C   0  0
   11.1313  -24.6085    0.0000 C   0  0
   11.3633  -23.8168    0.0000 C   0  0
   12.1622  -23.6211    0.0000 C   0  0
  1  2  1  0
  2  3  2  0
  3  4  1  0
  4  5  2  0
  5  6  1  0
  1  6  2  0
  7  8  1  0
  8  9  2  0
  9 10  1  0
 10 11  2  0
 11 12  1  0
  7 12  2  0
  1  7  1  0
 13 14  2  0
 13 15  1  0
  2 13  1  0
 17 18  2  0
 18 19  1  0
 19 20  1  0
 20 21  1  0
 17 21  1  0
 22 23  1  0
 23 24  2  0
 24 25  1  0
 20 25  2  0
 19 22  2  0
 26 27  1  0
 27 28  1  0
 17 26  1  0
 22 29  1  0
 30 31  2  0
 33 34  1  0
 35 36  1  0
 36 37  2  0
 37 38  1  0
 38 39  2  0
 39 40  1  0
 35 40  2  0
 34 35  1  0
 32 33  1  0
 30 32  1  0
 24 30  1  0
 16 21  1  0
 10 16  1  0
M  END