
          11280715342D 1   1.00000     0.00000     0

 31 34  0     0  0            999 V2000
    1.5792   -2.0000    0.0000 C   0  0  0  0  0  0           0  0  0
    2.2917   -2.4167    0.0000 C   0  0  0  0  0  0           0  0  0
    1.5792   -1.1750    0.0000 C   0  0  0  0  0  0           0  0  0
    2.2917   -3.2375    0.0000 C   0  0  0  0  0  0           0  0  0
    0.8667   -2.4167    0.0000 C   0  0  0  0  0  0           0  0  0
    4.4250   -1.9917    0.0000 C   0  0  0  0  0  0           0  0  0
    5.1375   -1.5792    0.0000 C   0  0  0  0  0  0           0  0  0
    1.5792   -3.6500    0.0000 C   0  0  3  0  0  0           0  0  0
    7.9750    0.1083    0.0000 C   0  0  0  0  0  0           0  0  0
    3.0042   -3.6500    0.0000 C   0  0  0  0  0  0           0  0  0
    3.0000   -2.0042    0.0000 C   0  0  0  0  0  0           0  0  0
    2.2917   -0.7625    0.0000 C   0  0  0  0  0  0           0  0  0
    0.8667   -0.7625    0.0000 C   0  0  0  0  0  0           0  0  0
    0.8667   -3.2417    0.0000 C   0  0  0  0  0  0           0  0  0
    7.2625   -0.3167    0.0000 C   0  0  0  0  0  0           0  0  0
    3.7125   -2.4125    0.0000 C   0  0  0  0  0  0           0  0  0
    7.9625    0.9333    0.0000 O   0  0  0  0  0  0           0  0  0
    0.8667    0.0583    0.0000 C   0  0  0  0  0  0           0  0  0
    2.2917    0.0625    0.0000 C   0  0  0  0  0  0           0  0  0
    5.8417   -1.1542    0.0000 C   0  0  0  0  0  0           0  0  0
    6.5417    0.0833    0.0000 C   0  0  0  0  0  0           0  0  0
    7.2667   -1.1417    0.0000 C   0  0  0  0  0  0           0  0  0
    1.5792    0.4750    0.0000 C   0  0  0  0  0  0           0  0  0
    3.7167   -3.2375    0.0000 C   0  0  0  0  0  0           0  0  0
    8.6917   -0.3000    0.0000 O   0  0  0  0  0  0           0  0  0
    5.8292   -0.3375    0.0000 C   0  0  0  0  0  0           0  0  0
    6.5625   -1.5667    0.0000 C   0  0  0  0  0  0           0  0  0
    1.1625   -4.3625    0.0000 C   0  0  0  0  0  0           0  0  0
    1.9875   -4.3625    0.0000 C   0  0  0  0  0  0           0  0  0
    3.0125    0.4750    0.0000 C   0  0  0  0  0  0           0  0  0
    0.1500    0.4708    0.0000 C   0  0  0  0  0  0           0  0  0
  2  1  1  0     0  0
  3  1  1  0     0  0
  4  2  2  0     0  0
  5  1  2  0     0  0
  6 16  1  0     0  0
  7  6  3  0     0  0
  8 14  1  0     0  0
  9 15  1  0     0  0
 10  4  1  0     0  0
 11  2  1  0     0  0
 12  3  2  0     0  0
 13  3  1  0     0  0
 14  5  1  0     0  0
 15 22  2  0     0  0
 16 11  2  0     0  0
 17  9  2  0     0  0
 18 13  2  0     0  0
 19 12  1  0     0  0
 20  7  1  0     0  0
 21 26  2  0     0  0
 22 27  1  0     0  0
 23 18  1  0     0  0
 24 16  1  0     0  0
 25  9  1  0     0  0
 26 20  1  0     0  0
 27 20  2  0     0  0
 28  8  1  0     0  0
 29  8  1  0     0  0
 30 19  1  0     0  0
 31 18  1  0     0  0
  8  4  1  0     0  0
 19 23  2  0     0  0
 10 24  2  0     0  0
 15 21  1  0     0  0
M  END