
  SciTegic01161211242D

 30 30  0  0  0  0            999 V2000
    2.5988   -1.5004    0.0000 S   0  0
    3.9004   -5.2525    0.0000 C   0  0
    2.5994   -6.0007    0.0000 C   0  0
    2.5997   -3.0012    0.0000 O   0  0
    1.2990   -0.7500    0.0000 C   0  0
    3.8995   -3.7516    0.0000 C   0  0
    3.6383   -2.0999    0.0000 O   0  0
    3.6378   -0.9001    0.0000 O   0  0
    5.2002   -6.0029    0.0000 C   0  0
    2.5977   -7.2007    0.0000 O   0  0
    1.2990    0.7500    0.0000 C   0  0
    0.0000   -1.5000    0.0000 C   0  0
    1.3004   -5.2489    0.0000 O   0  0
   -2.6006   -5.9935    0.0000 N   0  0
   -1.2990   -0.7500    0.0000 C   0  0
    0.0000    1.5000    0.0000 C   0  0
   -1.2990    0.7500    0.0000 C   0  0
   10.2983   -3.3781    0.0000 Cl  0  0
   -0.0006   -5.9971    0.0000 C   0  0
   -1.2996   -5.2453    0.0000 C   0  0
    6.5013   -5.2566    0.0000 C   0  0
    5.1961   -7.5030    0.0000 C   0  0
   -3.8995   -5.2416    0.0000 C   0  0
   -2.6058   -7.4943    0.0000 C   0  0
   -2.3383    1.3500    0.0000 C   0  0
   -3.6467   -8.0913    0.0000 C   0  0
   -4.9398   -5.8399    0.0000 C   0  0
    7.7983   -6.0102    0.0000 C   0  0
    6.4930   -8.2566    0.0000 C   0  0
    7.7941   -7.5102    0.0000 C   0  0
  2  3  1  0
  1  4  1  0
  1  5  1  0
  2  6  1  0
  4  6  1  0
  1  7  2  0
  1  8  2  0
  2  9  1  0
  3 10  2  0
  5 11  1  0
  5 12  2  0
  3 13  1  0
 12 15  1  0
 11 16  2  0
 15 17  2  0
 16 17  1  0
 13 19  1  0
 14 20  1  0
 19 20  1  0
  9 21  1  0
  9 22  2  0
 14 23  1  0
 14 24  1  0
 17 25  1  0
 24 26  1  0
 23 27  1  0
 21 28  2  0
 22 29  1  0
 28 30  1  0
 29 30  2  0
M  END