
  SciTegic04021211102D

 28 31  0  0  0  0            999 V2000
   -5.4178   -4.0031    0.0000 C   0  0
   -5.4190   -4.8281    0.0000 C   0  0
   -4.7034   -5.2397    0.0000 C   0  0
   -3.9861   -4.8276    0.0000 C   0  0
   -3.9892   -3.9992    0.0000 C   0  0
   -4.7053   -3.5872    0.0000 C   0  0
   -3.2831   -3.5822    0.0000 C   0  0
   -2.5661   -3.9968    0.0000 C   0  0
   -1.8530   -3.5790    0.0000 C   0  0
   -1.8558   -2.7556    0.0000 N   0  0
   -2.5779   -2.3474    0.0000 C   0  0
   -3.2879   -2.7633    0.0000 N   0  0
   -4.7036   -6.0666    0.0000 O   0  0
   -3.9885   -6.4780    0.0000 C   0  0
   -3.2776   -6.0670    0.0000 C   0  0
   -2.5625   -6.4784    0.0000 C   0  0
   -4.7079   -2.7647    0.0000 Cl  0  0
   -2.5218   -1.5206    0.0000 N   0  0
   -1.8473   -6.0673    0.0000 C   0  0
   -1.1321   -6.4787    0.0000 O   0  0
   -0.4213   -6.0676    0.0000 C   0  0
    0.2906   -6.4792    0.0000 C   0  0
    1.0054   -6.0689    0.0000 C   0  0
    1.0061   -5.2411    0.0000 C   0  0
    0.2857   -4.8298    0.0000 C   0  0
   -0.4260   -5.2427    0.0000 C   0  0
    0.2829   -4.0073    0.0000 S   0  0
   -6.1692   -5.2612    0.0000 Cl  0  0
  1  2  2  0
 13 14  1  0
  3  4  2  0
 14 15  1  0
  7  8  2  0
 15 16  1  0
  6 17  1  0
  8  9  1  0
 11 18  1  0
  4  5  1  0
 16 19  1  0
  9 10  2  0
 19 20  1  0
  2  3  1  0
 20 21  1  0
 10 11  1  0
 21 22  2  0
  5  6  2  0
 22 23  1  0
 11 12  2  0
 23 24  2  0
 12  7  1  0
 24 25  1  0
  5  7  1  0
 25 26  2  0
 26 21  1  0
  6  1  1  0
 25 27  1  0
  9 27  1  0
  3 13  1  0
  2 28  1  0
M  END