
  Mrv0541 04051115152D          

 32 34  0  0  0  0            999 V2000
   -1.1253   -1.8452    0.0000 N   0  0  0  0  0  0  0  0  0  0  0  0
   -2.5230   -1.5481    0.0000 O   0  0  0  0  0  0  0  0  0  0  0  0
    0.6158    0.6744    0.0000 O   0  0  0  0  0  0  0  0  0  0  0  0
   -4.3941    2.0430    0.0000 F   0  0  0  0  0  0  0  0  0  0  0  0
   -4.0954   -0.7992    0.0000 F   0  0  0  0  0  0  0  0  0  0  0  0
   -6.7062    0.3632    0.0000 Br  0  0  0  0  0  0  0  0  0  0  0  0
   -5.5502    1.2031    0.0000 C   0  0  0  0  0  0  0  0  0  0  0  0
   -5.4008   -0.2180    0.0000 C   0  0  0  0  0  0  0  0  0  0  0  0
    2.7592   -0.5631    0.0000 C   0  0  0  0  0  0  0  0  0  0  0  0
    3.4737   -0.1506    0.0000 C   0  0  0  0  0  0  0  0  0  0  0  0
    6.2083    0.1269    0.0000 C   0  0  0  0  0  0  0  0  0  0  0  0
    5.7958    0.8414    0.0000 C   0  0  0  0  0  0  0  0  0  0  0  0
    2.0447   -0.1506    0.0000 C   0  0  0  0  0  0  0  0  0  0  0  0
    4.1881   -0.5631    0.0000 C   0  0  0  0  0  0  0  0  0  0  0  0
    5.6563   -0.4862    0.0000 C   0  0  0  0  0  0  0  0  0  0  0  0
    4.9888    0.6699    0.0000 C   0  0  0  0  0  0  0  0  0  0  0  0
   -3.4243    0.7081    0.0000 C   0  0  0  0  0  0  0  0  0  0  0  0
   -1.7064    0.8414    0.0000 N   0  0  0  0  0  0  0  0  0  0  0  0
    1.3302   -0.5631    0.0000 N   0  0  0  0  0  0  0  0  0  0  0  0
   -0.0987   -0.5631    0.0000 N   0  0  0  0  0  0  0  0  0  0  0  0
   -2.9394    0.0407    0.0000 O   0  0  0  0  0  0  0  0  0  0  0  0
   -0.8994    0.6699    0.0000 S   0  0  0  0  0  0  0  0  0  0  0  0
   -1.7384   -1.2931    0.0000 C   0  0  0  0  0  0  0  0  0  0  0  0
    0.6158   -0.1506    0.0000 C   0  0  0  0  0  0  0  0  0  0  0  0
   -5.8857    0.4494    0.0000 C   0  0  0  0  0  0  0  0  0  0  0  0
   -4.7297    1.2893    0.0000 C   0  0  0  0  0  0  0  0  0  0  0  0
   -4.5803   -0.1318    0.0000 C   0  0  0  0  0  0  0  0  0  0  0  0
   -2.1189    0.1269    0.0000 C   0  0  0  0  0  0  0  0  0  0  0  0
   -4.2448    0.6219    0.0000 C   0  0  0  0  0  0  0  0  0  0  0  0
   -0.8132   -0.1506    0.0000 C   0  0  0  0  0  0  0  0  0  0  0  0
   -1.5668   -0.4862    0.0000 C   0  0  0  0  0  0  0  0  0  0  0  0
    4.9026   -0.1506    0.0000 N   0  0  0  0  0  0  0  0  0  0  0  0
 23  1  1  0  0  0  0
 23  2  2  0  0  0  0
 24  3  2  0  0  0  0
 26  4  1  0  0  0  0
 27  5  1  0  0  0  0
  6 25  1  0  0  0  0
  7 26  2  0  0  0  0
  7 25  1  0  0  0  0
  8 25  2  0  0  0  0
  8 27  1  0  0  0  0
  9 13  1  0  0  0  0
  9 10  1  0  0  0  0
 10 14  1  0  0  0  0
 11 15  1  0  0  0  0
 11 12  1  0  0  0  0
 12 16  1  0  0  0  0
 13 19  1  0  0  0  0
 14 32  1  0  0  0  0
 15 32  1  0  0  0  0
 16 32  1  0  0  0  0
 17 21  1  0  0  0  0
 17 29  1  0  0  0  0
 28 18  2  0  0  0  0
 18 22  1  0  0  0  0
 24 19  1  0  0  0  0
 24 20  1  0  0  0  0
 30 20  1  0  0  0  0
 28 21  1  0  0  0  0
 30 22  1  0  0  0  0
 23 31  1  0  0  0  0
 26 29  1  0  0  0  0
 27 29  2  0  0  0  0
 28 31  1  0  0  0  0
 30 31  2  0  0  0  0
M  END