
  SciTegic01161211232D

 36 40  0  0  0  0            999 V2000
   -1.6902    2.1289    0.0000 C   0  0
   -1.7979    2.9492    0.0000 C   0  0
   -2.5607    3.2644    0.0000 C   0  0
   -3.2164    2.7605    0.0000 C   0  0
   -2.3416    1.6262    0.0000 C   0  0
   -3.1063    1.9429    0.0000 C   0  0
   -2.4061    0.8013    0.0000 C   0  0
   -3.2113    0.6076    0.0000 C   0  0
   -3.6407    1.3152    0.0000 C   0  0
   -4.4662    1.2960    0.0000 C   0  0
   -4.8633    0.5701    0.0000 C   0  0
   -4.4287   -0.1379    0.0000 C   0  0
   -3.6047   -0.1153    0.0000 C   0  0
   -1.7038    0.3686    0.0000 C   0  0
   -1.7275   -0.4560    0.0000 C   0  0
   -1.0252   -0.8888    0.0000 N   0  0
   -1.0489   -1.7133    0.0000 C   0  0
   -0.2993   -0.4969    0.0000 C   0  0
    0.4030   -0.9297    0.0000 C   0  0
    1.1289   -0.5379    0.0000 C   0  0
    1.8312   -0.9707    0.0000 N   0  0
    1.1526    0.2867    0.0000 O   0  0
    1.8032   -1.7916    0.0000 C   0  0
    2.5014   -2.2242    0.0000 C   0  0
    3.2296   -1.8359    0.0000 N   0  0
    3.2553   -1.0104    0.0000 C   0  0
    2.5527   -0.5731    0.0000 C   0  0
    3.9274   -2.2704    0.0000 C   0  0
    3.8992   -3.0960    0.0000 C   0  0
    4.5990   -3.5313    0.0000 C   0  0
    5.3274   -3.1422    0.0000 C   0  0
    5.3516   -2.3134    0.0000 C   0  0
    4.6511   -1.8818    0.0000 C   0  0
    6.0297   -3.5787    0.0000 N   0  3
    6.7566   -3.1886    0.0000 O   0  0
    6.0040   -4.4032    0.0000 O   0  5
 16 17  1  0
  3  4  2  0
 16 18  1  0
  4  6  1  0
 18 19  1  0
  8  9  2  0
 19 20  1  0
  5  1  1  0
 20 21  1  0
  9 10  1  0
 20 22  2  0
 21 23  1  0
  5  6  2  0
 10 11  2  0
 11 12  1  0
  2  3  1  0
 21 27  1  0
 23 24  1  0
 24 25  1  0
 25 26  1  0
 26 27  1  0
 12 13  2  0
 13  8  1  0
 28 29  2  0
  1  2  2  0
 29 30  1  0
  7 14  1  0
 30 31  2  0
  6  9  1  0
 31 32  1  0
 14 15  1  0
 32 33  2  0
 33 28  1  0
 25 28  1  0
  8  7  1  0
 15 16  1  0
  7  5  1  0
 34 35  2  0
 34 36  1  0
 31 34  1  0
M  CHG  2  34   1  36  -1
M  END