
  SciTegic05171617282D

 38 42  0  0  0  0            999 V2000
   -8.8321    5.8541    0.0000 C   0  0
   -7.7960    5.2487    0.0000 C   0  0
   -7.8042    3.7479    0.0000 N   0  0
   -9.1068    3.0024    0.0000 C   0  0
  -10.4042    3.7569    0.0000 C   0  0
  -10.5405    5.2379    0.0000 C   0  0
  -12.0074    5.5513    0.0000 C   0  0
  -12.7588    4.2531    0.0000 C   0  0
  -11.7563    3.1373    0.0000 O   0  0
   -6.5091    2.9895    0.0000 C   0  0
   -5.4664    3.5835    0.0000 O   0  0
   -6.5174    1.4887    0.0000 C   0  0
   -5.2223    0.7303    0.0000 N   0  0
   -5.2305   -0.7705    0.0000 S   0  0
   -6.2663   -0.1646    0.0000 O   0  0
   -6.2732   -1.3644    0.0000 O   0  0
   -3.9355   -1.5287    0.0000 C   0  0
   -2.6341   -0.7882    0.0000 C   0  0
   -1.3333   -1.5606    0.0000 C   0  0
   -1.3428   -3.0577    0.0000 C   0  0
   -0.0510   -3.8142    0.0001 N   0  0
   -0.0605   -5.3112    0.0001 C   0  0
    0.9749   -5.9178    0.0001 O   0  0
   -1.3618   -6.0517    0.0001 C   0  0
   -2.6537   -5.2952    0.0001 C   0  0
   -2.6441   -3.7981    0.0000 C   0  0
   -3.9360   -3.0416    0.0000 C   0  0
   -7.8214    0.7459    0.0000 C   0  0
   -9.1172    1.5017    0.0000 C   0  0
  -10.4196    0.7575    0.0000 C   0  0
  -10.4263   -0.7425    0.0000 C   0  0
   -9.1306   -1.4983    0.0000 C   0  0
   -7.8282   -0.7541    0.0000 C   0  0
   -6.4926    5.9928    0.0000 C   0  0
   -6.3444    7.4726    0.0000 C   0  0
   -4.8751    7.7743    0.0000 C   0  0
   -4.1341    6.4701    0.0000 C   0  0
   -5.1455    5.3624    0.0000 S   0  0
  1  2  1  0
  2  3  1  0
  3  4  1  0
  4  5  1  0
  5  6  2  0
  6  7  1  0
  7  8  2  0
  8  9  1  0
  5  9  1  0
  3 10  1  0
 10 11  2  0
 10 12  1  0
 12 13  1  0
 13 14  1  0
 14 15  2  0
 14 16  2  0
 14 17  1  0
 17 18  2  0
 18 19  1  0
 19 20  2  0
 20 21  1  0
 21 22  1  0
 22 23  2  0
 22 24  1  0
 24 25  1  0
 25 26  1  0
 20 26  1  0
 26 27  2  0
 17 27  1  0
 12 28  1  0
 28 29  2  0
 29 30  1  0
 30 31  2  0
 31 32  1  0
 32 33  2  0
 28 33  1  0
  2 34  1  0
 34 35  2  0
 35 36  1  0
 36 37  2  0
 37 38  1  0
 34 38  1  0
M  END