
  Mrv0541 05211314572D          

 23 24  0  0  0  0            999 V2000
    2.2166   -0.4078    0.0000 O   0  0  0  0  0  0  0  0  0  0  0  0
   -3.4992   -0.4078    0.0000 C   0  0  0  0  0  0  0  0  0  0  0  0
   -2.7847    0.0047    0.0000 C   0  0  0  0  0  0  0  0  0  0  0  0
    2.2166    1.2422    0.0000 O   0  0  0  0  0  0  0  0  0  0  0  0
    2.9311    0.0047    0.0000 C   0  0  0  0  0  0  0  0  0  0  0  0
   -3.5854   -1.2282    0.0000 O   0  0  0  0  0  0  0  0  0  0  0  0
    2.9311    0.8297    0.0000 C   0  0  0  0  0  0  0  0  0  0  0  0
   -4.2529   -0.0722    0.0000 C   0  0  0  0  0  0  0  0  0  0  0  0
    1.5021    0.0047    0.0000 C   0  0  0  0  0  0  0  0  0  0  0  0
   -2.7847    0.8297    0.0000 O   0  0  0  0  0  0  0  0  0  0  0  0
   -4.3924   -1.3998    0.0000 C   0  0  0  0  0  0  0  0  0  0  0  0
   -4.8049   -0.6853    0.0000 C   0  0  0  0  0  0  0  0  0  0  0  0
   -2.0702   -0.4078    0.0000 N   0  0  0  0  0  0  0  0  0  0  0  0
    1.5021    0.8297    0.0000 C   0  0  0  0  0  0  0  0  0  0  0  0
    0.0732    0.0047    0.0000 N   0  0  0  0  0  0  0  0  0  0  0  0
    6.5993    0.0000    0.0000 Cl  0  0  0  0  0  0  0  0  0  0  0  0
    0.7876   -0.4078    0.0000 C   0  0  0  0  0  0  0  0  0  0  0  0
    3.6455   -0.4078    0.0000 C   0  0  0  0  0  0  0  0  0  0  0  0
    3.6455    1.2422    0.0000 C   0  0  0  0  0  0  0  0  0  0  0  0
   -1.3558    0.0047    0.0000 C   0  0  0  0  0  0  0  0  0  0  0  0
   -0.6413   -0.4078    0.0000 C   0  0  0  0  0  0  0  0  0  0  0  0
    4.3600    0.0047    0.0000 C   0  0  0  0  0  0  0  0  0  0  0  0
    4.3600    0.8297    0.0000 C   0  0  0  0  0  0  0  0  0  0  0  0
  2  3  1  0  0  0  0
  1  5  1  0  0  0  0
  2  6  1  0  0  0  0
  4  7  1  0  0  0  0
  5  7  2  0  0  0  0
  2  8  2  0  0  0  0
  1  9  1  0  0  0  0
  3 10  2  0  0  0  0
  6 11  1  0  0  0  0
  8 12  1  0  0  0  0
 11 12  2  0  0  0  0
  3 13  1  0  0  0  0
  4 14  1  0  0  0  0
  9 14  1  0  0  0  0
  9 17  1  0  0  0  0
 15 17  1  0  0  0  0
  5 18  1  0  0  0  0
  7 19  1  0  0  0  0
 13 20  1  0  0  0  0
 15 21  1  0  0  0  0
 20 21  1  0  0  0  0
 18 22  2  0  0  0  0
 19 23  2  0  0  0  0
 22 23  1  0  0  0  0
M  END