
          11280715062D 1   1.00000     0.00000     0

 16 16  0     0  0            999 V2000
   -0.4708   -3.4667    0.0000 N   0  0  0  0  0  0           0  0  0
    5.1250   -2.6542    0.0000 C   0  0  0  0  0  0           0  0  0
   -1.7875   -3.2417    0.0000 N   0  0  0  0  0  0           0  0  0
   -1.2125   -3.8375    0.0000 C   0  0  0  0  0  0           0  0  0
   -0.5875   -2.6542    0.0000 C   0  0  0  0  0  0           0  0  0
    5.1250   -3.4792    0.0000 S   0  0  0  0  0  0           0  0  0
   -1.4000   -2.5167    0.0000 C   0  0  0  0  0  0           0  0  0
    5.8417   -2.2417    0.0000 N   0  0  0  0  0  0           0  0  0
    4.4125   -2.2417    0.0000 N   0  0  0  0  0  0           0  0  0
    0.1250   -2.2417    0.0000 C   0  0  0  0  0  0           0  0  0
    3.6917   -2.6542    0.0000 C   0  0  0  0  0  0           0  0  0
    6.5542   -2.6542    0.0000 C   0  0  0  0  0  0           0  0  0
    0.8417   -2.6542    0.0000 C   0  0  0  0  0  0           0  0  0
    2.9792   -2.2417    0.0000 C   0  0  0  0  0  0           0  0  0
    2.2667   -2.6542    0.0000 C   0  0  0  0  0  0           0  0  0
    1.5542   -2.2417    0.0000 C   0  0  0  0  0  0           0  0  0
  2  9  1  0     0  0
  3  4  1  0     0  0
  4  1  2  0     0  0
  5  1  1  0     0  0
  6  2  1  0     0  0
  7  5  2  0     0  0
  8  2  2  0     0  0
  9 11  1  0     0  0
 10  5  1  0     0  0
 11 14  1  0     0  0
 12  8  1  0     0  0
 13 10  1  0     0  0
 14 15  1  0     0  0
 15 16  1  0     0  0
 16 13  1  0     0  0
  7  3  1  0     0  0
M  END