
  SciTegic12171312592D

 38 41  0  0  0  0            999 V2000
    3.6361   -5.5635    0.0000 C   0  0
    4.3438   -5.1549    0.0000 N   0  0
    2.9284   -5.1549    0.0000 C   0  0
    5.0515   -5.5635    0.0000 C   0  0  2  0  0  0
    5.7592   -5.1549    0.0000 C   0  0
    5.0435   -6.3766    0.0000 C   0  0
    4.3318   -6.7782    0.0000 C   0  0
    5.7471   -6.7921    0.0000 C   0  0
    6.4669   -5.5635    0.0000 O   0  0
    5.7592   -4.3377    0.0000 N   0  0
    2.9275   -4.3382    0.0000 O   0  0
    2.2198   -5.5640    0.0000 O   0  0
    6.4188   -3.8585    0.0000 C   0  0  1  0  0  0
    6.1662   -3.0813    0.0000 C   0  0
    5.3490   -3.0813    0.0000 C   0  0
    5.0966   -3.8585    0.0000 C   0  0
    7.1960   -4.1111    0.0000 C   0  0
    7.3659   -4.9104    0.0000 O   0  0
    7.8032   -3.5643    0.0000 N   0  0
    8.5804   -3.8168    0.0000 C   0  0
    9.1877   -3.2700    0.0000 C   0  0
    9.9858   -3.4429    0.0000 C   0  0
   10.3944   -2.7352    0.0000 C   0  0
    9.8475   -2.1315    0.0000 C   0  0
    9.1011   -2.4603    0.0000 S   0  0
   10.0178   -1.3322    0.0000 C   0  0
   10.7951   -1.0800    0.0000 N   0  0
    9.4108   -0.7851    0.0000 N   0  0
    3.6308   -6.3583    0.0000 C   0  0
    2.9196   -6.7592    0.0000 C   0  0
    2.9111   -7.5773    0.0000 C   0  0
    3.6197   -7.9927    0.0000 C   0  0
    4.3280   -7.5894    0.0000 C   0  0
    5.7343   -7.6075    0.0000 C   0  0
    6.4371   -8.0229    0.0000 C   0  0
    7.1498   -7.6213    0.0000 C   0  0
    7.1553   -6.7999    0.0000 C   0  0
    6.4519   -6.3881    0.0000 C   0  0
  1  2  1  0
  1  3  1  0
  2  4  1  0
  4  5  1  0
  4  6  1  6
  6  7  1  0
  6  8  1  0
  5  9  2  0
  5 10  1  0
  3 11  1  0
  3 12  2  0
 10 13  1  0
 13 14  1  0
 14 15  1  0
 15 16  1  0
 16 10  1  0
 13 17  1  1
 17 18  2  0
 17 19  1  0
 19 20  1  0
 20 21  1  0
 21 22  2  0
 22 23  1  0
 23 24  2  0
 24 25  1  0
 25 21  1  0
 24 26  1  0
 26 27  1  0
 26 28  2  0
  7 29  2  0
 29 30  1  0
 30 31  2  0
 31 32  1  0
 32 33  2  0
 33  7  1  0
  8 34  2  0
 34 35  1  0
 35 36  2  0
 36 37  1  0
 37 38  2  0
 38  8  1  0
M  END