
  SciTegic01181116592D

 28 31  0  0  0  0            999 V2000
   15.5361  -24.5127    0.0000 C   0  0
   15.5349  -25.3416    0.0000 C   0  0
   16.2511  -25.7553    0.0000 C   0  0
   16.9689  -25.3411    0.0000 C   0  0
   16.9660  -24.5091    0.0000 C   0  0
   16.2493  -24.0992    0.0000 C   0  0
   14.8188  -25.7543    0.0000 Cl  0  0
   17.6803  -24.0931    0.0000 C   0  0
   18.3977  -24.5036    0.0000 C   0  0
   17.6771  -23.2665    0.0000 O   0  0
   16.2509  -26.5818    0.0000 S   0  0
   16.9666  -26.9952    0.0000 N   0  0
   15.4457  -26.3620    0.0000 O   0  0
   15.6586  -27.1635    0.0000 O   0  0
   19.1120  -24.0876    0.0000 S   0  0
   19.8294  -24.4980    0.0000 C   0  0
   19.9211  -25.3190    0.0000 N   0  0
   20.5853  -24.1582    0.0000 N   0  0
   21.1408  -24.7702    0.0000 C   0  0
   20.7304  -25.4830    0.0000 C   0  0
   22.3732  -25.4734    0.0000 N   0  0
   21.9589  -24.7665    0.0000 C   0  0
   21.9647  -26.1909    0.0000 C   0  0
   21.1460  -26.1916    0.0000 C   0  0
   20.7392  -26.8998    0.0000 C   0  0
   21.1498  -27.6078    0.0000 C   0  0
   21.9716  -27.6031    0.0000 C   0  0
   22.3747  -26.8942    0.0000 C   0  0
 11 14  2  0
  2  7  1  0
  9 15  1  0
  3  4  2  0
 15 16  1  0
 16 17  1  0
  5  8  1  0
 17 20  1  0
 19 18  1  0
 18 16  2  0
  8  9  1  0
  4  5  1  0
 19 20  2  0
 20 24  1  0
  8 10  2  0
 23 21  1  0
  2  3  1  0
 21 22  2  0
 22 19  1  0
  3 11  1  0
  5  6  2  0
 23 24  1  0
 11 12  1  0
 24 25  2  0
  6  1  1  0
 25 26  1  0
 11 13  2  0
 26 27  2  0
  1  2  2  0
 27 28  1  0
 28 23  2  0
M  END