
  SciTegic02271515152D

 93 94  0  0  0  0            999 V2000
    8.6506   -2.6814    0.0000 O   0  0
    8.7469   -5.0881    0.0000 C   0  0
    8.0348   -3.0366    0.0000 O   0  0
    8.0348   -5.5053    0.0000 C   0  0
    6.6045   -5.5053    0.0000 C   0  0
    7.3207   -5.0881    0.0000 C   0  0
    6.6045   -3.0366    0.0000 C   0  0
    5.8968   -5.0881    0.0000 O   0  0
    3.7539   -3.0366    0.0000 C   0  0
    4.4587   -1.7956    0.0000 C   0  0
    4.4587   -2.6270    0.0000 C   0  0
    5.1751   -3.0366    0.0000 C   0  0
    3.7539   -3.8549    0.0000 C   0  0
    5.1741   -6.6854    0.0000 O   0  0
    3.7949   -5.8169    0.0000 C   0  0
    2.3762   -5.7812    0.0000 C   0  0
    3.0717   -6.2092    0.0000 C   0  0
    3.0509   -7.0312    0.0000 C   0  0
    3.0449   -8.6971    0.0000 C   0  0
    4.4587   -9.5159    0.0000 O   0  0
    5.1751   -7.4599    0.0000 C   0  0
    6.6045   -7.4599    0.0000 O   0  0
    7.3207   -9.5159    0.0000 C   0  0
    8.7469   -9.5159    0.0000 O   0  0
    8.0348   -7.4599    0.0000 C   0  0
    8.7469   -6.2238    0.0000 C   0  0
    8.7469   -7.0504    0.0000 C   0  0
    9.4634   -7.4599    0.0000 C   0  0
   10.1724   -9.5159    0.0000 C   0  0
   10.8848   -7.4599    0.0000 O   0  0
   12.3134   -9.9376    0.0000 C   0  0
   10.8848   -9.9376    0.0000 C   0  0
   11.6015   -9.5159    0.0000 C   0  0
   13.0305   -9.5159    0.0000 O   0  0
   14.5698   -6.7964    0.0000 C   0  0
   14.4559   -5.0881    0.0000 O   0  0
   13.7708   -4.6515    0.0000 C   0  0
   13.7390   -3.8549    0.0000 C   0  0
   12.3134   -3.0366    0.0000 O   0  0
   10.1724   -5.0881    0.0000 O   0  0
   10.1724   -4.2688    0.0000 C   0  0
   12.3134   -5.5053    0.0000 C   0  0
   11.6015   -5.0881    0.0000 C   0  0
   11.6015   -4.2688    0.0000 C   0  0  1  0  0  0
   12.3134   -3.8549    0.0000 C   0  0
   13.0305   -4.2688    0.0000 N   0  0
   13.0305   -5.0881    0.0000 C   0  0  1  0  0  0
   13.7390   -5.5053    0.0000 C   0  0
   13.7390   -6.7964    0.0000 N   0  0
   14.4548   -9.5533    0.0000 C   0  0
   15.1681   -8.2876    0.0000 C   0  0
   14.4559   -8.6971    0.0000 C   0  0  2  0  0  0
   13.7390   -8.2876    0.0000 C   0  0  1  0  0  0
   13.0305   -8.6971    0.0000 C   0  0
   12.3134   -8.2876    0.0000 N   0  0
   11.6015   -8.6971    0.0000 C   0  0  2  0  0  0
   10.8848   -8.2876    0.0000 C   0  0
   10.1724   -8.6971    0.0000 N   0  0
    9.4634   -8.2876    0.0000 C   0  0  2  0  0  0
    8.7469   -8.6971    0.0000 C   0  0
    8.0348   -8.2876    0.0000 N   0  0
    7.3207   -8.6971    0.0000 C   0  0  2  0  0  0
    6.6045   -8.2876    0.0000 C   0  0
    5.8968   -8.6971    0.0000 N   0  0
    5.1751   -8.2876    0.0000 C   0  0  1  0  0  0
    4.4587   -8.6971    0.0000 C   0  0
    3.7539   -8.2876    0.0000 N   0  0
    3.7539   -7.4599    0.0000 C   0  0  2  0  0  0
    4.4587   -7.0993    0.0000 C   0  0
    4.4587   -4.2688    0.0000 N   0  0
    5.1751   -3.8549    0.0000 C   0  0  2  0  0  0
    5.8968   -4.2688    0.0000 C   0  0
    6.6045   -3.8549    0.0000 N   0  0
    7.3207   -4.2688    0.0000 C   0  0  2  0  0  0
    8.0348   -3.8549    0.0000 C   0  0
    8.7469   -4.2688    0.0000 N   0  0
    9.4634   -3.8549    0.0000 C   0  0  1  0  0  0
   10.8848   -3.0366    0.0000 C   0  0
    8.7469   -0.1454    0.0000 C   0  0
    9.4634   -0.5549    0.0000 C   0  0
    9.4634   -1.3772    0.0000 C   0  0
   10.1724   -1.7955    0.0000 C   0  0
   10.1724   -2.6270    0.0000 C   0  0  2  0  0  0
    9.4634   -3.0366    0.0000 C   0  0  1  0  0  0
   10.8848   -3.8553    0.0000 N   0  0
   15.9102   -8.7179    0.0000 N   0  0
   15.9063   -9.5764    0.0000 C   0  0
   16.6444  -10.0065    0.0000 C   0  0
   17.3906   -9.5826    0.0000 O   0  0
   17.3941   -8.7238    0.0000 C   0  0
   16.6515   -8.2889    0.0000 C   0  0
    8.5973   -3.3550    0.0000 H   0  0
   13.7415   -9.2876    0.0000 H   0  0
 84 83  1  0
 77 84  1  0
 84  1  1  6
 83 82  1  0
 83 78  1  1
 82 81  1  0
 81 80  2  0
 80 79  1  0
 77 76  1  0
 77 41  1  0
 75 76  1  0
 76  2  1  0
 74 75  1  0
 75  3  2  0
 73 74  1  0
 74  6  1  6
 72 73  1  0
 73  7  1  0
 71 72  1  0
 72  8  2  0
 70 71  1  0
 71 12  1  1
 70 69  1  0
 70 13  1  0
 68 69  1  0
 69 14  2  0
 67 68  1  0
 68 18  1  1
 66 67  1  0
 67 19  1  0
 65 66  1  0
 66 20  2  0
 64 65  1  0
 65 21  1  1
 63 64  1  0
 62 63  1  0
 63 22  2  0
 61 62  1  0
 62 23  1  1
 60 61  1  0
 59 60  1  0
 60 24  2  0
 58 59  1  0
 59 28  1  6
 57 58  1  0
 58 29  1  0
 56 57  1  0
 57 30  2  0
 55 56  1  0
 56 33  1  1
 54 55  1  0
 54 53  1  0
 54 34  2  0
 53 52  1  0
 53 49  1  0
 52 51  1  0
 52 50  1  1
 48 49  1  0
 49 35  1  0
 47 48  1  0
 48 36  2  0
 46 47  1  0
 47 37  1  1
 45 46  1  0
 46 38  1  0
 44 45  1  0
 45 39  2  0
 44 43  1  6
 85 44  1  0
 43 42  1  0
 41 40  2  0
 41 85  1  0
 33 32  1  0
 33 31  1  0
 28 27  1  0
 27 26  1  0
 27 25  1  0
 18 17  1  0
 17 16  1  0
 17 15  1  0
 12 11  1  0
 11 10  1  0
 11  9  1  0
  6  5  1  0
  6  4  1  0
 51 86  1  0
 86 87  1  0
 86 91  1  0
 87 88  1  0
 88 89  1  0
 89 90  1  0
 90 91  1  0
 77 92  1  6
 53 93  1  6
M  STY  1   1 SUP
M  SLB  1   1   1
M  SAL   1  1  85
M  SBL   1  2  69  72
M  SMT   1 N
M  END