
  Mrv0541 04051115152D          

 25 27  0  0  0  0            999 V2000
   -1.8082   -0.0678    0.0000 F   0  0  0  0  0  0  0  0  0  0  0  0
    1.9852    1.1697    0.0000 F   0  0  0  0  0  0  0  0  0  0  0  0
   -1.8082    2.7901    0.0000 F   0  0  0  0  0  0  0  0  0  0  0  0
    0.2543   -0.7823    0.0000 O   0  0  0  0  0  0  0  0  0  0  0  0
   -0.8726   -1.3053    0.0000 N   0  0  0  0  0  0  0  0  0  0  0  0
    1.2708   -0.8928    0.0000 N   0  0  0  0  0  0  0  0  0  0  0  0
   -0.2052   -1.7902    0.0000 N   0  0  0  0  0  0  0  0  0  0  0  0
   -1.2851   -2.5749    0.0000 N   0  0  0  0  0  0  0  0  0  0  0  0
    2.6997   -0.8928    0.0000 N   0  0  0  0  0  0  0  0  0  0  0  0
   -0.1582   -0.0678    0.0000 C   0  0  1  0  0  0  0  0  0  0  0  0
    0.5563    0.3447    0.0000 C   0  0  1  0  0  0  0  0  0  0  0  0
   -0.8726   -0.4803    0.0000 C   0  0  0  0  0  0  0  0  0  0  0  0
   -0.5707    0.6466    0.0000 C   0  0  0  0  0  0  0  0  0  0  0  0
    0.5563    1.1697    0.0000 C   0  0  0  0  0  0  0  0  0  0  0  0
    1.2708   -0.0678    0.0000 C   0  0  0  0  0  0  0  0  0  0  0  0
   -1.3957    0.6466    0.0000 C   0  0  0  0  0  0  0  0  0  0  0  0
   -0.1582    1.3611    0.0000 C   0  0  0  0  0  0  0  0  0  0  0  0
    1.9852    0.3447    0.0000 C   0  0  0  0  0  0  0  0  0  0  0  0
   -1.8082    1.3611    0.0000 C   0  0  0  0  0  0  0  0  0  0  0  0
   -0.5707    2.0756    0.0000 C   0  0  0  0  0  0  0  0  0  0  0  0
   -1.5401   -1.7902    0.0000 C   0  0  0  0  0  0  0  0  0  0  0  0
   -1.3957    2.0756    0.0000 C   0  0  0  0  0  0  0  0  0  0  0  0
    2.6997   -0.0678    0.0000 C   0  0  0  0  0  0  0  0  0  0  0  0
    1.9852   -1.3053    0.0000 C   0  0  0  0  0  0  0  0  0  0  0  0
   -0.4601   -2.5749    0.0000 C   0  0  0  0  0  0  0  0  0  0  0  0
 16  1  1  0  0  0  0
 18  2  1  0  0  0  0
 22  3  1  0  0  0  0
 10  4  1  1  0  0  0
  5  7  1  0  0  0  0
 12  5  1  0  0  0  0
 21  5  1  0  0  0  0
 15  6  2  0  0  0  0
 24  6  1  0  0  0  0
 25  7  2  0  0  0  0
 21  8  2  0  0  0  0
 25  8  1  0  0  0  0
 23  9  1  0  0  0  0
 24  9  2  0  0  0  0
 10 11  1  0  0  0  0
 10 12  1  0  0  0  0
 10 13  1  1  0  0  0
 11 14  1  1  0  0  0
 11 15  1  0  0  0  0
 13 16  2  0  0  0  0
 13 17  1  0  0  0  0
 15 18  1  0  0  0  0
 16 19  1  0  0  0  0
 17 20  2  0  0  0  0
 18 23  2  0  0  0  0
 19 22  2  0  0  0  0
 20 22  1  0  0  0  0
M  END