
          11280715252D 1   1.00000     0.00000     0

 23 25  0     1  0            999 V2000
    2.7167   -3.8125    0.0000 C   0  0  0  0  0  0           0  0  0
    3.4375   -3.4000    0.0000 C   0  0  1  0  0  0           0  0  0
    2.0042   -3.3917    0.0000 O   0  0  0  0  0  0           0  0  0
    1.2917   -3.8042    0.0000 C   0  0  1  0  0  0           0  0  0
    0.5792   -5.0417    0.0000 N   0  0  3  0  0  0           0  0  0
    1.2917   -4.6292    0.0000 C   0  0  0  0  0  0           0  0  0
    2.7167   -4.6375    0.0000 O   0  0  0  0  0  0           0  0  0
    0.5792   -3.3917    0.0000 C   0  0  3  0  0  0           0  0  0
    4.1500   -3.8167    0.0000 C   0  0  0  0  0  0           0  0  0
    4.1542   -1.3417    0.0000 C   0  0  0  0  0  0           0  0  0
    4.1542   -2.1667    0.0000 C   0  0  0  0  0  0           0  0  0
    0.2417   -3.9042    0.0000 C   0  0  0  0  0  0           0  0  0
   -0.1333   -3.8042    0.0000 C   0  0  0  0  0  0           0  0  0
    0.2417   -4.5167    0.0000 C   0  0  0  0  0  0           0  0  0
   -0.1333   -4.6292    0.0000 C   0  0  0  0  0  0           0  0  0
    4.1500   -2.9792    0.0000 O   0  0  0  0  0  0           0  0  0
    4.8750   -0.9292    0.0000 I   0  0  0  0  0  0           0  0  0
    3.4417   -2.5750    0.0000 C   0  0  0  0  0  0           0  0  0
    4.8625   -3.4042    0.0000 C   0  0  0  0  0  0           0  0  0
    4.1417   -4.6417    0.0000 C   0  0  0  0  0  0           0  0  0
    4.8542   -5.0542    0.0000 C   0  0  0  0  0  0           0  0  0
    5.5750   -3.8167    0.0000 C   0  0  0  0  0  0           0  0  0
    5.5750   -4.6417    0.0000 C   0  0  0  0  0  0           0  0  0
  2  1  1  0     0  0
  3  1  1  0     0  0
  4  3  1  1     0  0
  5  6  1  0     0  0
  6  4  1  0     0  0
  7  1  2  0     0  0
  8  4  1  0     0  0
  2  9  1  1     0  0
 10 11  2  0     0  0
 11 18  1  0     0  0
 12  8  1  0     0  0
 13  8  1  0     0  0
 14 12  1  0     0  0
 15 13  1  0     0  0
  2 16  1  6     0  0
 17 10  1  0     0  0
 18  2  1  0     0  0
 19  9  1  0     0  0
 20  9  2  0     0  0
 21 20  1  0     0  0
 22 19  2  0     0  0
 23 21  2  0     0  0
 15  5  1  0     0  0
 14  5  1  0     0  0
 22 23  1  0     0  0
M  END