
          11280715212D 1   1.00000     0.00000     0

 16 17  0     0  0            999 V2000
    2.1917   -0.3292    0.0000 N   0  0  0  0  0  0           0  0  0
    1.4792   -0.7417    0.0000 C   0  0  0  0  0  0           0  0  0
    1.4792   -1.5667    0.0000 C   0  0  0  0  0  0           0  0  0
    0.7667   -1.9875    0.0000 C   0  0  0  0  0  0           0  0  0
    2.9042   -0.7375    0.0000 C   0  0  0  0  0  0           0  0  0
    0.7667   -0.3292    0.0000 C   0  0  0  0  0  0           0  0  0
    0.0542   -1.5750    0.0000 C   0  0  0  0  0  0           0  0  0
    3.6167   -0.3167    0.0000 C   0  0  0  0  0  0           0  0  0
    0.0542   -0.7500    0.0000 C   0  0  0  0  0  0           0  0  0
    2.1917   -1.9792    0.0000 C   0  0  0  0  0  0           0  0  0
    2.9125   -1.5667    0.0000 C   0  0  0  0  0  0           0  0  0
    3.6167    0.5083    0.0000 O   0  0  0  0  0  0           0  0  0
    0.7667   -2.8125    0.0000 O   0  0  0  0  0  0           0  0  0
    4.3375   -0.7292    0.0000 O   0  0  0  0  0  0           0  0  0
    0.7625    0.4958    0.0000 C   0  0  0  0  0  0           0  0  0
   -0.6625   -1.9875    0.0000 C   0  0  0  0  0  0           0  0  0
  2  1  1  0     0  0
  3  2  1  0     0  0
  4  3  2  0     0  0
  5  1  2  0     0  0
  6  2  2  0     0  0
  7  9  2  0     0  0
  8  5  1  0     0  0
  9  6  1  0     0  0
 10 11  2  0     0  0
 11  5  1  0     0  0
 12  8  2  0     0  0
 13  4  1  0     0  0
 14  8  1  0     0  0
 15  6  1  0     0  0
 16  7  1  0     0  0
  3 10  1  0     0  0
  7  4  1  0     0  0
M  END