
  SciTegic02271514582D

 15 17  0  0  0  0            999 V2000
   15.1341   -2.4103    0.0000 C   0  0
   15.8394   -2.0058    0.0000 N   0  0
   15.8394   -1.1886    0.0000 C   0  0
   15.1341   -0.7759    0.0000 N   0  0
   14.4288   -2.0058    0.0000 C   0  0
   14.4288   -1.1841    0.0000 N   0  0
   13.6473   -0.9301    0.0000 C   0  0
   13.1642   -1.5949    0.0000 C   0  0
   13.6473   -2.2597    0.0000 C   0  0
   15.1341   -3.2275    0.0000 N   0  0
   15.8418   -3.6361    0.0000 C   0  0
   15.9270   -4.4471    0.0000 C   0  0
   16.7264   -4.6170    0.0000 N   0  0
   17.1350   -3.9093    0.0000 N   0  0
   16.5881   -3.3021    0.0000 C   0  0
  6  4  1  0
  5  1  1  0
  1  2  2  0
  2  3  1  0
  3  4  2  0
  5  6  1  0
  6  7  1  0
  7  8  2  0
  8  9  1  0
  9  5  2  0
  1 10  1  0
 10 11  1  0
 11 12  2  0
 12 13  1  0
 13 14  1  0
 14 15  2  0
 15 11  1  0
M  END