
  SciTegic09171211542D

 35 37  0  0  0  0            999 V2000
    3.8467   -8.0828    0.0000 C   0  0
    4.5622   -7.6701    0.0000 C   0  0
    5.2746   -8.0846    0.0000 C   0  0
    5.2720   -8.9105    0.0000 C   0  0
    4.5509   -9.3201    0.0000 C   0  0
    3.8414   -8.9032    0.0000 C   0  0
    5.9843   -9.3266    0.0000 O   0  0
    5.9801  -10.1516    0.0000 C   0  0
    6.6925  -10.5647    0.0000 C   0  0
    5.2635  -10.5554    0.0000 C   0  0
    7.4098  -10.1556    0.0000 O   0  0
    6.6903  -11.3833    0.0000 O   0  0
    5.2516  -11.3768    0.0000 O   0  0
    4.5531  -10.1355    0.0000 O   0  0
    3.1336   -7.6679    0.0000 C   0  0
   -4.0086   -9.3485    0.0000 C   0  0
   -3.2922   -8.9352    0.0000 C   0  0
   -3.2950   -8.1047    0.0000 C   0  0
   -4.0104   -7.6955    0.0000 C   0  0
   -4.7234   -8.9357    0.0000 C   0  0
   -4.7222   -8.1067    0.0000 C   0  0
   -5.5102   -7.8494    0.0000 S   0  0
   -5.9984   -8.5193    0.0000 C   0  0
   -5.5122   -9.1906    0.0000 N   0  0
   -2.5821   -7.6895    0.0000 N   0  0
   -1.8661   -8.0993    0.0000 C   0  0
   -1.1532   -7.6841    0.0000 C   0  0
   -1.8630   -8.9243    0.0000 O   0  0
   -0.4372   -8.0939    0.0000 C   0  0
    0.2758   -7.6787    0.0000 N   0  0
    0.9918   -8.0885    0.0000 C   0  0
    1.7047   -7.6733    0.0000 N   0  0
    0.9949   -8.9135    0.0000 O   0  0
    2.4207   -8.0831    0.0000 C   0  0
   -6.8266   -8.5181    0.0000 C   0  0
 17 18  1  0
  8  9  1  0
 18 19  2  0
 19 21  1  0
 20 21  2  0
  4  5  1  0
  8 10  1  0
  2  3  1  0
  5  6  2  0
  9 11  1  0
 21 22  1  0
 22 23  1  0
 23 24  2  0
 24 20  1  0
  9 12  2  0
 18 25  1  0
  6  1  1  0
 25 26  1  0
  1  2  2  0
 26 27  1  0
 10 13  1  0
 26 28  2  0
 10 14  2  0
 27 29  1  0
  4  7  1  0
 29 30  1  0
  1 15  1  0
 30 31  1  0
  3  4  2  0
 31 32  1  0
 20 16  1  0
 31 33  2  0
  7  8  1  0
 32 34  1  0
 34 15  1  0
 16 17  2  0
 23 35  1  0
M  END