
  CDK    9/16/09,9:56

 47 51  0  0  0  0  0  0  0  0999 V2000
    9.7637   -6.3999    0.0000 O   0  0  0  0  0  0  0  0  0  0  0  0
    9.7602   -7.2223    0.0000 C   0  0  0  0  0  0  0  0  0  0  0  0
    9.0250   -7.5967    0.0000 C   0  0  0  0  0  0  0  0  0  0  0  0
    8.2918   -7.2202    0.0000 C   0  0  0  0  0  0  0  0  0  0  0  0
    8.1625   -6.4038    0.0000 O   0  0  0  0  0  0  0  0  0  0  0  0
    7.7069   -7.8038    0.0000 C   0  0  0  0  0  0  0  0  0  0  0  0
    6.8909   -7.6713    0.0000 O   0  0  0  0  0  0  0  0  0  0  0  0
    8.0813   -8.5390    0.0000 C   0  0  0  0  0  0  0  0  0  0  0  0
    8.8925   -8.4127    0.0000 O   0  0  0  0  0  0  0  0  0  0  0  0
    7.7048   -9.2722    0.0000 N   0  0  0  0  0  0  0  0  0  0  0  0
    6.8884   -9.4015    0.0000 C   0  0  0  0  0  0  0  0  0  0  0  0
    6.7560  -10.2175    0.0000 N   0  0  0  0  0  0  0  0  0  0  0  0
    7.4943  -10.5911    0.0000 C   0  0  0  0  0  0  0  0  0  0  0  0
    7.7060  -11.3897    0.0000 C   0  0  0  0  0  0  0  0  0  0  0  0
    7.1211  -11.9733    0.0000 N   0  0  0  0  0  0  0  0  0  0  0  0
    8.5024  -11.6048    0.0000 N   0  0  0  0  0  0  0  0  0  0  0  0
    9.0873  -11.0212    0.0000 C   0  0  0  0  0  0  0  0  0  0  0  0
    8.8745  -10.2266    0.0000 N   0  0  0  0  0  0  0  0  0  0  0  0
    8.0781  -10.0115    0.0000 C   0  0  0  0  0  0  0  0  0  0  0  0
   10.4627   -7.6549    0.0000 N   0  0  0  0  0  0  0  0  0  0  0  0
   14.0167   -6.4042    0.0000 C   0  0  0  0  0  0  0  0  0  0  0  0
   14.7311   -5.9917    0.0000 N   0  0  0  0  0  0  0  0  0  0  0  0
   13.2980   -5.9917    0.0000 C   0  0  0  0  0  0  0  0  0  0  0  0
   14.0167   -7.2333    0.0000 O   0  0  0  0  0  0  0  0  0  0  0  0
   12.5794   -6.4042    0.0000 C   0  0  0  0  0  0  0  0  0  0  0  0
   11.8608   -5.9917    0.0000 C   0  0  0  0  0  0  0  0  0  0  0  0
   11.1450   -6.3975    0.0000 C   0  0  0  0  0  0  0  0  0  0  0  0
   11.1660   -7.2258    0.0000 C   0  0  0  0  0  0  0  0  0  0  0  0
   15.4456   -6.4042    0.0000 C   0  0  0  0  0  0  0  0  0  0  0  0
   16.1601   -5.9917    0.0000 C   0  0  0  0  0  0  0  0  0  0  0  0
   16.8746   -6.4042    0.0000 N   0  0  0  0  0  0  0  0  0  0  0  0
   15.4456   -7.2292    0.0000 C   0  0  0  0  0  0  0  0  0  0  0  0
   16.1601   -5.1667    0.0000 O   0  0  0  0  0  0  0  0  0  0  0  0
   16.1601   -7.6417    0.0000 C   0  0  0  0  0  0  0  0  0  0  0  0
   16.1556   -8.4677    0.0000 C   0  0  0  0  0  0  0  0  0  0  0  0
   16.8692   -8.8802    0.0000 C   0  0  0  0  0  0  0  0  0  0  0  0
   17.5846   -8.4676    0.0000 C   0  0  0  0  0  0  0  0  0  0  0  0
   17.5820   -7.6383    0.0000 C   0  0  0  0  0  0  0  0  0  0  0  0
   16.8678   -7.2297    0.0000 C   0  0  0  0  0  0  0  0  0  0  0  0
   18.2997   -8.8792    0.0000 C   0  0  0  0  0  0  0  0  0  0  0  0
   18.3008   -9.7042    0.0000 C   0  0  0  0  0  0  0  0  0  0  0  0
   19.0136   -8.4657    0.0000 O   0  0  0  0  0  0  0  0  0  0  0  0
   17.5841  -10.1151    0.0000 C   0  0  0  0  0  0  0  0  0  0  0  0
   17.5849  -10.9393    0.0000 C   0  0  0  0  0  0  0  0  0  0  0  0
   18.3004  -11.3517    0.0000 C   0  0  0  0  0  0  0  0  0  0  0  0
   19.0167  -10.9338    0.0000 C   0  0  0  0  0  0  0  0  0  0  0  0
   19.0124  -10.1109    0.0000 C   0  0  0  0  0  0  0  0  0  0  0  0
 21 23  1  0  0  0  0 
  4  5  1  6  0  0  0 
 21 24  2  0  0  0  0 
  4  6  1  0  0  0  0 
 23 25  1  0  0  0  0 
  6  7  1  6  0  0  0 
 25 26  1  0  0  0  0 
  6  8  1  0  0  0  0 
 26 27  1  0  0  0  0 
  8  9  1  0  0  0  0 
 27 28  1  0  0  0  0 
 28 20  1  0  0  0  0 
  3  9  1  0  0  0  0 
 22 29  1  0  0  0  0 
  8 10  1  1  0  0  0 
 29 30  1  0  0  0  0 
 10 11  1  0  0  0  0 
 30 31  1  0  0  0  0 
 11 12  2  0  0  0  0 
 29 32  1  1  0  0  0 
 12 13  1  0  0  0  0 
 30 33  2  0  0  0  0 
 13 14  1  0  0  0  0 
 32 34  1  0  0  0  0 
 14 15  1  0  0  0  0 
 34 35  2  0  0  0  0 
 14 16  2  0  0  0  0 
 35 36  1  0  0  0  0 
 16 17  1  0  0  0  0 
 36 37  2  0  0  0  0 
 17 18  2  0  0  0  0 
 37 38  1  0  0  0  0 
 18 19  1  0  0  0  0 
 38 39  2  0  0  0  0 
 39 34  1  0  0  0  0 
 13 19  2  0  0  0  0 
 37 40  1  0  0  0  0 
 10 19  1  0  0  0  0 
 40 41  1  0  0  0  0 
 40 42  2  0  0  0  0 
  2 20  1  0  0  0  0 
 41 43  2  0  0  0  0 
  1  2  2  0  0  0  0 
 43 44  1  0  0  0  0 
  3  2  1  1  0  0  0 
 44 45  2  0  0  0  0 
 21 22  1  0  0  0  0 
 45 46  1  0  0  0  0 
  3  4  1  0  0  0  0 
 46 47  2  0  0  0  0 
 47 41  1  0  0  0  0 
M  END