
  SciTegic05071316162D

 20 21  0  0  0  0            999 V2000
   12.2484  -23.1206    0.0000 C   0  0
   12.2473  -23.9479    0.0000 C   0  0
   12.9620  -24.3608    0.0000 C   0  0
   13.6785  -23.9474    0.0000 C   0  0
   13.6757  -23.1170    0.0000 C   0  0
   12.9602  -22.7078    0.0000 C   0  0
   11.5338  -22.7082    0.0000 C   0  0  2  0  0  0
   10.8195  -23.1209    0.0000 C   0  0
   10.1049  -22.7086    0.0000 C   0  0
    9.3906  -23.1212    0.0000 N   0  0
    8.6375  -22.7819    0.0000 N   0  0
    8.0855  -23.3951    0.0000 C   0  0
    8.4982  -24.1095    0.0000 N   0  0
    9.3052  -23.9377    0.0000 C   0  0
   11.5336  -21.8832    0.0000 C   0  0
   12.2480  -21.4706    0.0000 C   0  0
   12.9626  -21.8829    0.0000 C   0  0
   13.6770  -21.4702    0.0000 C   0  0
   14.3936  -24.3588    0.0000 O   0  0
   15.1074  -23.9452    0.0000 C   0  0
  1  2  2  0
  2  3  1  0
  3  4  2  0
  4  5  1  0
  5  6  2  0
  6  1  1  0
  1  7  1  0
  7  8  1  0
  8  9  1  0
  9 10  1  0
 10 11  1  0
 11 12  2  0
 12 13  1  0
 13 14  2  0
 14 10  1  0
  7 15  1  6
 15 16  1  0
 16 17  1  0
 17 18  1  0
  4 19  1  0
 19 20  1  0
M  END