
  SciTegic04091414352D

 52 56  0  0  0  0            999 V2000
    0.8612  -22.0063    0.0000 C   0  0
    0.8600  -22.8259    0.0000 C   0  0
    1.5681  -23.2348    0.0000 C   0  0
    1.5663  -21.5975    0.0000 C   0  0
    2.2749  -22.0027    0.0000 C   0  0
    2.2752  -22.8259    0.0000 C   0  0
    3.0581  -23.0801    0.0000 S   0  0
    3.5418  -22.4139    0.0000 C   0  0
    3.0577  -21.7482    0.0000 N   0  0
    4.3574  -22.4139    0.0000 C   0  0
    4.8380  -23.0748    0.0000 C   0  0
    5.6151  -22.8220    0.0000 N   0  0
    5.6148  -22.0048    0.0000 C   0  0
    4.8375  -21.7527    0.0000 S   0  0
    6.2757  -21.5242    0.0000 C   0  0
    6.1899  -20.7115    0.0000 C   0  0
    4.5857  -23.8521    0.0000 O   0  0
    3.3100  -20.9709    0.0000 C   0  0
    6.2764  -23.3021    0.0000 C   0  0
    6.1912  -24.1149    0.0000 C   0  0
    6.8519  -20.2324    0.0000 N   0  3
    6.7666  -19.4204    0.0000 C   0  0
    6.0193  -19.0876    0.0000 C   0  0
    5.3565  -19.5728    0.0000 C   0  0
    5.4452  -20.3830    0.0000 C   0  0
    7.5982  -20.5654    0.0000 C   0  0
    8.2597  -20.0857    0.0000 C   0  0
    9.0060  -20.4187    0.0000 C   0  0
    9.6675  -19.9390    0.0000 C   0  0
   10.4138  -20.2721    0.0000 C   0  0
   11.0753  -19.7924    0.0000 C   0  0
   11.8216  -20.1254    0.0000 N   0  0
   12.4831  -19.6457    0.0000 C   0  0
   13.2294  -19.9788    0.0000 C   0  0
   12.3985  -18.8329    0.0000 O   0  0
   13.8909  -19.4990    0.0000 C   0  0
   14.6372  -19.8321    0.0000 C   0  0
   15.2987  -19.3524    0.0000 C   0  0
   16.0450  -19.6854    0.0000 C   0  0  2  0  0  0
   16.2120  -20.4826    0.0000 S   0  0
   17.0246  -20.5687    0.0000 C   0  0
   16.7509  -19.2752    0.0000 C   0  0  2  0  0  0
   17.3550  -19.8210    0.0000 C   0  0  1  0  0  0
   18.0608  -19.4151    0.0000 N   0  0
   17.8928  -18.6184    0.0000 C   0  0
   17.0833  -18.5320    0.0000 N   0  0
   18.4406  -18.0120    0.0000 O   0  0
   16.1664  -18.6922    0.0000 H   0  0
   17.9287  -20.3968    0.0000 H   0  0
    0.1520  -23.2339    0.0000 O   0  0
   -0.5554  -22.8248    0.0000 C   0  0
    9.6371  -22.0931    0.0000 Cl  0  5
  1  2  2  0
  2  3  1  0
  3  6  2  0
  5  4  2  0
  4  1  1  0
  5  6  1  0
  6  7  1  0
  7  8  1  0
  8  9  1  0
  9  5  1  0
 10 11  1  0
 11 12  1  0
 12 13  1  0
 13 14  1  0
 14 10  1  0
  8 10  2  0
 13 15  2  0
 15 16  1  0
 11 17  2  0
  9 18  1  0
 12 19  1  0
 19 20  1  0
 16 21  2  0
 21 22  1  0
 22 23  2  0
 23 24  1  0
 24 25  2  0
 25 16  1  0
 21 26  1  0
 26 27  1  0
 27 28  1  0
 28 29  1  0
 29 30  1  0
 30 31  1  0
 31 32  1  0
 32 33  1  0
 33 34  1  0
 33 35  2  0
 34 36  1  0
 36 37  1  0
 37 38  1  0
 39 38  1  1
 39 40  1  0
 40 41  1  0
 41 43  1  0
 42 39  1  0
 42 43  1  0
 43 44  1  0
 44 45  1  0
 45 46  1  0
 46 42  1  0
 45 47  2  0
 42 48  1  6
 43 49  1  6
  2 50  1  0
 50 51  1  0
M  CHG  2  21   1  52  -1
M  END