
          11280715272D 1   1.00000     0.00000     0

 20 23  0     0  0            999 V2000
   -1.5125   -1.2292    0.0000 C   0  0  3  0  0  0           0  0  0
   -0.7958   -2.4667    0.0000 C   0  0  3  0  0  0           0  0  0
   -1.9708   -2.9042    0.0000 C   0  0  3  0  0  0           0  0  0
   -2.2708   -2.5292    0.0000 C   0  0  3  0  0  0           0  0  0
    0.6167    0.0208    0.0000 C   0  0  0  0  0  0           0  0  0
   -2.2708   -1.6292    0.0000 C   0  0  0  0  0  0           0  0  0
   -0.7958   -1.6500    0.0000 C   0  0  0  0  0  0           0  0  0
   -1.9708   -1.8625    0.0000 C   0  0  0  0  0  0           0  0  0
    1.3375   -0.3875    0.0000 C   0  0  0  0  0  0           0  0  0
   -2.6125   -3.1792    0.0000 C   0  0  0  0  0  0           0  0  0
   -1.4875   -2.8292    0.0000 C   0  0  0  0  0  0           0  0  0
   -1.1500   -3.1792    0.0000 C   0  0  0  0  0  0           0  0  0
   -0.8083    0.0125    0.0000 N   0  0  0  0  0  0           0  0  0
   -1.5208   -0.4042    0.0000 C   0  0  0  0  0  0           0  0  0
    1.3417   -1.2125    0.0000 Cl  0  0  0  0  0  0           0  0  0
   -0.0958   -0.3917    0.0000 C   0  0  0  0  0  0           0  0  0
    0.6167    0.8458    0.0000 C   0  0  0  0  0  0           0  0  0
    2.0500    0.0333    0.0000 C   0  0  0  0  0  0           0  0  0
    1.3292    1.2625    0.0000 C   0  0  0  0  0  0           0  0  0
    2.0417    0.8583    0.0000 C   0  0  0  0  0  0           0  0  0
  2  7  1  0     0  0
  3  8  1  0     0  0
  4  6  1  0     0  0
  5 16  1  0     0  0
  6  1  1  0     0  0
  7  1  1  0     0  0
  8  1  1  0     0  0
  9  5  2  0     0  0
 10  3  1  0     0  0
 11  2  1  0     0  0
 12  3  1  0     0  0
 13 14  1  0     0  0
 14  1  1  0     0  0
 15  9  1  0     0  0
 16 13  1  0     0  0
 17  5  1  0     0  0
 18  9  1  0     0  0
 19 17  2  0     0  0
 20 19  1  0     0  0
  2 12  1  0     0  0
  4 10  1  0     0  0
  4 11  1  0     0  0
 20 18  2  0     0  0
M  END