
  SciTegic02231516322D

 17 16  0  0  0  0            999 V2000
   10.8738   -2.9881    0.0000 C   0  0
   10.8727   -3.8076    0.0000 C   0  0
   11.5807   -4.2166    0.0000 C   0  0
   12.2904   -3.8071    0.0000 C   0  0
   12.2876   -2.9845    0.0000 C   0  0
   11.5789   -2.5792    0.0000 C   0  0
   12.9987   -4.2146    0.0000 C   0  0
   13.0000   -5.0318    0.0000 O   0  0
   13.7058   -3.8049    0.0000 C   0  0
   14.4142   -4.2124    0.0000 N   0  0
   15.1212   -3.8027    0.0000 C   0  0
   15.8296   -4.2102    0.0000 C   0  0
   15.1199   -2.9855    0.0000 C   0  0
   12.9937   -2.5732    0.0000 O   0  0
   12.9906   -1.7560    0.0000 C   0  0
   10.1647   -4.2156    0.0000 Br  0  0
   15.4982   -1.7089    0.0000 Cl  0  0
  1  2  2  0
  2  3  1  0
  3  4  2  0
  4  5  1  0
  5  6  2  0
  6  1  1  0
  4  7  1  0
  7  8  1  0
  7  9  1  0
  9 10  1  0
 10 11  1  0
 11 12  1  0
 11 13  1  0
  5 14  1  0
 14 15  1  0
  2 16  1  0
M  END