
  SciTegic02011310452D

 57 64  0  0  0  0            999 V2000
    5.2887  -23.7381    0.0000 C   0  0
    5.9300  -23.0503    0.0000 C   0  0
    6.0974  -23.5131    0.0000 C   0  0
    6.6455  -23.3129    0.0000 C   0  0
    6.8543  -23.8158    0.0000 C   0  0
    7.3975  -23.1274    0.0000 C   0  0
    6.0946  -22.6605    0.0000 C   0  0
    6.6512  -21.9942    0.0000 C   0  0
    5.9254  -22.2506    0.0000 C   0  0
    7.4034  -22.3043    0.0000 C   0  0
    6.6460  -21.1672    0.0000 C   0  0
    7.3578  -20.7502    0.0000 N   0  0
    5.9290  -20.7592    0.0000 O   0  0
    8.0693  -21.1616    0.0000 C   0  0
    8.7790  -20.7481    0.0000 C   0  0
    8.7780  -19.9228    0.0000 C   0  0
    8.0611  -19.5126    0.0000 C   0  0
    7.3451  -19.9277    0.0000 C   0  0
    9.4859  -19.5100    0.0000 C   0  0
   10.2012  -19.9228    0.0000 C   0  0
   10.9126  -19.5120    0.0000 C   0  0
   10.9147  -18.6867    0.0000 N   0  0
   10.1993  -18.2737    0.0000 C   0  0
    9.4818  -18.6863    0.0000 C   0  0
   11.6298  -18.2751    0.0000 C   0  0
   12.3438  -18.6884    0.0000 N   0  0
   11.6308  -17.4500    0.0000 O   0  0
   13.0587  -18.2768    0.0000 C   0  0
   13.7727  -18.6902    0.0000 C   0  0
   14.4877  -18.2786    0.0000 C   0  0
   13.7717  -19.5152    0.0000 O   0  0
   15.2017  -18.6919    0.0000 O   0  0
   15.9167  -18.2803    0.0000 C   0  0
   16.6298  -18.6959    0.0000 C   0  0
   17.3443  -18.2850    0.0000 C   0  0
   17.3458  -17.4591    0.0000 C   0  0
   15.9153  -17.4592    0.0000 C   0  0
   16.6234  -17.0432    0.0000 C   0  0
   16.4466  -16.2410    0.0000 N   0  0
   15.6290  -16.1613    0.0000 C   0  0
   15.3007  -16.9142    0.0000 C   0  0
   12.3427  -19.5134    0.0000 C   0  0
   11.6277  -19.9250    0.0000 C   0  0
   11.6266  -20.7500    0.0000 C   0  0
   10.9117  -21.1616    0.0000 C   0  0
   10.9107  -21.9867    0.0000 C   0  0
   10.1957  -22.3984    0.0000 N   0  0
   16.9940  -15.6238    0.0000 S   0  0
   17.8023  -15.7892    0.0000 C   0  0
   16.7331  -14.8411    0.0000 O   0  0
   16.2755  -15.2087    0.0000 O   0  0
   18.0587  -16.5731    0.0000 C   0  0
   18.8662  -16.7388    0.0000 C   0  0
   19.4145  -16.1211    0.0000 C   0  0
   19.1498  -15.3352    0.0000 C   0  0
   18.3430  -15.1733    0.0000 C   0  0
   20.2229  -16.2856    0.0000 C   0  0
  1  2  1  0
  1  3  1  0
  2  4  1  0
  3  5  1  0
  4  6  1  0
  5  6  1  0
  7  8  1  0
  3  7  1  0
  2  9  1  0
  6 10  1  0
 10  8  1  0
  8  9  1  0
  8 11  1  0
 11 12  1  0
 11 13  2  0
 12 14  1  0
 12 18  1  0
 14 15  1  0
 15 16  1  0
 16 17  1  0
 17 18  1  0
 19 20  1  0
 19 24  1  0
 20 21  1  0
 21 22  1  0
 22 23  1  0
 23 24  1  0
 16 19  1  0
 22 25  1  0
 25 26  1  0
 25 27  2  0
 26 28  1  0
 28 29  1  0
 29 30  1  0
 29 31  1  0
 30 32  1  0
 32 33  1  0
 33 34  2  0
 34 35  1  0
 35 36  2  0
 36 38  1  0
 37 33  1  0
 37 38  2  0
 38 39  1  0
 39 40  1  0
 40 41  2  0
 41 37  1  0
 26 42  1  0
 42 43  1  0
 43 44  1  0
 44 45  1  0
 45 46  1  0
 46 47  1  0
 39 48  1  0
 48 49  1  0
 48 50  2  0
 48 51  2  0
 49 52  2  0
 52 53  1  0
 53 54  2  0
 54 55  1  0
 55 56  2  0
 56 49  1  0
 54 57  1  0
M  END