
  CDK    9/16/09,9:56

 62 64  0  0  0  0  0  0  0  0999 V2000
   21.9837   -2.7833    0.0000 N   0  0  0  0  0  0  0  0  0  0  0  0
   21.2693   -3.1958    0.0000 C   0  0  0  0  0  0  0  0  0  0  0  0
   19.8364   -3.1958    0.0000 N   0  0  0  0  0  0  0  0  0  0  0  0
   20.5508   -2.7833    0.0000 C   0  0  0  0  0  0  0  0  0  0  0  0
   20.5508   -1.9583    0.0000 C   0  0  0  0  0  0  0  0  0  0  0  0
   21.2653   -1.5458    0.0000 C   0  0  0  0  0  0  0  0  0  0  0  0
   21.2653   -0.7208    0.0000 C   0  0  0  0  0  0  0  0  0  0  0  0
   21.9798   -0.3083    0.0000 N   0  0  0  0  0  0  0  0  0  0  0  0
   21.9798    0.5167    0.0000 C   0  0  0  0  0  0  0  0  0  0  0  0
   22.6943    0.9292    0.0000 N   0  0  0  0  0  0  0  0  0  0  0  0
   21.2653    0.9292    0.0000 N   0  0  0  0  0  0  0  0  0  0  0  0
   21.2653   -4.0208    0.0000 O   0  0  0  0  0  0  0  0  0  0  0  0
   19.1215   -2.7875    0.0000 C   0  0  0  0  0  0  0  0  0  0  0  0
   19.1215   -1.9625    0.0000 O   0  0  0  0  0  0  0  0  0  0  0  0
    5.5804   -3.1957    0.0000 O   0  0  0  0  0  0  0  0  0  0  0  0
    5.5769   -4.0181    0.0000 C   0  0  0  0  0  0  0  0  0  0  0  0
    4.8416   -4.3925    0.0000 C   0  0  0  0  0  0  0  0  0  0  0  0
    4.1084   -4.0160    0.0000 C   0  0  0  0  0  0  0  0  0  0  0  0
    3.5236   -4.5996    0.0000 C   0  0  0  0  0  0  0  0  0  0  0  0
    2.7076   -4.4671    0.0000 O   0  0  0  0  0  0  0  0  0  0  0  0
    3.8980   -5.3349    0.0000 C   0  0  0  0  0  0  0  0  0  0  0  0
    4.7092   -5.2085    0.0000 C   0  0  0  0  0  0  0  0  0  0  0  0
    3.5214   -6.0681    0.0000 N   0  0  0  0  0  0  0  0  0  0  0  0
    2.7051   -6.1973    0.0000 C   0  0  0  0  0  0  0  0  0  0  0  0
    2.5727   -7.0133    0.0000 N   0  0  0  0  0  0  0  0  0  0  0  0
    3.3110   -7.3869    0.0000 C   0  0  0  0  0  0  0  0  0  0  0  0
    3.5226   -8.1856    0.0000 C   0  0  0  0  0  0  0  0  0  0  0  0
    2.9378   -8.7692    0.0000 N   0  0  0  0  0  0  0  0  0  0  0  0
    4.3191   -8.4006    0.0000 N   0  0  0  0  0  0  0  0  0  0  0  0
    4.9039   -7.8170    0.0000 C   0  0  0  0  0  0  0  0  0  0  0  0
    4.6912   -7.0224    0.0000 N   0  0  0  0  0  0  0  0  0  0  0  0
    3.8947   -6.8074    0.0000 C   0  0  0  0  0  0  0  0  0  0  0  0
    6.2794   -4.4508    0.0000 N   0  0  0  0  0  0  0  0  0  0  0  0
    9.8333   -3.2000    0.0000 C   0  0  0  0  0  0  0  0  0  0  0  0
   10.5478   -2.7875    0.0000 N   0  0  0  0  0  0  0  0  0  0  0  0
    9.1147   -2.7875    0.0000 C   0  0  0  0  0  0  0  0  0  0  0  0
    9.8333   -4.0292    0.0000 O   0  0  0  0  0  0  0  0  0  0  0  0
    8.3961   -3.2000    0.0000 C   0  0  0  0  0  0  0  0  0  0  0  0
    7.6774   -2.7875    0.0000 C   0  0  0  0  0  0  0  0  0  0  0  0
    6.9617   -3.1933    0.0000 C   0  0  0  0  0  0  0  0  0  0  0  0
    6.9827   -4.0216    0.0000 C   0  0  0  0  0  0  0  0  0  0  0  0
   11.2623   -3.2000    0.0000 C   0  0  0  0  0  0  0  0  0  0  0  0
   11.9767   -2.7875    0.0000 C   0  0  0  0  0  0  0  0  0  0  0  0
   12.6912   -3.2000    0.0000 N   0  0  0  0  0  0  0  0  0  0  0  0
   13.4057   -2.7875    0.0000 C   0  0  0  0  0  0  0  0  0  0  0  0
   14.1202   -3.2000    0.0000 C   0  0  0  0  0  0  0  0  0  0  0  0
   14.8346   -2.7875    0.0000 C   0  0  0  0  0  0  0  0  0  0  0  0
   15.5491   -3.2000    0.0000 C   0  0  0  0  0  0  0  0  0  0  0  0
   11.2623   -4.0250    0.0000 C   0  0  0  0  0  0  0  0  0  0  0  0
   11.9767   -1.9625    0.0000 O   0  0  0  0  0  0  0  0  0  0  0  0
   16.2636   -2.7875    0.0000 C   0  0  0  0  0  0  0  0  0  0  0  0
   16.9780   -3.2000    0.0000 C   0  0  0  0  0  0  0  0  0  0  0  0
   16.9780   -4.0250    0.0000 O   0  0  0  0  0  0  0  0  0  0  0  0
   17.6925   -2.7875    0.0000 N   0  0  0  0  0  0  0  0  0  0  0  0
   18.4070   -3.2000    0.0000 C   0  0  0  0  0  0  0  0  0  0  0  0
   18.4070   -4.0250    0.0000 C   0  0  0  0  0  0  0  0  0  0  0  0
   19.1215   -4.4375    0.0000 C   0  0  0  0  0  0  0  0  0  0  0  0
   19.1215   -5.2625    0.0000 C   0  0  0  0  0  0  0  0  0  0  0  0
   19.8359   -5.6750    0.0000 N   0  0  0  0  0  0  0  0  0  0  0  0
   19.8359   -6.5000    0.0000 C   0  0  0  0  0  0  0  0  0  0  0  0
   19.1215   -6.9125    0.0000 N   0  0  0  0  0  0  0  0  0  0  0  0
   20.5504   -6.9125    0.0000 N   0  0  0  0  0  0  0  0  0  0  0  0
 30 31  2  0  0  0  0 
 31 32  1  0  0  0  0 
 26 32  2  0  0  0  0 
 23 32  1  0  0  0  0 
  4  5  1  6  0  0  0 
 16 33  1  0  0  0  0 
  9 10  2  0  0  0  0 
  2  1  1  0  0  0  0 
 34 35  1  0  0  0  0 
  9 11  1  0  0  0  0 
 34 36  1  0  0  0  0 
  5  6  1  0  0  0  0 
 34 37  2  0  0  0  0 
  2 12  2  0  0  0  0 
 36 38  1  0  0  0  0 
  3  4  1  0  0  0  0 
 38 39  1  0  0  0  0 
 13  3  1  0  0  0  0 
 39 40  1  0  0  0  0 
  6  7  1  0  0  0  0 
 40 41  1  0  0  0  0 
 41 33  1  0  0  0  0 
 13 14  2  0  0  0  0 
 35 42  1  0  0  0  0 
  4  2  1  0  0  0  0 
 42 43  1  0  0  0  0 
  7  8  1  0  0  0  0 
 43 44  1  0  0  0  0 
 44 45  1  0  0  0  0 
  8  9  1  0  0  0  0 
 45 46  1  0  0  0  0 
 15 16  2  0  0  0  0 
 46 47  1  0  0  0  0 
 17 16  1  1  0  0  0 
 47 48  1  0  0  0  0 
 17 18  1  0  0  0  0 
 42 49  1  1  0  0  0 
 18 19  1  0  0  0  0 
 43 50  2  0  0  0  0 
 19 20  1  6  0  0  0 
 48 51  1  0  0  0  0 
 19 21  1  0  0  0  0 
 51 52  1  0  0  0  0 
 21 22  1  0  0  0  0 
 52 53  2  0  0  0  0 
 17 22  1  0  0  0  0 
 52 54  1  0  0  0  0 
 21 23  1  1  0  0  0 
 54 55  1  0  0  0  0 
 55 13  1  0  0  0  0 
 23 24  1  0  0  0  0 
 55 56  1  1  0  0  0 
 24 25  2  0  0  0  0 
 56 57  1  0  0  0  0 
 25 26  1  0  0  0  0 
 57 58  1  0  0  0  0 
 26 27  1  0  0  0  0 
 58 59  1  0  0  0  0 
 27 28  1  0  0  0  0 
 59 60  1  0  0  0  0 
 27 29  2  0  0  0  0 
 60 61  1  0  0  0  0 
 29 30  1  0  0  0  0 
 60 62  2  0  0  0  0 
M  END