
  CDK    9/16/09,10:6

 42 44  0  0  0  0  0  0  0  0999 V2000
   14.6828   -3.0948    0.0000 C   0  0  0  0  0  0  0  0  0  0  0  0
   14.6828   -3.9232    0.0000 C   0  0  0  0  0  0  0  0  0  0  0  0
   15.3989   -4.3373    0.0000 C   0  0  0  0  0  0  0  0  0  0  0  0
   16.1151   -3.9232    0.0000 C   0  0  0  0  0  0  0  0  0  0  0  0
   16.1151   -3.0948    0.0000 C   0  0  0  0  0  0  0  0  0  0  0  0
   15.3989   -2.6806    0.0000 C   0  0  0  0  0  0  0  0  0  0  0  0
   15.3978   -1.8569    0.0000 O   0  0  0  0  0  0  0  0  0  0  0  0
   15.3978   -5.1610    0.0000 O   0  0  0  0  0  0  0  0  0  0  0  0
   13.9703   -2.6870    0.0000 C   0  0  0  0  0  0  0  0  0  0  0  0
   13.9683   -1.8632    0.0000 C   0  0  0  0  0  0  0  0  0  0  0  0
   13.2511   -1.4509    0.0000 C   0  0  0  0  0  0  0  0  0  0  0  0
   14.6787   -1.4473    0.0000 C   0  0  0  0  0  0  0  0  0  0  0  0
   14.6767   -0.6236    0.0000 C   0  0  0  0  0  0  0  0  0  0  0  0
   15.3919   -0.2123    0.0000 C   0  0  0  0  0  0  0  0  0  0  0  0
   13.9642   -0.2158    0.0000 O   0  0  0  0  0  0  0  0  0  0  0  0
   15.3899    0.6114    0.0000 C   0  0  0  0  0  0  0  0  0  0  0  0
   16.1003    1.0273    0.0000 C   0  0  0  0  0  0  0  0  0  0  0  0
   14.6727    1.0239    0.0000 C   0  0  0  0  0  0  0  0  0  0  0  0
   16.8175    0.6149    0.0000 C   0  0  0  0  0  0  0  0  0  0  0  0
   17.5280    1.0308    0.0000 C   0  0  0  0  0  0  0  0  0  0  0  0
   16.8195   -0.2089    0.0000 C   0  0  0  0  0  0  0  0  0  0  0  0
   18.3500    1.0331    0.0000 C   0  0  0  0  0  0  0  0  0  0  0  0
   19.0621    0.6190    0.0000 C   0  0  0  0  0  0  0  0  0  0  0  0
   18.5620    1.8284    0.0000 O   0  0  0  0  0  0  0  0  0  0  0  0
   17.3138    1.8254    0.0000 O   0  0  0  0  0  0  0  0  0  0  0  0
   16.5181    2.0355    0.0000 C   0  0  0  0  0  0  0  0  0  0  0  0
   16.2990    2.8347    0.0000 O   0  0  0  0  0  0  0  0  0  0  0  0
   15.9365    1.4509    0.0000 N   0  0  0  0  0  0  0  0  0  0  0  0
   19.3619    2.0407    0.0000 C   0  0  0  0  0  0  0  0  0  0  0  0
   19.0600   -0.2047    0.0000 C   0  0  0  0  0  0  0  0  0  0  0  0
   18.3428   -0.6125    0.0000 C   0  0  0  0  0  0  0  0  0  0  0  0
   18.3408   -1.4362    0.0000 C   0  0  0  0  0  0  0  0  0  0  0  0
   19.0558   -1.8522    0.0000 C   0  0  0  0  0  0  0  0  0  0  0  0
   16.8317   -2.6860    0.0000 N   0  0  0  0  0  0  0  0  0  0  0  0
   16.8325   -1.8622    0.0000 C   0  0  0  0  0  0  0  0  0  0  0  0
   16.1168   -1.4473    0.0000 O   0  0  0  0  0  0  0  0  0  0  0  0
   13.2404   -0.6374    0.0000 C   0  0  0  0  0  0  0  0  0  0  0  0
   13.9572   -4.3418    0.0000 N   0  0  0  0  0  0  0  0  0  0  0  0
   13.1525   -4.1253    0.0000 C   0  0  0  0  0  0  0  0  0  0  0  0
   12.9353   -4.9344    0.0000 C   0  0  0  0  0  0  0  0  0  0  0  0
   13.7444   -5.1516    0.0000 C   0  0  0  0  0  0  0  0  0  0  0  0
   16.1175   -0.6309    0.0000 O   0  0  0  0  0  0  0  0  0  0  0  0
 19 21  1  0  0  0  0 
  3  4  1  0  0  0  0 
 20 22  1  0  0  0  0 
 10 11  1  1  0  0  0 
 22 23  1  0  0  0  0 
  4  5  2  0  0  0  0 
 22 24  1  1  0  0  0 
 10 12  1  0  0  0  0 
 20 25  1  6  0  0  0 
  5  6  1  0  0  0  0 
 25 26  1  0  0  0  0 
 12 13  1  0  0  0  0 
 26 27  2  0  0  0  0 
 26 28  1  0  0  0  0 
 13 14  1  0  0  0  0 
 24 29  1  0  0  0  0 
  6  7  2  0  0  0  0 
 23 30  2  0  0  0  0 
 13 15  1  6  0  0  0 
 30 31  1  0  0  0  0 
  1  2  2  0  0  0  0 
 31 32  2  0  0  0  0 
 14 16  1  0  0  0  0 
 32 33  1  0  0  0  0 
  3  8  2  0  0  0  0 
  5 34  1  0  0  0  0 
 16 17  1  0  0  0  0 
 34 35  1  0  0  0  0 
  1  6  1  0  0  0  0 
 35 36  2  0  0  0  0 
 35 32  1  0  0  0  0 
 16 18  1  1  0  0  0 
 15 37  1  0  0  0  0 
  1  9  1  0  0  0  0 
  2 38  1  0  0  0  0 
 38 39  1  0  0  0  0 
 17 19  2  0  0  0  0 
  2  3  1  0  0  0  0 
 19 20  1  0  0  0  0 
 39 40  1  0  0  0  0 
 40 41  1  0  0  0  0 
 41 38  1  0  0  0  0 
  9 10  1  0  0  0  0 
 14 42  2  0  0  0  0 
M  END