
          11280715092D 1   1.00000     0.00000     0

 37 41  0     0  0            999 V2000
    7.7917   -3.6125    0.0000 C   0  0  0  0  0  0           0  0  0
    7.7917   -2.7875    0.0000 C   0  0  0  0  0  0           0  0  0
    6.3625   -2.7875    0.0000 C   0  0  0  0  0  0           0  0  0
    7.0750   -2.3750    0.0000 C   0  0  0  0  0  0           0  0  0
    7.0750   -4.0250    0.0000 O   0  0  0  0  0  0           0  0  0
    6.3625   -3.6125    0.0000 C   0  0  0  0  0  0           0  0  0
   -0.8208   -1.1500    0.0000 C   0  0  0  0  0  0           0  0  0
    8.5125   -4.0292    0.0000 C   0  0  0  0  0  0           0  0  0
   -0.0958   -1.5667    0.0000 C   0  0  0  0  0  0           0  0  0
    1.3417   -2.3917    0.0000 N   0  0  3  0  0  0           0  0  0
    5.6500   -2.3750    0.0000 C   0  0  0  0  0  0           0  0  0
    7.0750   -1.5500    0.0000 O   0  0  0  0  0  0           0  0  0
    9.2250   -3.6167    0.0000 O   0  0  0  0  0  0           0  0  0
   -0.8250   -0.3167    0.0000 C   0  0  0  0  0  0           0  0  0
   -1.5333   -1.5625    0.0000 C   0  0  0  0  0  0           0  0  0
    5.6500   -4.0250    0.0000 C   0  0  0  0  0  0           0  0  0
    0.6167   -1.1542    0.0000 C   0  0  0  0  0  0           0  0  0
   -0.0875   -2.3917    0.0000 C   0  0  0  0  0  0           0  0  0
    0.6292   -2.8042    0.0000 C   0  0  0  0  0  0           0  0  0
    1.3292   -1.5667    0.0000 C   0  0  0  0  0  0           0  0  0
    4.9292   -2.7875    0.0000 C   0  0  0  0  0  0           0  0  0
    8.5042   -4.8625    0.0000 O   0  0  0  0  0  0           0  0  0
    4.9292   -3.6125    0.0000 C   0  0  0  0  0  0           0  0  0
    2.0625   -2.8042    0.0000 C   0  0  0  0  0  0           0  0  0
    2.7792   -2.3792    0.0000 C   0  0  0  0  0  0           0  0  0
    4.2125   -2.3750    0.0000 O   0  0  0  0  0  0           0  0  0
    3.5000   -2.7917    0.0000 C   0  0  0  0  0  0           0  0  0
   -0.1083    0.0958    0.0000 C   0  0  0  0  0  0           0  0  0
   -1.5375    0.0958    0.0000 C   0  0  0  0  0  0           0  0  0
   -2.2458   -1.1500    0.0000 C   0  0  0  0  0  0           0  0  0
   -1.5333   -2.3917    0.0000 C   0  0  0  0  0  0           0  0  0
   -1.5375    0.9250    0.0000 C   0  0  0  0  0  0           0  0  0
   -2.9625   -1.5625    0.0000 C   0  0  0  0  0  0           0  0  0
   -2.2458   -2.8042    0.0000 C   0  0  0  0  0  0           0  0  0
   -0.1083    0.9250    0.0000 C   0  0  0  0  0  0           0  0  0
   -0.8250    1.3375    0.0000 C   0  0  0  0  0  0           0  0  0
   -2.9625   -2.3917    0.0000 C   0  0  0  0  0  0           0  0  0
  2  1  2  0     0  0
  3  6  1  0     0  0
  4  2  1  0     0  0
  5  1  1  0     0  0
  6  5  1  0     0  0
  7  9  2  0     0  0
  8  1  1  0     0  0
  9 17  1  0     0  0
 10 24  1  0     0  0
 11  3  2  0     0  0
 12  4  2  0     0  0
 13  8  2  0     0  0
 14  7  1  0     0  0
 15  7  1  0     0  0
 16  6  2  0     0  0
 17 20  1  0     0  0
 18 19  1  0     0  0
 19 10  1  0     0  0
 20 10  1  0     0  0
 21 23  2  0     0  0
 22  8  1  0     0  0
 23 16  1  0     0  0
 24 25  1  0     0  0
 25 27  1  0     0  0
 26 21  1  0     0  0
 27 26  1  0     0  0
 28 14  2  0     0  0
 29 14  1  0     0  0
 30 15  2  0     0  0
 31 15  1  0     0  0
 32 29  2  0     0  0
 33 30  1  0     0  0
 34 31  2  0     0  0
 35 28  1  0     0  0
 36 32  1  0     0  0
 37 34  1  0     0  0
  4  3  1  0     0  0
 21 11  1  0     0  0
  9 18  1  0     0  0
 33 37  2  0     0  0
 35 36  2  0     0  0
M  END