
          11280715472D 1   1.00000     0.00000     0

 26 29  0     0  0            999 V2000
   -1.3750   -2.2167    0.0000 N   0  0  3  0  0  0           0  0  0
   -0.3000   -1.4417    0.0000 N   0  0  0  0  0  0           0  0  0
   -0.5500   -2.2167    0.0000 C   0  0  0  0  0  0           0  0  0
   -0.9625   -0.9542    0.0000 C   0  0  0  0  0  0           0  0  0
   -1.6333   -1.4417    0.0000 C   0  0  0  0  0  0           0  0  0
   -1.7833   -2.9375    0.0000 C   0  0  0  0  0  0           0  0  0
   -0.1458   -2.9375    0.0000 C   0  0  0  0  0  0           0  0  0
   -1.3750   -3.6417    0.0000 C   0  0  0  0  0  0           0  0  0
   -0.5500   -3.6417    0.0000 C   0  0  0  0  0  0           0  0  0
   -0.9625   -0.1292    0.0000 C   0  0  0  0  0  0           0  0  0
    1.9000    2.3333    0.0000 N   0  0  3  0  0  0           0  0  0
   -0.2458    0.2833    0.0000 C   0  0  0  0  0  0           0  0  0
   -1.6750    0.2833    0.0000 C   0  0  0  0  0  0           0  0  0
   -0.9583    1.5208    0.0000 C   0  0  0  0  0  0           0  0  0
   -1.6750    1.1083    0.0000 C   0  0  0  0  0  0           0  0  0
   -0.2458    1.1000    0.0000 C   0  0  0  0  0  0           0  0  0
    1.1875    2.7458    0.0000 C   0  0  0  0  0  0           0  0  0
    0.4750    2.3333    0.0000 C   0  0  0  0  0  0           0  0  0
   -0.9500    2.3458    0.0000 O   0  0  0  0  0  0           0  0  0
    1.9000    1.5083    0.0000 C   0  0  0  0  0  0           0  0  0
    2.6042    2.7583    0.0000 C   0  0  0  0  0  0           0  0  0
   -1.7875   -4.3542    0.0000 C   0  0  0  0  0  0           0  0  0
   -0.2375    2.7583    0.0000 C   0  0  0  0  0  0           0  0  0
    2.6042    1.1000    0.0000 C   0  0  0  0  0  0           0  0  0
    3.3167    2.3333    0.0000 C   0  0  0  0  0  0           0  0  0
    3.3167    1.5083    0.0000 C   0  0  0  0  0  0           0  0  0
  2  3  2  0     0  0
  3  1  1  0     0  0
  4  5  2  0     0  0
  5  1  1  0     0  0
  6  1  1  0     0  0
  7  3  1  0     0  0
  8  6  2  0     0  0
  9  8  1  0     0  0
 10  4  1  0     0  0
 11 17  1  0     0  0
 12 10  1  0     0  0
 13 10  2  0     0  0
 14 15  2  0     0  0
 15 13  1  0     0  0
 16 12  2  0     0  0
 17 18  1  0     0  0
 18 23  1  0     0  0
 19 14  1  0     0  0
 20 11  1  0     0  0
 21 11  1  0     0  0
 22  8  1  0     0  0
 23 19  1  0     0  0
 24 20  1  0     0  0
 25 21  1  0     0  0
 26 25  1  0     0  0
  2  4  1  0     0  0
  9  7  2  0     0  0
 14 16  1  0     0  0
 26 24  1  0     0  0
M  END