
  SciTegic01161211262D

 43 48  0  0  0  0            999 V2000
    0.9992  -18.9142    0.0000 N   0  0
    2.4213  -19.7493    0.0000 C   0  0
    2.4255  -18.9215    0.0000 C   0  0  2  0  0  0
    1.7143  -18.5016    0.0000 C   0  0
   -0.3785  -17.2196    0.0000 C   0  0
    0.3263  -17.6539    0.0000 C   0  0
    0.3025  -18.4814    0.0000 C   0  0
    3.1606  -18.5636    0.0000 C   0  0
    3.8612  -18.9978    0.0000 N   0  0
    3.1802  -17.7360    0.0000 O   0  0
    3.8331  -19.8216    0.0000 C   0  0
    4.5296  -20.2557    0.0000 C   0  0
    5.2604  -19.8661    0.0000 N   0  0
    5.2862  -19.0377    0.0000 C   0  0
    4.5811  -18.5989    0.0000 C   0  0
    5.9563  -20.3022    0.0000 C   0  0
    5.9280  -21.1306    0.0000 C   0  0
    6.6303  -21.5675    0.0000 C   0  0
    7.3571  -21.1770    0.0000 C   0  0
    7.3815  -20.3453    0.0000 C   0  0
    6.6827  -19.9121    0.0000 C   0  0
    8.0620  -21.6150    0.0000 N   0  3
    8.7872  -21.2236    0.0000 O   0  0
    8.0362  -22.4424    0.0000 O   0  5
    1.0506  -17.2607    0.0000 C   0  0
   -1.1027  -17.6127    0.0000 C   0  0
   -1.8039  -17.1762    0.0000 C   0  0
   -1.8464  -18.8314    0.0000 C   0  0
   -1.1213  -18.4364    0.0000 C   0  0
   -2.5520  -18.3971    0.0000 C   0  0
   -2.5286  -17.5706    0.0000 C   0  0
   -3.3074  -17.2929    0.0000 O   0  0
   -3.8080  -17.9479    0.0000 C   0  0
   -3.3453  -18.6302    0.0000 O   0  0
    1.7059  -20.1573    0.0000 C   0  0  1  0  0  0
    0.9951  -19.7421    0.0000 C   0  0  2  0  0  0
    0.2882  -20.1478    0.0000 C   0  0
    0.2818  -20.9704    0.0000 C   0  0
    0.9885  -21.3856    0.0000 C   0  0
    1.7057  -20.9783    0.0000 C   0  0
    0.2802  -19.3281    0.0000 H   0  0
    2.4165  -20.5699    0.0000 H   0  0
    2.4207  -18.0906    0.0000 H   0  0
 20 21  2  0
 21 16  1  0
 13 16  1  0
  8 10  2  0
  9 11  1  0
 22 23  2  0
 22 24  1  0
 19 22  1  0
  1 36  1  0
  6 25  1  0
  5  6  1  0
  5 26  1  0
  1  4  1  0
 26 27  2  0
 27 31  1  0
  6  7  1  0
 30 28  1  0
  9 15  1  0
 28 29  2  0
 29 26  1  0
 30 31  2  0
 11 12  1  0
 12 13  1  0
 13 14  1  0
 14 15  1  0
  7  1  1  0
 31 32  1  0
 32 33  1  0
 33 34  1  0
 34 30  1  0
 35 36  1  0
 35  2  1  0
 16 17  2  0
  3  8  1  0
 17 18  1  0
  2  3  1  0
 18 19  2  0
 35 40  1  0
 36 37  1  0
 37 38  1  0
 38 39  1  0
 39 40  1  0
  8  9  1  0
 36 41  1  1
 19 20  1  0
 35 42  1  1
  3  4  1  0
  3 43  1  1
M  CHG  2  22   1  24  -1
M  END