
  CDK    9/16/09,10:4

 27 29  0  0  0  0  0  0  0  0999 V2000
   -1.4042    2.9500    0.0000 C   0  0  0  0  0  0  0  0  0  0  0  0
   -0.6897    3.3625    0.0000 N   0  0  0  0  0  0  0  0  0  0  0  0
   -2.1186    3.3625    0.0000 N   0  0  0  0  0  0  0  0  0  0  0  0
   -1.4042    2.1250    0.0000 S   0  0  0  0  0  0  0  0  0  0  0  0
   -2.8331    2.9500    0.0000 C   0  0  0  0  0  0  0  0  0  0  0  0
   -3.5470    3.3656    0.0000 C   0  0  0  0  0  0  0  0  0  0  0  0
   -4.2610    2.9538    0.0000 C   0  0  0  0  0  0  0  0  0  0  0  0
   -4.2614    2.1279    0.0000 C   0  0  0  0  0  0  0  0  0  0  0  0
   -3.5419    1.7156    0.0000 C   0  0  0  0  0  0  0  0  0  0  0  0
   -2.8309    2.1298    0.0000 C   0  0  0  0  0  0  0  0  0  0  0  0
    0.0248    2.9500    0.0000 C   0  0  0  0  0  0  0  0  0  0  0  0
    0.0222    2.1239    0.0000 C   0  0  0  0  0  0  0  0  0  0  0  0
    0.7359    1.7115    0.0000 C   0  0  0  0  0  0  0  0  0  0  0  0
    0.7344    3.3620    0.0000 C   0  0  0  0  0  0  0  0  0  0  0  0
    1.4487    2.9533    0.0000 C   0  0  0  0  0  0  0  0  0  0  0  0
    1.4523    2.1255    0.0000 C   0  0  0  0  0  0  0  0  0  0  0  0
    2.1678    1.7148    0.0000 S   0  0  0  0  0  0  0  0  0  0  0  0
    2.8792    1.3042    0.0000 N   0  0  0  0  0  0  0  0  0  0  0  0
    2.5794    2.4298    0.0000 O   0  0  0  0  0  0  0  0  0  0  0  0
    1.7593    0.9980    0.0000 O   0  0  0  0  0  0  0  0  0  0  0  0
    2.8793    0.4792    0.0000 C   0  0  0  0  0  0  0  0  0  0  0  0
    2.2147   -0.0094    0.0000 N   0  0  0  0  0  0  0  0  0  0  0  0
    2.4698   -0.7940    0.0000 O   0  0  0  0  0  0  0  0  0  0  0  0
    3.2948   -0.7939    0.0000 C   0  0  0  0  0  0  0  0  0  0  0  0
    3.5495   -0.0093    0.0000 C   0  0  0  0  0  0  0  0  0  0  0  0
    3.7799   -1.4613    0.0000 C   0  0  0  0  0  0  0  0  0  0  0  0
   -4.9754    1.7145    0.0000 F   0  0  0  0  0  0  0  0  0  0  0  0
 13 16  2  0  0  0  0 
  6  7  1  0  0  0  0 
 15 14  2  0  0  0  0 
 14 11  1  0  0  0  0 
 15 16  1  0  0  0  0 
  1  4  2  0  0  0  0 
  7  8  2  0  0  0  0 
 16 17  1  0  0  0  0 
  8  9  1  0  0  0  0 
 17 18  1  0  0  0  0 
  3  5  1  0  0  0  0 
 17 19  2  0  0  0  0 
  9 10  2  0  0  0  0 
 17 20  2  0  0  0  0 
 10  5  1  0  0  0  0 
 18 21  1  0  0  0  0 
 21 22  2  0  0  0  0 
  1  3  1  0  0  0  0 
  2 11  1  0  0  0  0 
  5  6  2  0  0  0  0 
 11 12  2  0  0  0  0 
 22 23  1  0  0  0  0 
 23 24  1  0  0  0  0 
 24 25  2  0  0  0  0 
 25 21  1  0  0  0  0 
  1  2  1  0  0  0  0 
 24 26  1  0  0  0  0 
 12 13  1  0  0  0  0 
  8 27  1  0  0  0  0 
M  END