
          02060813472D 1   1.00000     0.00000     0

 36 40  0     1  0            999 V2000
    8.1861   -4.8708    0.0000 C   0  0  0  0  0  0           0  0  0
    8.1849   -5.6982    0.0000 C   0  0  0  0  0  0           0  0  0
    8.8997   -6.1110    0.0000 C   0  0  0  0  0  0           0  0  0
    8.8979   -4.4580    0.0000 C   0  0  0  0  0  0           0  0  0
    9.6133   -4.8672    0.0000 C   0  0  0  0  0  0           0  0  0
    9.6141   -5.6940    0.0000 C   0  0  0  0  0  0           0  0  0
   10.3294   -6.1050    0.0000 N   0  0  0  0  0  0           0  0  0
   11.0444   -5.6902    0.0000 C   0  0  0  0  0  0           0  0  0
   11.0396   -4.8602    0.0000 N   0  0  0  0  0  0           0  0  0
   10.3237   -4.4530    0.0000 C   0  0  0  0  0  0           0  0  0
   11.7581   -6.1000    0.0000 N   0  0  3  0  0  0           0  0  0
   13.1866   -6.9238    0.0000 N   0  0  3  0  0  0           0  0  0
   13.1854   -6.0979    0.0000 C   0  0  0  0  0  0           0  0  0
   12.4689   -5.6837    0.0000 C   0  0  0  0  0  0           0  0  0
   12.4713   -7.3356    0.0000 C   0  0  2  0  0  0           0  0  0
   11.7569   -6.9233    0.0000 C   0  0  1  0  0  0           0  0  0
   11.0465   -7.3335    0.0000 C   0  0  0  0  0  0           0  0  0
   11.0443   -8.1578    0.0000 C   0  0  0  0  0  0           0  0  0
   11.7588   -8.5701    0.0000 C   0  0  0  0  0  0           0  0  0
   12.4754   -8.1582    0.0000 C   0  0  0  0  0  0           0  0  0
   13.1833   -7.7458    0.0000 H   0  0  0  0  0  0           0  0  0
   11.0375   -6.5083    0.0000 H   0  0  0  0  0  0           0  0  0
   13.9011   -7.3363    0.0000 C   0  0  0  0  0  0           0  0  0
   13.9012   -8.1613    0.0000 O   0  0  0  0  0  0           0  0  0
   14.6159   -6.9233    0.0000 C   0  0  0  0  0  0           0  0  0
   15.4035   -7.1571    0.0000 C   0  0  0  0  0  0           0  0  0
   15.8700   -6.4766    0.0000 C   0  0  0  0  0  0           0  0  0
   15.3670   -5.8226    0.0000 C   0  0  0  0  0  0           0  0  0
   14.5897   -6.0990    0.0000 O   0  0  0  0  0  0           0  0  0
    7.4715   -4.4585    0.0000 O   0  0  0  0  0  0           0  0  0
    7.4701   -6.1101    0.0000 O   0  0  0  0  0  0           0  0  0
    7.4713   -3.6335    0.0000 C   0  0  0  0  0  0           0  0  0
    7.4695   -6.9351    0.0000 C   0  0  0  0  0  0           0  0  0
   10.3194   -3.6280    0.0000 N   0  0  0  0  0  0           0  0  0
   15.6003   -5.0313    0.0000 O   0  0  0  0  0  0           0  0  0
   16.4023   -4.8377    0.0000 C   0  0  0  0  0  0           0  0  0
  5  4  2  0     0  0
  8  9  1  0     0  0
  4  1  1  0     0  0
 15 20  1  0     0  0
 16 17  1  0     0  0
 17 18  1  0     0  0
 18 19  1  0     0  0
 19 20  1  0     0  0
  9 10  2  0     0  0
 15 21  1  6     0  0
 10  5  1  0     0  0
 16 22  1  6     0  0
 11 16  1  0     0  0
 12 23  1  0     0  0
 23 24  2  0     0  0
  2  3  1  0     0  0
 23 25  1  0     0  0
 25 26  2  0     0  0
  5  6  1  0     0  0
  3  6  2  0     0  0
 11 14  1  0     0  0
 15 12  1  0     0  0
 26 27  1  0     0  0
 27 28  2  0     0  0
 28 29  1  0     0  0
 29 25  1  0     0  0
 12 13  1  0     0  0
  1 30  1  0     0  0
 13 14  1  0     0  0
  2 31  1  0     0  0
  8 11  1  0     0  0
 30 32  1  0     0  0
 15 16  1  0     0  0
 31 33  1  0     0  0
  6  7  1  0     0  0
 10 34  1  0     0  0
  1  2  2  0     0  0
 28 35  1  0     0  0
  7  8  2  0     0  0
 35 36  1  0     0  0
M  END