
          11280715122D 1   1.00000     0.00000     0

 35 38  0     0  0            999 V2000
    8.9792   -6.0542    0.0000 C   0  0  0  0  0  0           0  0  0
    8.9750   -5.2292    0.0000 C   0  0  0  0  0  0           0  0  0
    8.2667   -6.4667    0.0000 C   0  0  0  0  0  0           0  0  0
    8.2667   -7.2917    0.0000 C   0  0  0  0  0  0           0  0  0
    9.6917   -7.2917    0.0000 N   0  0  0  0  0  0           0  0  0
    8.9792   -7.7042    0.0000 C   0  0  0  0  0  0           0  0  0
    4.1000   -6.6917    0.0000 N   0  0  3  0  0  0           0  0  0
    9.6917   -6.4667    0.0000 C   0  0  0  0  0  0           0  0  0
    3.3875   -6.2875    0.0000 C   0  0  0  0  0  0           0  0  0
    3.3875   -5.4542    0.0000 C   0  0  0  0  0  0           0  0  0
    5.5417   -7.4875    0.0000 N   0  0  3  0  0  0           0  0  0
    2.6667   -5.0417    0.0000 C   0  0  0  0  0  0           0  0  0
    9.6917   -4.8167    0.0000 N   0  0  3  0  0  0           0  0  0
    2.6667   -6.7000    0.0000 C   0  0  0  0  0  0           0  0  0
    8.2625   -4.8167    0.0000 O   0  0  0  0  0  0           0  0  0
    4.1125   -7.5167    0.0000 C   0  0  0  0  0  0           0  0  0
    4.8042   -6.2667    0.0000 C   0  0  0  0  0  0           0  0  0
    8.9792   -8.5292    0.0000 C   0  0  0  0  0  0           0  0  0
    7.5542   -6.0542    0.0000 N   0  0  0  0  0  0           0  0  0
    1.9542   -5.4625    0.0000 C   0  0  0  0  0  0           0  0  0
    5.5250   -6.6667    0.0000 C   0  0  0  0  0  0           0  0  0
    4.8375   -7.9167    0.0000 C   0  0  0  0  0  0           0  0  0
    1.9542   -6.2875    0.0000 C   0  0  0  0  0  0           0  0  0
    4.1000   -5.0417    0.0000 O   0  0  0  0  0  0           0  0  0
    7.5542   -7.7042    0.0000 C   0  0  0  0  0  0           0  0  0
    1.2417   -5.0500    0.0000 F   0  0  0  0  0  0           0  0  0
    6.2667   -7.8875    0.0000 C   0  0  0  0  0  0           0  0  0
    6.8500   -7.3000    0.0000 C   0  0  0  0  0  0           0  0  0
    7.5542   -8.5292    0.0000 C   0  0  0  0  0  0           0  0  0
    6.8417   -6.4750    0.0000 C   0  0  0  0  0  0           0  0  0
   10.4042   -5.2250    0.0000 C   0  0  0  0  0  0           0  0  0
    9.6875   -3.9917    0.0000 C   0  0  0  0  0  0           0  0  0
    8.2750   -8.9417    0.0000 C   0  0  0  0  0  0           0  0  0
    9.7000   -8.9375    0.0000 C   0  0  0  0  0  0           0  0  0
    4.8167   -5.4500    0.0000 C   0  0  0  0  0  0           0  0  0
  2  1  1  0     0  0
  3  1  1  0     0  0
  4  3  2  0     0  0
  5  8  1  0     0  0
  6  5  2  0     0  0
  7 16  1  0     0  0
  8  1  2  0     0  0
  9  7  1  0     0  0
 10  9  1  0     0  0
 11 27  1  0     0  0
 12 10  2  0     0  0
 13  2  1  0     0  0
 14  9  2  0     0  0
 15  2  2  0     0  0
 16 22  1  0     0  0
 17 21  1  0     0  0
 18  6  1  0     0  0
 19  3  1  0     0  0
 20 23  2  0     0  0
 21 11  1  0     0  0
 22 11  1  0     0  0
 23 14  1  0     0  0
 24 10  1  0     0  0
 25  4  1  0     0  0
 26 20  1  0     0  0
 27 28  1  0     0  0
 28 30  1  0     0  0
 29 25  2  0     0  0
 30 19  1  0     0  0
 31 13  1  0     0  0
 32 13  1  0     0  0
 33 18  2  0     0  0
 34 18  1  0     0  0
 35 24  1  0     0  0
  6  4  1  0     0  0
 33 29  1  0     0  0
  7 17  1  0     0  0
 20 12  1  0     0  0
M  END