
  CDK    9/16/09,10:8

 32 34  0  0  0  0  0  0  0  0999 V2000
    1.1167  -22.6250    0.0000 C   0  0  0  0  0  0  0  0  0  0  0  0
    1.1167  -23.4500    0.0000 C   0  0  0  0  0  0  0  0  0  0  0  0
    1.8287  -23.8583    0.0000 C   0  0  0  0  0  0  0  0  0  0  0  0
    1.8287  -22.2083    0.0000 C   0  0  0  0  0  0  0  0  0  0  0  0
    2.5407  -22.6250    0.0000 C   0  0  0  0  0  0  0  0  0  0  0  0
    2.5372  -23.4500    0.0000 C   0  0  0  0  0  0  0  0  0  0  0  0
    3.2460  -23.8632    0.0000 C   0  0  0  0  0  0  0  0  0  0  0  0
    3.9628  -23.4560    0.0000 C   0  0  0  0  0  0  0  0  0  0  0  0
    3.2413  -24.6882    0.0000 O   0  0  0  0  0  0  0  0  0  0  0  0
    3.2530  -22.2132    0.0000 C   0  0  0  0  0  0  0  0  0  0  0  0
    3.9687  -22.6320    0.0000 C   0  0  0  0  0  0  0  0  0  0  0  0
    4.6824  -19.7247    0.0000 C   0  0  0  0  0  0  0  0  0  0  0  0
    3.9677  -20.1438    0.0000 C   0  0  0  0  0  0  0  0  0  0  0  0
    3.9765  -20.9765    0.0000 C   0  0  0  0  0  0  0  0  0  0  0  0
    3.2538  -21.3864    0.0000 C   0  0  0  0  0  0  0  0  0  0  0  0
    3.2458  -23.0375    0.0000 H   0  0  0  0  0  0  0  0  0  0  0  0
    3.2499  -19.7371    0.0000 C   0  0  0  0  0  0  0  0  0  0  0  0
    3.2376  -18.9078    0.0000 C   0  0  0  0  0  0  0  0  0  0  0  0
    3.9471  -18.4868    0.0000 C   0  0  0  0  0  0  0  0  0  0  0  0
    4.7012  -18.8139    0.0000 O   0  0  0  0  0  0  0  0  0  0  0  0
    5.2416  -18.1918    0.0000 C   0  0  0  0  0  0  0  0  0  0  0  0
    4.8226  -17.4834    0.0000 C   0  0  0  0  0  0  0  0  0  0  0  0
    4.0217  -17.6669    0.0000 C   0  0  0  0  0  0  0  0  0  0  0  0
    6.0687  -18.2715    0.0000 O   0  0  0  0  0  0  0  0  0  0  0  0
    2.5333  -21.8000    0.0000 C   0  0  0  0  0  0  0  0  0  0  0  0
    3.4005  -17.1241    0.0000 C   0  0  0  0  0  0  0  0  0  0  0  0
    2.5292  -24.2708    0.0000 H   0  0  0  0  0  0  0  0  0  0  0  0
    2.0375  -24.6542    0.0000 C   0  0  0  0  0  0  0  0  0  0  0  0
    1.1083  -24.2667    0.0000 C   0  0  0  0  0  0  0  0  0  0  0  0
    4.3750  -21.9125    0.0000 C   0  0  0  0  0  0  0  0  0  0  0  0
    4.6792  -23.0417    0.0000 O   0  0  0  0  0  0  0  0  0  0  0  0
    0.3971  -23.8485    0.0000 O   0  0  0  0  0  0  0  0  0  0  0  0
  5 10  1  0  0  0  0 
 10 16  1  6  0  0  0 
  6  7  1  0  0  0  0 
 13 17  2  0  0  0  0 
  7  8  1  0  0  0  0 
 17 18  1  0  0  0  0 
  8 11  1  0  0  0  0 
 19 18  2  0  0  0  0 
 19 20  1  0  0  0  0 
  3  6  1  0  0  0  0 
  7  9  1  6  0  0  0 
 10 11  1  0  0  0  0 
  5  4  1  0  0  0  0 
 20 21  1  0  0  0  0 
 21 22  1  0  0  0  0 
 22 23  2  0  0  0  0 
 23 19  1  0  0  0  0 
  5  6  1  0  0  0  0 
 21 24  2  0  0  0  0 
  5 25  1  1  0  0  0 
  1  2  1  0  0  0  0 
 23 26  1  0  0  0  0 
  1  4  1  0  0  0  0 
  6 27  1  6  0  0  0 
  2  3  1  0  0  0  0 
  3 28  1  1  0  0  0 
 10 15  1  0  0  0  0 
  3 29  1  0  0  0  0 
 12 13  1  0  0  0  0 
 11 30  1  0  0  0  0 
 13 14  1  0  0  0  0 
 11 31  1  6  0  0  0 
 14 15  1  0  0  0  0 
 29 32  1  0  0  0  0 
M  END