
  SciTegic01161211212D

 11 11  0  0  0  0            999 V2000
   -4.7320    1.7989    0.0000 C   0  0
   -4.7331    0.9721    0.0000 C   0  0
   -4.0187    0.5595    0.0000 C   0  0
   -3.3028    0.9725    0.0000 C   0  0
   -3.3056    1.8026    0.0000 C   0  0
   -4.0205    2.2115    0.0000 C   0  0
   -2.5931    2.2176    0.0000 O   0  0
   -1.8775    1.8080    0.0000 S   0  0
   -1.1650    2.2229    0.0000 N   0  0
   -2.4653    1.2285    0.0000 O   0  0
   -1.2950    1.2285    0.0000 O   0  0
  5  6  2  0
  6  1  1  0
  1  2  2  0
  5  7  1  0
  3  4  2  0
  7  8  1  0
  8  9  1  0
  4  5  1  0
  8 10  2  0
  2  3  1  0
  8 11  2  0
M  END