
          11280714522D 1   1.00000     0.00000     0

 34 39  0     0  0            999 V2000
    3.4792   -3.9417    0.0000 C   0  0  0  0  0  0           0  0  0
    8.1917   -5.8250    0.0000 N   0  0  0  0  0  0           0  0  0
    6.9542   -5.3000    0.0000 C   0  0  0  0  0  0           0  0  0
    4.9042   -4.7625    0.0000 C   0  0  0  0  0  0           0  0  0
    3.4792   -4.7667    0.0000 C   0  0  0  0  0  0           0  0  0
    7.6417   -6.4375    0.0000 N   0  0  0  0  0  0           0  0  0
    7.7667   -5.1125    0.0000 N   0  0  0  0  0  0           0  0  0
    4.1917   -5.1792    0.0000 C   0  0  0  0  0  0           0  0  0
    4.1917   -3.5250    0.0000 O   0  0  0  0  0  0           0  0  0
    6.8917   -6.1250    0.0000 N   0  0  0  0  0  0           0  0  0
    4.9042   -3.9375    0.0000 C   0  0  0  0  0  0           0  0  0
    5.6167   -5.1750    0.0000 C   0  0  0  0  0  0           0  0  0
    0.6292    0.1833    0.0000 N   0  0  0  0  0  0           0  0  0
    6.3292   -4.7625    0.0000 C   0  0  0  0  0  0           0  0  0
    2.7667   -3.5292    0.0000 C   0  0  0  0  0  0           0  0  0
    0.6292    1.0000    0.0000 C   0  0  0  0  0  0           0  0  0
    1.3417   -1.0542    0.0000 C   0  0  0  0  0  0           0  0  0
    2.0542   -1.4625    0.0000 C   0  0  0  0  0  0           0  0  0
    4.1917   -6.0000    0.0000 O   0  0  0  0  0  0           0  0  0
    1.3417   -0.2292    0.0000 C   0  0  0  0  0  0           0  0  0
    5.6167   -3.5250    0.0000 C   0  0  0  0  0  0           0  0  0
    2.7667   -2.7000    0.0000 C   0  0  0  0  0  0           0  0  0
    6.3292   -3.9292    0.0000 C   0  0  0  0  0  0           0  0  0
    1.3417    1.4125    0.0000 C   0  0  0  0  0  0           0  0  0
    2.0542   -2.2875    0.0000 C   0  0  0  0  0  0           0  0  0
    2.0542    1.0083    0.0000 C   0  0  0  0  0  0           0  0  0
    2.0542    0.1833    0.0000 C   0  0  0  0  0  0           0  0  0
    2.0542   -3.9417    0.0000 C   0  0  0  0  0  0           0  0  0
    1.3292   -3.5250    0.0000 C   0  0  0  0  0  0           0  0  0
   -0.0958    1.4125    0.0000 C   0  0  0  0  0  0           0  0  0
    1.3417   -2.7000    0.0000 C   0  0  0  0  0  0           0  0  0
    1.3417    2.2375    0.0000 C   0  0  0  0  0  0           0  0  0
   -0.0833    2.2375    0.0000 C   0  0  0  0  0  0           0  0  0
    0.6292    2.6500    0.0000 C   0  0  0  0  0  0           0  0  0
  2  7  2  0     0  0
  3 14  1  0     0  0
  4 11  2  0     0  0
  5  1  2  0     0  0
  6 10  1  0     0  0
  7  3  1  0     0  0
  8  5  1  0     0  0
  9  1  1  0     0  0
 10  3  2  0     0  0
 11  9  1  0     0  0
 12  4  1  0     0  0
 13 20  2  0     0  0
 14 23  1  0     0  0
 15  1  1  0     0  0
 16 13  1  0     0  0
 17 18  2  0     0  0
 18 25  1  0     0  0
 19  8  2  0     0  0
 20 17  1  0     0  0
 21 11  1  0     0  0
 22 15  2  0     0  0
 23 21  2  0     0  0
 24 26  1  0     0  0
 25 22  1  0     0  0
 26 27  2  0     0  0
 27 20  1  0     0  0
 28 15  1  0     0  0
 29 28  2  0     0  0
 30 16  2  0     0  0
 31 29  1  0     0  0
 32 24  2  0     0  0
 33 30  1  0     0  0
 34 32  1  0     0  0
  4  8  1  0     0  0
 31 25  2  0     0  0
 12 14  2  0     0  0
  2  6  1  0     0  0
 16 24  1  0     0  0
 33 34  2  0     0  0
M  END