
  SciTegic11201309402D

 58 62  0  0  0  0            999 V2000
    8.4428  -20.3046    0.0000 C   0  0
    7.7260  -20.7129    0.0000 C   0  0
    7.7213  -21.5334    0.0000 C   0  0
    8.4317  -21.9516    0.0000 C   0  0
    9.1485  -21.5432    0.0000 C   0  0
    9.1549  -20.7165    0.0000 C   0  0
    5.5792  -20.2526    0.0000 C   0  0
    6.3028  -19.8601    0.0000 C   0  0  1  0  0  0
    7.0070  -20.2911    0.0000 C   0  0
    6.9878  -21.1147    0.0000 O   0  0
    5.5558  -21.0763    0.0000 C   0  0
    4.8288  -21.4701    0.0000 C   0  0
    4.8091  -22.2925    0.0000 C   0  0
    5.5141  -22.7249    0.0000 C   0  0
    6.2416  -22.3254    0.0000 C   0  0
    6.2599  -21.5050    0.0000 C   0  0
    5.4924  -23.5486    0.0000 O   0  0
    9.1568  -19.8940    0.0000 C   0  0
    9.8732  -20.3061    0.0000 O   0  0
    9.8732  -18.6556    0.0000 C   0  0  2  0  0  0
    9.8732  -17.8316    0.0000 C   0  0
   10.5853  -19.0676    0.0000 C   0  0
   10.5853  -17.4195    0.0000 O   0  0
   11.3016  -18.6556    0.0000 C   0  0
   11.3016  -17.8316    0.0000 O   0  0
    9.1568  -16.5955    0.0000 C   0  0  2  0  0  0
    5.6180  -18.6030    0.0000 C   0  0
    5.6414  -17.7752    0.0000 C   0  0
    4.8944  -18.9957    0.0000 O   0  0
    8.4207  -16.1678    0.0000 C   0  0
    8.4210  -15.3172    0.0000 O   0  0
    6.9480  -16.1673    0.0000 C   0  0  1  0  0  0
    6.2115  -16.5944    0.0000 C   0  0
    6.2112  -17.4449    0.0000 S   0  0
    6.9483  -15.3166    0.0000 C   0  0
    6.2122  -14.8931    0.0000 O   0  0
    9.8721  -16.1839    0.0000 C   0  0
    9.8732  -15.3587    0.0000 C   0  0
   10.5903  -14.9502    0.0000 C   0  0
    9.1596  -14.1275    0.0000 C   0  0
    9.1616  -14.9505    0.0000 C   0  0
    9.8772  -13.7115    0.0000 C   0  0
   10.5882  -14.1251    0.0000 C   0  0
   11.2997  -13.7162    0.0000 C   0  0
   11.3015  -12.8939    0.0000 C   0  0
   10.5858  -12.4821    0.0000 C   0  0
    9.8771  -12.8934    0.0000 C   0  0
    4.7672  -23.9421    0.0000 P   0  0
    4.0638  -23.5110    0.0000 O   0  0
    4.7455  -24.7671    0.0000 O   0  0
    4.5748  -23.1398    0.0000 O   0  0
    6.3207  -19.0353    0.0000 N   0  0
    7.7255  -19.8428    0.0000 N   0  0
    9.1593  -19.0690    0.0000 N   0  0
    9.1579  -17.4205    0.0000 N   0  0
   12.0148  -19.0191    0.0000 N   0  0
    7.6842  -16.5396    0.0000 N   0  0
    7.6848  -14.8937    0.0000 N   0  0
  8  7  1  6
  8  9  1  0
  9 10  2  0
  7 11  1  0
 11 12  2  0
 12 13  1  0
 13 14  2  0
 14 15  1  0
 15 16  2  0
 16 11  1  0
 14 17  1  0
  1 18  1  0
 18 19  2  0
 20 21  1  0
 20 22  1  6
 21 23  2  0
 22 24  1  0
 24 25  2  0
 27 28  1  0
 27 29  2  0
 26 30  1  0
 30 31  2  0
 32 33  1  0
 33 34  1  0
 32 35  1  1
 35 36  2  0
 28 34  1  0
 26 37  1  6
 37 38  1  0
 38 39  2  0
 39 43  1  0
 42 40  1  0
 40 41  2  0
 41 38  1  0
 42 43  1  0
 43 44  2  0
 44 45  1  0
 45 46  2  0
 46 47  1  0
 47 42  2  0
 17 48  1  0
 48 49  1  0
 48 50  2  0
 48 51  1  0
  1  2  1  0
  1  6  1  0
  2  3  1  0
  3  4  1  0
  4  5  1  0
  5  6  1  0
 21 55  1  0
 55 26  1  0
  9 53  1  0
 53  1  1  0
 24 56  1  0
  8 52  1  0
 52 27  1  0
 30 57  1  0
 57 32  1  0
 18 54  1  0
 54 20  1  0
 35 58  1  0
M  END