
  SciTegic04191613082D

 28 29  0  0  0  0            999 V2000
    0.0031   -3.0008    0.0000 O   0  0
   -2.3383   -1.3500    0.0000 O   0  0
   -2.6003    1.4977    0.0000 O   0  0
    0.0000    2.7000    0.0000 O   0  0
    1.2990   -0.7500    0.0000 O   0  0
    3.6387    0.8963    0.0000 O   0  0
    0.0000   -1.5000    0.0000 C   0  0  1  0  0  0
   -1.2990   -0.7500    0.0000 C   0  0  1  0  0  0
   -1.2990    0.7500    0.0000 C   0  0  2  0  0  0
    0.0000    1.5000    0.0000 C   0  0  2  0  0  0
    1.2990    0.7500    0.0000 C   0  0  1  0  0  0
    2.6003    1.4978    0.0000 C   0  0
    1.0432   -3.5993    0.0000 C   0  0
   -3.8990    0.7455    0.0000 C   0  0
   -5.2003    1.4932    0.0000 C   0  0
   -6.5517    0.8722    0.0000 N   0  0
   -7.5554    1.9869    0.0000 N   0  0
   -6.8054    3.2859    0.0000 N   0  0
   -5.3382    2.9741    0.0000 C   0  0
   -7.4120    4.6559    0.0000 C   0  0  1  0  0  0
   -6.5281    5.8688    0.0000 C   0  0
   -8.9046    4.8123    0.0000 C   0  0
   -7.1357    7.2412    0.0000 C   0  0
   -9.3927    5.9086    0.0000 O   0  0
   -9.6103    3.8417    0.0000 O   0  0
   -6.2518    8.4541    0.0000 C   0  0
   -6.8594    9.8264    0.0000 C   0  0
   -6.1527   10.7962    0.0000 N   0  0
  6 12  1  0
 11  5  1  0
  5  7  1  0
  7  8  1  0
  8  9  1  0
  9 10  1  0
 10 11  1  0
 11 12  1  1
  7  1  1  6
  8  2  1  6
  9  3  1  1
 10  4  1  1
  1 13  1  0
  3 14  1  0
 14 15  1  0
 15 16  1  0
 16 17  2  0
 17 18  1  0
 18 19  1  0
 19 15  2  0
 18 20  1  0
 20 21  1  6
 20 22  1  0
 21 23  1  0
 22 24  1  0
 22 25  2  0
 23 26  1  0
 26 27  1  0
 27 28  1  0
M  END