
  CDK    9/16/09,9:56

 58 60  0  0  0  0  0  0  0  0999 V2000
    3.1552   -2.6874    0.0000 C   0  0  0  0  0  0  0  0  0  0  0  0
    3.7965   -2.0038    0.0000 C   0  0  0  0  0  0  0  0  0  0  0  0
    3.9597   -2.4624    0.0000 C   0  0  0  0  0  0  0  0  0  0  0  0
    4.5078   -2.2664    0.0000 C   0  0  0  0  0  0  0  0  0  0  0  0
    4.7124   -2.7651    0.0000 C   0  0  0  0  0  0  0  0  0  0  0  0
    5.2557   -2.0809    0.0000 C   0  0  0  0  0  0  0  0  0  0  0  0
    3.9570   -1.6140    0.0000 C   0  0  0  0  0  0  0  0  0  0  0  0
    4.5136   -0.9520    0.0000 C   0  0  0  0  0  0  0  0  0  0  0  0
    3.7920   -1.2083    0.0000 C   0  0  0  0  0  0  0  0  0  0  0  0
    5.2615   -1.2620    0.0000 C   0  0  0  0  0  0  0  0  0  0  0  0
    4.5302   -0.1375    0.0000 N   0  0  0  0  0  0  0  0  0  0  0  0
    5.9667   -2.4916    0.0000 C   0  0  0  0  0  0  0  0  0  0  0  0
    6.6812   -2.0793    0.0000 C   0  0  0  0  0  0  0  0  0  0  0  0
    7.3956   -2.4920    0.0000 C   0  0  0  0  0  0  0  0  0  0  0  0
    8.1102   -2.0797    0.0000 N   0  0  0  0  0  0  0  0  0  0  0  0
    3.0792   -1.5875    0.0000 C   0  0  0  0  0  0  0  0  0  0  0  0
    2.3638   -1.9983    0.0000 C   0  0  0  0  0  0  0  0  0  0  0  0
    1.6502   -1.5842    0.0000 C   0  0  0  0  0  0  0  0  0  0  0  0
    1.6521   -0.7592    0.0000 O   0  0  0  0  0  0  0  0  0  0  0  0
    3.9542   -3.2833    0.0000 C   0  0  0  0  0  0  0  0  0  0  0  0
    4.6659   -3.7006    0.0000 C   0  0  0  0  0  0  0  0  0  0  0  0
    4.6603   -4.5256    0.0000 C   0  0  0  0  0  0  0  0  0  0  0  0
    5.3720   -4.9428    0.0000 O   0  0  0  0  0  0  0  0  0  0  0  0
    7.3954   -3.3170    0.0000 O   0  0  0  0  0  0  0  0  0  0  0  0
    8.8245   -2.4924    0.0000 C   0  0  0  0  0  0  0  0  0  0  0  0
    9.5391   -2.0801    0.0000 C   0  0  0  0  0  0  0  0  0  0  0  0
    8.8243   -3.3174    0.0000 C   0  0  0  0  0  0  0  0  0  0  0  0
   10.2535   -2.4928    0.0000 C   0  0  0  0  0  0  0  0  0  0  0  0
   10.9681   -2.0805    0.0000 P   0  0  0  0  0  0  0  0  0  0  0  0
   11.6791   -1.6625    0.0000 C   0  0  0  0  0  0  0  0  0  0  0  0
   11.3833   -2.7934    0.0000 O   0  0  0  0  0  0  0  0  0  0  0  0
   10.5530   -1.3676    0.0000 O   0  0  0  0  0  0  0  0  0  0  0  0
   12.3968   -2.0693    0.0000 C   0  0  0  0  0  0  0  0  0  0  0  0
   13.1080   -1.6512    0.0000 C   0  0  0  0  0  0  0  0  0  0  0  0
   12.4033   -2.8943    0.0000 C   0  0  0  0  0  0  0  0  0  0  0  0
   13.1015   -0.8262    0.0000 C   0  0  0  0  0  0  0  0  0  0  0  0
   13.8127   -0.4081    0.0000 C   0  0  0  0  0  0  0  0  0  0  0  0
   14.5335   -0.8122    0.0000 O   0  0  0  0  0  0  0  0  0  0  0  0
   13.8093    0.4197    0.0000 O   0  0  0  0  0  0  0  0  0  0  0  0
   11.6928   -3.3152    0.0000 O   0  0  0  0  0  0  0  0  0  0  0  0
   13.1217   -3.3039    0.0000 O   0  0  0  0  0  0  0  0  0  0  0  0
    8.1111   -3.7312    0.0000 O   0  0  0  0  0  0  0  0  0  0  0  0
    9.5401   -3.7316    0.0000 O   0  0  0  0  0  0  0  0  0  0  0  0
    3.8242    0.2895    0.0000 C   0  0  0  0  0  0  0  0  0  0  0  0
    3.8411    1.1143    0.0000 C   0  0  0  0  0  0  0  0  0  0  0  0
    3.1015   -0.1084    0.0000 O   0  0  0  0  0  0  0  0  0  0  0  0
    4.5638    1.5122    0.0000 C   0  0  0  0  0  0  0  0  0  0  0  0
    4.5806    2.3370    0.0000 C   0  0  0  0  0  0  0  0  0  0  0  0
    5.3033    2.7348    0.0000 C   0  0  0  0  0  0  0  0  0  0  0  0
    6.0092    2.3079    0.0000 C   0  0  0  0  0  0  0  0  0  0  0  0
    6.7320    2.7057    0.0000 N   0  0  0  0  0  0  0  0  0  0  0  0
    7.4379    2.2788    0.0000 C   0  0  0  0  0  0  0  0  0  0  0  0
    8.1606    2.6766    0.0000 O   0  0  0  0  0  0  0  0  0  0  0  0
    7.4211    1.4539    0.0000 O   0  0  0  0  0  0  0  0  0  0  0  0
    8.8665    2.2496    0.0000 C   0  0  0  0  0  0  0  0  0  0  0  0
    9.5750    1.8375    0.0000 C   0  0  0  0  0  0  0  0  0  0  0  0
    8.4456    1.5401    0.0000 C   0  0  0  0  0  0  0  0  0  0  0  0
    9.2922    2.9563    0.0000 C   0  0  0  0  0  0  0  0  0  0  0  0
 25 27  1  0  0  0  0 
  6 10  1  0  0  0  0 
 26 28  1  0  0  0  0 
 14 15  1  0  0  0  0 
 28 29  1  0  0  0  0 
 10  8  1  0  0  0  0 
 29 30  1  0  0  0  0 
  2 16  1  0  0  0  0 
 29 31  1  0  0  0  0 
  8  9  1  0  0  0  0 
 29 32  2  0  0  0  0 
 16 17  1  0  0  0  0 
 30 33  1  0  0  0  0 
  8 11  1  0  0  0  0 
 33 34  1  0  0  0  0 
 17 18  1  0  0  0  0 
 33 35  1  0  0  0  0 
 34 36  1  0  0  0  0 
 18 19  2  0  0  0  0 
 36 37  1  0  0  0  0 
  1  2  1  0  0  0  0 
  3 20  1  0  0  0  0 
 37 38  1  0  0  0  0 
 37 39  2  0  0  0  0 
 20 21  1  0  0  0  0 
  1  3  1  0  0  0  0 
 35 40  1  0  0  0  0 
 35 41  2  0  0  0  0 
 21 22  1  0  0  0  0 
 22 23  2  0  0  0  0 
 27 42  1  0  0  0  0 
 27 43  2  0  0  0  0 
  2  4  1  0  0  0  0 
 11 44  1  0  0  0  0 
 44 45  1  0  0  0  0 
 14 24  2  0  0  0  0 
 44 46  2  0  0  0  0 
  3  5  1  0  0  0  0 
 45 47  1  0  0  0  0 
  4  6  1  0  0  0  0 
 47 48  1  0  0  0  0 
  5  6  1  0  0  0  0 
 48 49  1  0  0  0  0 
  7  8  1  0  0  0  0 
 49 50  1  0  0  0  0 
  6 12  1  0  0  0  0 
 50 51  1  0  0  0  0 
  3  7  1  0  0  0  0 
 51 52  1  0  0  0  0 
 12 13  1  0  0  0  0 
 52 53  1  0  0  0  0 
 52 54  2  0  0  0  0 
 25 15  1  1  0  0  0 
 53 55  1  0  0  0  0 
  2  9  1  0  0  0  0 
 55 56  1  0  0  0  0 
 25 26  1  0  0  0  0 
 55 57  1  0  0  0  0 
 13 14  1  0  0  0  0 
 55 58  1  0  0  0  0 
M  END