
          11280714542D 1   1.00000     0.00000     0

 31 34  0     1  0            999 V2000
    3.7292   -4.3625    0.0000 O   0  0  0  0  0  0           0  0  0
    3.7292   -6.0167    0.0000 O   0  0  0  0  0  0           0  0  0
    4.4500   -4.7792    0.0000 C   0  0  2  0  0  0           0  0  0
    4.4500   -5.6042    0.0000 C   0  0  1  0  0  0           0  0  0
    3.0167   -4.7792    0.0000 C   0  0  0  0  0  0           0  0  0
    8.7375   -5.6167    0.0000 C   0  0  0  0  0  0           0  0  0
    3.0167   -5.6042    0.0000 C   0  0  0  0  0  0           0  0  0
    9.4417   -6.0375    0.0000 C   0  0  0  0  0  0           0  0  0
    8.7292   -4.8000    0.0000 C   0  0  0  0  0  0           0  0  0
    5.1667   -4.3667    0.0000 C   0  0  3  0  0  0           0  0  0
    8.0167   -6.0292    0.0000 O   0  0  0  0  0  0           0  0  0
    5.1625   -6.0167    0.0000 C   0  0  0  0  0  0           0  0  0
    5.8792   -5.6125    0.0000 N   0  0  0  0  0  0           0  0  0
    9.4417   -6.8625    0.0000 O   0  0  0  0  0  0           0  0  0
    8.0167   -4.3792    0.0000 O   0  0  0  0  0  0           0  0  0
   10.1667   -4.8042    0.0000 C   0  0  0  0  0  0           0  0  0
    2.3042   -4.3667    0.0000 C   0  0  0  0  0  0           0  0  0
    2.3042   -6.0167    0.0000 C   0  0  0  0  0  0           0  0  0
   10.1625   -5.6292    0.0000 C   0  0  0  0  0  0           0  0  0
    9.4417   -4.3792    0.0000 C   0  0  0  0  0  0           0  0  0
    6.5917   -6.0250    0.0000 C   0  0  0  0  0  0           0  0  0
    5.8792   -4.7875    0.0000 C   0  0  0  0  0  0           0  0  0
    5.1667   -3.5417    0.0000 C   0  0  0  0  0  0           0  0  0
    7.3042   -5.6167    0.0000 C   0  0  0  0  0  0           0  0  0
   10.1542   -7.2792    0.0000 C   0  0  0  0  0  0           0  0  0
    8.0167   -3.5625    0.0000 C   0  0  0  0  0  0           0  0  0
    1.5917   -4.7792    0.0000 C   0  0  0  0  0  0           0  0  0
    1.5917   -5.6042    0.0000 C   0  0  0  0  0  0           0  0  0
    5.8792   -3.1375    0.0000 C   0  0  0  0  0  0           0  0  0
    6.5917   -4.3792    0.0000 C   0  0  0  0  0  0           0  0  0
    6.6000   -3.5542    0.0000 C   0  0  0  0  0  0           0  0  0
  2  7  1  0     0  0
  3  1  1  0     0  0
  4  3  1  0     0  0
  5  1  1  0     0  0
  6 11  1  0     0  0
  7  5  1  0     0  0
  8  6  2  0     0  0
  9  6  1  0     0  0
  3 10  1  1     0  0
 11 24  1  0     0  0
  4 12  1  1     0  0
 13 12  1  0     0  0
 14  8  1  0     0  0
 15  9  1  0     0  0
 16 20  1  0     0  0
 17  5  2  0     0  0
 18  7  2  0     0  0
 19  8  1  0     0  0
 20  9  2  0     0  0
 21 13  1  0     0  0
 22 10  1  0     0  0
 23 10  1  0     0  0
 24 21  1  0     0  0
 25 14  1  0     0  0
 26 15  1  0     0  0
 27 17  1  0     0  0
 28 27  2  0     0  0
 29 23  1  0     0  0
 30 22  1  0     0  0
 31 29  1  0     0  0
  4  2  1  0     0  0
 18 28  1  0     0  0
 30 31  1  0     0  0
 19 16  2  0     0  0
M  END