
          11280714462D 1   1.00000     0.00000     0

 29 32  0     0  0            999 V2000
   -0.5500    1.1083    0.0000 C   0  0  0  0  0  0           0  0  0
    0.5292    1.8958    0.0000 C   0  0  0  0  0  0           0  0  0
    0.2750    1.1083    0.0000 N   0  0  0  0  0  0           0  0  0
   -0.8083    1.8958    0.0000 N   0  0  3  0  0  0           0  0  0
   -1.0375    0.4375    0.0000 C   0  0  0  0  0  0           0  0  0
   -0.1375    2.3750    0.0000 C   0  0  0  0  0  0           0  0  0
    1.3167    2.1458    0.0000 C   0  0  0  0  0  0           0  0  0
   -0.7083   -0.3042    0.0000 C   0  0  0  0  0  0           0  0  0
    1.9250    1.5958    0.0000 N   0  0  0  0  0  0           0  0  0
   -1.5875    2.1458    0.0000 C   0  0  0  0  0  0           0  0  0
    2.7125    1.8458    0.0000 N   0  0  3  0  0  0           0  0  0
   -1.8583    0.5333    0.0000 C   0  0  0  0  0  0           0  0  0
   -1.1833   -0.9750    0.0000 C   0  0  0  0  0  0           0  0  0
    1.4875    2.9583    0.0000 O   0  0  0  0  0  0           0  0  0
   -2.1958    1.5958    0.0000 C   0  0  0  0  0  0           0  0  0
   -1.7583    2.9583    0.0000 C   0  0  0  0  0  0           0  0  0
   -2.0083   -0.8917    0.0000 C   0  0  0  0  0  0           0  0  0
    0.1167   -0.3042    0.0000 Cl  0  0  0  0  0  0           0  0  0
   -2.3458   -0.1292    0.0000 C   0  0  0  0  0  0           0  0  0
   -3.1583    2.6583    0.0000 C   0  0  0  0  0  0           0  0  0
   -2.9833    1.8458    0.0000 C   0  0  0  0  0  0           0  0  0
   -2.5458    3.2083    0.0000 C   0  0  0  0  0  0           0  0  0
   -2.4250   -1.6042    0.0000 Cl  0  0  0  0  0  0           0  0  0
   -3.9583    2.8750    0.0000 Cl  0  0  0  0  0  0           0  0  0
    3.3250    1.2875    0.0000 C   0  0  0  0  0  0           0  0  0
    2.8792    2.6500    0.0000 C   0  0  0  0  0  0           0  0  0
    3.6667    2.9000    0.0000 C   0  0  0  0  0  0           0  0  0
    4.1042    1.5375    0.0000 C   0  0  0  0  0  0           0  0  0
    4.2792    2.3458    0.0000 C   0  0  0  0  0  0           0  0  0
  2  3  1  0     0  0
  3  1  2  0     0  0
  4  1  1  0     0  0
  5  1  1  0     0  0
  6  4  1  0     0  0
  7  2  1  0     0  0
  8  5  1  0     0  0
  9  7  1  0     0  0
 10  4  1  0     0  0
 11  9  1  0     0  0
 12  5  2  0     0  0
 13  8  2  0     0  0
 14  7  2  0     0  0
 15 10  1  0     0  0
 16 10  2  0     0  0
 17 19  2  0     0  0
 18  8  1  0     0  0
 19 12  1  0     0  0
 20 22  2  0     0  0
 21 15  2  0     0  0
 22 16  1  0     0  0
 23 17  1  0     0  0
 24 20  1  0     0  0
 25 11  1  0     0  0
 26 11  1  0     0  0
 27 26  1  0     0  0
 28 25  1  0     0  0
 29 27  1  0     0  0
  6  2  2  0     0  0
 17 13  1  0     0  0
 21 20  1  0     0  0
 29 28  1  0     0  0
M  END