
          11280715222D 1   1.00000     0.00000     0

 27 29  0     1  0            999 V2000
    1.1125   -3.6917    0.0000 N   0  0  3  0  0  0           0  0  0
    2.3542   -4.4000    0.0000 C   0  0  2  0  0  0           0  0  0
    2.9417   -4.9792    0.0000 C   0  0  0  0  0  0           0  0  0
    2.3500   -2.9750    0.0000 C   0  0  1  0  0  0           0  0  0
    1.5292   -4.4000    0.0000 C   0  0  0  0  0  0           0  0  0
    1.5292   -2.9792    0.0000 C   0  0  0  0  0  0           0  0  0
    6.4792   -1.8417    0.0000 C   0  0  0  0  0  0           0  0  0
    2.7292   -5.7750    0.0000 C   0  0  0  0  0  0           0  0  0
    0.2875   -3.7042    0.0000 C   0  0  0  0  0  0           0  0  0
    6.2292   -0.9417    0.0000 O   0  0  0  0  0  0           0  0  0
    3.6417   -3.0167    0.0000 C   0  0  0  0  0  0           0  0  0
    4.5875   -3.0167    0.0000 C   0  0  0  0  0  0           0  0  0
    7.3792   -2.0667    0.0000 O   0  0  0  0  0  0           0  0  0
    1.9375   -5.9917    0.0000 O   0  0  0  0  0  0           0  0  0
    3.0542   -2.5750    0.0000 C   0  0  0  0  0  0           0  0  0
   -0.1333   -2.9917    0.0000 C   0  0  0  0  0  0           0  0  0
    3.7292   -4.7542    0.0000 C   0  0  0  0  0  0           0  0  0
    5.8375   -2.5042    0.0000 C   0  0  0  0  0  0           0  0  0
    5.0292   -2.5167    0.0000 C   0  0  0  0  0  0           0  0  0
    3.3167   -6.3542    0.0000 C   0  0  0  0  0  0           0  0  0
    0.2792   -2.2750    0.0000 C   0  0  0  0  0  0           0  0  0
   -0.9583   -3.0000    0.0000 C   0  0  0  0  0  0           0  0  0
    4.3250   -5.3375    0.0000 C   0  0  0  0  0  0           0  0  0
    4.1125   -6.1375    0.0000 C   0  0  0  0  0  0           0  0  0
   -1.3708   -2.2917    0.0000 C   0  0  0  0  0  0           0  0  0
   -0.1375   -1.5667    0.0000 C   0  0  0  0  0  0           0  0  0
   -0.9625   -1.5667    0.0000 C   0  0  0  0  0  0           0  0  0
  2  5  1  0     0  0
  2  3  1  1     0  0
  4  6  1  0     0  0
  5  1  1  0     0  0
  6  1  1  0     0  0
  7 18  1  0     0  0
  8  3  2  0     0  0
  9  1  1  0     0  0
 10  7  2  0     0  0
 11 15  1  0     0  0
 12 11  2  0     0  0
 13  7  1  0     0  0
 14  8  1  0     0  0
  4 15  1  1     0  0
 16  9  1  0     0  0
 17  3  1  0     0  0
 18 19  1  0     0  0
 19 12  1  0     0  0
 20  8  1  0     0  0
 21 16  2  0     0  0
 22 16  1  0     0  0
 23 17  2  0     0  0
 24 23  1  0     0  0
 25 22  2  0     0  0
 26 21  1  0     0  0
 27 25  1  0     0  0
  2  4  1  0     0  0
 26 27  2  0     0  0
 20 24  2  0     0  0
M  END