
          11280715222D 1   1.00000     0.00000     0

 29 32  0     0  0            999 V2000
    3.1000   -0.1292    0.0000 N   0  0  3  0  0  0           0  0  0
    3.3542    0.6583    0.0000 C   0  0  0  0  0  0           0  0  0
    2.0250    0.6583    0.0000 C   0  0  0  0  0  0           0  0  0
    2.2750   -0.1292    0.0000 C   0  0  0  0  0  0           0  0  0
    2.6875    1.1458    0.0000 S   0  0  0  0  0  0           0  0  0
    1.2417    0.9125    0.0000 C   0  0  0  0  0  0           0  0  0
   -0.5875   -0.1792    0.0000 C   0  0  0  0  0  0           0  0  0
   -0.1750    0.5333    0.0000 O   0  0  0  0  0  0           0  0  0
    0.6250    0.3583    0.0000 C   0  0  0  0  0  0           0  0  0
   -0.0333   -0.7917    0.0000 C   0  0  0  0  0  0           0  0  0
    3.5792   -0.7917    0.0000 C   0  0  0  0  0  0           0  0  0
   -3.1958    0.9833    0.0000 C   0  0  0  0  0  0           0  0  0
    4.1417    0.9125    0.0000 N   0  0  0  0  0  0           0  0  0
   -1.4083   -0.2667    0.0000 C   0  0  0  0  0  0           0  0  0
    0.7167   -0.4542    0.0000 C   0  0  0  0  0  0           0  0  0
   -2.7083    0.3125    0.0000 C   0  0  0  0  0  0           0  0  0
   -1.8958    0.3958    0.0000 C   0  0  0  0  0  0           0  0  0
    1.7917   -0.7917    0.0000 O   0  0  0  0  0  0           0  0  0
   -4.0208    0.8958    0.0000 O   0  0  0  0  0  0           0  0  0
    3.2417   -1.5417    0.0000 C   0  0  0  0  0  0           0  0  0
    4.4000   -0.7042    0.0000 C   0  0  0  0  0  0           0  0  0
   -2.8583    1.7333    0.0000 O   0  0  0  0  0  0           0  0  0
    4.5500   -2.1292    0.0000 C   0  0  0  0  0  0           0  0  0
    3.7292   -2.2125    0.0000 C   0  0  0  0  0  0           0  0  0
    4.8875   -1.3667    0.0000 C   0  0  0  0  0  0           0  0  0
    5.0375   -2.7917    0.0000 F   0  0  0  0  0  0           0  0  0
   -1.7375   -1.0250    0.0000 C   0  0  0  0  0  0           0  0  0
   -3.0458   -0.4417    0.0000 C   0  0  0  0  0  0           0  0  0
   -2.5583   -1.1125    0.0000 C   0  0  0  0  0  0           0  0  0
  2  1  1  0     0  0
  3  4  1  0     0  0
  4  1  1  0     0  0
  5  2  1  0     0  0
  6  3  2  0     0  0
  7  8  1  0     0  0
  8  9  1  0     0  0
  9  6  1  0     0  0
 10 15  1  0     0  0
 11  1  1  0     0  0
 12 16  1  0     0  0
 13  2  2  0     0  0
 14  7  1  0     0  0
 15  9  2  0     0  0
 16 17  1  0     0  0
 17 14  2  0     0  0
 18  4  2  0     0  0
 19 12  2  0     0  0
 20 11  2  0     0  0
 21 11  1  0     0  0
 22 12  1  0     0  0
 23 25  1  0     0  0
 24 20  1  0     0  0
 25 21  2  0     0  0
 26 23  1  0     0  0
 27 14  1  0     0  0
 28 29  1  0     0  0
 29 27  2  0     0  0
  3  5  1  0     0  0
 23 24  2  0     0  0
 10  7  2  0     0  0
 28 16  2  0     0  0
M  END