
  SciTegic04021211102D

 18 20  0  0  0  0            999 V2000
   20.7902   -0.2791    0.0000 N   0  0
   20.7891   -1.1065    0.0000 C   0  0
   21.5039   -1.5194    0.0000 N   0  0
   21.5021    0.1336    0.0000 C   0  0
   22.2175   -0.2755    0.0000 C   0  0
   22.2177   -1.1019    0.0000 C   0  0
   23.0038   -1.3571    0.0000 N   0  0
   23.4895   -0.6883    0.0000 C   0  0
   23.0034   -0.0199    0.0000 N   0  0
   21.4996    0.9586    0.0000 N   0  0
   22.2129    1.3733    0.0000 C   0  0
   22.9264    0.9605    0.0000 C   0  0
   23.6392    1.3744    0.0000 C   0  0
   23.6372    2.2003    0.0000 C   0  0
   22.9164    2.6105    0.0000 C   0  0
   22.2066    2.1942    0.0000 C   0  0
   20.0743   -1.5184    0.0000 N   0  0
   22.9111    3.4355    0.0000 F   0  0
  8  9  2  0
  9  5  1  0
  4  1  1  0
  4 10  1  0
  5  6  1  0
 10 11  1  0
 11 12  2  0
  2  3  1  0
 12 13  1  0
  3  6  2  0
 13 14  2  0
  1  2  2  0
 14 15  1  0
  5  4  2  0
 15 16  2  0
 16 11  1  0
  6  7  1  0
  2 17  1  0
  7  8  1  0
 15 18  1  0
M  END