
  CDK    9/16/09,9:54

 23 26  0  0  0  0  0  0  0  0999 V2000
   -4.0303  -13.5322    0.0000 N   0  0  0  0  0  0  0  0  0  0  0  0
   -4.0315  -14.3595    0.0000 C   0  0  0  0  0  0  0  0  0  0  0  0
   -3.3166  -14.7723    0.0000 N   0  0  0  0  0  0  0  0  0  0  0  0
   -3.3184  -13.1194    0.0000 C   0  0  0  0  0  0  0  0  0  0  0  0
   -2.6032  -13.5286    0.0000 C   0  0  0  0  0  0  0  0  0  0  0  0
   -2.5983  -14.3595    0.0000 C   0  0  0  0  0  0  0  0  0  0  0  0
   -1.8065  -14.6117    0.0000 N   0  0  0  0  0  0  0  0  0  0  0  0
   -1.3219  -13.9365    0.0000 C   0  0  0  0  0  0  0  0  0  0  0  0
   -1.8143  -13.2672    0.0000 C   0  0  0  0  0  0  0  0  0  0  0  0
   -3.3209  -12.2945    0.0000 N   0  0  0  0  0  0  0  0  0  0  0  0
   -1.5470  -15.3947    0.0000 C   0  0  0  0  0  0  0  0  0  0  0  0
   -1.5641  -12.4812    0.0000 C   0  0  0  0  0  0  0  0  0  0  0  0
   -0.7589  -12.3105    0.0000 C   0  0  0  0  0  0  0  0  0  0  0  0
   -0.5086  -11.5252    0.0000 C   0  0  0  0  0  0  0  0  0  0  0  0
   -1.0644  -10.9145    0.0000 C   0  0  0  0  0  0  0  0  0  0  0  0
   -1.8738  -11.0943    0.0000 C   0  0  0  0  0  0  0  0  0  0  0  0
   -2.1205  -11.8792    0.0000 C   0  0  0  0  0  0  0  0  0  0  0  0
    0.2975  -11.3494    0.0000 O   0  0  0  0  0  0  0  0  0  0  0  0
   -2.0997  -16.0082    0.0000 C   0  0  0  0  0  0  0  0  0  0  0  0
   -1.8432  -16.7884    0.0000 C   0  0  0  0  0  0  0  0  0  0  0  0
   -1.0359  -16.9594    0.0000 N   0  0  0  0  0  0  0  0  0  0  0  0
   -0.4854  -16.3437    0.0000 C   0  0  0  0  0  0  0  0  0  0  0  0
   -0.7422  -15.5571    0.0000 C   0  0  0  0  0  0  0  0  0  0  0  0
  7 11  1  0  0  0  0 
  9 12  1  0  0  0  0 
  2  3  1  0  0  0  0 
 12 13  2  0  0  0  0 
  3  6  2  0  0  0  0 
 13 14  1  0  0  0  0 
  1  2  2  0  0  0  0 
 14 15  2  0  0  0  0 
  5  4  2  0  0  0  0 
 15 16  1  0  0  0  0 
  6  7  1  0  0  0  0 
 16 17  2  0  0  0  0 
 17 12  1  0  0  0  0 
  7  8  1  0  0  0  0 
 14 18  1  0  0  0  0 
 11 19  1  0  0  0  0 
  8  9  2  0  0  0  0 
  9  5  1  0  0  0  0 
  4  1  1  0  0  0  0 
  4 10  1  0  0  0  0 
  5  6  1  0  0  0  0 
 11 23  1  0  0  0  0 
 19 20  1  0  0  0  0 
 20 21  1  0  0  0  0 
 21 22  1  0  0  0  0 
 22 23  1  0  0  0  0 
M  END