
  SciTegic05061116452D

 34 38  0  0  0  0            999 V2000
   -2.9036  -11.7644    0.0000 N   0  0
   -2.1919  -11.3558    0.0000 C   0  0
   -2.1919  -10.5308    0.0000 N   0  0
   -2.9036  -10.1144    0.0000 C   0  0
   -3.6153  -11.3558    0.0000 C   0  0
   -3.6153  -10.5262    0.0000 C   0  0
   -4.4043  -10.2698    0.0000 N   0  0
   -4.8920  -10.9410    0.0000 C   0  0
   -4.4044  -11.6121    0.0000 N   0  0
   -4.6593  -12.3968    0.0000 C   0  0
   -5.4663  -12.5682    0.0000 C   0  0
   -5.7279  -13.3529    0.0000 O   0  0
   -6.0224  -11.9552    0.0000 O   0  0
   -2.9017   -9.2894    0.0000 N   0  0
   -1.4779  -11.7692    0.0000 N   0  0
   -0.7629  -11.3576    0.0000 C   0  0
   -0.0489  -11.7710    0.0000 C   0  0
   -2.1862   -8.8786    0.0000 C   0  0
   -0.0545  -12.5943    0.0000 C   0  0
    0.6587  -13.0076    0.0000 C   0  0
    1.3747  -12.5959    0.0000 C   0  0
    1.3730  -11.7666    0.0000 C   0  0
    0.6593  -11.3570    0.0000 C   0  0
    2.0853  -13.0054    0.0000 C   0  0
    2.0835  -13.8315    0.0000 C   0  0
    2.7940  -14.2438    0.0000 C   0  0
    3.5108  -13.8347    0.0000 C   0  0
    3.5127  -13.0087    0.0000 C   0  0
    2.7977  -12.5919    0.0000 C   0  0
   -1.4728   -9.2910    0.0000 C   0  0
   -0.7594   -8.8837    0.0000 C   0  0
   -0.7533   -8.0583    0.0000 C   0  0
   -1.4666   -7.6419    0.0000 C   0  0
   -2.1862   -8.0509    0.0000 C   0  0
  6  7  1  0
 16 17  1  0
  7  8  2  0
 14 18  1  0
  8  9  1  0
 17 19  2  0
  9  5  1  0
 19 20  1  0
  3  4  2  0
 20 21  2  0
  9 10  1  0
 21 22  1  0
  5  6  2  0
 22 23  2  0
 23 17  1  0
 24 25  1  0
 10 11  1  0
 11 12  1  0
  6  4  1  0
 11 13  2  0
  5  1  1  0
 24 29  1  0
 25 26  1  0
 26 27  1  0
 27 28  1  0
 28 29  1  0
 21 24  1  0
 18 30  1  0
  4 14  1  0
  1  2  2  0
  2 15  1  0
  2  3  1  0
 15 16  1  0
 18 34  1  0
 30 31  1  0
 31 32  1  0
 32 33  1  0
 33 34  1  0
M  END