


  9  9  0     0  0  0  0  0  0999 V2000
    2.1480   -0.8250    0.0000 N   0  0  0  0  0  0  0  0  0  0  0  0
    0.7160    0.0000    0.0000 N   0  0  0  0  0  0  0  0  0  0  0  0
    1.4320   -1.2437    0.0000 C   0  0  0  0  0  0  0  0  0  0  0  0
    0.7160   -0.8250    0.0000 C   0  0  0  0  0  0  0  0  0  0  0  0
    1.4320   -2.0687    0.0000 C   0  0  0  0  0  0  0  0  0  0  0  0
    0.0000   -1.2437    0.0000 C   0  0  0  0  0  0  0  0  0  0  0  0
    0.7160   -2.4775    0.0000 C   0  0  0  0  0  0  0  0  0  0  0  0
    0.0000   -2.0687    0.0000 C   0  0  0  0  0  0  0  0  0  0  0  0
    2.1480   -2.4775    0.0000 C   0  0  0  0  0  0  0  0  0  0  0  0
  1  3  1  0  0  0  0
  2  4  1  0  0  0  0
  3  4  1  0  0  0  0
  3  5  2  0  0  0  0
  4  6  2  0  0  0  0
  5  7  1  0  0  0  0
  5  9  1  0  0  0  0
  6  8  1  0  0  0  0
  7  8  2  0  0  0  0
M  END