
  SciTegic05171617292D

 20 22  0  0  0  0            999 V2000
    2.0907   -2.3426    0.0000 C   0  0
    1.7138   -1.2033    0.0000 N   0  0
    2.5889    0.0182    0.0000 N   0  0
    4.0896    0.0290    0.0000 C   0  0
    4.9234    1.2700    0.0000 C   0  0
    6.4199    1.1671    0.0000 C   0  0
    7.0791   -0.1803    0.0000 N   0  0
    6.2418   -1.4248    0.0000 C   0  0
    4.7453   -1.3220    0.0000 C   0  0
    1.7138    1.2033    0.0000 C   0  0
    2.0825    2.3453    0.0000 O   0  0
    0.2917    0.7475    0.0000 C   0  0
   -1.0028    1.5132    0.0000 C   0  0
   -2.3155    0.7475    0.0000 C   0  0
   -2.3155   -0.7475    0.0000 C   0  0
   -1.0028   -1.5132    0.0000 C   0  0
    0.2917   -0.7475    0.0000 C   0  0
   -0.9971    3.0138    0.0000 C   0  0
    0.0446    3.6095    0.0000 N   0  0
   -2.0337    3.6184    0.0000 O   0  0
  1  2  1  0
  2  3  1  0
  3  4  1  0
  4  5  1  0
  5  6  1  0
  6  7  1  0
  7  8  1  0
  8  9  1  0
  4  9  1  0
  3 10  1  0
 10 11  2  0
 10 12  1  0
 12 13  2  0
 13 14  1  0
 14 15  2  0
 15 16  1  0
 16 17  2  0
  2 17  1  0
 12 17  1  0
 13 18  1  0
 18 19  1  0
 18 20  2  0
M  END