
  SciTegic01181116592D

 19 21  0  0  0  0            999 V2000
   -5.4143    1.8321    0.0000 C   0  0
   -5.4155    1.0053    0.0000 C   0  0
   -4.7011    0.5927    0.0000 C   0  0
   -4.7029    2.2445    0.0000 C   0  0
   -3.9881    1.8357    0.0000 C   0  0
   -3.9873    1.0095    0.0000 C   0  0
   -3.2725    0.5988    0.0000 N   0  0
   -2.5580    1.0133    0.0000 C   0  0
   -2.5627    1.8426    0.0000 C   0  0
   -3.2781    2.2496    0.0000 N   0  0
   -1.8513    2.2592    0.0000 C   0  0
   -1.1348    1.8513    0.0000 N   0  0
   -1.8563    3.0837    0.0000 O   0  0
   -0.4234    2.2679    0.0000 C   0  0
    0.2944    1.8545    0.0000 C   0  0
    1.0054    2.2704    0.0000 C   0  0
    1.0008    3.0958    0.0000 C   0  0
    0.2793    3.5034    0.0000 C   0  0
   -0.4287    3.0852    0.0000 C   0  0
  4  1  1  0
  9 10  2  0
 10  5  1  0
  9 11  1  0
  2  3  1  0
 11 12  1  0
  5  6  1  0
 11 13  2  0
  3  6  2  0
 12 14  1  0
  6  7  1  0
 14 15  2  0
  1  2  2  0
 15 16  1  0
  7  8  2  0
 16 17  2  0
  5  4  2  0
 17 18  1  0
  8  9  1  0
 18 19  2  0
 19 14  1  0
M  END