
  SciTegic01231714202D

 28 27  0  0  0  0            999 V2000
    1.2990   -0.7500    0.0000 C   0  0
    1.2990    0.7500    0.0000 C   0  0
    0.0000    1.5000    0.0000 N   0  3
   -1.2990    0.7500    0.0000 C   0  0
   -1.2990   -0.7500    0.0000 C   0  0
    0.0000   -1.5000    0.0000 C   0  0
    2.5973   -1.5031    0.0000 N   0  0
    2.5951   -3.0039    0.0000 C   0  0
    1.5548   -3.6021    0.0000 O   0  0
    3.8933   -3.7570    0.0000 C   0  0
    3.8912   -5.2578    0.0000 N   0  0
    2.8515   -5.8570    0.0000 O   0  0
   -0.0031    3.0008    0.0000 C   0  0
   -1.3039    3.7494    0.0000 C   0  0
   -1.3070    5.2502    0.0000 C   0  0
   -2.6078    5.9988    0.0000 C   0  0
   -2.6109    7.4996    0.0000 C   0  0
   -3.9118    8.2481    0.0000 N   0  3
   -3.9171    9.7482    0.0000 C   0  0
   -5.2187   10.4937    0.0000 C   0  0
   -6.5151    9.7392    0.0000 C   0  0
   -6.5099    8.2392    0.0000 C   0  0
   -5.2083    7.4937    0.0000 C   0  0
   -7.8190   10.4824    0.0000 C   0  0
   -8.8553    9.8773    0.0000 O   0  0
   -7.8252   11.6824    0.0000 N   0  0
   10.1894    2.9861    0.0000 Br  0  5
    7.6894    2.9861    0.0000 Br  0  5
  1  2  2  0
  2  3  1  0
  3  4  2  0
  4  5  1  0
  5  6  2  0
  6  1  1  0
  1  7  1  0
  7  8  1  0
  8  9  2  0
  8 10  1  0
 10 11  2  0
 11 12  1  0
  3 13  1  0
 13 14  1  0
 14 15  1  0
 15 16  1  0
 16 17  1  0
 17 18  1  0
 18 19  2  0
 19 20  1  0
 20 21  2  0
 21 22  1  0
 22 23  2  0
 23 18  1  0
 21 24  1  0
 24 25  2  0
 24 26  1  0
M  CHG  4   3   1  18   1  27  -1  28  -1
M  END