
          11280715252D 1   1.00000     0.00000     0

 19 21  0     0  0            999 V2000
    7.5500   -2.6000    0.0000 C   0  0  3  0  0  0           0  0  0
    8.2625   -3.0125    0.0000 C   0  0  3  0  0  0           0  0  0
    7.5500   -1.7750    0.0000 C   0  0  3  0  0  0           0  0  0
    6.1167   -2.5917    0.0000 C   0  0  0  0  0  0           0  0  0
    1.7917   -2.6542    0.0000 N   0  0  0  0  0  0           0  0  0
    6.8292   -3.0042    0.0000 N   0  0  0  0  0  0           0  0  0
    7.1375   -1.0625    0.0000 C   0  0  0  0  0  0           0  0  0
    8.6750   -3.7250    0.0000 C   0  0  0  0  0  0           0  0  0
    9.0917   -3.0125    0.0000 C   0  0  0  0  0  0           0  0  0
    7.9625   -1.0625    0.0000 C   0  0  0  0  0  0           0  0  0
    1.6542   -3.9750    0.0000 N   0  0  0  0  0  0           0  0  0
    1.2417   -3.2625    0.0000 C   0  0  0  0  0  0           0  0  0
    2.5417   -2.9917    0.0000 C   0  0  0  0  0  0           0  0  0
    2.4542   -3.8125    0.0000 C   0  0  0  0  0  0           0  0  0
    6.1167   -1.7667    0.0000 O   0  0  0  0  0  0           0  0  0
    5.4042   -3.0000    0.0000 O   0  0  0  0  0  0           0  0  0
    3.2625   -2.5875    0.0000 C   0  0  0  0  0  0           0  0  0
    4.6917   -2.5875    0.0000 C   0  0  0  0  0  0           0  0  0
    3.9750   -3.0000    0.0000 C   0  0  0  0  0  0           0  0  0
  2  1  1  0     0  0
  3  1  1  0     0  0
  4  6  1  0     0  0
  5 13  1  0     0  0
  6  1  1  0     0  0
  7  3  1  0     0  0
  8  2  1  0     0  0
  9  2  1  0     0  0
 10  3  1  0     0  0
 11 14  1  0     0  0
 12  5  2  0     0  0
 13 17  1  0     0  0
 14 13  2  0     0  0
 15  4  2  0     0  0
 16  4  1  0     0  0
 17 19  1  0     0  0
 18 16  1  0     0  0
 19 18  1  0     0  0
 10  7  1  0     0  0
  8  9  1  0     0  0
 11 12  1  0     0  0
M  END