
          11280715092D 1   1.00000     0.00000     0

 37 40  0     1  0            999 V2000
    6.1542   -2.3375    0.0000 S   0  0  3  0  0  0           0  0  0
    2.2042   -1.1667    0.0000 C   0  0  0  0  0  0           0  0  0
    1.8500   -1.6542    0.0000 N   0  0  3  0  0  0           0  0  0
    2.7750   -1.3542    0.0000 C   0  0  0  0  0  0           0  0  0
    6.3125   -1.7542    0.0000 N   0  0  0  0  0  0           0  0  0
    5.8917   -1.3375    0.0000 C   0  0  2  0  0  0           0  0  0
    5.9792   -2.9042    0.0000 C   0  0  0  0  0  0           0  0  0
    2.7750   -1.9542    0.0000 C   0  0  0  0  0  0           0  0  0
    3.2917   -1.0500    0.0000 C   0  0  0  0  0  0           0  0  0
    4.3292   -1.0417    0.0000 C   0  0  0  0  0  0           0  0  0
    2.2042   -2.1375    0.0000 C   0  0  0  0  0  0           0  0  0
    6.4042   -1.0375    0.0000 C   0  0  0  0  0  0           0  0  0
    3.8125   -1.3500    0.0000 C   0  0  0  0  0  0           0  0  0
    4.8500   -1.3417    0.0000 N   0  0  0  0  0  0           0  0  0
    5.5542   -2.3375    0.0000 O   0  0  0  0  0  0           0  0  0
    6.7375   -2.4917    0.0000 O   0  0  0  0  0  0           0  0  0
    2.0167   -0.5917    0.0000 O   0  0  0  0  0  0           0  0  0
    5.3667   -1.0417    0.0000 C   0  0  0  0  0  0           0  0  0
    1.2500   -1.6500    0.0000 C   0  0  0  0  0  0           0  0  0
   -0.8583   -2.1417    0.0000 N   0  0  0  0  0  0           0  0  0
    3.2917   -2.2542    0.0000 C   0  0  0  0  0  0           0  0  0
    4.3250   -0.4417    0.0000 O   0  0  0  0  0  0           0  0  0
    6.4042   -0.4375    0.0000 O   0  0  0  0  0  0           0  0  0
    5.2250   -3.6167    0.0000 N   0  0  0  0  0  0           0  0  0
    3.8125   -1.9542    0.0000 C   0  0  0  0  0  0           0  0  0
    6.9292   -1.3292    0.0000 O   0  0  0  0  0  0           0  0  0
    5.4000   -3.0417    0.0000 C   0  0  0  0  0  0           0  0  0
    0.9417   -2.1667    0.0000 C   0  0  0  0  0  0           0  0  0
    6.3917   -3.3417    0.0000 C   0  0  0  0  0  0           0  0  0
    0.3417   -2.1625    0.0000 C   0  0  3  0  0  0           0  0  0
   -0.5500   -1.6292    0.0000 C   0  0  0  0  0  0           0  0  0
   -0.5583   -2.6667    0.0000 C   0  0  0  0  0  0           0  0  0
    5.6292   -4.0542    0.0000 C   0  0  0  0  0  0           0  0  0
    0.0417   -2.6792    0.0000 C   0  0  0  0  0  0           0  0  0
    0.0500   -1.6375    0.0000 C   0  0  0  0  0  0           0  0  0
    6.2167   -3.9167    0.0000 C   0  0  0  0  0  0           0  0  0
    5.5875   -1.8542    0.0000 H   0  0  0  0  0  0           0  0  0
  2  4  1  0     0  0
  3  2  1  0     0  0
  4  9  1  0     0  0
  5  1  1  0     0  0
  6  5  1  1     0  0
  7  1  1  0     0  0
  8 21  1  0     0  0
  9 13  2  0     0  0
 10 14  1  0     0  0
 11  8  1  0     0  0
 12  6  1  0     0  0
 13 10  1  0     0  0
 14 18  1  0     0  0
 15  1  2  0     0  0
 16  1  2  0     0  0
 17  2  2  0     0  0
 18  6  1  0     0  0
 19  3  1  0     0  0
 20 31  1  0     0  0
 21 25  2  0     0  0
 22 10  2  0     0  0
 23 12  2  0     0  0
 24 27  1  0     0  0
 25 13  1  0     0  0
 26 12  1  0     0  0
 27  7  2  0     0  0
 28 19  1  0     0  0
 29  7  1  0     0  0
 30 28  1  0     0  0
 31 35  1  0     0  0
 32 34  1  0     0  0
 33 36  1  0     0  0
 34 30  1  0     0  0
 35 30  1  0     0  0
 36 29  2  0     0  0
  6 37  1  6     0  0
 24 33  2  0     0  0
  4  8  2  0     0  0
  3 11  1  0     0  0
 32 20  1  0     0  0
M  END