
  CDK    12/20/10,15:21

 31 34  0  0  0  0  0  0  0  0999 V2000
   14.4011   -3.6097    0.0000 C   0  0  0  0  0  0  0  0  0  0  0  0
   14.9851   -3.2636    0.0000 C   0  0  0  0  0  0  0  0  0  0  0  0
   15.6810   -3.2008    0.0000 C   0  0  0  0  0  0  0  0  0  0  0  0
   15.1095   -3.6120    0.0000 C   0  0  0  0  0  0  0  0  0  0  0  0
   15.8497   -2.4608    0.0000 C   0  0  0  0  0  0  0  0  0  0  0  0
   16.0878   -3.9199    0.0000 C   0  0  0  0  0  0  0  0  0  0  0  0
   15.5745   -4.2720    0.0000 C   0  0  0  0  0  0  0  0  0  0  0  0
   14.6049   -4.2224    0.0000 C   0  0  0  0  0  0  0  0  0  0  0  0
   16.4219   -2.8275    0.0000 H   0  0  0  0  0  0  0  0  0  0  0  0
   16.5547   -2.0429    0.0000 C   0  0  0  0  0  0  0  0  0  0  0  0
   15.8427   -1.6371    0.0000 C   0  0  0  0  0  0  0  0  0  0  0  0
   13.9859   -2.8907    0.0000 N   0  0  0  0  0  0  0  0  0  0  0  0
   13.1604   -2.8907    0.0000 C   0  0  0  0  0  0  0  0  0  0  0  0
   12.4636   -0.8600    0.0000 C   0  0  0  0  0  0  0  0  0  0  0  0
   12.7487   -2.1777    0.0000 C   0  0  0  0  0  0  0  0  0  0  0  0
   13.0882   -1.4200    0.0000 C   0  0  0  0  0  0  0  0  0  0  0  0
   11.7415   -1.2882    0.0000 N   0  0  0  0  0  0  0  0  0  0  0  0
   11.9203   -2.0990    0.0000 N   0  0  0  0  0  0  0  0  0  0  0  0
   10.9847   -0.9600    0.0000 C   0  0  0  0  0  0  0  0  0  0  0  0
   10.8906   -0.1404    0.0000 C   0  0  0  0  0  0  0  0  0  0  0  0
   10.1339    0.1880    0.0000 C   0  0  0  0  0  0  0  0  0  0  0  0
   10.0398    1.0076    0.0000 C   0  0  0  0  0  0  0  0  0  0  0  0
   12.7470   -3.6066    0.0000 O   0  0  0  0  0  0  0  0  0  0  0  0
   12.5438   -0.0389    0.0000 C   0  0  0  0  0  0  0  0  0  0  0  0
   13.3090    0.3069    0.0000 C   0  0  0  0  0  0  0  0  0  0  0  0
   13.3908    1.1407    0.0000 C   0  0  0  0  0  0  0  0  0  0  0  0
   12.7083    1.6296    0.0000 C   0  0  0  0  0  0  0  0  0  0  0  0
   11.9418    1.2786    0.0000 C   0  0  0  0  0  0  0  0  0  0  0  0
   11.8637    0.4458    0.0000 C   0  0  0  0  0  0  0  0  0  0  0  0
    9.2781    1.3380    0.0000 C   0  0  0  0  0  0  0  0  0  0  0  0
   13.9836   -0.1768    0.0000 F   0  0  0  0  0  0  0  0  0  0  0  0
  3  9  1  1  0  0  0 
  1  2  1  0  0  0  0 
  3  2  1  0  0  0  0 
  5 10  1  0  0  0  0 
  1  4  1  0  0  0  0 
  5 11  1  0  0  0  0 
  4  5  1  0  0  0  0 
  5  3  1  0  0  0  0 
  3  6  1  0  0  0  0 
  6  7  1  0  0  0  0 
 17 18  1  0  0  0  0 
 16 14  1  0  0  0  0 
 15 16  1  0  0  0  0 
 14 17  1  0  0  0  0 
 18 15  2  0  0  0  0 
 17 19  1  0  0  0  0 
 19 20  1  0  0  0  0 
 20 21  1  0  0  0  0 
 21 22  1  0  0  0  0 
 15 13  1  0  0  0  0 
 13 23  2  0  0  0  0 
 24 25  2  0  0  0  0 
 25 26  1  0  0  0  0 
 26 27  2  0  0  0  0 
 27 28  1  0  0  0  0 
 28 29  2  0  0  0  0 
 29 24  1  0  0  0  0 
 14 24  1  0  0  0  0 
 13 12  1  0  0  0  0 
  7  4  1  0  0  0  0 
 22 30  1  0  0  0  0 
  1 12  1  1  0  0  0 
  4  8  1  6  0  0  0 
 25 31  1  0  0  0  0 
M  END