
  SciTegic01161211212D

127119  0  0  0  0            999 V2000
   -7.1036    2.7588    0.0000 Na  0  3
   -6.1748    1.3975    0.0000 Na  0  3
   -4.7459   -0.2525    0.0000 Na  0  3
    0.2554    5.9350    0.0000 Na  0  3
    2.3989    4.6975    0.0000 Na  0  3
   -1.1735   -1.4900    0.0000 Na  0  3
   -1.3878   -4.0887    0.0000 Na  0  3
    0.5637   -4.1881    0.0000 Na  0  3
    5.2567   -0.2525    0.0000 Na  0  3
    0.4737   -6.6145    0.0000 Na  0  3
    3.4276   -7.1255    0.0000 Na  0  3
    6.2694   -5.9539    0.0000 Na  0  3
    7.1036   -2.4559    0.0000 Na  0  3
   -1.1735    2.6350    0.0000 O   0  0
   -1.8880    2.2225    0.0000 C   0  0  2  0  0  0
   -1.8880    1.3975    0.0000 C   0  0  2  0  0  0
   -1.1735    0.9850    0.0000 O   0  0
   -2.6024    0.9850    0.0000 C   0  0  2  0  0  0
   -2.6024    0.1600    0.0000 O   0  0
   -3.3169    1.3975    0.0000 C   0  0  2  0  0  0
   -4.0314    0.9850    0.0000 O   0  0
   -3.3169    2.2225    0.0000 C   0  0  2  0  0  0
   -2.6024    2.6350    0.0000 O   0  0
   -4.2457    2.7588    0.0000 C   0  0
   -4.9602    2.3463    0.0000 O   0  0
   -5.6747    2.7588    0.0000 S   0  0
   -6.0872    2.0443    0.0000 O   0  0
   -5.2622    3.4732    0.0000 O   0  0
   -6.3891    3.1713    0.0000 O   0  5
   -4.7459    1.3975    0.0000 S   0  0
   -4.3334    2.1120    0.0000 O   0  0
   -5.1584    0.6830    0.0000 O   0  0
   -5.4603    1.8100    0.0000 O   0  5
   -3.3169   -0.2525    0.0000 S   0  0
   -2.9044   -0.9670    0.0000 O   0  0
   -3.7294    0.4620    0.0000 O   0  0
   -4.0314   -0.6650    0.0000 O   0  5
    0.2554    0.9850    0.0000 C   0  0  2  0  0  0
    0.2554    0.1600    0.0000 O   0  0
    0.9699    1.3975    0.0000 C   0  0  2  0  0  0
    1.6844    0.9850    0.0000 O   0  0
    0.9699    2.2225    0.0000 C   0  0  2  0  0  0
    1.6844    2.6350    0.0000 O   0  0
    0.2554    2.6350    0.0000 C   0  0  2  0  0  0
   -0.4590    2.2225    0.0000 O   0  0
    0.2554    3.4600    0.0000 C   0  0
   -0.4590    3.8725    0.0000 O   0  0
   -0.4590    4.6975    0.0000 S   0  0
    0.3660    4.6975    0.0000 O   0  0
   -1.2840    4.6975    0.0000 O   0  0
   -0.4590    5.5225    0.0000 O   0  5
    1.6844    3.4600    0.0000 S   0  0
    2.5094    3.4600    0.0000 O   0  0
    0.8594    3.4600    0.0000 O   0  0
    1.6844    4.2850    0.0000 O   0  5
   -0.4590   -0.2525    0.0000 S   0  0
   -0.8715    0.4620    0.0000 O   0  0
   -0.0465   -0.9670    0.0000 O   0  0
   -1.1735   -0.6650    0.0000 O   0  5
    2.3989   -0.2525    0.0000 C   0  0  2  0  0  0
    3.1133    0.1600    0.0000 O   0  0
    2.3989   -1.0775    0.0000 C   0  0  2  0  0  0
    3.3277   -1.6137    0.0000 O   0  0
    1.6844   -1.4900    0.0000 C   0  0  2  0  0  0
    1.6844   -2.3150    0.0000 O   0  0
    0.9699   -1.0775    0.0000 C   0  0  2  0  0  0
    0.9699   -0.2525    0.0000 O   0  0
    0.0411   -1.6137    0.0000 C   0  0
    0.0411   -2.4387    0.0000 O   0  0
   -0.6734   -2.8512    0.0000 S   0  0
   -1.0859   -2.1368    0.0000 O   0  0
   -0.2609   -3.5657    0.0000 O   0  0
   -1.3878   -3.2637    0.0000 O   0  5
    1.0524   -2.8453    0.0000 S   0  0
    1.5827   -3.4773    0.0000 O   0  0
    0.5221   -2.2133    0.0000 O   0  0
    0.4204   -3.3756    0.0000 O   0  5
    3.8278   -0.2525    0.0000 S   0  0
    3.4153   -0.9670    0.0000 O   0  0
    4.2403    0.4620    0.0000 O   0  0
    4.5423   -0.6650    0.0000 O   0  5
    4.2891   -2.9521    0.0000 C   0  0  2  0  0  0
    4.9211   -2.4218    0.0000 O   0  0
    4.4324   -3.7646    0.0000 C   0  0  2  0  0  0
    5.2077   -4.0468    0.0000 O   0  0
    3.8004   -4.2949    0.0000 C   0  0  2  0  0  0
    4.0826   -5.0701    0.0000 O   0  0
    3.0252   -4.0127    0.0000 C   0  0  2  0  0  0
    2.8819   -3.2003    0.0000 O   0  0
    2.3107   -4.4252    0.0000 C   0  0
    2.1674   -5.2377    0.0000 O   0  0
    1.3922   -5.5199    0.0000 S   0  0
    1.6744   -6.2951    0.0000 O   0  0
    1.1100   -4.7446    0.0000 O   0  0
    0.6170   -5.8020    0.0000 O   0  5
    3.5453   -5.7118    0.0000 S   0  0
    2.8378   -5.2896    0.0000 O   0  0
    4.2211   -6.1850    0.0000 O   0  0
    3.0789   -6.3778    0.0000 O   0  5
    5.3509   -4.8592    0.0000 S   0  0
    4.5384   -5.0025    0.0000 O   0  0
    6.1634   -4.7160    0.0000 O   0  0
    5.4942   -5.6717    0.0000 O   0  5
    5.6964   -2.7040    0.0000 S   0  0
    5.4142   -3.4792    0.0000 O   0  0
    5.9785   -1.9287    0.0000 O   0  0
    6.4716   -2.9862    0.0000 O   0  5
   -1.1735    3.4600    0.0000 C   0  0
   -1.8880    3.8725    0.0000 C   0  0
   -2.6024    3.4600    0.0000 C   0  0
   -3.3169    3.8725    0.0000 N   0  0
   -4.0706    3.5369    0.0000 N   0  0
   -4.6226    4.1500    0.0000 N   0  0
   -4.2101    4.8645    0.0000 C   0  0
   -3.4032    4.6930    0.0000 C   0  0
   -4.5457    5.6182    0.0000 C   0  0
   -5.3662    5.7044    0.0000 C   0  0
   -5.7017    6.4581    0.0000 C   0  0
   -5.2168    7.1255    0.0000 C   0  0
   -4.3963    7.0393    0.0000 C   0  0
   -4.0608    6.2856    0.0000 C   0  0
   -0.4590    1.3975    0.0000 C   0  0  2  0  0  0
   -1.1735    1.8100    0.0000 H   0  0
    1.6844    0.1600    0.0000 C   0  0  2  0  0  0
    2.3989    0.5725    0.0000 H   0  0
    3.5139   -2.6700    0.0000 C   0  0  2  0  0  0
    4.0973   -2.0866    0.0000 H   0  0
 15 14  1  6
 15 16  1  0
 16 17  1  1
 16 18  1  0
 18 19  1  1
 18 20  1  0
 20 21  1  6
 20 22  1  0
 22 23  1  0
 22 24  1  1
 24 25  1  0
 15 23  1  0
 26 27  2  0
 26 28  2  0
 26 29  1  0
 25 26  1  0
 30 31  2  0
 30 32  2  0
 30 33  1  0
 21 30  1  0
 34 35  2  0
 34 36  2  0
 34 37  1  0
 19 34  1  0
122 38  1  0
 38 39  1  6
 38 40  1  0
 40 41  1  6
 40 42  1  0
 42 43  1  1
 42 44  1  0
 44 45  1  0
 44 46  1  6
 46 47  1  0
122 45  1  0
 48 49  2  0
 48 50  2  0
 48 51  1  0
 47 48  1  0
 52 53  2  0
 52 54  2  0
 52 55  1  0
 43 52  1  0
 56 57  2  0
 56 58  2  0
 56 59  1  0
 39 56  1  0
124 60  1  0
 60 61  1  1
 60 62  1  0
 62 63  1  1
 62 64  1  0
 64 65  1  6
 64 66  1  0
 66 67  1  0
 66 68  1  1
 68 69  1  0
124 67  1  0
 70 71  2  0
 70 72  2  0
 70 73  1  0
 69 70  1  0
 74 75  2  0
 74 76  2  0
 74 77  1  0
 65 74  1  0
 78 79  2  0
 78 80  2  0
 78 81  1  0
 61 78  1  0
126 82  1  0
 82 83  1  1
 82 84  1  0
 84 85  1  1
 84 86  1  0
 86 87  1  6
 86 88  1  0
 88 89  1  0
 88 90  1  1
 90 91  1  0
126 89  1  0
 92 93  2  0
 92 94  2  0
 92 95  1  0
 91 92  1  0
 96 97  2  0
 96 98  2  0
 96 99  1  0
 87 96  1  0
100101  2  0
100102  2  0
100103  1  0
 85100  1  0
104105  2  0
104106  2  0
104107  1  0
 83104  1  0
126 63  1  0
124 41  1  0
122 17  1  0
108109  1  0
109110  1  0
111112  1  0
112113  2  0
113114  1  0
114115  2  0
111115  1  0
116117  1  0
117118  2  0
118119  1  0
119120  2  0
120121  1  0
116121  2  0
114116  1  0
110111  1  0
 14108  1  0
122123  1  6
124125  1  1
126127  1  1
M  CHG  8   1   1   2   1   3   1   4   1   5   1   6   1   7   1   8   1
M  CHG  8   9   1  10   1  11   1  12   1  13   1  29  -1  33  -1  37  -1
M  CHG  8  51  -1  55  -1  59  -1  73  -1  77  -1  81  -1  95  -1  99  -1
M  CHG  2 103  -1 107  -1
M  END