
          11280715052D 1   1.00000     0.00000     0

 27 31  0     0  0            999 V2000
    2.2667   -0.5000    0.0000 N   0  0  3  0  0  0           0  0  0
    1.7417   -0.1917    0.0000 C   0  0  0  0  0  0           0  0  0
    2.2667   -1.1042    0.0000 C   0  0  0  0  0  0           0  0  0
    1.8750    0.4000    0.0000 N   0  0  0  0  0  0           0  0  0
    1.2167   -0.5000    0.0000 C   0  0  0  0  0  0           0  0  0
    1.7417   -1.4042    0.0000 N   0  0  0  0  0  0           0  0  0
    1.2167   -1.1042    0.0000 C   0  0  0  0  0  0           0  0  0
    2.4792    0.4583    0.0000 C   0  0  3  0  0  0           0  0  0
    4.5792    1.0083    0.0000 N   0  0  3  0  0  0           0  0  0
    2.7167   -0.0917    0.0000 C   0  0  0  0  0  0           0  0  0
    3.3792    0.9750    0.0000 N   0  0  3  0  0  0           0  0  0
    2.7875   -1.4042    0.0000 O   0  0  0  0  0  0           0  0  0
    2.7792    0.9833    0.0000 C   0  0  0  0  0  0           0  0  0
    4.2667    1.5208    0.0000 C   0  0  0  0  0  0           0  0  0
    4.2917    0.4833    0.0000 C   0  0  0  0  0  0           0  0  0
    5.1792    1.0208    0.0000 C   0  0  0  0  0  0           0  0  0
    3.7000    0.4625    0.0000 C   0  0  0  0  0  0           0  0  0
    3.6667    1.5000    0.0000 C   0  0  0  0  0  0           0  0  0
    0.7000   -0.2000    0.0000 C   0  0  0  0  0  0           0  0  0
    0.7000   -1.4042    0.0000 C   0  0  0  0  0  0           0  0  0
    5.4625    1.5458    0.0000 C   0  0  0  0  0  0           0  0  0
    5.4917    0.5083    0.0000 C   0  0  0  0  0  0           0  0  0
    0.1792   -0.5000    0.0000 C   0  0  0  0  0  0           0  0  0
    0.1792   -1.1042    0.0000 C   0  0  0  0  0  0           0  0  0
    6.0917    0.5250    0.0000 C   0  0  0  0  0  0           0  0  0
    6.0625    1.5708    0.0000 C   0  0  0  0  0  0           0  0  0
    6.3792    1.0583    0.0000 C   0  0  0  0  0  0           0  0  0
  2  1  1  0     0  0
  3  1  1  0     0  0
  4  2  2  0     0  0
  5  2  1  0     0  0
  6  3  1  0     0  0
  7  6  1  0     0  0
  8 10  1  0     0  0
  9 14  1  0     0  0
 10  1  1  0     0  0
 11 13  1  0     0  0
 12  3  2  0     0  0
 13  8  1  0     0  0
 14 18  1  0     0  0
 15 17  1  0     0  0
 16  9  1  0     0  0
 17 11  1  0     0  0
 18 11  1  0     0  0
 19  5  2  0     0  0
 20  7  2  0     0  0
 21 16  1  0     0  0
 22 16  2  0     0  0
 23 19  1  0     0  0
 24 20  1  0     0  0
 25 22  1  0     0  0
 26 21  2  0     0  0
 27 25  2  0     0  0
  8  4  1  0     0  0
  5  7  1  0     0  0
 23 24  2  0     0  0
 15  9  1  0     0  0
 26 27  1  0     0  0
M  END