
  SciTegic          2D

 32 36  0  0  0  0            999 V2000
   -0.2763    6.3858    0.0000 C   0  0
   11.9840   -2.6325    0.0000 C   0  0
    1.1747    6.0055    0.0000 C   0  0
   -1.3312    5.3194    0.0000 C   0  0
   -2.6437    1.1277    0.0000 C   0  0
   11.1857   -3.9024    0.0000 C   0  0
   11.2833   -1.3062    0.0000 C   0  0
   -2.6437   -0.3882    0.0000 C   0  0
    1.5708    4.5587    0.0000 C   0  0
   -0.9351    3.8727    0.0000 C   0  0
   -1.3126    1.8857    0.0000 C   0  0
    9.6868   -3.8461    0.0000 C   0  0
    9.7844   -1.2498    0.0000 C   0  0
   -1.3126   -1.1462    0.0000 C   0  0
    0.5151    3.4906    0.0000 C   0  0
    0.0000    1.1277    0.0000 C   0  0
    8.9860   -2.5198    0.0000 C   0  0
    0.0000   -0.3882    0.0000 C   0  0
    2.3849   -1.0353    0.0000 C   0  0
    0.6840   -2.8471    0.0000 C   0  0
    0.9429    2.0521    0.0000 C   0  0
    5.2876   -1.0728    0.0000 C   0  0
    3.0874    0.3143    0.0000 C   0  0  1  0  0  0
   -0.3653   -3.4291    0.0000 C   0  0
    7.4864   -2.4603    0.0000 C   0  0
    3.1059   -2.4034    0.0000 N   0  0
    2.0706   -3.4942    0.0000 N   0  0
    2.4219    1.7563    0.0000 N   0  0
    0.8689   -1.3311    0.0000 N   0  0
    4.5884    0.2552    0.0000 N   0  0
    4.6472   -2.0877    0.0000 O   0  0
    6.7872   -1.1323    0.0000 O   0  0
  1  3  1  0
  4  1  2  0
  2  6  1  0
  2  7  2  0
  3  9  2  0
 10  4  1  0
  5  8  1  0
 11  5  2  0
  6 12  2  0
 13  7  1  0
  8 14  2  0
 15  9  1  0
 15 10  2  0
 16 11  1  0
 12 17  1  0
 17 13  2  0
 14 18  1  0
 21 15  1  0
 16 18  2  0
 21 16  1  0
 25 17  1  0
 18 29  1  0
 19 23  1  0
 19 26  2  0
 19 29  1  0
 24 20  1  0
 20 27  2  0
 20 29  1  0
 21 28  2  0
 22 30  1  0
 22 31  2  0
 22 32  1  0
 23 28  1  0
 23 30  1  1
 25 32  1  0
 27 26  1  0
M  END