
  SciTegic10191216002D

 27 29  0  0  0  0            999 V2000
   20.3902    1.7959    0.0000 C   0  0
   20.3891    0.9685    0.0000 C   0  0
   21.1039    0.5556    0.0000 C   0  0
   21.8203    0.9690    0.0000 C   0  0
   21.8175    1.7995    0.0000 C   0  0
   21.1021    2.2086    0.0000 C   0  0
   21.1065   -0.2684    0.0000 C   0  0
   21.1005   -1.9174    0.0000 C   0  0
   21.8169   -1.5063    0.0000 N   0  0
   21.8207   -0.6787    0.0000 C   0  0
   20.3880   -1.5008    0.0000 C   0  0
   20.3911   -0.6815    0.0000 C   0  0
   19.6843   -0.2709    0.0000 C   0  0
   18.9738   -0.6784    0.0000 N   0  0
   18.9746   -1.5009    0.0000 C   0  0
   19.6820   -1.9078    0.0000 C   0  0
   18.2607   -1.9143    0.0000 O   0  0
   22.5304    2.2147    0.0000 Cl  0  0
   21.0996    3.0330    0.0000 Cl  0  0
   17.5457   -1.5027    0.0000 C   0  0
   16.8317   -1.9161    0.0000 C   0  0
   16.1167   -1.5045    0.0000 C   0  0
   15.4028   -1.9179    0.0000 N   0  0
   14.6878   -1.5063    0.0000 C   0  0
   13.9738   -1.9197    0.0000 C   0  0
   15.4038   -2.7429    0.0000 C   0  0
   14.6899   -3.1563    0.0000 C   0  0
 12 13  1  0
  7 12  1  0
 13 14  2  0
  1  2  2  0
 14 15  1  0
  3  4  2  0
 15 16  2  0
 16 11  1  0
 15 17  1  0
  4  5  1  0
  5 18  1  0
  7 10  1  0
  6 19  1  0
 11  8  1  0
 17 20  1  0
  8  9  1  0
 20 21  1  0
  9 10  1  0
 21 22  1  0
  7  3  1  0
 22 23  1  0
  2  3  1  0
 23 24  1  0
  5  6  2  0
 24 25  1  0
 11 12  2  0
 23 26  1  0
  6  1  1  0
 26 27  1  0
M  END