
  Mrv0541 04051115152D          

 27 29  0  0  0  0            999 V2000
   -1.0127   -1.5482    0.0000 N   0  0  0  0  0  0  0  0  0  0  0  0
   -1.7272   -1.9607    0.0000 C   0  0  0  0  0  0  0  0  0  0  0  0
   -1.7272   -2.7857    0.0000 O   0  0  0  0  0  0  0  0  0  0  0  0
   -2.4417   -1.5482    0.0000 N   0  0  0  0  0  0  0  0  0  0  0  0
   -2.4417   -0.7232    0.0000 C   0  0  0  0  0  0  0  0  0  0  0  0
   -3.1562   -0.3107    0.0000 O   0  0  0  0  0  0  0  0  0  0  0  0
   -1.7272   -0.3107    0.0000 C   0  0  0  0  0  0  0  0  0  0  0  0
   -1.7272    0.5143    0.0000 N   0  0  0  0  0  0  0  0  0  0  0  0
   -1.0127    0.9268    0.0000 C   0  0  0  0  0  0  0  0  0  0  0  0
   -1.0127    1.7518    0.0000 C   0  0  0  0  0  0  0  0  0  0  0  0
   -0.2983    2.1643    0.0000 C   0  0  0  0  0  0  0  0  0  0  0  0
   -0.2983    2.9893    0.0000 C   0  0  0  0  0  0  0  0  0  0  0  0
    0.4162    1.7518    0.0000 C   0  0  0  0  0  0  0  0  0  0  0  0
    1.1307    2.1643    0.0000 C   0  0  0  0  0  0  0  0  0  0  0  0
    0.4162    0.9268    0.0000 C   0  0  0  0  0  0  0  0  0  0  0  0
   -0.2983    0.5143    0.0000 C   0  0  0  0  0  0  0  0  0  0  0  0
   -0.2983   -0.3107    0.0000 N   0  0  0  0  0  0  0  0  0  0  0  0
   -1.0127   -0.7232    0.0000 C   0  0  0  0  0  0  0  0  0  0  0  0
    0.4162   -0.7232    0.0000 C   0  0  0  0  0  0  0  0  0  0  0  0
    1.1307   -0.3107    0.0000 C   0  0  2  0  0  0  0  0  0  0  0  0
    1.1307    0.5143    0.0000 O   0  0  0  0  0  0  0  0  0  0  0  0
    1.8451   -0.7232    0.0000 C   0  0  2  0  0  0  0  0  0  0  0  0
    1.8451   -1.5482    0.0000 O   0  0  0  0  0  0  0  0  0  0  0  0
    2.5596   -0.3107    0.0000 C   0  0  2  0  0  0  0  0  0  0  0  0
    2.5596    0.5143    0.0000 O   0  0  0  0  0  0  0  0  0  0  0  0
    3.2741   -0.7232    0.0000 C   0  0  0  0  0  0  0  0  0  0  0  0
    3.9885   -0.3107    0.0000 O   0  0  0  0  0  0  0  0  0  0  0  0
  2  1  1  0  0  0  0
 18  1  2  0  0  0  0
  2  3  2  0  0  0  0
  2  4  1  0  0  0  0
  5  4  1  0  0  0  0
  5  6  2  0  0  0  0
  5  7  1  0  0  0  0
  7  8  2  0  0  0  0
 18  7  1  0  0  0  0
  9  8  1  0  0  0  0
  9 10  2  0  0  0  0
  9 16  1  0  0  0  0
 10 11  1  0  0  0  0
 11 12  1  0  0  0  0
 11 13  2  0  0  0  0
 13 14  1  0  0  0  0
 13 15  1  0  0  0  0
 15 16  2  0  0  0  0
 16 17  1  0  0  0  0
 18 17  1  0  0  0  0
 19 17  1  0  0  0  0
 19 20  1  0  0  0  0
 20 21  1  6  0  0  0
 20 22  1  0  0  0  0
 22 23  1  1  0  0  0
 22 24  1  0  0  0  0
 24 25  1  6  0  0  0
 24 26  1  0  0  0  0
 26 27  1  0  0  0  0
M  END