
  SciTegic12121615192D

108110  0  0  0  0            999 V2000
    4.0439    4.9528    0.0000 N   0  0
    5.2195    4.7121    0.0000 C   0  0  2  0  0  0
    6.8692    3.0474    0.0000 O   0  0
    5.6936    3.2881    0.0000 C   0  0
    6.2150    5.8353    0.0000 C   0  0  2  0  0  0
    5.8360    6.9738    0.0000 O   0  0
    7.3906    5.5946    0.0000 C   0  0
    4.6981    2.1649    0.0000 N   0  0
    5.1721    0.7409    0.0000 C   0  0  2  0  0  0
    3.1970   -0.1817    0.0000 O   0  0
    4.1767   -0.3822    0.0000 C   0  0
    6.6419    0.4369    0.0000 C   0  0
    7.1143   -0.9876    0.0000 C   0  0
    8.2895   -1.2307    0.0000 O   0  0
    6.3165   -1.8840    0.0000 N   0  0
    4.6507   -1.8062    0.0000 N   0  0
    3.6552   -2.9294    0.0000 C   0  0  2  0  0  0
    3.3299   -5.2503    0.0000 O   0  0
    4.1277   -4.3539    0.0000 C   0  0
    2.1855   -2.6254    0.0000 C   0  0
    2.5889    0.0182    0.0000 C   0  0
    1.7138   -1.2033    0.0000 C   0  0
    1.7138    1.2033    0.0000 N   0  0
    0.2917   -0.7475    0.0000 C   0  0
    0.2917    0.7475    0.0000 C   0  0
   -1.0028    1.5132    0.0000 C   0  0
   -2.3155    0.7475    0.0000 C   0  0
   -2.3155   -0.7475    0.0000 C   0  0
   -1.0028   -1.5132    0.0000 C   0  0
    5.5974   -4.6579    0.0000 N   0  0
    6.0698   -6.0825    0.0000 C   0  0  2  0  0  0
    3.8987   -6.9649    0.0000 O   0  0
    5.0743   -7.2056    0.0000 C   0  0
    7.5396   -6.3865    0.0000 C   0  0
    9.4805   -8.1169    0.0000 C   0  0
    8.0120   -7.8110    0.0000 C   0  0
    7.0129   -8.9299    0.0000 C   0  0
    7.4823  -10.3546    0.0000 C   0  0
    8.9508  -10.6604    0.0000 C   0  0
    9.9499   -9.5416    0.0000 C   0  0
    9.3262  -11.8002    0.0000 O   0  0
    5.5483   -8.6296    0.0000 N   0  0
    4.5528   -9.7528    0.0000 C   0  0  1  0  0  0
    6.2024  -11.4175    0.0000 O   0  0
    3.3772   -9.5121    0.0000 C   0  0
    5.0268  -11.1768    0.0000 C   0  0
    4.0313  -12.2999    0.0000 N   0  0
    4.5053  -13.7239    0.0000 C   0  0  2  0  0  0
    2.3342  -14.6064    0.0000 O   0  0
    3.5098  -14.8471    0.0000 C   0  0
    5.9750  -14.0280    0.0000 C   0  0
    6.4474  -15.4525    0.0000 C   0  0
    7.6225  -15.6956    0.0000 O   0  0
    5.6496  -16.3489    0.0000 N   0  0
    3.9838  -16.2711    0.0000 N   0  0
    2.9883  -17.3942    0.0000 C   0  0  2  0  0  0
    4.6379  -19.0589    0.0000 O   0  0
    3.4623  -18.8182    0.0000 C   0  0
    1.5173  -17.0962    0.0000 C   0  0
    0.5230  -18.2204    0.0000 C   0  0
   -0.6531  -17.9821    0.0000 C   0  0
    0.9044  -19.3582    0.0000 C   0  0
    2.4668  -19.9413    0.0000 N   0  0
    2.9408  -21.3653    0.0000 C   0  0  2  0  0  0
    0.7696  -22.2478    0.0000 O   0  0
    1.9453  -22.4885    0.0000 C   0  0
    4.4105  -21.6694    0.0000 C   0  0
    4.8829  -23.0939    0.0000 C   0  0
    6.3526  -23.3980    0.0000 C   0  0
    6.7304  -24.5370    0.0000 O   0  0
    7.1504  -22.5016    0.0000 O   0  0
    2.4193  -23.9125    0.0000 N   0  0
    1.4238  -25.0356    0.0000 C   0  0  2  0  0  0
    3.0734  -26.7003    0.0000 O   0  0
    1.8978  -26.4596    0.0000 C   0  0
   -0.0472  -24.7376    0.0000 C   0  0
   -1.0415  -25.8618    0.0000 C   0  0
   -2.5124  -25.5638    0.0000 C   0  0
   -3.5067  -26.6881    0.0000 C   0  0
   -4.6828  -26.4498    0.0000 N   0  0
    0.9023  -27.5828    0.0000 N   0  0
    1.3763  -29.0068    0.0000 C   0  0  2  0  0  0
   -0.7949  -29.8892    0.0000 O   0  0
    0.3808  -30.1299    0.0000 C   0  0
    2.8460  -29.3108    0.0000 C   0  0
    3.3184  -30.7354    0.0000 C   0  0
    4.4935  -30.9785    0.0000 C   0  0
    2.5206  -31.6317    0.0000 C   0  0
    0.8548  -31.5539    0.0000 N   0  0
   -0.1407  -32.6770    0.0000 C   0  0  2  0  0  0
    1.5089  -34.3417    0.0000 O   0  0
    0.3333  -34.1011    0.0000 C   0  0
   -1.6117  -32.3790    0.0000 C   0  0
   -2.6060  -33.5033    0.0000 C   0  0
   -3.7821  -33.2650    0.0000 C   0  0
   -2.2246  -34.6411    0.0000 C   0  0
   -1.2312  -41.7425    0.0000 N   0  0
   -2.2268  -42.8656    0.0000 C   0  0
   -3.4024  -42.6249    0.0000 N   0  0
   -1.8478  -44.0042    0.0000 N   0  0
   -0.6622  -35.2242    0.0000 N   0  0
   -0.1882  -36.6482    0.0000 C   0  0  2  0  0  0
    1.6592  -38.0913    0.0000 O   0  0
    1.2815  -36.9523    0.0000 C   0  0
   -1.1838  -37.7713    0.0000 C   0  0
   -0.7097  -39.1953    0.0000 C   0  0
   -1.7053  -40.3185    0.0000 C   0  0
    2.0793  -36.0559    0.0000 O   0  0
  4  8  1  0
 11 16  1  0
 19 30  1  0
 33 42  1  0
 46 47  1  0
 50 55  1  0
 58 63  1  0
 66 72  1  0
 75 81  1  0
 84 89  1  0
 92101  1  0
104108  1  0
  2  1  1  1
  2  4  1  0
  4  3  2  0
  2  5  1  0
  5  6  1  6
  5  7  1  0
  8  9  1  0
  9 11  1  0
 11 10  2  0
  9 12  1  1
 12 13  1  0
 13 14  2  0
 13 15  1  0
 16 17  1  0
 17 19  1  0
 19 18  2  0
 17 20  1  6
 20 22  1  0
 21 22  2  0
 22 24  1  0
 23 21  1  0
 25 23  1  0
 24 25  2  0
 25 26  1  0
 26 27  2  0
 27 28  1  0
 28 29  2  0
 29 24  1  0
 30 31  1  0
 31 33  1  0
 33 32  2  0
 31 34  1  1
 34 36  1  0
 35 36  2  0
 36 37  1  0
 37 38  2  0
 38 39  1  0
 39 40  2  0
 40 35  1  0
 39 41  1  0
 42 43  1  0
 43 46  1  0
 46 44  2  0
 43 45  1  6
 47 48  1  0
 48 50  1  0
 50 49  2  0
 48 51  1  1
 51 52  1  0
 52 53  2  0
 52 54  1  0
 55 56  1  0
 56 58  1  0
 58 57  2  0
 56 59  1  6
 59 60  1  0
 60 61  1  0
 60 62  1  0
 63 64  1  0
 64 66  1  0
 66 65  2  0
 64 67  1  1
 67 68  1  0
 68 69  1  0
 69 70  2  0
 69 71  1  0
 72 73  1  0
 73 75  1  0
 75 74  2  0
 73 76  1  6
 76 77  1  0
 77 78  1  0
 78 79  1  0
 79 80  1  0
 81 82  1  0
 82 84  1  0
 84 83  2  0
 82 85  1  1
 85 86  1  0
 86 87  1  0
 86 88  1  0
 89 90  1  0
 90 92  1  0
 92 91  2  0
 90 93  1  6
 93 94  1  0
 94 95  1  0
 94 96  1  0
 97 98  1  0
 98 99  1  0
 98100  2  0
101102  1  0
102104  1  0
104103  2  0
102105  1  6
105106  1  0
106107  1  0
107 97  1  0
M  END