
  SciTegic10311316212D

 26 29  0  0  0  0            999 V2000
   19.2645  -12.5220    0.0000 C   0  0
   19.2633  -13.3415    0.0000 C   0  0
   19.9714  -13.7505    0.0000 C   0  0
   19.9696  -12.1131    0.0000 C   0  0
   20.6782  -12.5184    0.0000 C   0  0
   20.6785  -13.3370    0.0000 C   0  0
   21.4571  -13.5898    0.0000 S   0  0
   21.9382  -12.9273    0.0000 C   0  0
   21.4567  -12.2652    0.0000 C   0  0
   18.5599  -13.7487    0.0000 N   0  0
   17.8136  -13.4157    0.0000 C   0  0
   17.2663  -14.0226    0.0000 N   0  0
   17.6744  -14.7307    0.0000 N   0  0
   18.4738  -14.5613    0.0000 C   0  0
   19.0794  -15.1053    0.0000 C   0  0
   18.9074  -15.9053    0.0000 C   0  0
   19.5135  -16.4523    0.0000 C   0  0
   20.2918  -16.2005    0.0000 C   0  0
   20.4606  -15.3966    0.0000 C   0  0
   19.8532  -14.8531    0.0000 C   0  0
   17.6443  -12.6163    0.0000 S   0  0
   22.7533  -12.9249    0.0000 C   0  0
   23.1621  -13.6324    0.0000 O   0  0
   23.1616  -12.2170    0.0000 O   0  0
   21.2371  -15.1419    0.0000 Cl  0  0
   20.8994  -16.7469    0.0000 Br  0  0
  1  2  2  0
  2  3  1  0
  3  6  2  0
  5  4  2  0
  4  1  1  0
  5  6  1  0
  6  7  1  0
  7  8  1  0
  8  9  2  0
  9  5  1  0
 10 11  1  0
 11 12  2  0
 12 13  1  0
 13 14  2  0
 14 10  1  0
  2 10  1  0
 15 16  2  0
 16 17  1  0
 17 18  2  0
 18 19  1  0
 19 20  2  0
 20 15  1  0
 14 15  1  0
 11 21  1  0
 22 23  1  0
 22 24  2  0
  8 22  1  0
 19 25  1  0
 18 26  1  0
M  END