
  SciTegic06181315362D

 36 40  0  0  0  0            999 V2000
   11.5315   -6.1413    0.0000 N   0  0
   10.9041   -5.9184    0.0000 C   0  0
    9.9920   -6.2445    0.0000 C   0  0
    9.5876   -5.5305    0.0000 C   0  0
   10.2603   -5.7534    0.0000 C   0  0
   11.1270   -5.4232    0.0000 C   0  0
   10.4914   -5.2086    0.0000 C   0  0
   10.8979   -4.4996    0.0000 N   0  0
   11.5315   -4.7133    0.0000 C   0  0
   12.2952   -4.4225    0.0000 O   0  0
   10.6081   -3.7355    0.0000 C   0  0
   11.1249   -3.1025    0.0000 C   0  0
   11.9315   -3.2336    0.0000 O   0  0
   12.4484   -2.6006    0.0000 C   0  0
   13.2591   -2.7358    0.0000 C   0  0
   13.7757   -2.1036    0.0000 C   0  0
   13.4860   -1.3441    0.0000 C   0  0
   12.6748   -1.2174    0.0000 C   0  0
   12.1618   -1.8470    0.0000 C   0  0
   14.5824   -2.2341    0.0000 O   0  0
   14.8727   -2.9980    0.0000 C   0  0
   14.0003   -0.7091    0.0000 O   0  0
   14.8074   -0.8369    0.0000 C   0  0
   12.1567   -6.6675    0.0000 S   0  0
   12.0136   -7.4721    0.0000 C   0  0
   12.8604   -6.2528    0.0000 O   0  0
   12.7325   -7.2433    0.0000 O   0  0
   11.2453   -7.7483    0.0000 C   0  0
   11.1020   -8.5521    0.0000 C   0  0
   12.6386   -7.9939    0.0000 C   0  0
   12.4990   -8.7969    0.0000 C   0  0
   11.7312   -9.0818    0.0000 C   0  0
   11.7648   -9.9001    0.0000 N   0  0
   12.5535  -10.1210    0.0000 C   0  0
   13.0072   -9.4392    0.0000 S   0  0
   12.8379  -10.8872    0.0000 O   0  0
  1  2  1  0
  2  3  1  0
  3  4  1  0
  4  5  1  0
  5  6  1  0
  6  1  1  0
  2  7  1  0
  7  8  1  0
  6  9  1  0
  9  8  1  0
  9 10  2  0
  8 11  1  0
 11 12  1  0
 12 13  1  0
 13 14  1  0
 14 15  2  0
 15 16  1  0
 16 17  2  0
 17 18  1  0
 18 19  2  0
 19 14  1  0
 16 20  1  0
 20 21  1  0
 17 22  1  0
 22 23  1  0
  1 24  1  0
 24 25  1  0
 24 26  2  0
 24 27  2  0
 25 28  2  0
 28 29  1  0
 29 32  2  0
 31 30  2  0
 30 25  1  0
 31 32  1  0
 32 33  1  0
 33 34  1  0
 34 35  1  0
 35 31  1  0
 34 36  2  0
M  END