
          11280714572D 1   1.00000     0.00000     0

 31 34  0     0  0            999 V2000
    4.1167   -4.6250    0.0000 S   0  0  3  0  0  0           0  0  0
    8.3917   -4.5875    0.0000 C   0  0  0  0  0  0           0  0  0
    7.6875   -5.8292    0.0000 N   0  0  3  0  0  0           0  0  0
    6.9667   -4.5917    0.0000 C   0  0  0  0  0  0           0  0  0
    8.4000   -5.4125    0.0000 C   0  0  0  0  0  0           0  0  0
    6.9667   -5.4167    0.0000 C   0  0  0  0  0  0           0  0  0
    4.8292   -4.2042    0.0000 N   0  0  0  0  0  0           0  0  0
    9.7750   -4.2125    0.0000 N   0  0  3  0  0  0           0  0  0
   10.9042   -4.9167    0.0000 N   0  0  0  0  0  0           0  0  0
    3.4000   -4.2125    0.0000 C   0  0  0  0  0  0           0  0  0
    8.9792   -4.0000    0.0000 C   0  0  0  0  0  0           0  0  0
   10.0750   -4.9750    0.0000 C   0  0  0  0  0  0           0  0  0
    3.5292   -5.2042    0.0000 O   0  0  0  0  0  0           0  0  0
    4.5250   -5.3375    0.0000 O   0  0  0  0  0  0           0  0  0
    8.4125   -7.0625    0.0000 C   0  0  0  0  0  0           0  0  0
    7.6917   -6.6542    0.0000 C   0  0  0  0  0  0           0  0  0
    8.4167   -7.8875    0.0000 C   0  0  0  0  0  0           0  0  0
    6.2625   -5.8417    0.0000 C   0  0  0  0  0  0           0  0  0
    6.2500   -4.1917    0.0000 C   0  0  0  0  0  0           0  0  0
    5.5417   -4.6125    0.0000 C   0  0  0  0  0  0           0  0  0
   11.1042   -4.1292    0.0000 C   0  0  0  0  0  0           0  0  0
   10.4125   -3.6875    0.0000 C   0  0  0  0  0  0           0  0  0
    7.7042   -8.3042    0.0000 O   0  0  0  0  0  0           0  0  0
    2.6792   -4.6250    0.0000 C   0  0  0  0  0  0           0  0  0
    3.4000   -3.3792    0.0000 C   0  0  0  0  0  0           0  0  0
    5.5417   -5.4375    0.0000 C   0  0  0  0  0  0           0  0  0
    1.9667   -3.3875    0.0000 C   0  0  0  0  0  0           0  0  0
    9.1292   -8.2917    0.0000 O   0  0  0  0  0  0           0  0  0
    1.9667   -4.2125    0.0000 C   0  0  0  0  0  0           0  0  0
    2.6792   -2.9667    0.0000 C   0  0  0  0  0  0           0  0  0
    1.2542   -2.9750    0.0000 F   0  0  0  0  0  0           0  0  0
  2  4  1  0     0  0
  3  6  1  0     0  0
  4 19  2  0     0  0
  5  2  2  0     0  0
  6 18  2  0     0  0
  7  1  1  0     0  0
  8 11  1  0     0  0
  9 12  2  0     0  0
 10  1  1  0     0  0
 11  2  1  0     0  0
 12  8  1  0     0  0
 13  1  2  0     0  0
 14  1  2  0     0  0
 15 16  1  0     0  0
 16  3  1  0     0  0
 17 15  1  0     0  0
 18 26  1  0     0  0
 19 20  1  0     0  0
 20  7  1  0     0  0
 21 22  2  0     0  0
 22  8  1  0     0  0
 23 17  2  0     0  0
 24 10  2  0     0  0
 25 10  1  0     0  0
 26 20  2  0     0  0
 27 30  1  0     0  0
 28 17  1  0     0  0
 29 24  1  0     0  0
 30 25  2  0     0  0
 31 27  1  0     0  0
 27 29  2  0     0  0
  4  6  1  0     0  0
  3  5  1  0     0  0
  9 21  1  0     0  0
M  END