
          02060813482D 1   1.00000     0.00000     0

 46 49  0     1  0            999 V2000
    6.1481  -16.7758    0.0000 C   0  0  0  0  0  0           0  0  0
    6.8591  -17.1953    0.0000 C   0  0  0  0  0  0           0  0  0
    7.5749  -16.7865    0.0000 C   0  0  0  0  0  0           0  0  0
    7.5788  -15.9606    0.0000 C   0  0  0  0  0  0           0  0  0
    6.8610  -15.5453    0.0000 C   0  0  0  0  0  0           0  0  0
    6.1483  -15.9565    0.0000 C   0  0  0  0  0  0           0  0  0
   -3.1259  -14.6898    0.0000 N   0  0  0  0  0  0           0  0  0
   -2.4113  -14.2773    0.0000 C   0  0  2  0  0  0           0  0  0
   -1.6969  -14.6898    0.0000 C   0  0  0  0  0  0           0  0  0
   -2.4113  -13.4523    0.0000 C   0  0  0  0  0  0           0  0  0
   -3.1259  -13.0398    0.0000 C   0  0  0  0  0  0           0  0  0
   -3.1230  -12.2137    0.0000 C   0  0  0  0  0  0           0  0  0
   -3.8367  -11.8013    0.0000 C   0  0  0  0  0  0           0  0  0
   -4.5522  -12.2138    0.0000 C   0  0  0  0  0  0           0  0  0
   -4.5495  -13.0431    0.0000 C   0  0  0  0  0  0           0  0  0
   -3.8353  -13.4517    0.0000 C   0  0  0  0  0  0           0  0  0
   -3.8327  -14.2767    0.0000 C   0  0  0  0  0  0           0  0  0
   -2.4078  -11.8025    0.0000 C   0  0  0  0  0  0           0  0  0
   -5.2672  -11.8023    0.0000 O   0  0  0  0  0  0           0  0  0
   -1.6969  -15.5148    0.0000 O   0  0  0  0  0  0           0  0  0
   -0.9824  -14.2773    0.0000 N   0  0  3  0  0  0           0  0  0
   -0.2736  -14.6922    0.0000 C   0  0  1  0  0  0           0  0  0
    0.4388  -14.2832    0.0000 C   0  0  0  0  0  0           0  0  0
   -0.9899  -13.4538    0.0000 C   0  0  0  0  0  0           0  0  0
   -0.2713  -13.0432    0.0000 C   0  0  0  0  0  0           0  0  0
    0.4400  -13.4576    0.0000 C   0  0  0  0  0  0           0  0  0
    1.1524  -13.0487    0.0000 C   0  0  0  0  0  0           0  0  0
    1.1547  -12.2258    0.0000 C   0  0  0  0  0  0           0  0  0
    0.4386  -11.8134    0.0000 C   0  0  0  0  0  0           0  0  0
   -0.2708  -12.2244    0.0000 C   0  0  0  0  0  0           0  0  0
   -0.2770  -15.5172    0.0000 C   0  0  0  0  0  0           0  0  0
   -0.9932  -15.9268    0.0000 O   0  0  0  0  0  0           0  0  0
    0.4357  -15.9328    0.0000 N   0  0  0  0  0  0           0  0  0
   -0.2796  -13.8648    0.0000 H   0  0  0  0  0  0           0  0  0
    1.1519  -15.5233    0.0000 C   0  0  0  0  0  0           0  0  0
    1.8646  -15.9388    0.0000 C   0  0  0  0  0  0           0  0  0
    2.5809  -15.5293    0.0000 C   0  0  0  0  0  0           0  0  0
    3.2935  -15.9448    0.0000 C   0  0  0  0  0  0           0  0  0
    4.0098  -15.5353    0.0000 C   0  0  1  0  0  0           0  0  0
    4.7226  -15.9509    0.0000 C   0  0  0  0  0  0           0  0  0
    4.0133  -14.7103    0.0000 N   0  0  0  0  0  0           0  0  0
    4.7191  -16.7759    0.0000 O   0  0  0  0  0  0           0  0  0
    5.4388  -15.5413    0.0000 N   0  0  0  0  0  0           0  0  0
    4.7295  -14.3008    0.0000 C   0  0  0  0  0  0           0  0  0
    5.4422  -14.7163    0.0000 O   0  0  0  0  0  0           0  0  0
    4.7329  -13.4758    0.0000 C   0  0  0  0  0  0           0  0  0
 11 12  2  0     0  0
 21 24  1  0     0  0
 22 23  1  0     0  0
 23 26  1  0     0  0
 25 24  1  0     0  0
  6  1  1  0     0  0
 12 13  1  0     0  0
 25 26  2  0     0  0
  1  2  2  0     0  0
 26 27  1  0     0  0
 13 14  2  0     0  0
 27 28  2  0     0  0
  3  4  2  0     0  0
 28 29  1  0     0  0
 14 15  1  0     0  0
 29 30  2  0     0  0
 30 25  1  0     0  0
  7  8  1  0     0  0
 22 31  1  0     0  0
 15 16  2  0     0  0
 31 32  2  0     0  0
 16 11  1  0     0  0
 31 33  1  0     0  0
 22 34  1  6     0  0
 16 17  1  0     0  0
 33 35  1  0     0  0
  8  9  1  0     0  0
 35 36  1  0     0  0
 12 18  1  0     0  0
 36 37  1  0     0  0
  4  5  1  0     0  0
 37 38  1  0     0  0
 14 19  1  0     0  0
 38 39  1  0     0  0
  8 10  1  1     0  0
 39 40  1  0     0  0
  9 20  2  0     0  0
 39 41  1  6     0  0
  2  3  1  0     0  0
 40 42  2  0     0  0
  9 21  1  0     0  0
 40 43  1  0     0  0
 21 22  1  0     0  0
 41 44  1  0     0  0
 43  6  1  0     0  0
 10 11  1  0     0  0
 44 45  2  0     0  0
  5  6  2  0     0  0
 44 46  1  0     0  0
M  END