
          11280714482D 1   1.00000     0.00000     0

 23 26  0     0  0            999 V2000
    5.9667   -6.8042    0.0000 C   0  0  3  0  0  0           0  0  0
    5.9667   -5.9792    0.0000 C   0  0  0  0  0  0           0  0  0
    5.2542   -7.2125    0.0000 C   0  0  0  0  0  0           0  0  0
    6.6792   -7.2125    0.0000 C   0  0  0  0  0  0           0  0  0
    5.2542   -8.0375    0.0000 C   0  0  0  0  0  0           0  0  0
    6.6792   -8.0375    0.0000 C   0  0  0  0  0  0           0  0  0
    7.3917   -4.3375    0.0000 N   0  0  3  0  0  0           0  0  0
    6.6792   -5.5667    0.0000 C   0  0  0  0  0  0           0  0  0
    5.9667   -8.4500    0.0000 C   0  0  0  0  0  0           0  0  0
    6.6792   -4.7417    0.0000 C   0  0  3  0  0  0           0  0  0
    8.1167   -4.7500    0.0000 C   0  0  0  0  0  0           0  0  0
    7.3917   -3.5125    0.0000 C   0  0  0  0  0  0           0  0  0
    4.5417   -6.8042    0.0000 C   0  0  0  0  0  0           0  0  0
    7.3917   -6.8000    0.0000 C   0  0  0  0  0  0           0  0  0
    7.3917   -8.4417    0.0000 C   0  0  0  0  0  0           0  0  0
    4.5417   -8.4417    0.0000 C   0  0  0  0  0  0           0  0  0
    5.9792   -4.3375    0.0000 C   0  0  0  0  0  0           0  0  0
    6.6792   -3.0917    0.0000 C   0  0  0  0  0  0           0  0  0
    8.1042   -7.2000    0.0000 C   0  0  0  0  0  0           0  0  0
    3.8417   -7.2125    0.0000 C   0  0  0  0  0  0           0  0  0
    3.8292   -8.0292    0.0000 C   0  0  0  0  0  0           0  0  0
    8.1042   -8.0250    0.0000 C   0  0  0  0  0  0           0  0  0
    5.9792   -3.5125    0.0000 C   0  0  0  0  0  0           0  0  0
  2  1  1  0     0  0
  3  1  1  0     0  0
  4  1  1  0     0  0
  5  3  1  0     0  0
  6  4  2  0     0  0
  7 10  1  0     0  0
  8  2  2  0     0  0
  9  6  1  0     0  0
 10  8  1  0     0  0
 11  7  1  0     0  0
 12  7  1  0     0  0
 13  3  2  0     0  0
 14  4  1  0     0  0
 15  6  1  0     0  0
 16  5  2  0     0  0
 17 10  1  0     0  0
 18 23  1  0     0  0
 19 14  2  0     0  0
 20 13  1  0     0  0
 21 20  2  0     0  0
 22 19  1  0     0  0
 23 17  1  0     0  0
  5  9  1  0     0  0
 15 22  2  0     0  0
 21 16  1  0     0  0
 12 18  1  0     0  0
M  END