
          11280715352D 1   1.00000     0.00000     0

 35 38  0     0  0            999 V2000
   -0.1583   -0.3417    0.0000 S   0  0  3  0  0  0           0  0  0
   -0.1625    0.4833    0.0000 N   0  0  0  0  0  0           0  0  0
   -1.5958    2.1333    0.0000 N   0  0  0  0  0  0           0  0  0
   -0.8833    1.7208    0.0000 N   0  0  3  0  0  0           0  0  0
   -0.8833    0.8958    0.0000 C   0  0  0  0  0  0           0  0  0
   -1.5958    2.9583    0.0000 C   0  0  0  0  0  0           0  0  0
   -0.1750    2.9625    0.0000 C   0  0  3  0  0  0           0  0  0
   -0.1708    2.1458    0.0000 C   0  0  0  0  0  0           0  0  0
   -1.6083   -2.8000    0.0000 C   0  0  3  0  0  0           0  0  0
   -0.1625   -1.1667    0.0000 C   0  0  0  0  0  0           0  0  0
   -0.8875   -2.3917    0.0000 C   0  0  0  0  0  0           0  0  0
    0.6375   -0.5542    0.0000 O   0  0  0  0  0  0           0  0  0
   -0.8750   -0.7500    0.0000 O   0  0  0  0  0  0           0  0  0
   -0.8833   -1.5667    0.0000 C   0  0  0  0  0  0           0  0  0
   -2.1833    3.5458    0.0000 C   0  0  0  0  0  0           0  0  0
    0.4042    3.5458    0.0000 C   0  0  0  0  0  0           0  0  0
   -1.5958    0.4833    0.0000 N   0  0  0  0  0  0           0  0  0
   -2.2583   -3.1667    0.0000 F   0  0  0  0  0  0           0  0  0
   -2.4125   -2.4875    0.0000 F   0  0  0  0  0  0           0  0  0
   -1.7500   -3.6500    0.0000 F   0  0  0  0  0  0           0  0  0
   -2.9708    3.3333    0.0000 C   0  0  0  0  0  0           0  0  0
   -1.9708    4.3417    0.0000 C   0  0  0  0  0  0           0  0  0
   -3.3458    4.7042    0.0000 C   0  0  0  0  0  0           0  0  0
   -2.5458    4.9167    0.0000 C   0  0  0  0  0  0           0  0  0
   -3.5583    3.9083    0.0000 C   0  0  0  0  0  0           0  0  0
   -3.9333    5.2917    0.0000 Cl  0  0  0  0  0  0           0  0  0
    0.5417   -1.5750    0.0000 C   0  0  0  0  0  0           0  0  0
   -0.1750   -2.8042    0.0000 C   0  0  0  0  0  0           0  0  0
    0.5417   -2.3917    0.0000 C   0  0  0  0  0  0           0  0  0
    0.1917    4.3375    0.0000 C   0  0  0  0  0  0           0  0  0
    1.2042    3.3333    0.0000 C   0  0  0  0  0  0           0  0  0
   -1.5875   -0.3417    0.0000 C   0  0  0  0  0  0           0  0  0
    0.7667    4.9167    0.0000 C   0  0  0  0  0  0           0  0  0
    1.7875    3.9208    0.0000 C   0  0  0  0  0  0           0  0  0
    1.5750    4.7042    0.0000 C   0  0  0  0  0  0           0  0  0
  2  1  1  0     0  0
  3  4  1  0     0  0
  4  5  1  0     0  0
  5  2  1  0     0  0
  6  3  2  0     0  0
  7  8  1  0     0  0
  8  4  1  0     0  0
  9 11  1  0     0  0
 10  1  1  0     0  0
 11 14  1  0     0  0
 12  1  2  0     0  0
 13  1  2  0     0  0
 14 10  2  0     0  0
 15  6  1  0     0  0
 16  7  1  0     0  0
 17  5  2  0     0  0
 18  9  1  0     0  0
 19  9  1  0     0  0
 20  9  1  0     0  0
 21 15  1  0     0  0
 22 15  2  0     0  0
 23 24  2  0     0  0
 24 22  1  0     0  0
 25 21  2  0     0  0
 26 23  1  0     0  0
 27 10  1  0     0  0
 28 29  1  0     0  0
 29 27  2  0     0  0
 30 16  1  0     0  0
 31 16  2  0     0  0
 32 17  1  0     0  0
 33 30  2  0     0  0
 34 31  1  0     0  0
 35 34  2  0     0  0
 28 11  2  0     0  0
  6  7  1  0     0  0
 23 25  1  0     0  0
 35 33  1  0     0  0
M  END