
  Mrv0541 04051115152D          

 30 33  0  0  0  0            999 V2000
    3.5040    2.8001    0.0000 C   0  0  0  0  0  0  0  0  0  0  0  0
    2.6971    2.9717    0.0000 C   0  0  0  0  0  0  0  0  0  0  0  0
    2.1450    2.3586    0.0000 C   0  0  0  0  0  0  0  0  0  0  0  0
    2.4000    1.5739    0.0000 C   0  0  0  0  0  0  0  0  0  0  0  0
    3.2069    1.4024    0.0000 C   0  0  0  0  0  0  0  0  0  0  0  0
    3.7590    2.0155    0.0000 C   0  0  0  0  0  0  0  0  0  0  0  0
    1.3200    2.3586    0.0000 C   0  0  0  0  0  0  0  0  0  0  0  0
    1.0651    1.5739    0.0000 C   0  0  0  0  0  0  0  0  0  0  0  0
    1.7325    1.0890    0.0000 N   0  0  0  0  0  0  0  0  0  0  0  0
    0.7680    2.9717    0.0000 C   0  0  0  0  0  0  0  0  0  0  0  0
   -0.0390    2.8001    0.0000 C   0  0  0  0  0  0  0  0  0  0  0  0
   -0.2939    2.0155    0.0000 C   0  0  0  0  0  0  0  0  0  0  0  0
    0.2581    1.4024    0.0000 C   0  0  0  0  0  0  0  0  0  0  0  0
    1.7325    0.2640    0.0000 C   0  0  0  0  0  0  0  0  0  0  0  0
    1.0181   -0.1485    0.0000 C   0  0  0  0  0  0  0  0  0  0  0  0
    1.0181   -0.9735    0.0000 O   0  0  0  0  0  0  0  0  0  0  0  0
    0.3036   -1.3860    0.0000 C   0  0  0  0  0  0  0  0  0  0  0  0
    0.3036   -2.2110    0.0000 C   0  0  0  0  0  0  0  0  0  0  0  0
   -0.4109   -2.6235    0.0000 C   0  0  0  0  0  0  0  0  0  0  0  0
   -1.1254   -2.2110    0.0000 C   0  0  0  0  0  0  0  0  0  0  0  0
   -1.1254   -1.3860    0.0000 C   0  0  0  0  0  0  0  0  0  0  0  0
   -0.4109   -0.9735    0.0000 C   0  0  0  0  0  0  0  0  0  0  0  0
   -1.8398   -2.6235    0.0000 C   0  0  0  0  0  0  0  0  0  0  0  0
   -2.5543   -2.2110    0.0000 C   0  0  1  0  0  0  0  0  0  0  0  0
   -2.5543   -1.3860    0.0000 C   0  0  0  0  0  0  0  0  0  0  0  0
   -3.2688   -0.9735    0.0000 O   0  0  0  0  0  0  0  0  0  0  0  0
   -1.8398   -0.9735    0.0000 O   0  0  0  0  0  0  0  0  0  0  0  0
   -3.2688   -2.6235    0.0000 O   0  0  0  0  0  0  0  0  0  0  0  0
   -3.9832   -2.2110    0.0000 C   0  0  0  0  0  0  0  0  0  0  0  0
   -4.6977   -2.6235    0.0000 C   0  0  0  0  0  0  0  0  0  0  0  0
  1  2  2  0  0  0  0
  1  6  1  0  0  0  0
  2  3  1  0  0  0  0
  3  4  2  0  0  0  0
  7  3  1  0  0  0  0
  4  5  1  0  0  0  0
  4  9  1  0  0  0  0
  5  6  2  0  0  0  0
  7  8  2  0  0  0  0
  7 10  1  0  0  0  0
  8  9  1  0  0  0  0
  8 13  1  0  0  0  0
 14  9  1  0  0  0  0
 10 11  2  0  0  0  0
 11 12  1  0  0  0  0
 12 13  2  0  0  0  0
 14 15  1  0  0  0  0
 15 16  1  0  0  0  0
 17 16  1  0  0  0  0
 17 18  2  0  0  0  0
 17 22  1  0  0  0  0
 18 19  1  0  0  0  0
 19 20  2  0  0  0  0
 20 21  1  0  0  0  0
 20 23  1  0  0  0  0
 21 22  2  0  0  0  0
 23 24  1  0  0  0  0
 24 25  1  0  0  0  0
 24 28  1  6  0  0  0
 25 26  1  0  0  0  0
 25 27  2  0  0  0  0
 29 28  1  0  0  0  0
 29 30  1  0  0  0  0
M  END