
  SciTegic01091215432D

 28 30  0  0  0  0            999 V2000
    3.5071  -14.7825    0.0000 C   0  0
    2.8381  -14.3028    0.0000 C   0  0
    2.1720  -14.7896    0.0000 C   0  0
    2.4292  -15.5735    0.0000 C   0  0
    3.2542  -15.5711    0.0000 C   0  0
    2.8344  -13.4778    0.0000 O   0  0
    4.2915  -14.5271    0.0000 C   0  0
    7.8628  -12.4481    0.0000 S   0  0
    7.4530  -13.1641    0.0000 O   0  0
    8.2780  -13.1610    0.0000 O   0  0
    3.5777  -12.4625    0.0000 C   0  0
    3.5766  -13.2898    0.0000 C   0  0
    4.2914  -13.7027    0.0000 C   0  0
    5.0078  -13.2894    0.0000 C   0  0
    5.0050  -12.4588    0.0000 C   0  0
    4.2896  -12.0497    0.0000 C   0  0
    5.7179  -12.0436    0.0000 C   0  0
    6.4339  -12.4534    0.0000 C   0  0
    7.1468  -12.0383    0.0000 N   0  0
    8.5758  -12.0329    0.0000 C   0  0
    9.2877  -12.4444    0.0000 C   0  0
   10.0002  -12.0299    0.0000 C   0  0
    9.9975  -11.2041    0.0000 C   0  0
    9.2765  -10.7944    0.0000 C   0  0
    8.5670  -11.2113    0.0000 C   0  0
   10.7099  -10.7879    0.0000 Cl  0  0
    1.9462  -16.2424    0.0000 O   0  0
    1.3867  -14.5368    0.0000 C   0  0
 14 15  1  0
  9  8  2  0
 15 16  2  0
 16 11  1  0
  8 10  2  0
 15 17  1  0
  2  3  2  0
 17 18  1  0
  3  4  1  0
 18 19  1  0
 19  8  1  0
  4  5  1  0
  8 20  1  0
  5  1  1  0
 20 21  2  0
 21 22  1  0
 11 12  2  0
 22 23  2  0
  2  6  1  0
 23 24  1  0
 12 13  1  0
 24 25  2  0
 25 20  1  0
  1  2  1  0
 23 26  1  0
 13  7  1  0
 13 14  2  0
  4 27  2  0
  7  1  1  0
  3 28  1  0
M  END