
  SciTegic02231516322D

 34 36  0  0  0  0            999 V2000
    9.0084  -17.4501    0.0000 C   0  0
    6.9083  -16.1418    0.0000 C   0  0
    7.6229  -15.7293    0.0000 C   0  0
    8.3374  -16.1418    0.0000 C   0  0
    8.3374  -16.9668    0.0000 N   0  0
    7.6761  -17.4528    0.0000 C   0  0
    7.9310  -18.2374    0.0000 N   0  0
    8.7561  -18.2374    0.0000 C   0  0
    9.2411  -18.9049    0.0000 O   0  0
    9.5917  -16.8626    0.0000 C   0  0
    9.7209  -17.8626    0.0000 C   0  0
    9.7171  -18.6870    0.0000 C   0  0
   10.4288  -19.0994    0.0000 C   0  0
   11.1432  -18.6885    0.0000 C   0  0
   11.1416  -17.8610    0.0000 C   0  0
   10.4294  -17.4523    0.0000 C   0  0
    7.4461  -18.9049    0.0000 C   0  0
    6.8908  -17.2001    0.0000 O   0  0
    6.1939  -15.7293    0.0000 C   0  0
    5.4794  -16.1418    0.0000 C   0  0
    4.7649  -15.7293    0.0000 N   0  0
    4.7696  -14.9079    0.0000 C   0  0
    4.0592  -14.4955    0.0000 C   0  0
    3.3423  -14.9045    0.0000 N   0  0
    3.3403  -15.7304    0.0000 C   0  0
    4.0552  -16.1474    0.0000 C   0  0
    2.6310  -14.4909    0.0000 C   0  0
    2.6355  -13.6648    0.0000 C   0  0
    1.9234  -13.2497    0.0000 C   0  0
    1.2064  -13.6596    0.0000 C   0  0
    1.2059  -14.4888    0.0000 C   0  0
    1.9186  -14.9002    0.0000 C   0  0
    1.9178  -15.7252    0.0000 F   0  0
   10.4258  -14.0240    0.0000 Cl  0  0
  2  3  1  0
  3  4  1  0
  4  5  1  0
  5  6  1  0
  6  7  1  0
  7  8  1  0
  8  1  1  0
  1  5  1  0
  8  9  2  0
  1 10  1  0
  1 11  1  0
 11 12  2  0
 12 13  1  0
 13 14  2  0
 14 15  1  0
 15 16  2  0
 16 11  1  0
  7 17  1  0
  6 18  2  0
  2 19  1  0
 19 20  1  0
 20 21  1  0
 21 22  1  0
 21 26  1  0
 22 23  1  0
 23 24  1  0
 24 25  1  0
 25 26  1  0
 27 28  2  0
 28 29  1  0
 29 30  2  0
 30 31  1  0
 31 32  2  0
 32 27  1  0
 24 27  1  0
 32 33  1  0
M  END