
  SciTegic01181116592D

 29 31  0  0  0  0            999 V2000
    7.3611   -8.1409    0.0000 C   0  0
    6.6473   -8.5532    0.0000 C   0  0
    6.6471   -9.3800    0.0000 C   0  0
    7.3628   -9.7932    0.0000 C   0  0
    8.0722   -9.3815    0.0000 C   0  0
    8.0730   -8.5519    0.0000 C   0  0
    7.3641  -10.6166    0.0000 S   0  0
    6.5373  -10.6129    0.0000 O   0  0
    8.1882  -10.6160    0.0000 O   0  0
    7.3643  -11.4373    0.0000 N   0  0
    7.3626   -7.3159    0.0000 N   0  0
    5.2256   -6.0757    0.0000 N   0  0
    5.2244   -6.9058    0.0000 C   0  0
    5.9420   -7.3179    0.0000 N   0  0
    6.6531   -6.9054    0.0000 C   0  0
    6.6502   -6.0762    0.0000 C   0  0
    5.9402   -5.6679    0.0000 C   0  0
    5.9419   -4.8445    0.0000 N   0  0
    5.2276   -4.4305    0.0000 C   0  0
    5.2292   -3.6029    0.0000 C   0  0
    5.9430   -3.1898    0.0000 C   0  0
    5.9451   -2.3627    0.0000 C   0  0
    5.2302   -1.9523    0.0000 C   0  0
    4.5199   -2.3623    0.0000 C   0  0
    4.5172   -3.1921    0.0000 C   0  0
    4.5066   -7.3253    0.0000 S   0  0
    4.5091   -8.1523    0.0000 C   0  0
    7.3700   -5.6534    0.0000 C   0  0
    8.0920   -5.2296    0.0000 N   0  0
 14 15  2  0
  4  7  1  0
 15 16  1  0
 16 17  2  0
 17 12  1  0
 15 11  1  0
  7  8  2  0
 17 18  1  0
  3  4  2  0
 18 19  1  0
  7  9  2  0
 19 20  1  0
  1  2  2  0
 20 21  2  0
  7 10  1  0
 21 22  1  0
  4  5  1  0
 22 23  2  0
 11  1  1  0
 23 24  1  0
  5  6  2  0
 24 25  2  0
 25 20  1  0
 12 13  2  0
 13 26  1  0
  6  1  1  0
 26 27  1  0
 13 14  1  0
 16 28  1  0
  2  3  1  0
 28 29  3  0
M  END