
          11280715392D 1   1.00000     0.00000     0

 31 34  0     0  0            999 V2000
    9.8098   -0.8755    0.0000 C   0  0  0  0  0  0           0  0  0
   10.5246   -0.4628    0.0000 C   0  0  0  0  0  0           0  0  0
   11.2395   -0.8755    0.0000 N   0  0  0  0  0  0           0  0  0
   10.5246    0.3627    0.0000 O   0  0  0  0  0  0           0  0  0
   11.2395   -1.7010    0.0000 C   0  0  0  0  0  0           0  0  0
   11.9544   -2.1137    0.0000 C   0  0  0  0  0  0           0  0  0
   12.6736   -1.6991    0.0000 C   0  0  0  0  0  0           0  0  0
   12.6804   -0.8737    0.0000 C   0  0  0  0  0  0           0  0  0
   13.3986   -0.4668    0.0000 N   0  0  3  0  0  0           0  0  0
   14.1039   -0.8887    0.0000 C   0  0  0  0  0  0           0  0  0
   14.8200   -0.4854    0.0000 C   0  0  0  0  0  0           0  0  0
   14.8310    0.3404    0.0000 N   0  0  3  0  0  0           0  0  0
   14.1197    0.7611    0.0000 C   0  0  0  0  0  0           0  0  0
   13.3974    0.3562    0.0000 C   0  0  0  0  0  0           0  0  0
   15.5508    0.7445    0.0000 C   0  0  0  0  0  0           0  0  0
   16.2583    0.3202    0.0000 C   0  0  0  0  0  0           0  0  0
   16.9776    0.7236    0.0000 C   0  0  0  0  0  0           0  0  0
   16.9880    1.5499    0.0000 C   0  0  0  0  0  0           0  0  0
   16.2731    1.9711    0.0000 C   0  0  0  0  0  0           0  0  0
   15.5566    1.5652    0.0000 C   0  0  0  0  0  0           0  0  0
    8.3805   -1.6982    0.0000 C   0  0  0  0  0  0           0  0  0
    9.1004   -2.1108    0.0000 C   0  0  0  0  0  0           0  0  0
    9.8119   -1.6964    0.0000 C   0  0  0  0  0  0           0  0  0
    8.3810   -0.8719    0.0000 C   0  0  0  0  0  0           0  0  0
    9.0912   -0.4587    0.0000 C   0  0  0  0  0  0           0  0  0
    9.0875    0.3611    0.0000 C   0  0  0  0  0  0           0  0  0
    8.3743    0.7686    0.0000 C   0  0  0  0  0  0           0  0  0
    7.6634    0.3505    0.0000 C   0  0  0  0  0  0           0  0  0
    7.6706   -0.4680    0.0000 C   0  0  0  0  0  0           0  0  0
   16.2432   -0.5024    0.0000 O   0  0  0  0  0  0           0  0  0
   16.9520   -0.9254    0.0000 C   0  0  0  0  0  0           0  0  0
  7  8  1  0     0  0
 15 16  2  0     0  0
 16 17  1  0     0  0
  8  9  1  0     0  0
 17 18  2  0     0  0
  9 10  1  0     0  0
 18 19  1  0     0  0
  3  5  1  0     0  0
 19 20  2  0     0  0
 20 15  1  0     0  0
  1 25  2  0     0  0
  2  3  1  0     0  0
 24 21  2  0     0  0
  5  6  1  0     0  0
 21 22  1  0     0  0
  1  2  1  0     0  0
 22 23  2  0     0  0
 23  1  1  0     0  0
  6  7  1  0     0  0
  9 14  1  0     0  0
 24 25  1  0     0  0
 10 11  1  0     0  0
 25 26  1  0     0  0
 11 12  1  0     0  0
 26 27  2  0     0  0
 12 13  1  0     0  0
 27 28  1  0     0  0
 13 14  1  0     0  0
 28 29  2  0     0  0
 29 24  1  0     0  0
  2  4  2  0     0  0
 12 15  1  0     0  0
 30 31  1  0     0  0
 16 30  1  0     0  0
M  END