
          05080814042D 1   1.00000     0.00000     0

 35 39  0     1  0            999 V2000
    5.9264    1.4311    0.0000 C   0  0  0  0  0  0           0  0  0
    5.9252    0.6050    0.0000 C   0  0  0  0  0  0           0  0  0
    6.6389    0.1928    0.0000 C   0  0  0  0  0  0           0  0  0
    6.6371    1.8431    0.0000 C   0  0  0  0  0  0           0  0  0
    7.3513    1.4347    0.0000 C   0  0  0  0  0  0           0  0  0
    7.3547    0.6029    0.0000 C   0  0  0  0  0  0           0  0  0
    8.0727    0.1923    0.0000 C   0  0  0  0  0  0           0  0  0
    8.0660    1.8558    0.0000 C   0  0  0  0  0  0           0  0  0
    8.7886    1.4406    0.0000 C   0  0  2  0  0  0           0  0  0
    8.7896    0.6072    0.0000 C   0  0  2  0  0  0           0  0  0
    9.5079    0.1937    0.0000 N   0  0  3  0  0  0           0  0  0
   10.2297    0.6090    0.0000 C   0  0  0  0  0  0           0  0  0
   10.2286    1.4424    0.0000 C   0  0  1  0  0  0           0  0  0
    9.5058    1.8605    0.0000 C   0  0  0  0  0  0           0  0  0
    9.5078   -0.6300    0.0000 C   0  0  0  0  0  0           0  0  0
   10.9419    1.8544    0.0000 C   0  0  0  0  0  0           0  0  0
   11.6553    1.4427    0.0000 N   0  0  3  0  0  0           0  0  0
   10.9417    2.6780    0.0000 O   0  0  0  0  0  0           0  0  0
   11.6497    0.6144    0.0000 C   0  0  0  0  0  0           0  0  0
   12.3591    0.2029    0.0000 C   0  0  0  0  0  0           0  0  0
   13.0747    0.6113    0.0000 N   0  0  3  0  0  0           0  0  0
   13.0765    1.4360    0.0000 C   0  0  0  0  0  0           0  0  0
   12.3625    1.8521    0.0000 C   0  0  0  0  0  0           0  0  0
    8.7815   -0.2163    0.0000 H   0  0  0  0  0  0           0  0  0
    8.7815    2.2671    0.0000 H   0  0  0  0  0  0           0  0  0
    6.6345    2.6673    0.0000 O   0  0  0  0  0  0           0  0  0
   13.7865    0.1970    0.0000 C   0  0  0  0  0  0           0  0  0
   13.7802   -0.6251    0.0000 C   0  0  0  0  0  0           0  0  0
   14.4912   -1.0393    0.0000 C   0  0  0  0  0  0           0  0  0
   15.2069   -0.6299    0.0000 C   0  0  0  0  0  0           0  0  0
   15.2072    0.1980    0.0000 C   0  0  0  0  0  0           0  0  0
   14.4956    0.6085    0.0000 C   0  0  0  0  0  0           0  0  0
   15.9246   -1.0445    0.0000 N   0  3  0  0  0  0           0  0  0
   16.6389   -0.6342    0.0000 O   0  0  0  0  0  0           0  0  0
   15.9228   -1.8682    0.0000 O   0  5  0  0  0  0           0  0  0
  6  7  1  0     0  0
 16 17  1  0     0  0
  7 10  1  0     0  0
 16 18  2  0     0  0
 17 19  1  0     0  0
  9  8  1  0     0  0
  9 10  1  0     0  0
  5  4  2  0     0  0
  4  1  1  0     0  0
  5  6  1  0     0  0
 17 23  1  0     0  0
 19 20  1  0     0  0
 20 21  1  0     0  0
 21 22  1  0     0  0
 22 23  1  0     0  0
 10 24  1  1     0  0
  2  3  1  0     0  0
  9 25  1  6     0  0
  3  6  2  0     0  0
  4 26  1  0     0  0
  9 14  1  0     0  0
 21 27  1  0     0  0
 10 11  1  0     0  0
 27 28  2  0     0  0
 11 12  1  0     0  0
 28 29  1  0     0  0
 12 13  1  0     0  0
 29 30  2  0     0  0
 13 14  1  0     0  0
 30 31  1  0     0  0
  1  2  2  0     0  0
 31 32  2  0     0  0
 32 27  1  0     0  0
 11 15  1  0     0  0
  5  8  1  0     0  0
 13 16  1  1     0  0
 33 34  2  0     0  0
 33 35  1  0     0  0
 30 33  1  0     0  0
M  CHG  2  33   1  35  -1
M  END