
  SciTegic05061116452D

 39 43  0  0  0  0            999 V2000
   20.2363   -1.4049    0.0000 N   0  0
   20.9480   -0.9963    0.0000 C   0  0
   20.9480   -0.1712    0.0000 N   0  0
   20.2363    0.2452    0.0000 C   0  0
   19.5246   -0.9963    0.0000 C   0  0
   19.5246   -0.1666    0.0000 C   0  0
   18.7356    0.0898    0.0000 N   0  0
   18.2479   -0.5814    0.0000 C   0  0
   18.7355   -1.2525    0.0000 N   0  0
   18.4805   -2.0372    0.0000 C   0  0
   17.6736   -2.2087    0.0000 C   0  0
   17.4186   -2.9933    0.0000 O   0  0
   17.1215   -1.5956    0.0000 O   0  0
   20.2382    1.0702    0.0000 O   0  0
   21.6620   -1.4097    0.0000 N   0  0
   22.3770   -0.9980    0.0000 C   0  0
   23.0910   -1.4114    0.0000 C   0  0
   20.9537    1.4810    0.0000 C   0  0
   23.0855   -2.2347    0.0000 C   0  0
   23.7986   -2.6480    0.0000 C   0  0
   24.5146   -2.2363    0.0000 C   0  0
   24.5129   -1.4070    0.0000 C   0  0
   23.7991   -0.9974    0.0000 C   0  0
   25.2253   -2.6459    0.0000 C   0  0
   25.2234   -3.4719    0.0000 C   0  0
   25.9339   -3.8842    0.0000 C   0  0
   26.6507   -3.4751    0.0000 C   0  0
   26.6526   -2.6492    0.0000 C   0  0
   25.9376   -2.2323    0.0000 C   0  0
   21.6646    1.0639    0.0000 C   0  0
   22.3797    1.4740    0.0000 C   0  0
   22.3821    2.3000    0.0000 C   0  0
   21.6635    2.7140    0.0000 C   0  0
   20.9515    2.3015    0.0000 C   0  0
   21.6626    3.5390    0.0000 F   0  0
   20.2362    2.7125    0.0000 F   0  0
   23.0970    2.7117    0.0000 F   0  0
   23.0930    1.0594    0.0000 F   0  0
   21.6606    0.2389    0.0000 F   0  0
 17 19  2  0
  9  5  1  0
 19 20  1  0
  3  4  2  0
 20 21  2  0
  9 10  1  0
 21 22  1  0
  5  6  2  0
 22 23  2  0
 23 17  1  0
 24 25  1  0
 10 11  1  0
 11 12  1  0
  6  4  1  0
 11 13  2  0
  5  1  1  0
 24 29  1  0
 25 26  1  0
 26 27  1  0
 27 28  1  0
 28 29  1  0
 21 24  1  0
  4 14  1  0
 18 30  2  0
  1  2  2  0
 30 31  1  0
  2 15  1  0
 31 32  2  0
  2  3  1  0
 32 33  1  0
 15 16  1  0
 33 34  2  0
 34 18  1  0
  6  7  1  0
 33 35  1  0
 16 17  1  0
 34 36  1  0
  7  8  2  0
 32 37  1  0
 14 18  1  0
 31 38  1  0
  8  9  1  0
 30 39  1  0
M  END