
          11280715322D 1   1.00000     0.00000     0

 14 15  0     0  0            999 V2000
    6.7792   -5.3167    0.0000 C   0  0  0  0  0  0           0  0  0
    6.0667   -5.7250    0.0000 C   0  0  0  0  0  0           0  0  0
    6.7792   -4.4792    0.0000 C   0  0  0  0  0  0           0  0  0
    5.3542   -5.3167    0.0000 C   0  0  0  0  0  0           0  0  0
    6.0667   -4.0667    0.0000 C   0  0  0  0  0  0           0  0  0
    5.3542   -4.4792    0.0000 C   0  0  0  0  0  0           0  0  0
    8.2125   -5.3167    0.0000 N   0  0  0  0  0  0           0  0  0
    7.4917   -5.7250    0.0000 C   0  0  3  0  0  0           0  0  0
    4.6417   -5.7250    0.0000 O   0  0  0  0  0  0           0  0  0
    4.6417   -4.0667    0.0000 O   0  0  0  0  0  0           0  0  0
    8.2125   -4.4792    0.0000 C   0  0  0  0  0  0           0  0  0
    8.2000   -6.9542    0.0000 N   0  0  0  0  0  0           0  0  0
    7.4917   -4.0667    0.0000 C   0  0  0  0  0  0           0  0  0
    7.4917   -6.5417    0.0000 C   0  0  0  0  0  0           0  0  0
  2  1  1  0     0  0
  3  1  2  0     0  0
  4  2  2  0     0  0
  5  3  1  0     0  0
  6  5  2  0     0  0
  7  8  1  0     0  0
  8  1  1  0     0  0
  9  4  1  0     0  0
 10  6  1  0     0  0
 11  7  1  0     0  0
 12 14  1  0     0  0
 13  3  1  0     0  0
 14  8  1  0     0  0
 11 13  1  0     0  0
  6  4  1  0     0  0
M  END