
          11280715132D 1   1.00000     0.00000     0

 10 10  0     0  0            999 V2000
    2.5542   -4.1750    0.0000 N   0  0  0  0  0  0           0  0  0
    3.8917   -4.1917    0.0000 N   0  0  0  0  0  0           0  0  0
    3.2125   -4.6667    0.0000 C   0  0  0  0  0  0           0  0  0
    3.6417   -3.4042    0.0000 C   0  0  0  0  0  0           0  0  0
    2.8167   -3.3917    0.0000 C   0  0  0  0  0  0           0  0  0
    6.5250   -1.2667    0.0000 N   0  0  0  0  0  0           0  0  0
    4.0542   -2.6917    0.0000 C   0  0  0  0  0  0           0  0  0
    6.1167   -1.9792    0.0000 C   0  0  0  0  0  0           0  0  0
    4.8792   -2.6917    0.0000 C   0  0  0  0  0  0           0  0  0
    5.2917   -1.9792    0.0000 C   0  0  0  0  0  0           0  0  0
  2  3  2  0     0  0
  3  1  1  0     0  0
  4  5  2  0     0  0
  5  1  1  0     0  0
  6  8  1  0     0  0
  7  4  1  0     0  0
  8 10  1  0     0  0
  9  7  1  0     0  0
 10  9  1  0     0  0
  2  4  1  0     0  0
M  END