
  SciTegic11201417442D

 29 31  0  0  0  0            999 V2000
   -1.0625   -3.6241    0.0000 Br  0  5
   -4.7143   -3.1232    0.0000 C   0  0
   -5.4288   -3.5357    0.0000 C   0  0
   -5.4288   -4.3607    0.0000 C   0  0
   -4.7143   -4.7732    0.0000 C   0  0
   -3.9998   -4.3607    0.0000 C   0  0
   -3.9998   -3.5357    0.0000 C   0  0
   -4.7143   -5.5982    0.0000 C   0  0
   -5.5393   -5.5982    0.0000 C   0  0
   -5.9518   -4.8837    0.0000 C   0  0
   -6.7768   -4.8837    0.0000 C   0  0
   -7.1893   -5.5982    0.0000 C   0  0
   -6.7768   -6.3127    0.0000 C   0  0
   -5.9518   -6.3127    0.0000 C   0  0
   -4.9278   -6.3951    0.0000 C   0  0
   -5.1413   -7.1920    0.0000 N   0  0
   -3.9998   -6.0107    0.0000 C   0  0
   -3.2853   -5.5982    0.0000 C   0  0  2  0  0  0
   -1.6353   -5.5982    0.0000 N   0  3
   -2.0478   -4.8837    0.0000 C   0  0  2  0  0  0
   -2.8728   -4.8837    0.0000 C   0  0
   -2.8728   -6.3127    0.0000 C   0  0
   -2.0478   -6.3127    0.0000 C   0  0  1  0  0  0
   -0.0295   -4.9205    0.0000 C   0  0
   -0.0589   -6.3348    0.0000 C   0  0
   -0.8384   -5.3847    0.0000 C   0  0
   -0.9208   -6.0107    0.0000 C   0  0
   -2.0478   -4.0587    0.0000 H   0  0
   -2.0524   -7.1377    0.0000 H   0  0
  2  3  1  0
  2  7  2  0
  3  4  2  0
  4  5  1  0
  5  6  2  0
  6  7  1  0
  5  8  1  0
  8  9  1  0
  9 10  1  0
  9 14  2  0
 10 11  2  0
 11 12  1  0
 12 13  2  0
 13 14  1  0
  8 15  1  0
 15 16  3  0
  8 17  1  0
 18 17  1  6
 21 18  1  0
 18 22  1  0
 19 20  1  0
 20 21  1  0
 22 23  1  0
 23 19  1  0
 23 25  1  0
 25 24  1  0
 20 24  1  0
 19 26  1  0
 19 27  1  0
 20 28  1  1
 23 29  1  1
M  CHG  2   1  -1  19   1
M  END