
  SciTegic01311317052D

 27 30  0  0  1  0            999 V2000
   -1.6712    2.1774    0.0000 C   0  0
   -2.3861    1.7626    0.0000 C   0  0
   -2.3861    0.9376    0.0000 C   0  0
   -3.1009    0.5273    0.0000 O   0  0
   -1.6712    0.5273    0.0000 C   0  0
   -0.9565    0.9376    0.0000 C   0  0
   -0.2417    0.5273    0.0000 C   0  0
    0.4731    0.9376    0.0000 C   0  0  2  0  0  0
    0.4731    1.7626    0.0000 C   0  0  1  0  0  0
    1.1879    2.1774    0.0000 C   0  0  2  0  0  0
    1.9734    1.9235    0.0000 C   0  0
    2.4582    2.5877    0.0000 C   0  0
    1.9734    3.2519    0.0000 C   0  0  1  0  0  0
    1.1879    3.0025    0.0000 C   0  0  2  0  0  0
    1.1879    3.8275    0.0000 C   0  0
    0.4731    3.4128    0.0000 C   0  0
   -0.2417    3.0025    0.0000 C   0  0
   -0.2417    2.1774    0.0000 C   0  0  2  0  0  0
   -0.9565    1.7626    0.0000 C   0  0  1  0  0  0
   -0.9565    2.5877    0.0000 C   0  0
   -0.2417    1.3523    0.0000 H   0  0
    0.4731    2.5877    0.0000 H   0  0
    1.1879    1.3523    0.0000 H   0  0
    1.1883    0.5273    0.0000 C   0  0
    1.7550    4.0525    0.0000 O   0  0
    2.7943    3.2547    0.0000 C   0  0
    3.6193    3.2547    0.0000 C   0  0
  3  5  1  0
  5  6  1  0
  6  7  2  0
  7  8  1  0
  8  9  1  0
  9 10  1  0
 10 11  1  0
 11 12  1  0
 12 13  1  0
 13 14  1  0
 10 14  1  0
 14 15  1  1
 14 16  1  0
 16 17  1  0
 17 18  1  0
  9 18  1  0
 18 19  1  0
  1 19  1  0
  6 19  1  0
 19 20  1  1
 18 21  1  6
  9 22  1  1
 10 23  1  6
  8 24  1  6
  1  2  1  0
 13 25  1  1
  2  3  1  0
 13 26  1  0
  3  4  1  0
 26 27  3  0
M  END