
          11280715192D 1   1.00000     0.00000     0

 35 37  0     1  0            999 V2000
    3.6792   -5.5917    0.0000 C   0  0  1  0  0  0           0  0  0
    4.3917   -6.0000    0.0000 C   0  0  1  0  0  0           0  0  0
    2.9542   -6.0000    0.0000 C   0  0  2  0  0  0           0  0  0
    4.3917   -6.8167    0.0000 C   0  0  2  0  0  0           0  0  0
    2.9542   -6.8167    0.0000 C   0  0  1  0  0  0           0  0  0
    3.6792   -4.7542    0.0000 C   0  0  0  0  0  0           0  0  0
    3.6792   -7.2375    0.0000 C   0  0  2  0  0  0           0  0  0
    5.1125   -5.5917    0.0000 O   0  0  0  0  0  0           0  0  0
    5.1125   -4.7542    0.0000 C   0  0  2  0  0  0           0  0  0
    5.1125   -7.2375    0.0000 O   0  0  0  0  0  0           0  0  0
    5.8250   -6.8167    0.0000 C   0  0  0  0  0  0           0  0  0
    2.2417   -7.2375    0.0000 C   0  0  3  0  0  0           0  0  0
    4.3917   -4.3417    0.0000 C   0  0  0  0  0  0           0  0  0
    9.4125   -6.4542    0.0000 C   0  0  0  0  0  0           0  0  0
    2.2417   -5.5917    0.0000 C   0  0  2  0  0  0           0  0  0
   10.1292   -6.0500    0.0000 S   0  0  0  0  0  0           0  0  0
    8.6917   -6.8542    0.0000 N   0  0  0  0  0  0           0  0  0
    2.9542   -4.3417    0.0000 O   0  0  0  0  0  0           0  0  0
    3.7167   -6.3750    0.0000 O   0  0  0  0  0  0           0  0  0
    5.8542   -5.2042    0.0000 C   0  0  0  0  0  0           0  0  0
    5.8250   -5.9792    0.0000 O   0  0  0  0  0  0           0  0  0
    1.5250   -6.8167    0.0000 C   0  0  0  0  0  0           0  0  0
    1.5250   -6.0000    0.0000 C   0  0  0  0  0  0           0  0  0
    4.3917   -5.2167    0.0000 C   0  0  0  0  0  0           0  0  0
    6.5500   -7.2417    0.0000 N   0  0  0  0  0  0           0  0  0
    3.6792   -8.0750    0.0000 O   0  0  0  0  0  0           0  0  0
    2.9542   -5.1667    0.0000 C   0  0  0  0  0  0           0  0  0
    6.6500   -4.8292    0.0000 C   0  0  0  0  0  0           0  0  0
    2.2417   -4.7542    0.0000 O   0  0  0  0  0  0           0  0  0
    5.8375   -4.3292    0.0000 C   0  0  0  0  0  0           0  0  0
    1.6167   -7.6917    0.0000 C   0  0  0  0  0  0           0  0  0
    2.2417   -8.0750    0.0000 C   0  0  0  0  0  0           0  0  0
    7.9750   -7.2625    0.0000 C   0  0  0  0  0  0           0  0  0
    7.2667   -6.8417    0.0000 C   0  0  0  0  0  0           0  0  0
    2.9542   -7.6292    0.0000 H   0  0  0  0  0  0           0  0  0
  2  1  1  0     0  0
  3  1  1  0     0  0
  4  2  1  0     0  0
  5  3  1  0     0  0
  6  1  1  0     0  0
  7  5  1  0     0  0
  8  2  1  0     0  0
  9 13  1  0     0  0
  4 10  1  1     0  0
 11 10  1  0     0  0
 12  5  1  0     0  0
 13  6  1  0     0  0
 14 17  2  0     0  0
 15  3  1  0     0  0
 16 14  2  0     0  0
 17 33  1  0     0  0
 18  6  2  0     0  0
  1 19  1  6     0  0
  9 20  1  6     0  0
 21 11  2  0     0  0
 22 23  1  0     0  0
 23 15  1  0     0  0
  2 24  1  1     0  0
 25 11  1  0     0  0
  7 26  1  1     0  0
  3 27  1  1     0  0
 28 20  2  0     0  0
 15 29  1  6     0  0
  9 30  1  1     0  0
 12 31  1  0     0  0
 12 32  1  0     0  0
 33 34  1  0     0  0
 34 25  1  0     0  0
  5 35  1  6     0  0
  9  8  1  0     0  0
  7  4  1  0     0  0
 22 12  1  0     0  0
M  END