
          08180812472D 1   1.00000     0.00000     0

 30 33  0     1  0            999 V2000
   12.5523  -26.3255    0.0000 C   0  0  1  0  0  0           0  0  0
   12.5523  -25.5005    0.0000 C   0  0  0  0  0  0           0  0  0
   13.2664  -25.0880    0.0000 C   0  0  0  0  0  0           0  0  0
   11.8382  -26.7380    0.0000 O   0  0  0  0  0  0           0  0  0
   13.2664  -26.7380    0.0000 C   0  0  0  0  0  0           0  0  0
   13.9806  -26.3255    0.0000 C   0  0  2  0  0  0           0  0  0
   14.6947  -26.7380    0.0000 C   0  0  0  0  0  0           0  0  0
   15.4134  -26.3255    0.0000 C   0  0  2  0  0  0           0  0  0
   15.4134  -25.5005    0.0000 C   0  0  1  0  0  0           0  0  0
   16.1275  -25.0880    0.0000 C   0  0  2  0  0  0           0  0  0
   16.9081  -25.3433    0.0000 C   0  0  0  0  0  0           0  0  0
   17.3955  -24.6755    0.0000 C   0  0  0  0  0  0           0  0  0
   16.9081  -24.0077    0.0000 C   0  0  2  0  0  0           0  0  0
   17.1680  -23.2225    0.0000 O   0  0  0  0  0  0           0  0  0
   16.1275  -24.2630    0.0000 C   0  0  2  0  0  0           0  0  0
   16.1275  -23.4380    0.0000 C   0  0  0  0  0  0           0  0  0
   15.4134  -23.8505    0.0000 C   0  0  0  0  0  0           0  0  0
   14.6947  -24.2630    0.0000 C   0  0  0  0  0  0           0  0  0
   14.6947  -25.0880    0.0000 C   0  0  2  0  0  0           0  0  0
   13.9806  -25.5005    0.0000 C   0  0  1  0  0  0           0  0  0
   13.9806  -24.6755    0.0000 H   0  0  0  0  0  0           0  0  0
   16.1275  -26.7380    0.0000 C   0  0  0  0  0  0           0  0  0
   14.6947  -25.9130    0.0000 H   0  0  0  0  0  0           0  0  0
   15.4134  -24.6755    0.0000 H   0  0  0  0  0  0           0  0  0
   16.1275  -25.9130    0.0000 H   0  0  0  0  0  0           0  0  0
   13.9746  -27.1471    0.0000 H   0  0  0  0  0  0           0  0  0
   17.7329  -24.0075    0.0000 C   0  0  0  0  0  0           0  0  0
   18.5579  -24.0075    0.0000 C   0  0  0  0  0  0           0  0  0
   15.4130  -23.0255    0.0000 C   0  0  0  0  0  0           0  0  0
   13.9807  -23.8496    0.0000 C   0  0  0  0  0  0           0  0  0
  5  6  1  0     0  0
  6  7  1  0     0  0
  7  8  1  0     0  0
  8  9  1  0     0  0
  9 10  1  0     0  0
 10 11  1  0     0  0
 11 12  1  0     0  0
 12 13  1  0     0  0
 13 14  1  1     0  0
 13 15  1  0     0  0
 10 15  1  0     0  0
 15 16  1  1     0  0
 15 17  1  0     0  0
 17 18  1  0     0  0
 18 19  1  0     0  0
  9 19  1  0     0  0
 19 20  1  0     0  0
  3 20  1  0     0  0
  6 20  1  0     0  0
 20 21  1  1     0  0
  8 22  1  6     0  0
 19 23  1  6     0  0
  9 24  1  1     0  0
 10 25  1  6     0  0
  6 26  1  6     0  0
  1  2  1  0     0  0
 13 27  1  0     0  0
  2  3  1  0     0  0
 27 28  3  0     0  0
  1  4  1  6     0  0
 16 29  1  0     0  0
  1  5  1  0     0  0
 18 30  2  0     0  0
M  END