
  SciTegic12231509382D

 22 25  0  0  0  0            999 V2000
   -3.8215   -9.9755    0.0000 C   0  0
   -3.8227  -10.8036    0.0000 C   0  0
   -3.1090   -9.5624    0.0000 C   0  0
   -3.1081  -11.2147    0.0000 C   0  0
   -1.6754  -12.0388    0.0000 C   0  0
   -2.3940  -12.4553    0.0000 C   0  0
   -3.1057  -12.0379    0.0000 C   0  0
   -3.8208  -12.4454    0.0000 C   0  0
   -3.8257  -13.2701    0.0000 C   0  0
   -3.1093  -13.6858    0.0000 C   0  0
   -2.3970  -13.2760    0.0000 C   0  0
   -2.3930   -9.9719    0.0000 C   0  0
   -2.3896  -10.8011    0.0000 C   0  0
   -1.6737  -11.2105    0.0000 C   0  0  2  0  0  0
   -0.9567  -10.7952    0.0000 N   0  0
   -0.9601   -9.9660    0.0000 C   0  0
   -1.6805   -9.5520    0.0000 C   0  0
   -4.5368   -9.5628    0.0000 O   0  0
   -4.5335  -12.0283    0.0000 O   0  0
   -4.5425  -13.6802    0.0000 O   0  0
   -1.6807  -10.3843    0.0000 H   0  0
   -0.2404  -11.2062    0.0000 C   0  0
  9 10  1  0
  4  7  1  0
 10 11  2  0
 11  6  1  0
 12 13  1  0
  2  4  1  0
  6  5  1  0
  5 14  1  0
 12  3  2  0
  6  7  2  0
 12 17  1  0
 13 14  1  0
 14 15  1  0
 15 16  1  0
 16 17  1  0
  3  1  1  0
  1 18  1  0
  7  8  1  0
  8 19  1  0
  1  2  2  0
  9 20  1  0
  8  9  2  0
 14 21  1  1
 13  4  2  0
 15 22  1  0
M  END