
  SciTegic02211115552D

 35 39  0  0  0  0            999 V2000
    5.1379  -12.6086    0.0000 C   0  0
    5.1367  -13.4363    0.0000 C   0  0
    5.8518  -13.8493    0.0000 N   0  0
    5.8500  -12.1957    0.0000 C   0  0
    6.5656  -12.6050    0.0000 C   0  0
    6.5659  -13.4363    0.0000 C   0  0
    7.3566  -13.6930    0.0000 N   0  0
    7.8452  -13.0202    0.0000 C   0  0
    7.3557  -12.3487    0.0000 C   0  0
    4.4252  -12.1963    0.0000 C   0  0
    4.4263  -11.3700    0.0000 C   0  0
    3.7123  -10.9575    0.0000 C   0  0
    2.9968  -11.3704    0.0000 C   0  0
    2.9996  -12.2000    0.0000 N   0  0
    3.7141  -12.6086    0.0000 C   0  0
    3.7125  -10.1322    0.0000 N   0  0
    4.4274   -9.7198    0.0000 S   0  0
    4.4276   -8.8945    0.0000 C   0  0
    5.1420  -10.1326    0.0000 O   0  0
    5.1393   -9.2991    0.0000 O   0  0
    5.1419   -8.4866    0.0000 C   0  0
    5.1425   -7.6620    0.0000 C   0  0
    4.4274   -7.2484    0.0000 C   0  0
    3.7101   -7.6653    0.0000 C   0  0
    3.7131   -8.4885    0.0000 C   0  0
    7.7873  -11.6470    0.0000 C   0  0
    8.6134  -11.6711    0.0000 C   0  0
    9.0454  -10.9688    0.0000 C   0  0
    8.6526  -10.2421    0.0000 C   0  0
    7.8233  -10.2218    0.0000 C   0  0
    7.3949  -10.9248    0.0000 C   0  0
    9.8676  -10.9943    0.0000 O   0  0
   10.3002  -10.2915    0.0000 C   0  0
    9.0820   -9.5412    0.0000 O   0  0
    8.6883   -8.8158    0.0000 C   0  0
  6  7  1  0
 16 17  1  0
  7  8  1  0
 17 18  1  0
  8  9  2  0
 17 19  2  0
  9  5  1  0
 17 20  2  0
  4  1  1  0
 18 21  2  0
  5  6  1  0
 21 22  1  0
 10 11  2  0
 22 23  2  0
 23 24  1  0
 11 12  1  0
 24 25  2  0
 25 18  1  0
  2  3  1  0
 12 13  2  0
 26 27  2  0
  3  6  2  0
 27 28  1  0
 13 14  1  0
 28 29  2  0
  1  2  2  0
 29 30  1  0
 14 15  2  0
 30 31  2  0
 31 26  1  0
  9 26  1  0
 15 10  1  0
  1 10  1  0
 32 33  1  0
 28 32  1  0
  5  4  2  0
 12 16  1  0
 34 35  1  0
 29 34  1  0
M  END