
          11280715332D 1   1.00000     0.00000     0

 30 33  0     0  0            999 V2000
    1.0000    1.0250    0.0000 N   0  0  0  0  0  0           0  0  0
    0.3375    0.5458    0.0000 C   0  0  0  0  0  0           0  0  0
    5.7125   -1.2417    0.0000 N   0  0  0  0  0  0           0  0  0
    0.5875   -0.2417    0.0000 N   0  0  0  0  0  0           0  0  0
    1.6667    0.5458    0.0000 C   0  0  0  0  0  0           0  0  0
    4.9042   -1.4167    0.0000 C   0  0  0  0  0  0           0  0  0
    1.4125   -0.2417    0.0000 C   0  0  0  0  0  0           0  0  0
    5.5667   -2.5667    0.0000 N   0  0  0  0  0  0           0  0  0
    6.1250   -1.9542    0.0000 C   0  0  0  0  0  0           0  0  0
   -1.8458    0.4958    0.0000 C   0  0  3  0  0  0           0  0  0
   -1.0625    0.2458    0.0000 C   0  0  0  0  0  0           0  0  0
    4.8167   -2.2292    0.0000 C   0  0  0  0  0  0           0  0  0
   -0.4458    0.7958    0.0000 C   0  0  0  0  0  0           0  0  0
   -2.0208    1.3083    0.0000 C   0  0  0  0  0  0           0  0  0
   -2.4583   -0.0542    0.0000 C   0  0  0  0  0  0           0  0  0
    2.4542    0.7958    0.0000 C   0  0  0  0  0  0           0  0  0
    4.2917   -0.8625    0.0000 C   0  0  0  0  0  0           0  0  0
    3.8542    0.4958    0.0000 N   0  0  0  0  0  0           0  0  0
    3.0667    0.2458    0.0000 C   0  0  0  0  0  0           0  0  0
    4.4667   -0.0542    0.0000 C   0  0  0  0  0  0           0  0  0
   -2.2833   -0.8542    0.0000 C   0  0  0  0  0  0           0  0  0
   -1.4083    1.8583    0.0000 C   0  0  0  0  0  0           0  0  0
   -2.8000    1.5583    0.0000 C   0  0  0  0  0  0           0  0  0
   -3.2458    0.2000    0.0000 C   0  0  0  0  0  0           0  0  0
   -1.5750    2.6625    0.0000 C   0  0  0  0  0  0           0  0  0
   -2.9750    2.3583    0.0000 C   0  0  0  0  0  0           0  0  0
   -3.8500   -0.3500    0.0000 C   0  0  0  0  0  0           0  0  0
   -2.8958   -1.4125    0.0000 C   0  0  0  0  0  0           0  0  0
   -3.6833   -1.1542    0.0000 C   0  0  0  0  0  0           0  0  0
   -2.3625    2.9208    0.0000 C   0  0  0  0  0  0           0  0  0
  2  1  2  0     0  0
  3  6  1  0     0  0
  4  2  1  0     0  0
  5  1  1  0     0  0
  6 17  1  0     0  0
  7  5  2  0     0  0
  8 12  1  0     0  0
  9  3  1  0     0  0
 10 11  1  0     0  0
 11 13  1  0     0  0
 12  6  2  0     0  0
 13  2  1  0     0  0
 14 10  1  0     0  0
 15 10  1  0     0  0
 16  5  1  0     0  0
 17 20  1  0     0  0
 18 19  1  0     0  0
 19 16  1  0     0  0
 20 18  1  0     0  0
 21 15  1  0     0  0
 22 14  2  0     0  0
 23 14  1  0     0  0
 24 15  2  0     0  0
 25 22  1  0     0  0
 26 23  2  0     0  0
 27 24  1  0     0  0
 28 21  2  0     0  0
 29 27  2  0     0  0
 30 26  1  0     0  0
  4  7  1  0     0  0
 28 29  1  0     0  0
 25 30  2  0     0  0
  8  9  2  0     0  0
M  END