
  SciTegic01161211242D

 25 28  0  0  0  0            999 V2000
    6.0542   -7.9417    0.0000 C   0  0  2  0  0  0
    6.0542   -8.7667    0.0000 C   0  0
    6.7662   -9.1750    0.0000 N   0  0
    7.4782   -8.7667    0.0000 C   0  0
    7.4782   -7.9417    0.0000 C   0  0
    6.7662   -7.5250    0.0000 C   0  0
    6.4292   -8.3792    0.0000 C   0  0
    6.9917   -8.1917    0.0000 C   0  0
    5.3385   -7.5313    0.0000 O   0  0
    4.6252   -7.9459    0.0000 C   0  0
    3.9095   -7.5355    0.0000 C   0  0
    4.6277   -8.7709    0.0000 O   0  0
    3.9071   -6.7105    0.0000 C   0  0
    3.1963   -7.9501    0.0000 C   0  0
    4.4911   -6.9504    0.0000 O   0  0
    2.4814   -7.5365    0.0000 C   0  0
    1.7686   -7.9504    0.0000 C   0  0
    1.7706   -8.7763    0.0000 C   0  0
    2.4913   -9.1865    0.0000 C   0  0
    3.2011   -8.7702    0.0000 C   0  0
    4.6201   -6.2978    0.0000 C   0  0
    4.6180   -5.4735    0.0000 C   0  0
    3.9018   -5.0623    0.0000 C   0  0
    3.1862   -5.4814    0.0000 C   0  0
    3.1918   -6.3043    0.0000 C   0  0
 10 12  2  0
  5  6  1  0
 11 13  1  0
 11 14  1  0
  3  7  1  0
 11 15  1  0
  1  2  1  0
 14 16  2  0
  7  8  1  0
 16 17  1  0
  8  6  1  0
 17 18  2  0
  1  6  1  0
 18 19  1  0
  1  9  1  6
 19 20  2  0
 20 14  1  0
  2  3  1  0
 13 21  2  0
  9 10  1  0
 21 22  1  0
  3  4  1  0
 22 23  2  0
 10 11  1  0
 23 24  1  0
  4  5  1  0
 24 25  2  0
 25 13  1  0
M  END