
          02060813472D 1   1.00000     0.00000     0

 36 40  0     1  0            999 V2000
    8.0542  -27.2000    0.0000 C   0  0  0  0  0  0           0  0  0
    8.0542  -28.0250    0.0000 O   0  0  0  0  0  0           0  0  0
    8.7662  -28.4333    0.0000 C   0  0  0  0  0  0           0  0  0
    9.4782  -28.0250    0.0000 C   0  0  0  0  0  0           0  0  0
    9.4782  -27.2000    0.0000 N   0  0  3  0  0  0           0  0  0
    8.7662  -26.7833    0.0000 C   0  0  0  0  0  0           0  0  0
   10.1939  -26.7896    0.0000 C   0  0  0  0  0  0           0  0  0
   10.9071  -27.2042    0.0000 C   0  0  0  0  0  0           0  0  0
   10.1963  -25.9646    0.0000 O   0  0  0  0  0  0           0  0  0
   11.6228  -26.7938    0.0000 C   0  0  1  0  0  0           0  0  0
   11.6167  -25.9667    0.0000 C   0  0  0  0  0  0           0  0  0
   12.3382  -27.2047    0.0000 C   0  0  0  0  0  0           0  0  0
   12.3401  -28.0297    0.0000 O   0  0  0  0  0  0           0  0  0
   13.0518  -26.7906    0.0000 N   0  0  0  0  0  0           0  0  0
   13.7667  -27.2015    0.0000 C   0  0  2  0  0  0           0  0  0
   13.5052  -27.9834    0.0000 C   0  0  0  0  0  0           0  0  0
   14.1677  -28.4752    0.0000 C   0  0  0  0  0  0           0  0  0
   14.8401  -27.9971    0.0000 N   0  0  3  0  0  0           0  0  0
   14.5931  -27.2100    0.0000 C   0  0  0  0  0  0           0  0  0
   14.2162  -26.5050    0.0000 C   0  0  0  0  0  0           0  0  0
   14.6657  -25.8099    0.0000 N   0  0  0  0  0  0           0  0  0
   15.6221  -28.2600    0.0000 C   0  0  3  0  0  0           0  0  0
   15.7789  -29.0667    0.0000 C   0  0  0  0  0  0           0  0  0
   16.5569  -29.3304    0.0000 C   0  0  0  0  0  0           0  0  0
   17.1786  -28.7876    0.0000 C   0  0  0  0  0  0           0  0  0
   17.0171  -27.9776    0.0000 C   0  0  0  0  0  0           0  0  0
   16.2337  -27.7104    0.0000 C   0  0  0  0  0  0           0  0  0
   12.3281  -25.5489    0.0000 C   0  0  3  0  0  0           0  0  0
   13.0824  -25.8744    0.0000 C   0  0  0  0  0  0           0  0  0
   12.4064  -24.7234    0.0000 C   0  0  0  0  0  0           0  0  0
   13.2120  -24.5458    0.0000 C   0  0  0  0  0  0           0  0  0
   13.6267  -25.2583    0.0000 C   0  0  0  0  0  0           0  0  0
   14.4491  -25.2544    0.0000 C   0  0  0  0  0  0           0  0  0
   14.8579  -24.5388    0.0000 C   0  0  0  0  0  0           0  0  0
   14.4383  -23.8257    0.0000 C   0  0  0  0  0  0           0  0  0
   13.6172  -23.8330    0.0000 C   0  0  0  0  0  0           0  0  0
 16 17  1  0     0  0
 17 18  1  0     0  0
 18 19  1  0     0  0
  2  3  1  0     0  0
 15 20  1  0     0  0
  8 10  1  0     0  0
 20 21  3  0     0  0
  3  4  1  0     0  0
 18 22  1  0     0  0
 22 23  1  0     0  0
 10 11  1  1     0  0
  4  5  1  0     0  0
 10 12  1  0     0  0
  5  6  1  0     0  0
 12 13  2  0     0  0
 22 27  1  0     0  0
 23 24  1  0     0  0
 24 25  1  0     0  0
 25 26  1  0     0  0
 26 27  1  0     0  0
 11 28  1  0     0  0
 28 29  1  0     0  0
 12 14  1  0     0  0
  5  7  1  0     0  0
 29 32  1  0     0  0
 31 30  1  0     0  0
 30 28  1  0     0  0
 15 14  1  1     0  0
 15 16  1  0     0  0
 31 32  2  0     0  0
  1  2  1  0     0  0
 32 33  1  0     0  0
  7  8  1  0     0  0
 33 34  2  0     0  0
  1  6  1  0     0  0
 34 35  1  0     0  0
  7  9  2  0     0  0
 35 36  2  0     0  0
 36 31  1  0     0  0
 15 19  1  0     0  0
M  END