
  SciTegic07091215302D

141145  0  0  0  0            999 V2000
   -1.8625   -2.7458    0.0000 Na  0  3
   10.2458    5.0625    0.0000 Na  0  3
    0.1958    4.5959    0.0000 Na  0  3
    3.1291    4.3459    0.0000 Na  0  3
    5.6442  -10.1943    0.0000 C   0  0
    6.2565   -9.4847    0.0000 C   0  0
    6.4386   -9.9361    0.0000 C   0  0
    6.9781   -9.7175    0.0000 C   0  0
    7.2033  -10.2072    0.0000 C   0  0
    7.7177   -9.5010    0.0000 C   0  0
    6.4007   -9.0885    0.0000 C   0  0
    6.9293   -8.4040    0.0000 C   0  0
    6.2190   -8.6900    0.0000 C   0  0
    7.6894   -8.6826    0.0000 C   0  0
    6.9120   -7.5895    0.0000 N   0  0
    8.4451   -9.8818    0.0000 C   0  0
    9.1419   -9.4402    0.0000 C   0  0
    9.8728   -9.8228    0.0000 C   0  0
   10.5696   -9.3812    0.0000 N   0  0
    5.5225   -9.0985    0.0000 C   0  0
    4.8248   -9.5387    0.0000 C   0  0
    4.0946   -9.1546    0.0000 C   0  0
    4.0622   -8.3303    0.0000 O   0  0
    6.4673  -10.7565    0.0000 C   0  0
    7.1957  -11.1439    0.0000 C   0  0
    7.2244  -11.9684    0.0000 C   0  0
    7.9528  -12.3556    0.0000 O   0  0
    6.5248  -12.4055    0.0000 N   0  0
    9.9069  -10.6471    0.0000 O   0  0
    6.5535  -13.2300    0.0000 C   0  0  2  0  0  0
    5.8539  -13.6672    0.0000 C   0  0
    7.2820  -13.6174    0.0000 C   0  0
    7.9816  -13.1802    0.0000 C   0  0
    8.7100  -13.5675    0.0000 P   0  0
    9.4358  -13.9484    0.0000 C   0  0
    8.3247  -14.2970    0.0000 O   0  0
    9.1001  -12.8406    0.0000 O   0  0
   10.1331  -13.5074    0.0000 C   0  0
   10.8636  -13.8907    0.0000 C   0  0
   10.0998  -12.6830    0.0000 C   0  0
   10.8969  -14.7150    0.0000 C   0  0
   11.6274  -15.0984    0.0000 C   0  0
   11.6641  -15.9230    0.0000 O   0  0
   12.3281  -14.6577    0.0000 O   0  0
   10.7955  -12.2405    0.0000 O   0  0
    9.3678  -12.2982    0.0000 O   0  0
    5.1228  -13.2822    0.0000 O   0  0
    5.8800  -14.4940    0.0000 O   0  0
   11.3005   -9.7638    0.0000 C   0  0  1  0  0  0
   11.9974   -9.3222    0.0000 C   0  0
   11.3346  -10.5881    0.0000 C   0  0
   12.7283   -9.7049    0.0000 C   0  0
   13.4251   -9.2632    0.0000 P   0  0
   14.1182   -8.8160    0.0000 C   0  0
   13.8696   -9.9582    0.0000 O   0  0
   12.9807   -8.5681    0.0000 O   0  0
   14.8522   -9.1926    0.0000 C   0  0
   15.5454   -8.7453    0.0000 C   0  0
   14.8930  -10.0166    0.0000 C   0  0
   15.5046   -7.9213    0.0000 C   0  0
   16.1978   -7.4740    0.0000 C   0  0
   16.9348   -7.8478    0.0000 O   0  5
   16.1600   -6.6471    0.0000 O   0  0
   14.2005  -10.4667    0.0000 O   0  0
   15.6277  -10.3960    0.0000 O   0  0
   10.6393  -11.0313    0.0000 O   0  0
   12.0670  -10.9723    0.0000 O   0  0
    6.1890   -7.1922    0.0000 C   0  0
    6.1715   -6.3674    0.0000 C   0  0
    5.4834   -7.6198    0.0000 O   0  0
    6.8770   -5.9398    0.0000 C   0  0
    6.8595   -5.1150    0.0000 C   0  0
    7.5651   -4.6875    0.0000 C   0  0
    8.2882   -5.0847    0.0000 C   0  0
    8.9937   -4.6572    0.0000 N   0  0
    3.8527    2.2792    0.0000 C   0  0
    3.8515    1.4518    0.0000 C   0  0
    5.2828    1.4523    0.0000 C   0  0
    5.2799    2.2828    0.0000 C   0  0
    4.5646    2.6920    0.0000 C   0  0
    5.9979    1.0409    0.0000 O   0  0
    5.9992    0.2159    0.0000 C   0  0
    5.2824   -0.1928    0.0000 C   0  0
    5.2817   -1.0142    0.0000 C   0  0
    5.9950   -1.4295    0.0000 C   0  0
    6.7106   -1.0171    0.0000 C   0  0
    6.7130   -0.1894    0.0000 C   0  0
    4.5692    0.2219    0.0000 C   0  0
    4.5718    1.0469    0.0000 C   0  0
    3.8535   -0.1884    0.0000 C   0  0
    3.1403    0.2263    0.0000 C   0  0
    3.0538    1.0436    0.0000 C   0  0
    2.3828   -0.1103    0.0000 N   0  0
    1.8326    0.5044    0.0000 C   0  0
    2.2504    1.2149    0.0000 C   0  0
    1.8442    1.9298    0.0000 C   0  0
    1.0202    1.9356    0.0000 C   0  0
    0.6042    1.2204    0.0000 C   0  0
    1.0129    0.5083    0.0000 C   0  0
    2.2098   -0.9169    0.0000 C   0  0
    1.4247   -1.1704    0.0000 C   0  0
    1.2517   -1.9771    0.0000 C   0  0
    0.4666   -2.2306    0.0000 C   0  0
    0.2936   -3.0373    0.0000 S   0  0
   -0.1250   -3.7458    0.0000 O   0  5
    1.0621   -3.3375    0.0000 O   0  0
   -0.4759   -2.7397    0.0000 O   0  0
    3.1381    2.6915    0.0000 S   0  0
    2.4208    3.1042    0.0000 O   0  5
    3.5500    3.4064    0.0000 O   0  0
    2.7285    1.9754    0.0000 O   0  0
    0.6113    2.6521    0.0000 S   0  0
    0.1916    3.3708    0.0000 O   0  5
    1.3258    3.0646    0.0000 O   0  0
   -0.0995    2.2333    0.0000 O   0  0
    3.2625    1.8458    0.0000 C   0  0
    3.8458    0.8333    0.0000 C   0  0
    7.4266    0.2246    0.0000 C   0  0
    8.1419   -0.1864    0.0000 C   0  0
    8.8555    0.2276    0.0000 C   0  0
    9.6065   -0.1088    0.0000 N   0  3
    8.9374    1.0462    0.0000 C   0  0
    8.1333    0.8375    0.0000 C   0  0
    8.7166    1.8500    0.0000 C   0  0
    9.7440    1.2196    0.0000 C   0  0
   10.1560    0.5048    0.0000 C   0  0
   10.9791    0.5053    0.0000 C   0  0
   11.3912    1.2197    0.0000 C   0  0
   10.9741    1.9352    0.0000 C   0  0
   10.1524    1.9312    0.0000 C   0  0
   11.3834    2.6515    0.0000 S   0  0
   11.7916    3.3708    0.0000 O   0  5
   12.1003    2.2433    0.0000 O   0  0
   10.6655    3.0579    0.0000 O   0  0
    9.6242   -0.9337    0.0000 C   0  0
    8.9187   -1.3614    0.0000 C   0  0
    8.9364   -2.1862    0.0000 C   0  0
    8.2310   -2.6140    0.0000 C   0  0
    8.2487   -3.4388    0.0000 C   0  0
    8.9719   -3.8358    0.0000 C   0  0
    9.6773   -3.4081    0.0000 O   0  0
 68 70  2  0
 33 34  1  0
 69 71  1  0
  6 13  1  0
 71 72  1  0
 34 35  1  0
 72 73  1  0
 17 18  1  0
 73 74  1  0
 34 36  1  0
 74 75  1  0
 10 14  1  0
 34 37  2  0
 18 19  1  0
 35 38  1  0
 14 12  1  0
 38 39  1  0
  6 20  1  0
 38 40  1  0
 12 13  1  0
 39 41  1  0
 20 21  1  0
 41 42  1  0
 12 15  1  0
 21 22  1  0
 42 43  1  0
 42 44  2  0
 22 23  2  0
  5  6  1  0
 40 45  1  0
 40 46  2  0
  7 24  1  0
 24 25  1  0
 31 47  1  0
 31 48  2  0
  5  7  1  0
 49 19  1  1
 25 26  1  0
 49 50  1  0
 26 27  2  0
 49 51  1  0
  6  8  1  0
 50 52  1  0
 26 28  1  0
 52 53  1  0
 18 29  2  0
 53 54  1  0
  7  9  1  0
 53 55  1  0
  8 10  1  0
 53 56  2  0
  9 10  1  0
 54 57  1  0
 11 12  1  0
 57 58  1  0
 10 16  1  0
 57 59  1  0
  7 11  1  0
 58 60  1  0
 16 17  1  0
 60 61  1  0
 30 28  1  1
 61 62  1  0
 61 63  2  0
 30 31  1  0
 59 64  1  0
 59 65  2  0
 30 32  1  0
 51 66  1  0
 51 67  2  0
 15 68  1  0
 32 33  1  0
 68 69  1  0
 92 95  1  0
 92117  1  0
 94 93  1  0
 87118  1  0
 93 91  1  0
118119  2  0
119120  1  0
120121  2  0
 81 82  1  0
 94 95  2  0
121126  1  0
125122  1  0
122120  1  0
 82 83  1  0
122123  1  0
 95 96  1  0
122124  1  0
 76 77  2  0
 96 97  2  0
125126  2  0
 77 89  1  0
126127  1  0
 97 98  1  0
127128  2  0
128129  1  0
 98 99  2  0
129130  2  0
130125  1  0
 99 94  1  0
129131  1  0
 89 78  2  0
131132  1  0
 93100  1  0
131133  2  0
131134  2  0
100101  1  0
121135  1  0
 82 87  2  0
135136  1  0
101102  1  0
136137  1  0
 83 84  1  0
137138  1  0
102103  1  0
138139  1  0
 84 85  1  0
139140  1  0
103104  1  0
 85 86  1  0
140141  2  0
104105  1  0
 86 87  1  0
104106  2  0
 78 79  1  0
104107  2  0
 83 88  2  0
 76108  1  0
108109  1  0
 79 80  2  0
108110  2  0
 88 90  1  0
108111  2  0
 80 76  1  0
 97112  1  0
 90 91  2  0
112113  1  0
 91 92  1  0
112114  2  0
112115  2  0
 78 81  1  0
 92116  1  0
140 75  1  0
M  CHG  8   1   1   2   1   3   1   4   1  62  -1 105  -1 109  -1 113  -1
M  CHG  2 121   1 132  -1
M  END