
          11280715502D 1   1.00000     0.00000     0

 30 33  0     0  0            999 V2000
    0.7943   -9.9677    0.0000 N   0  0  0  0  0  0           0  0  0
    1.2779  -10.6274    0.0000 C   0  0  0  0  0  0           0  0  0
    0.7934  -11.2988    0.0000 C   0  0  0  0  0  0           0  0  0
    0.0101  -11.0438    0.0000 C   0  0  0  0  0  0           0  0  0
   -0.7009  -11.4559    0.0000 N   0  0  3  0  0  0           0  0  0
   -1.4189  -11.0457    0.0000 C   0  0  0  0  0  0           0  0  0
   -1.4176  -10.2191    0.0000 N   0  0  3  0  0  0           0  0  0
   -0.7025   -9.8070    0.0000 C   0  0  0  0  0  0           0  0  0
    0.0113  -10.2213    0.0000 C   0  0  0  0  0  0           0  0  0
   -0.7002   -8.9826    0.0000 O   0  0  0  0  0  0           0  0  0
   -2.1383  -11.4556    0.0000 O   0  0  0  0  0  0           0  0  0
   -2.1394   -9.7979    0.0000 C   0  0  0  0  0  0           0  0  0
   -0.7008  -12.2803    0.0000 C   0  0  0  0  0  0           0  0  0
    2.1052  -10.5847    0.0000 C   0  0  0  0  0  0           0  0  0
    2.5515  -11.2852    0.0000 C   0  0  0  0  0  0           0  0  0
    3.3751  -11.2512    0.0000 C   0  0  0  0  0  0           0  0  0
    3.7534  -10.5216    0.0000 C   0  0  0  0  0  0           0  0  0
    3.3145   -9.8245    0.0000 C   0  0  0  0  0  0           0  0  0
    2.4881   -9.8579    0.0000 C   0  0  0  0  0  0           0  0  0
    4.5778  -10.4905    0.0000 O   0  0  0  0  0  0           0  0  0
    4.9668   -9.7609    0.0000 C   0  0  0  0  0  0           0  0  0
    5.7912   -9.7296    0.0000 C   0  0  0  0  0  0           0  0  0
    6.1761   -9.0001    0.0000 N   0  0  0  0  0  0           0  0  0
    6.2266  -10.4238    0.0000 O   0  0  0  0  0  0           0  0  0
    6.9997   -8.9683    0.0000 C   0  0  0  0  0  0           0  0  0
    7.4422   -9.6646    0.0000 C   0  0  0  0  0  0           0  0  0
    8.2701   -9.6338    0.0000 C   0  0  0  0  0  0           0  0  0
    8.6516   -8.8995    0.0000 C   0  0  0  0  0  0           0  0  0
    8.2117   -8.2030    0.0000 C   0  0  0  0  0  0           0  0  0
    7.3895   -8.2374    0.0000 C   0  0  0  0  0  0           0  0  0
 14 15  2  0     0  0
  4  5  1  0     0  0
 15 16  1  0     0  0
  5  6  1  0     0  0
 16 17  2  0     0  0
  6  7  1  0     0  0
 17 18  1  0     0  0
  7  8  1  0     0  0
 18 19  2  0     0  0
 19 14  1  0     0  0
  2 14  1  0     0  0
  8  9  1  0     0  0
 17 20  1  0     0  0
  1  2  1  0     0  0
 20 21  1  0     0  0
  8 10  2  0     0  0
 21 22  1  0     0  0
  2  3  2  0     0  0
 22 23  1  0     0  0
  6 11  2  0     0  0
 22 24  2  0     0  0
  3  4  1  0     0  0
 23 25  1  0     0  0
  7 12  1  0     0  0
 25 26  2  0     0  0
  9  1  1  0     0  0
 26 27  1  0     0  0
  5 13  1  0     0  0
 27 28  2  0     0  0
 28 29  1  0     0  0
  4  9  2  0     0  0
 29 30  2  0     0  0
 30 25  1  0     0  0
M  END