
  SciTegic05281310212D

117122  0  0  0  0            999 V2000
    2.8676  -24.5963    0.0000 C   0  0  1  0  0  0
    2.1531  -25.0088    0.0000 C   0  0
    1.3524  -24.5918    0.0000 N   0  0
    0.5454  -24.7633    0.0000 C   0  0
    0.6850  -23.4358    0.0000 N   0  0
    0.1329  -24.0489    0.0000 C   0  0
    6.4399  -18.4088    0.0000 C   0  0
    1.4386  -22.1213    0.0000 C   0  0
    0.7241  -22.5338    0.0000 C   0  0  2  0  0  0
    2.8676  -23.7713    0.0000 N   0  0
    2.1531  -20.8838    0.0000 C   0  0  1  0  0  0
    2.1531  -20.0588    0.0000 C   0  0
    2.8676  -19.6463    0.0000 N   0  0
    2.8676  -18.8213    0.0000 C   0  0
    3.5820  -18.4088    0.0000 C   0  0
    3.5820  -17.5838    0.0000 N   0  0
    4.2965  -17.1713    0.0000 C   0  0
    5.7254  -14.6963    0.0000 C   0  0
    5.7254  -13.8713    0.0000 N   0  0
    6.4399  -13.4588    0.0000 C   0  0  2  0  0  0
    7.1544  -13.8713    0.0000 C   0  0
    7.1544  -14.6963    0.0000 C   0  0
    7.1544  -16.3463    0.0000 C   0  0
    7.1544  -17.1713    0.0000 N   0  0
    6.4399  -17.5838    0.0000 C   0  0  2  0  0  0
    5.0110  -15.1088    0.0000 C   0  0  2  0  0  0
    4.2965  -16.3463    0.0000 C   0  0
    7.1544  -17.9963    0.0000 C   0  0
    7.8689  -17.5838    0.0000 O   0  0
    6.4399  -15.9338    0.0000 O   0  0
    7.8689  -15.1088    0.0000 N   0  0
    7.8689  -15.9338    0.0000 C   0  0  1  0  0  0
    8.6535  -16.1888    0.0000 C   0  0
    9.1384  -15.5213    0.0000 C   0  0
    8.6535  -14.8539    0.0000 C   0  0
    6.4399  -15.1088    0.0000 O   0  0
    7.8689  -13.4588    0.0000 O   0  0
    6.0610  -15.4500    0.0000 O   0  0
    4.2965  -14.6963    0.0000 C   0  0
    4.2965  -13.8713    0.0000 C   0  0
    5.0110  -13.4588    0.0000 C   0  0
    3.5820  -13.4588    0.0000 C   0  0
    3.5820  -15.9338    0.0000 O   0  0
    4.2965  -18.8213    0.0000 O   0  0
    1.4386  -19.6463    0.0000 O   0  0
    6.4399  -12.6338    0.0000 C   0  0
    5.7254  -12.2213    0.0000 C   0  0
    5.0110  -12.6338    0.0000 C   0  0
    4.2965  -12.2213    0.0000 C   0  0
    4.2965  -11.3963    0.0000 C   0  0
    5.0110  -10.9838    0.0000 C   0  0
    5.7254  -11.3963    0.0000 C   0  0
    1.6011  -20.2707    0.0000 C   0  0
    2.1531  -22.5338    0.0000 O   0  0
    0.7941  -20.4423    0.0000 C   0  0
    0.5391  -21.2269    0.0000 C   0  0
   -0.2678  -21.3984    0.0000 C   0  0
   -0.8199  -20.7853    0.0000 C   0  0
   -0.5649  -20.0007    0.0000 C   0  0
    0.2421  -19.8292    0.0000 C   0  0
    0.0188  -22.1059    0.0000 C   0  0
   -0.7045  -22.5028    0.0000 C   0  0
   -1.4507  -22.1510    0.0000 N   0  0
   -2.0159  -22.7519    0.0000 C   0  0
   -0.8085  -23.3212    0.0000 C   0  0
   -0.6876  -23.9626    0.0000 O   0  0
    2.1710  -25.8336    0.0000 O   0  0
    3.5820  -25.0088    0.0000 C   0  0  2  0  0  0
    4.2965  -24.5963    0.0000 O   0  0
    3.5820  -25.8338    0.0000 C   0  0
    3.5820  -23.3588    0.0000 C   0  0
    3.5820  -22.5338    0.0000 C   0  0  2  0  0  0
    4.2965  -23.7713    0.0000 O   0  0
    4.2965  -22.1213    0.0000 C   0  0
    4.2965  -22.9463    0.0000 N   0  0
    5.0110  -22.5338    0.0000 C   0  0
    5.7254  -22.9463    0.0000 C   0  0  2  0  0  0
    5.0110  -21.7088    0.0000 O   0  0
    5.7254  -23.7713    0.0000 C   0  0
    6.4399  -24.1838    0.0000 C   0  0
    7.1544  -23.7713    0.0000 C   0  0
    7.8689  -24.1838    0.0000 C   0  0
    7.8689  -25.0088    0.0000 C   0  0
    7.1544  -25.4213    0.0000 C   0  0
    6.4399  -25.0088    0.0000 C   0  0
    7.1544  -22.9463    0.0000 C   0  0
    7.8689  -22.5338    0.0000 C   0  0  2  0  0  0
    7.6393  -23.6138    0.0000 O   0  0
    8.5833  -22.9463    0.0000 C   0  0
    9.2978  -22.5338    0.0000 C   0  0
   10.0123  -22.9463    0.0000 C   0  0
   11.4412  -22.9463    0.0000 C   0  0
   12.1557  -22.5338    0.0000 N   0  0
    8.5833  -21.2963    0.0000 C   0  0
    9.2978  -21.7088    0.0000 C   0  0
    8.5833  -20.4713    0.0000 O   0  0
    7.2649  -17.5838    0.0000 H   0  0
    7.9551  -16.7543    0.0000 H   0  0
    2.8676  -25.4213    0.0000 H   0  0
    3.9945  -23.2483    0.0000 H   0  0
    5.7254  -18.8213    0.0000 C   0  0
    5.7254  -19.6463    0.0000 C   0  0
    5.0110  -20.0588    0.0000 C   0  0
    4.2965  -21.2963    0.0000 C   0  0
    5.0110  -20.8838    0.0000 N   0  0
    3.5820  -20.8838    0.0000 O   0  0
    2.8676  -17.1713    0.0000 C   0  0
    5.7254  -16.3463    0.0000 C   0  0
    1.4386  -21.2963    0.0000 N   0  0
    5.0110  -15.9338    0.0000 N   0  0
    3.5820  -10.9838    0.0000 O   0  0
   -1.6190  -23.4752    0.0000 N   0  0
    7.1544  -18.8213    0.0000 N   0  0
    6.4399  -22.5338    0.0000 N   0  0
    7.8689  -21.7088    0.0000 N   0  0
   10.7267  -22.5338    0.0000 N   0  0
   11.4412  -23.7713    0.0000 N   0  0
 16 17  1  0
 17 27  1  0
 18 19  1  0
 19 20  1  0
 20 21  1  0
 21 22  1  0
 22 31  1  0
 32 23  1  0
 23 24  1  0
 24 25  1  0
 18 26  1  0
 25 28  1  6
 28 29  2  0
 23 30  2  0
 31 32  1  0
 32 33  1  0
 33 34  1  0
 34 35  1  0
 35 31  1  0
 22 36  2  0
 21 37  2  0
 18 38  2  0
 26 39  1  1
 39 40  1  0
 40 41  1  0
 40 42  1  0
 27 43  2  0
 15 44  2  0
 12 45  2  0
 20 46  1  1
 46 47  1  0
 47 48  2  0
 48 49  1  0
 49 50  2  0
 50 51  1  0
 51 52  2  0
 52 47  1  0
 11 53  1  1
  8 54  2  0
 53 55  1  0
 55 56  2  0
 56 57  1  0
 57 58  2  0
 58 59  1  0
 59 60  2  0
 60 55  1  0
  9 61  1  1
 61 62  1  0
 62 63  1  0
 63 64  2  0
 65 62  2  0
  6 66  2  0
  2 67  2  0
  1 68  1  0
 68 69  1  6
 68 70  1  0
 10 71  1  0
 71 72  1  0
 71 73  2  0
 72 74  1  0
 72 75  1  6
 75 76  1  0
 76 77  1  0
 76 78  2  0
 77 79  1  1
 79 80  1  0
 80 81  2  0
 81 82  1  0
 82 83  2  0
 83 84  1  0
 84 85  2  0
 85 80  1  0
 86 87  1  0
 86 88  2  0
 87 89  1  1
 89 90  1  0
 90 91  1  0
 92 93  2  0
 94 95  1  0
 94 96  2  0
 25 97  1  1
 32 98  1  6
  1 99  1  6
 72100  1  1
  7101  1  0
  1  2  1  0
101102  1  0
  2  3  1  0
102103  1  0
103105  1  0
  3  4  1  0
 74104  1  0
  5  6  1  0
104105  1  0
  6  4  1  0
104106  2  0
  7 25  1  0
 16107  1  0
  5  9  1  0
  9  8  1  0
 10  1  1  0
 11 12  1  0
 12 13  1  0
 13 14  1  0
 14 15  1  0
 15 16  1  0
110 27  1  0
 26110  1  0
110108  1  0
 28113  1  0
  8109  1  0
109 11  1  0
 77114  1  0
114 86  1  0
 50111  1  0
 87115  1  0
115 94  1  0
 91116  1  0
116 92  1  0
 64112  1  0
112 65  1  0
 92117  1  0
M  END