
  SciTegic06051315212D

 22 23  0  0  0  0            999 V2000
   12.9058  -25.6714    0.0000 C   0  0
   13.5723  -25.2009    0.0000 C   0  0
   12.2394  -25.2009    0.0000 C   0  0
   13.5723  -24.2640    0.0000 O   0  0
   14.2387  -25.6714    0.0000 N   0  0
   11.5750  -24.7357    0.0000 N   0  0
   14.9364  -25.2477    0.0000 C   0  0
   15.6524  -25.6385    0.0000 C   0  0
   15.6637  -26.4516    0.0000 C   0  0
   16.3788  -26.8424    0.0000 C   0  0
   17.0771  -26.4191    0.0000 C   0  0
   17.0555  -25.6047    0.0000 C   0  0
   16.3399  -25.2137    0.0000 C   0  0
   12.9058  -26.4856    0.0000 C   0  0
   12.1990  -26.8928    0.0000 C   0  0
   12.1990  -27.7070    0.0000 C   0  0
   11.4964  -28.1142    0.0000 C   0  0
   10.7944  -27.7040    0.0000 C   0  0
   10.0882  -28.1104    0.0000 C   0  0
   10.0877  -28.9256    0.0000 C   0  0
   10.7997  -29.3325    0.0000 C   0  0
   11.5030  -28.9237    0.0000 C   0  0
  1  2  1  0
  1  3  1  0
  2  4  2  0
  2  5  1  0
  3  6  3  0
  5  7  1  0
  7  8  1  0
  8  9  2  0
  9 10  1  0
 10 11  2  0
 11 12  1  0
 12 13  2  0
 13  8  1  0
  1 14  2  0
 14 15  1  0
 15 16  2  0
 16 17  1  0
 17 18  2  0
 18 19  1  0
 19 20  2  0
 20 21  1  0
 21 22  2  0
 22 17  1  0
M  END