
  SciTegic01181116592D

 41 43  0  0  0  0            999 V2000
   14.3609  -10.0109    0.0000 N   0  0
   -0.7362  -11.4183    0.0000 C   0  0
   -1.1574  -12.1305    0.0000 C   0  0
   -0.7513  -12.8491    0.0000 C   0  0
    0.0758  -12.8569    0.0000 C   0  0
    0.4951  -12.1400    0.0000 C   0  0
    0.0866  -11.4242    0.0000 C   0  0
    0.5039  -10.7126    0.0000 N   0  0
    1.3249  -10.6314    0.0000 N   0  0
    1.5013   -9.8255    0.0000 C   0  0
    0.7893   -9.4086    0.0000 C   0  0
    0.1730   -9.9569    0.0000 C   0  0
   -0.6475   -9.9586    0.0000 C   0  0
   -1.0599   -9.2428    0.0000 C   0  0
   -1.8842   -9.2430    0.0000 C   0  0
   -2.2969   -9.9584    0.0000 C   0  0
   -1.8794  -10.6749    0.0000 C   0  0
   -1.0566  -10.6711    0.0000 C   0  0
    0.7080   -8.5876    0.0000 C   0  0
    2.2210   -9.4215    0.0000 C   0  0
    2.9305   -9.8424    0.0000 N   0  0
    2.2307   -8.5966    0.0000 O   0  0
    1.3201  -12.1444    0.0000 Cl  0  0
   -1.1704  -13.5597    0.0000 Cl  0  0
   -3.1219   -9.9601    0.0000 Cl  0  0
    3.6498   -9.4384    0.0000 C   0  0
    4.3594   -9.8593    0.0000 C   0  0
    5.0786   -9.4552    0.0000 C   0  0
    5.7882   -9.8761    0.0000 C   0  0
    6.5075   -9.4720    0.0000 C   0  0
    7.2171   -9.8929    0.0000 C   0  0
    7.9363   -9.4889    0.0000 C   0  0
    8.6459   -9.9098    0.0000 N   0  0
    9.3652   -9.5057    0.0000 C   0  0
   10.0747   -9.9266    0.0000 C   0  0
   10.7940   -9.5226    0.0000 C   0  0
   11.5036   -9.9434    0.0000 C   0  0
   12.2229   -9.5394    0.0000 C   0  0
   12.9324   -9.9603    0.0000 C   0  0
   13.6517   -9.5562    0.0000 C   0  0
    8.6362  -10.7347    0.0000 C   0  0
 10 20  1  0
  9 10  2  0
 20 21  1  0
 10 11  1  0
 20 22  2  0
 11 12  2  0
  6 23  1  0
 12  8  1  0
  4 24  1  0
  7  8  1  0
 16 25  1  0
  6  7  2  0
 21 26  1  0
  7  2  1  0
 26 27  1  0
 13 14  2  0
 27 28  1  0
  8  9  1  0
 28 29  1  0
 14 15  1  0
 29 30  1  0
  2  3  2  0
 30 31  1  0
 15 16  2  0
 31 32  1  0
  4  5  2  0
 32 33  1  0
 16 17  1  0
 33 34  1  0
 34 35  1  0
 17 18  2  0
 35 36  1  0
 18 13  1  0
 36 37  1  0
 12 13  1  0
 37 38  1  0
  5  6  1  0
 38 39  1  0
 11 19  1  0
 39 40  1  0
 40  1  1  0
  3  4  1  0
 33 41  1  0
M  END