
  SciTegic12231509382D

 11 12  0  0  0  0            999 V2000
    0.0000    0.7486    0.0000 C   0  0
    0.0000   -0.7486    0.0000 C   0  0
   -1.2964    1.4973    0.0000 C   0  0
   -1.2964   -1.4973    0.0000 C   0  0
   -2.6111    0.7486    0.0000 C   0  0
   -3.6486    1.3517    0.0000 N   0  0
   -2.6111   -0.7486    0.0000 C   0  0
    1.2964    1.4973    0.0000 C   0  0
    1.2964   -1.4973    0.0000 C   0  0
    2.5929    0.7486    0.0000 C   0  0
    2.5929   -0.7486    0.0000 C   0  0
  1  2  1  0
  1  3  1  0
  2  4  1  0
  3  5  1  0
  5  6  1  0
  4  7  1  0
  5  7  1  0
  1  8  2  0
  2  9  2  0
  8 10  1  0
  9 11  1  0
 10 11  2  0
M  END