
  SciTegic01231713562D

 30 33  0  0  0  0            999 V2000
    2.5889    0.0182    0.0000 C   0  0
    1.7138   -1.2033    0.0000 N   0  0
    0.2917   -0.7475    0.0000 C   0  0
    0.2917    0.7475    0.0000 C   0  0
    1.7138    1.2033    0.0000 N   0  0
   -1.0028    1.5132    0.0000 C   0  0
   -2.3155    0.7475    0.0000 C   0  0
   -2.3155   -0.7475    0.0000 C   0  0
   -1.0028   -1.5132    0.0000 C   0  0
    3.7889    0.0269    0.0000 O   0  0
    2.0825    2.3453    0.0000 C   0  0
    2.0907   -2.3426    0.0000 C   0  0
   -3.6187    1.4919    0.0000 N   0  0
   -3.6267    2.9927    0.0000 C   0  0
   -4.9300    3.7369    0.0000 C   0  0
   -2.5905    3.5979    0.0000 O   0  0
   -6.2240    2.9782    0.0000 C   0  0
   -7.5281    3.7194    0.0000 C   0  0
   -7.5382    5.2194    0.0000 C   0  0
   -6.2443    5.9781    0.0000 C   0  0
   -4.9402    5.2369    0.0000 C   0  0
   -3.6472    5.9988    0.0000 O   0  0
   -3.6570    7.1988    0.0000 C   0  0
   -3.6168   -1.4950    0.0000 N   0  0
   -3.6203   -2.9951    0.0000 C   0  0  1  0  0  0
   -4.9210   -3.7422    0.0000 C   0  0
   -6.2184   -2.9893    0.0000 N   0  0
   -6.2150   -1.4893    0.0000 C   0  0
   -4.9143   -0.7422    0.0000 C   0  0
   -2.5825   -3.5975    0.0000 C   0  0
  1  2  1  0
  2  3  1  0
  3  4  1  0
  4  5  1  0
  1  5  1  0
  6  7  1  0
  7  8  2  0
  8  9  1  0
  3  9  2  0
  4  6  2  0
  1 10  2  0
  5 11  1  0
  2 12  1  0
  7 13  1  0
 13 14  1  0
 14 15  1  0
 14 16  2  0
 15 17  2  0
 17 18  1  0
 18 19  2  0
 19 20  1  0
 20 21  2  0
 21 15  1  0
 22 23  1  0
 21 22  1  0
  8 24  1  0
 24 25  1  0
 24 29  1  0
 25 26  1  0
 26 27  1  0
 27 28  1  0
 28 29  1  0
 25 30  1  6
M  END