
  SciTegic12231509382D

 18 18  0  0  0  0            999 V2000
   15.1559   -3.5843    0.0000 P   0  0
   14.5741   -4.1522    0.0000 O   0  0
   14.4489   -3.1745    0.0000 O   0  0
   18.6939   -3.1805    0.0000 C   0  0
   18.6949   -2.3630    0.0000 O   0  0
   17.9844   -3.5827    0.0000 N   0  0
   15.3641   -4.3714    0.0000 O   0  0
   15.8618   -3.1801    0.0000 C   0  0
   16.5709   -3.5863    0.0000 C   0  0
   17.9870   -4.4023    0.0000 O   0  0
   17.2753   -3.1764    0.0000 C   0  0
   19.3997   -3.5924    0.0000 C   0  0
   19.3960   -4.4095    0.0000 C   0  0
   18.6845   -4.8103    0.0000 C   0  0
   18.6805   -5.6268    0.0000 C   0  0
   19.3868   -6.0394    0.0000 C   0  0
   20.0988   -5.6297    0.0000 C   0  0
   20.0993   -4.8146    0.0000 C   0  0
  2  1  1  0
  3  1  2  0
  4  6  1  0
  5  4  2  0
  6 11  1  0
  7  1  1  0
  8  1  1  0
  9  8  1  0
 10  6  1  0
 11  9  1  0
  4 12  1  0
 12 13  1  0
 13 14  2  0
 14 15  1  0
 15 16  2  0
 16 17  1  0
 17 18  2  0
 18 13  1  0
M  END