
  SciTegic06051313522D

 38 41  0  0  0  0            999 V2000
   26.5458  -19.8634    0.0000 O   0  0
   26.9624  -20.5801    0.0000 S   0  0
   27.3747  -19.8609    0.0000 O   0  0
   20.5443  -21.0301    0.0000 C   0  0
   20.5432  -21.8574    0.0000 C   0  0
   21.2580  -22.2703    0.0000 C   0  0
   21.9744  -21.8570    0.0000 C   0  0
   21.9716  -21.0264    0.0000 C   0  0
   21.2562  -20.6173    0.0000 C   0  0
   22.6845  -20.6112    0.0000 C   0  0
   23.4005  -21.0211    0.0000 C   0  0
   23.4002  -21.8437    0.0000 C   0  0
   24.1154  -22.2534    0.0000 C   0  0
   24.8293  -21.8382    0.0000 C   0  0
   24.8235  -21.0089    0.0000 C   0  0
   24.1078  -20.6029    0.0000 N   0  0
   22.6895  -22.2683    0.0000 O   0  0
   22.6908  -23.0933    0.0000 C   0  0
   23.4060  -23.5047    0.0000 C   0  0
   23.4026  -24.3270    0.0000 C   0  0
   24.1169  -24.7383    0.0000 C   0  0
   24.8317  -24.3247    0.0000 C   0  0
   24.8277  -23.4954    0.0000 C   0  0
   24.1129  -23.0878    0.0000 C   0  0
   22.6875  -24.7385    0.0000 F   0  0
   25.5474  -24.7351    0.0000 Cl  0  0
   19.8298  -20.6177    0.0000 Cl  0  0
   25.5372  -20.5906    0.0000 C   0  0
   26.2546  -20.9978    0.0000 N   0  0
   25.5311  -19.7656    0.0000 O   0  0
   27.6835  -20.9874    0.0000 C   0  0
   27.6865  -21.8104    0.0000 C   0  0
   28.4031  -22.2176    0.0000 C   0  0
   29.1155  -21.7998    0.0000 C   0  0
   29.1068  -20.9706    0.0000 C   0  0
   28.3897  -20.5671    0.0000 C   0  0
   26.9742  -22.2266    0.0000 Cl  0  0
   29.8168  -20.5504    0.0000 Cl  0  0
  2  1  2  0
  3  2  2  0
  4  5  2  0
  5  6  1  0
  6  7  2  0
  7  8  1  0
  8  9  2  0
  9  4  1  0
  8 10  1  0
 10 11  1  0
 11 12  2  0
 12 13  1  0
 13 14  2  0
 14 15  1  0
 15 16  2  0
 16 11  1  0
  7 17  1  0
 17 18  1  0
 18 19  1  0
 19 20  2  0
 20 21  1  0
 21 22  2  0
 22 23  1  0
 23 24  2  0
 24 19  1  0
 20 25  1  0
 22 26  1  0
  4 27  1  0
 28 29  1  0
 28 30  2  0
 15 28  1  0
 29  2  1  0
  2 31  1  0
 31 32  2  0
 32 33  1  0
 33 34  2  0
 34 35  1  0
 35 36  2  0
 36 31  1  0
 32 37  1  0
 35 38  1  0
M  END