
          08180812482D 1   1.00000     0.00000     0

 33 37  0     0  0            999 V2000
   -5.1188  -25.9707    0.0000 N   0  0  3  0  0  0           0  0  0
   -5.1223  -26.7968    0.0000 C   0  0  0  0  0  0           0  0  0
   -4.4084  -27.2132    0.0000 N   0  0  3  0  0  0           0  0  0
   -4.4076  -25.5594    0.0000 C   0  0  0  0  0  0           0  0  0
   -4.4086  -24.7333    0.0000 O   0  0  0  0  0  0           0  0  0
   -5.8425  -27.2172    0.0000 O   0  0  0  0  0  0           0  0  0
   -3.6939  -25.9712    0.0000 C   0  0  0  0  0  0           0  0  0
   -3.6951  -26.7967    0.0000 C   0  0  0  0  0  0           0  0  0
   -2.9117  -27.0535    0.0000 C   0  0  0  0  0  0           0  0  0
   -2.4266  -26.3976    0.0000 C   0  0  0  0  0  0           0  0  0
   -2.9096  -25.7208    0.0000 N   0  0  0  0  0  0           0  0  0
   -5.8416  -25.5544    0.0000 C   0  0  0  0  0  0           0  0  0
   -4.4097  -28.0386    0.0000 C   0  0  0  0  0  0           0  0  0
   -1.6058  -26.4353    0.0000 C   0  0  0  0  0  0           0  0  0
   -1.2258  -27.1715    0.0000 C   0  0  0  0  0  0           0  0  0
   -0.4004  -27.2138    0.0000 C   0  0  0  0  0  0           0  0  0
    0.0571  -26.5047    0.0000 C   0  0  0  0  0  0           0  0  0
   -0.3313  -25.7799    0.0000 C   0  0  0  0  0  0           0  0  0
   -1.1620  -25.7444    0.0000 C   0  0  0  0  0  0           0  0  0
    0.8831  -26.5173    0.0000 O   0  0  0  0  0  0           0  0  0
    1.3041  -25.8126    0.0000 C   0  0  0  0  0  0           0  0  0
    2.1367  -25.8182    0.0000 C   0  0  0  0  0  0           0  0  0
    2.5508  -26.5340    0.0000 N   0  0  3  0  0  0           0  0  0
    2.5486  -25.1049    0.0000 O   0  0  0  0  0  0           0  0  0
    2.1364  -27.2467    0.0000 C   0  0  0  0  0  0           0  0  0
    3.7883  -27.2463    0.0000 C   0  0  0  0  0  0           0  0  0
    3.3742  -26.5304    0.0000 C   0  0  0  0  0  0           0  0  0
    3.3763  -27.9595    0.0000 C   0  0  0  0  0  0           0  0  0
    2.5497  -27.9598    0.0000 C   0  0  0  0  0  0           0  0  0
    2.1385  -28.6745    0.0000 C   0  0  0  0  0  0           0  0  0
    2.5527  -29.3896    0.0000 C   0  0  0  0  0  0           0  0  0
    3.3824  -29.3853    0.0000 C   0  0  0  0  0  0           0  0  0
    3.7899  -28.6699    0.0000 C   0  0  0  0  0  0           0  0  0
  4  5  2  0     0  0
  2  6  2  0     0  0
  7  8  2  0     0  0
  8  9  1  0     0  0
  9 10  2  0     0  0
 10 11  1  0     0  0
 11  7  1  0     0  0
  1 12  1  0     0  0
  3 13  1  0     0  0
 10 14  1  0     0  0
 14 15  2  0     0  0
 14 19  1  0     0  0
 15 16  1  0     0  0
 16 17  2  0     0  0
 17 18  1  0     0  0
 18 19  2  0     0  0
 17 20  1  0     0  0
 20 21  1  0     0  0
 21 22  1  0     0  0
 22 23  1  0     0  0
 22 24  2  0     0  0
 23 25  1  0     0  0
 23 27  1  0     0  0
 25 29  1  0     0  0
 28 26  1  0     0  0
 26 27  1  0     0  0
  1  2  1  0     0  0
 28 29  2  0     0  0
  1  4  1  0     0  0
 29 30  1  0     0  0
  2  3  1  0     0  0
 30 31  2  0     0  0
  3  8  1  0     0  0
 31 32  1  0     0  0
  7  4  1  0     0  0
 32 33  2  0     0  0
 33 28  1  0     0  0
M  END