
          11280715492D 1   1.00000     0.00000     0

 60 65  0     1  0            999 V2000
    9.7049   -4.7876    0.0000 N   0  0  0  0  0  0           0  0  0
    9.6770   -2.3119    0.0000 C   0  0  0  0  0  0           0  0  0
    8.9476   -1.0847    0.0000 N   0  0  0  0  0  0           0  0  0
    9.6665   -1.4893    0.0000 C   0  0  1  0  0  0           0  0  0
   10.3771   -1.0678    0.0000 C   0  0  0  0  0  0           0  0  0
   10.3687   -0.2416    0.0000 C   0  0  0  0  0  0           0  0  0
    9.6498    0.1630    0.0000 C   0  0  0  0  0  0           0  0  0
    9.6393    0.9855    0.0000 C   0  0  0  0  0  0           0  0  0
   10.3499    1.4071    0.0000 C   0  0  0  0  0  0           0  0  0
   10.3415    2.2332    0.0000 O   0  0  0  0  0  0           0  0  0
   11.0689    1.0025    0.0000 C   0  0  0  0  0  0           0  0  0
   11.0773    0.1763    0.0000 C   0  0  0  0  0  0           0  0  0
   10.3959   -2.7165    0.0000 O   0  0  0  0  0  0           0  0  0
    8.9664   -2.7334    0.0000 N   0  0  3  0  0  0           0  0  0
   11.7962   -0.2283    0.0000 C   0  0  0  0  0  0           0  0  0
    8.9385   -0.2598    0.0000 C   0  0  0  0  0  0           0  0  0
    8.2485   -2.3249    0.0000 C   0  0  0  0  0  0           0  0  0
    8.2657   -3.9762    0.0000 C   0  0  0  0  0  0           0  0  0
    8.9804   -3.5565    0.0000 C   0  0  3  0  0  0           0  0  0
    7.5455   -3.5694    0.0000 C   0  0  0  0  0  0           0  0  0
    7.5403   -2.7467    0.0000 C   0  0  0  0  0  0           0  0  0
    6.8264   -2.3416    0.0000 C   0  0  0  0  0  0           0  0  0
    6.1171   -2.7581    0.0000 C   0  0  0  0  0  0           0  0  0
    6.1263   -3.5839    0.0000 C   0  0  0  0  0  0           0  0  0
    6.8408   -3.9853    0.0000 C   0  0  0  0  0  0           0  0  0
    9.6999   -3.9602    0.0000 C   0  0  0  0  0  0           0  0  0
   10.4093   -3.5390    0.0000 O   0  0  0  0  0  0           0  0  0
    8.2760   -4.7799    0.0000 C   0  0  0  0  0  0           0  0  0
    8.9882   -5.1962    0.0000 C   0  0  0  0  0  0           0  0  0
    6.1379   -5.2030    0.0000 C   0  0  0  0  0  0           0  0  0
    6.1406   -6.0280    0.0000 C   0  0  0  0  0  0           0  0  0
    5.4275   -6.4429    0.0000 N   0  0  0  0  0  0           0  0  0
    3.2971   -5.1802    0.0000 C   0  0  0  0  0  0           0  0  0
    1.8696   -5.1643    0.0000 N   0  0  0  0  0  0           0  0  0
    2.5893   -4.7610    0.0000 C   0  0  1  0  0  0           0  0  0
    2.5992   -3.9348    0.0000 C   0  0  0  0  0  0           0  0  0
    1.8894   -3.5120    0.0000 C   0  0  0  0  0  0           0  0  0
    1.1697   -3.9152    0.0000 C   0  0  0  0  0  0           0  0  0
    0.4620   -3.4960    0.0000 C   0  0  0  0  0  0           0  0  0
    0.4690   -2.6647    0.0000 C   0  0  0  0  0  0           0  0  0
   -0.2408   -2.2418    0.0000 O   0  0  0  0  0  0           0  0  0
    1.1887   -2.2614    0.0000 C   0  0  0  0  0  0           0  0  0
    1.9014   -2.6894    0.0000 C   0  0  0  0  0  0           0  0  0
    4.0168   -4.7769    0.0000 O   0  0  0  0  0  0           0  0  0
    3.2871   -6.0063    0.0000 N   0  0  3  0  0  0           0  0  0
    2.6211   -2.2862    0.0000 C   0  0  0  0  0  0           0  0  0
    1.1605   -4.7426    0.0000 C   0  0  0  0  0  0           0  0  0
    2.5646   -6.4067    0.0000 C   0  0  0  0  0  0           0  0  0
    3.9836   -7.2515    0.0000 C   0  0  0  0  0  0           0  0  0
    3.9972   -6.4228    0.0000 C   0  0  3  0  0  0           0  0  0
    3.2614   -7.6547    0.0000 C   0  0  0  0  0  0           0  0  0
    2.5562   -7.2309    0.0000 C   0  0  0  0  0  0           0  0  0
    1.8387   -7.6297    0.0000 C   0  0  0  0  0  0           0  0  0
    1.8251   -8.4521    0.0000 C   0  0  0  0  0  0           0  0  0
    2.5351   -8.8741    0.0000 C   0  0  0  0  0  0           0  0  0
    3.2497   -8.4729    0.0000 C   0  0  0  0  0  0           0  0  0
    4.7165   -6.0186    0.0000 C   0  0  0  0  0  0           0  0  0
    4.7260   -5.1937    0.0000 O   0  0  0  0  0  0           0  0  0
    6.8510   -4.7882    0.0000 C   0  0  0  0  0  0           0  0  0
    7.5668   -5.1983    0.0000 C   0  0  0  0  0  0           0  0  0
 29  1  1  0     0  0
 12 15  1  0     0  0
  7 16  1  0     0  0
 30 31  1  0     0  0
 31 32  1  0     0  0
 14 17  1  0     0  0
  4  3  1  1     0  0
  2  4  1  0     0  0
  4  5  1  0     0  0
 14 19  1  0     0  0
 17 21  1  0     0  0
 20 18  1  0     0  0
 18 19  1  0     0  0
  5  6  1  0     0  0
  6  7  2  0     0  0
 20 21  2  0     0  0
  7  8  1  0     0  0
 21 22  1  0     0  0
  8  9  2  0     0  0
 35 34  1  1     0  0
 33 35  1  0     0  0
 35 36  1  0     0  0
 36 37  1  0     0  0
 37 38  2  0     0  0
 38 39  1  0     0  0
 39 40  2  0     0  0
 40 41  1  0     0  0
 40 42  1  0     0  0
 42 43  2  0     0  0
 37 43  1  0     0  0
 33 44  2  0     0  0
 33 45  1  0     0  0
 43 46  1  0     0  0
 38 47  1  0     0  0
 22 23  2  0     0  0
 45 48  1  0     0  0
  9 10  1  0     0  0
 23 24  1  0     0  0
  9 11  1  0     0  0
 45 50  1  0     0  0
 48 52  1  0     0  0
 51 49  1  0     0  0
 49 50  1  0     0  0
 24 25  2  0     0  0
 25 20  1  0     0  0
 51 52  2  0     0  0
 11 12  2  0     0  0
 52 53  1  0     0  0
 19 26  1  0     0  0
 53 54  2  0     0  0
  6 12  1  0     0  0
 54 55  1  0     0  0
 26 27  2  0     0  0
 55 56  2  0     0  0
 56 51  1  0     0  0
  1 26  1  0     0  0
 50 57  1  0     0  0
  2 13  2  0     0  0
 57 58  2  0     0  0
 32 57  1  0     0  0
  2 14  1  0     0  0
 30 59  1  0     0  0
 28 29  1  0     0  0
 59 60  1  0     0  0
 60 28  1  0     0  0
M  END