
  SciTegic04071410272D

 25 27  0  0  0  0            999 V2000
   -1.3229    0.7542    0.0000 C   0  0  1  0  0  0
   -0.2559   -0.0477    0.0000 C   0  0  2  0  0  0
   -0.7721    0.3810    0.0000 C   0  0
   -1.7438    0.3810    0.0000 C   0  0  1  0  0  0
   -1.8835    1.1941    0.0000 N   0  3
   -0.3941    0.7697    0.0000 C   0  0
   -2.2637   -0.3313    0.0000 C   0  0
   -1.6434    0.0456    0.0000 C   0  0
    0.1559   -0.7625    0.0000 C   0  0
    0.9809   -0.7634    0.0000 C   0  0
    1.3927   -1.4782    0.0000 C   0  0
    1.3941   -0.0493    0.0000 C   0  0
   -1.5128    1.5571    0.0000 H   0  0
   -2.3465    0.9443    0.0000 H   0  0
   -2.6479    1.5045    0.0000 C   0  0
   -1.7934    2.0142    0.0000 C   0  0
    1.0593    0.7047    0.0000 C   0  0
    1.6729    1.2561    0.0000 C   0  0
    2.3870    0.8429    0.0000 C   0  0
    2.2147    0.0361    0.0000 S   0  0
    2.2131   -1.5653    0.0000 S   0  0
    2.3838   -2.3724    0.0000 C   0  0
    1.6690   -2.7842    0.0000 C   0  0
    1.0564   -2.2316    0.0000 C   0  0
    4.6263    0.0000    0.0000 Br  0  5
 10 11  1  0
  2  3  1  0
 10 12  1  0
  3  4  1  0
  1 13  1  6
  4  5  1  0
  4 14  1  1
  1  5  1  0
  5 15  1  0
  1  6  1  0
  5 16  1  0
 12 17  2  0
  6  2  1  0
  4  7  1  0
  1  8  1  0
  7  8  1  0
 17 18  1  0
 18 19  2  0
 19 20  1  0
 20 12  1  0
 11 21  1  0
  2  9  1  6
  9 10  2  0
 21 22  1  0
 22 23  2  0
 23 24  1  0
 24 11  2  0
M  CHG  2   5   1  25  -1
M  END