
          11280715432D 1   1.00000     0.00000     0

 52 55  0     1  0            999 V2000
   -3.3500    1.4833    0.0000 C   0  0  0  0  0  0           0  0  0
   -3.3375    0.6708    0.0000 C   0  0  0  0  0  0           0  0  0
   -2.6375    1.8958    0.0000 C   0  0  0  0  0  0           0  0  0
   -4.0500    0.2458    0.0000 N   0  3  0  0  0  0           0  0  0
   -3.9583    2.0333    0.0000 N   0  0  0  0  0  0           0  0  0
   -2.6208    0.2583    0.0000 C   0  0  0  0  0  0           0  0  0
   -3.3500   -1.7917    0.0000 P   0  0  3  0  0  0           0  0  0
   -2.8125    2.6958    0.0000 N   0  0  0  0  0  0           0  0  0
    3.0792    0.2833    0.0000 C   0  0  0  0  0  0           0  0  0
   -3.6208    2.7833    0.0000 O   0  0  0  0  0  0           0  0  0
    1.6500   -0.5417    0.0000 C   0  0  0  0  0  0           0  0  0
   -1.9375    1.4958    0.0000 C   0  0  0  0  0  0           0  0  0
    3.0792   -0.5417    0.0000 C   0  0  3  0  0  0           0  0  0
    2.3625   -0.9542    0.0000 N   0  0  0  0  0  0           0  0  0
    2.3625    0.6958    0.0000 N   0  0  0  0  0  0           0  0  0
    2.3500    1.5208    0.0000 C   0  0  1  0  0  0           0  0  0
    3.0625    1.9333    0.0000 C   0  0  0  0  0  0           0  0  0
   -1.9208    0.6833    0.0000 C   0  0  0  0  0  0           0  0  0
    1.6375    1.9333    0.0000 C   0  0  0  0  0  0           0  0  0
    0.9375   -0.9542    0.0000 C   0  0  1  0  0  0           0  0  0
    3.7792    1.5208    0.0000 C   0  0  0  0  0  0           0  0  0
   -4.7708    0.6583    0.0000 O   0  5  0  0  0  0           0  0  0
    1.3500   -2.4917    0.0000 C   0  0  0  0  0  0           0  0  0
   -4.0458   -0.5792    0.0000 O   0  0  0  0  0  0           0  0  0
   -3.3500   -0.9667    0.0000 O   0  0  0  0  0  0           0  0  0
    0.9375   -1.7792    0.0000 C   0  0  0  0  0  0           0  0  0
    3.0792    1.1083    0.0000 O   0  0  0  0  0  0           0  0  0
    1.6500    0.2833    0.0000 O   0  0  0  0  0  0           0  0  0
    0.2250   -0.5542    0.0000 C   0  0  0  0  0  0           0  0  0
   -2.6375   -2.2042    0.0000 C   0  0  0  0  0  0           0  0  0
    1.6375    2.7583    0.0000 O   0  0  0  0  0  0           0  0  0
    3.7875    0.6958    0.0000 O   0  0  0  0  0  0           0  0  0
    2.1792   -2.4917    0.0000 O   0  0  0  0  0  0           0  0  0
   -1.2208    1.9083    0.0000 N   0  0  0  0  0  0           0  0  0
   -4.1583   -1.5792    0.0000 O   0  0  0  0  0  0           0  0  0
   -4.0625   -2.2042    0.0000 O   0  0  0  0  0  0           0  0  0
    0.9250    1.5083    0.0000 N   0  0  0  0  0  0           0  0  0
    4.4875    1.9458    0.0000 N   0  0  0  0  0  0           0  0  0
   -0.4875   -0.9667    0.0000 C   0  0  0  0  0  0           0  0  0
   -1.9125   -1.7917    0.0000 C   0  0  0  0  0  0           0  0  0
    0.9375   -3.2042    0.0000 O   0  0  0  0  0  0           0  0  0
   -0.4875   -1.7917    0.0000 C   0  0  0  0  0  0           0  0  0
   -1.2000   -0.5542    0.0000 C   0  0  0  0  0  0           0  0  0
   -1.2000   -2.2042    0.0000 C   0  0  0  0  0  0           0  0  0
   -1.9125   -0.9667    0.0000 C   0  0  0  0  0  0           0  0  0
    3.0875   -1.3667    0.0000 C   0  0  0  0  0  0           0  0  0
    3.7875   -0.1167    0.0000 C   0  0  0  0  0  0           0  0  0
    0.2125    1.9208    0.0000 C   0  0  0  0  0  0           0  0  0
   -0.5000    1.5083    0.0000 C   0  0  0  0  0  0           0  0  0
    4.5125   -0.5167    0.0000 C   0  0  0  0  0  0           0  0  0
    3.8000   -1.7667    0.0000 C   0  0  0  0  0  0           0  0  0
    4.5125   -1.3542    0.0000 C   0  0  0  0  0  0           0  0  0
  2  1  1  0     0  0
  3  1  1  0     0  0
  4  2  1  0     0  0
  5  1  2  0     0  0
  6  2  2  0     0  0
  7 30  1  0     0  0
  8  3  2  0     0  0
  9 15  1  0     0  0
 10  5  1  0     0  0
 11 14  1  0     0  0
 12  3  1  0     0  0
 13  9  1  0     0  0
 14 13  1  0     0  0
 16 15  1  6     0  0
 16 19  1  0     0  0
 17 16  1  0     0  0
 18 12  2  0     0  0
 19 37  1  0     0  0
 20 11  1  0     0  0
 21 17  1  0     0  0
 22  4  1  0     0  0
 23 26  1  0     0  0
 24  4  2  0     0  0
 25  7  2  0     0  0
 20 26  1  1     0  0
 27  9  2  0     0  0
 28 11  2  0     0  0
 29 20  1  0     0  0
 30 40  1  0     0  0
 31 19  2  0     0  0
 32 21  2  0     0  0
 33 23  2  0     0  0
 34 12  1  0     0  0
 35  7  1  0     0  0
 36  7  1  0     0  0
 37 48  1  0     0  0
 38 21  1  0     0  0
 39 29  1  0     0  0
 40 45  2  0     0  0
 41 23  1  0     0  0
 42 39  1  0     0  0
 43 39  2  0     0  0
 44 42  2  0     0  0
 45 43  1  0     0  0
 46 13  1  0     0  0
 47 13  1  0     0  0
 48 49  1  0     0  0
 49 34  1  0     0  0
 50 47  1  0     0  0
 51 46  1  0     0  0
 52 50  1  0     0  0
 10  8  1  0     0  0
 18  6  1  0     0  0
 52 51  1  0     0  0
 40 44  1  0     0  0
M  CHG  2   4   1  22  -1
M  END