
  SciTegic12231509382D

 14 15  0  0  0  0            999 V2000
   15.7713   -9.5177    0.0000 N   0  0
   15.0557   -9.9239    0.0000 C   0  0
   15.0558  -10.7508    0.0000 C   0  0
   15.7714  -11.1714    0.0000 O   0  0
   14.3450  -11.1715    0.0000 C   0  0
   16.4774  -10.7507    0.0000 C   0  0
   16.4773   -9.9238    0.0000 C   0  0
   15.7712   -8.6909    0.0000 C   0  0
   14.3449   -9.5178    0.0000 C   0  0
   14.3451  -11.9983    0.0000 C   0  0
   13.6342  -10.7605    0.0000 C   0  0
   12.9234  -11.1716    0.0000 C   0  0
   13.6343  -12.4142    0.0000 C   0  0
   12.9137  -11.9984    0.0000 C   0  0
 10  5  2  0
 11  5  1  0
 12 11  2  0
 13 10  1  0
 14 12  1  0
  3  4  1  0
 14 13  2  0
  2  1  1  0
  3  2  1  0
  4  6  1  0
  5  3  1  0
  6  7  1  0
  7  1  1  0
  8  1  1  0
  9  2  1  0
M  END