
          11280715012D 1   1.00000     0.00000     0

 39 42  0     0  0            999 V2000
    6.9500   -6.2125    0.0000 C   0  0  0  0  0  0           0  0  0
    7.2875   -5.7167    0.0000 N   0  0  0  0  0  0           0  0  0
    7.8625   -5.9000    0.0000 C   0  0  0  0  0  0           0  0  0
    7.8667   -6.5000    0.0000 O   0  0  0  0  0  0           0  0  0
    7.3000   -6.6875    0.0000 C   0  0  0  0  0  0           0  0  0
    6.3792   -6.4042    0.0000 C   0  0  0  0  0  0           0  0  0
    8.9000   -4.1000    0.0000 C   0  0  0  0  0  0           0  0  0
    8.9000   -4.7000    0.0000 C   0  0  0  0  0  0           0  0  0
    8.3875   -5.6000    0.0000 C   0  0  0  0  0  0           0  0  0
    8.3875   -5.0000    0.0000 C   0  0  0  0  0  0           0  0  0
   10.4542   -1.3917    0.0000 C   0  0  0  0  0  0           0  0  0
    8.3792   -3.8000    0.0000 C   0  0  0  0  0  0           0  0  0
    5.9292   -6.0042    0.0000 O   0  0  0  0  0  0           0  0  0
    9.4167   -3.8000    0.0000 C   0  0  0  0  0  0           0  0  0
    7.8625   -2.9000    0.0000 N   0  0  0  0  0  0           0  0  0
   10.9792   -1.0917    0.0000 O   0  0  0  0  0  0           0  0  0
    6.2625   -6.9917    0.0000 N   0  0  0  0  0  0           0  0  0
    9.9417   -1.0917    0.0000 O   0  0  0  0  0  0           0  0  0
    8.3792   -3.2000    0.0000 C   0  0  0  0  0  0           0  0  0
    9.4167   -4.9917    0.0000 C   0  0  0  0  0  0           0  0  0
    8.9042   -5.9000    0.0000 C   0  0  0  0  0  0           0  0  0
    9.4250   -5.5917    0.0000 C   0  0  0  0  0  0           0  0  0
   10.4542   -1.9917    0.0000 C   0  0  0  0  0  0           0  0  0
    7.3375   -3.2000    0.0000 C   0  0  0  0  0  0           0  0  0
    3.6542   -6.7667    0.0000 C   0  0  3  0  0  0           0  0  0
    9.4167   -3.1917    0.0000 C   0  0  0  0  0  0           0  0  0
    7.8625   -4.1000    0.0000 C   0  0  0  0  0  0           0  0  0
    5.6917   -7.1875    0.0000 C   0  0  0  0  0  0           0  0  0
    4.2250   -6.5792    0.0000 C   0  0  0  0  0  0           0  0  0
    3.2125   -6.3750    0.0000 C   0  0  0  0  0  0           0  0  0
    3.5375   -7.3542    0.0000 C   0  0  0  0  0  0           0  0  0
    9.9417   -2.2917    0.0000 C   0  0  0  0  0  0           0  0  0
    9.9417   -2.8917    0.0000 C   0  0  0  0  0  0           0  0  0
    5.2417   -6.7875    0.0000 C   0  0  0  0  0  0           0  0  0
    4.6750   -6.9750    0.0000 C   0  0  0  0  0  0           0  0  0
    7.3375   -3.8000    0.0000 C   0  0  0  0  0  0           0  0  0
    2.6417   -6.5542    0.0000 C   0  0  0  0  0  0           0  0  0
    2.9667   -7.5500    0.0000 C   0  0  0  0  0  0           0  0  0
    2.5250   -7.1500    0.0000 C   0  0  0  0  0  0           0  0  0
  2  1  1  0     0  0
  3  2  2  0     0  0
  4  5  1  0     0  0
  5  1  2  0     0  0
  6  1  1  0     0  0
  7  8  1  0     0  0
  8 10  2  0     0  0
  9  3  1  0     0  0
 10  9  1  0     0  0
 11 23  1  0     0  0
 12  7  1  0     0  0
 13  6  2  0     0  0
 14  7  2  0     0  0
 15 19  2  0     0  0
 16 11  2  0     0  0
 17  6  1  0     0  0
 18 11  1  0     0  0
 19 12  1  0     0  0
 20 22  2  0     0  0
 21  9  2  0     0  0
 22 21  1  0     0  0
 23 32  1  0     0  0
 24 36  2  0     0  0
 25 29  1  0     0  0
 26 14  1  0     0  0
 27 12  2  0     0  0
 28 17  1  0     0  0
 29 35  1  0     0  0
 30 25  1  0     0  0
 31 25  1  0     0  0
 32 33  1  0     0  0
 33 26  1  0     0  0
 34 28  1  0     0  0
 35 34  1  0     0  0
 36 27  1  0     0  0
 37 30  1  0     0  0
 38 31  1  0     0  0
 39 38  1  0     0  0
  4  3  1  0     0  0
  8 20  1  0     0  0
 37 39  1  0     0  0
 24 15  1  0     0  0
M  END