
          11280716012D 1   1.00000     0.00000     0

118125  0     1  0            999 V2000
   -1.2958   28.5417    0.0000 N   0  0  3  0  0  0           0  0  0
  -11.7000   28.5250    0.0000 N   0  0  0  0  0  0           0  0  0
   -2.5958   27.7875    0.0000 C   0  0  0  0  0  0           0  0  0
  -10.3792   14.2708    0.0000 C   0  0  0  0  0  0           0  0  0
  -10.4000   27.7750    0.0000 C   0  0  0  0  0  0           0  0  0
   -9.0792   15.0250    0.0000 N   0  0  3  0  0  0           0  0  0
   -7.7833   17.2750    0.0000 C   0  0  0  0  0  0           0  0  0
   -2.2792   31.0125    0.0000 C   0  0  0  0  0  0           0  0  0
  -10.3792   12.7708    0.0000 C   0  0  1  0  0  0           0  0  0
  -10.4000   26.2750    0.0000 N   0  0  0  0  0  0           0  0  0
   -9.0792   16.5250    0.0000 C   0  0  2  0  0  0           0  0  0
  -13.0000   27.7708    0.0000 C   0  0  0  0  0  0           0  0  0
   -1.1583   30.0208    0.0000 C   0  0  2  0  0  0           0  0  0
  -11.6958   25.5250    0.0000 C   0  0  2  0  0  0           0  0  0
  -11.6750   10.5167    0.0000 C   0  0  0  0  0  0           0  0  0
  -14.2708    7.5125    0.0000 C   0  0  0  0  0  0           0  0  0
   -3.8917   24.0333    0.0000 C   0  0  0  0  0  0           0  0  0
   -6.4833   21.0292    0.0000 C   0  0  0  0  0  0           0  0  0
  -15.5667    3.7625    0.0000 C   0  0  0  0  0  0           0  0  0
  -11.6750   12.0167    0.0000 N   0  0  0  0  0  0           0  0  0
  -11.6917   24.0250    0.0000 C   0  0  0  0  0  0           0  0  0
   -7.7833   18.7750    0.0000 N   0  0  0  0  0  0           0  0  0
  -12.9750    8.2625    0.0000 N   0  0  0  0  0  0           0  0  0
   -5.1917   21.7833    0.0000 N   0  0  0  0  0  0           0  0  0
  -15.5708    5.2583    0.0000 N   0  0  0  0  0  0           0  0  0
   -3.8958   25.5375    0.0000 N   0  0  0  0  0  0           0  0  0
  -12.9958   26.2708    0.0000 C   0  0  0  0  0  0           0  0  0
   -3.7042   30.5375    0.0000 N   0  0  0  0  0  0           0  0  0
   -6.4833   19.5292    0.0000 C   0  0  2  0  0  0           0  0  0
  -14.2708    6.0125    0.0000 C   0  0  2  0  0  0           0  0  0
  -12.9750    9.7667    0.0000 C   0  0  2  0  0  0           0  0  0
   -5.1917   23.2833    0.0000 C   0  0  1  0  0  0           0  0  0
   -2.5958   26.2875    0.0000 C   0  0  1  0  0  0           0  0  0
  -16.8667    3.0125    0.0000 C   0  0  2  0  0  0           0  0  0
   -6.2458   31.0583    0.0000 C   0  0  0  0  0  0           0  0  0
  -18.1667    3.7625    0.0000 N   0  0  0  0  0  0           0  0  0
  -10.3875   23.2792    0.0000 N   0  0  0  0  0  0           0  0  0
  -18.1667    5.2583    0.0000 C   0  0  0  0  0  0           0  0  0
   -4.8292   31.5333    0.0000 C   0  0  1  0  0  0           0  0  0
    0.0042   23.2792    0.0000 C   0  0  0  0  0  0           0  0  0
   -3.6375   28.3875    0.0000 O   0  0  0  0  0  0           0  0  0
  -11.4167   14.8708    0.0000 O   0  0  0  0  0  0           0  0  0
    0.0083   21.7792    0.0000 N   0  0  0  0  0  0           0  0  0
   -9.3625   28.3792    0.0000 O   0  0  0  0  0  0           0  0  0
  -10.3792   17.2750    0.0000 C   0  0  0  0  0  0           0  0  0
   -6.7417   16.6750    0.0000 O   0  0  0  0  0  0           0  0  0
   -2.0417   32.1917    0.0000 O   0  0  0  0  0  0           0  0  0
  -16.8667    1.5083    0.0000 C   0  0  0  0  0  0           0  0  0
  -15.3125    8.1125    0.0000 O   0  0  0  0  0  0           0  0  0
  -14.5292    3.1625    0.0000 O   0  0  0  0  0  0           0  0  0
  -10.6375    9.9167    0.0000 O   0  0  0  0  0  0           0  0  0
   -2.8542   23.4375    0.0000 O   0  0  0  0  0  0           0  0  0
   -7.5250   21.6292    0.0000 O   0  0  0  0  0  0           0  0  0
  -12.7292   23.4208    0.0000 O   0  0  0  0  0  0           0  0  0
  -20.7750    0.7583    0.0000 C   0  0  0  0  0  0           0  0  0
  -14.0417   28.3708    0.0000 O   0  0  0  0  0  0           0  0  0
  -12.9708    5.2583    0.0000 C   0  0  0  0  0  0           0  0  0
   -5.1875   18.7792    0.0000 C   0  0  0  0  0  0           0  0  0
  -18.1667    0.7583    0.0000 C   0  0  0  0  0  0           0  0  0
  -14.2750   10.5125    0.0000 C   0  0  0  0  0  0           0  0  0
  -19.4792    1.5083    0.0000 C   0  0  0  0  0  0           0  0  0
   -7.1458   31.8500    0.0000 O   0  0  0  0  0  0           0  0  0
   -6.4875   24.0292    0.0000 C   0  0  0  0  0  0           0  0  0
  -12.9875   14.2667    0.0000 N   0  0  0  0  0  0           0  0  0
  -19.2042    5.8583    0.0000 O   0  0  0  0  0  0           0  0  0
    1.0417   23.8833    0.0000 O   0  0  0  0  0  0           0  0  0
  -20.7792   -0.7375    0.0000 C   0  0  0  0  0  0           0  0  0
  -10.3833   21.7750    0.0000 C   0  0  0  0  0  0           0  0  0
  -19.4833   -1.4875    0.0000 C   0  0  0  0  0  0           0  0  0
   -6.4875   29.8792    0.0000 N   0  0  0  0  0  0           0  0  0
    0.0542   27.9167    0.0000 C   0  0  0  0  0  0           0  0  0
   -1.2917   21.0250    0.0000 C   0  0  0  0  0  0           0  0  0
  -10.3792   18.7750    0.0000 C   0  0  0  0  0  0           0  0  0
  -11.6708    6.0083    0.0000 C   0  0  0  0  0  0           0  0  0
   -3.8875   19.5250    0.0000 C   0  0  0  0  0  0           0  0  0
  -18.1667   -0.7417    0.0000 C   0  0  0  0  0  0           0  0  0
   -9.0750    7.5083    0.0000 C   0  0  0  0  0  0           0  0  0
   -9.0792   12.0167    0.0000 C   0  0  0  0  0  0           0  0  0
  -14.2833   12.0125    0.0000 C   0  0  0  0  0  0           0  0  0
    3.9042   25.5292    0.0000 N   0  0  0  0  0  0           0  0  0
   -8.0417   14.4250    0.0000 C   0  0  0  0  0  0           0  0  0
   -8.0333    8.1083    0.0000 Cl  0  0  0  0  0  0           0  0  0
   -9.0833   21.0292    0.0000 C   0  0  0  0  0  0           0  0  0
  -11.6833   21.0250    0.0000 C   0  0  0  0  0  0           0  0  0
   -1.2917   19.5250    0.0000 C   0  0  0  0  0  0           0  0  0
   -2.5917   21.7750    0.0000 C   0  0  0  0  0  0           0  0  0
   -3.8875   21.0250    0.0000 C   0  0  0  0  0  0           0  0  0
  -10.3708    5.2583    0.0000 C   0  0  0  0  0  0           0  0  0
  -11.6792   19.5250    0.0000 C   0  0  0  0  0  0           0  0  0
   -9.0792   19.5292    0.0000 C   0  0  0  0  0  0           0  0  0
  -11.6708    7.5083    0.0000 C   0  0  0  0  0  0           0  0  0
   -2.5875   18.7750    0.0000 C   0  0  0  0  0  0           0  0  0
   -9.0708    6.0083    0.0000 C   0  0  0  0  0  0           0  0  0
  -10.3708    8.2583    0.0000 C   0  0  0  0  0  0           0  0  0
    0.3083   30.3333    0.0000 C   0  0  0  0  0  0           0  0  0
   -9.0792   10.8167    0.0000 O   0  0  0  0  0  0           0  0  0
  -12.9833   12.7667    0.0000 C   0  0  0  0  0  0           0  0  0
    1.0583   29.0333    0.0000 C   0  0  0  0  0  0           0  0  0
   -1.2958   25.5375    0.0000 C   0  0  0  0  0  0           0  0  0
   -7.7875   23.2750    0.0000 C   0  0  3  0  0  0           0  0  0
  -17.1250    5.8583    0.0000 C   0  0  0  0  0  0           0  0  0
   -1.0375   23.8792    0.0000 C   0  0  0  0  0  0           0  0  0
  -14.2875   15.0125    0.0000 C   0  0  0  0  0  0           0  0  0
    5.2042   26.2750    0.0000 C   0  0  3  0  0  0           0  0  0
   -4.5875   32.7083    0.0000 C   0  0  0  0  0  0           0  0  0
  -22.0708    1.5083    0.0000 C   0  0  0  0  0  0           0  0  0
    2.6042   26.2792    0.0000 C   0  0  0  0  0  0           0  0  0
  -22.0750   -1.4833    0.0000 C   0  0  0  0  0  0           0  0  0
  -15.5833   12.7625    0.0000 C   0  0  0  0  0  0           0  0  0
    0.0042   26.2833    0.0000 C   0  0  0  0  0  0           0  0  0
    1.3042   25.5333    0.0000 C   0  0  0  0  0  0           0  0  0
   -8.8292   23.8708    0.0000 C   0  0  0  0  0  0           0  0  0
   -7.7833   22.0750    0.0000 C   0  0  0  0  0  0           0  0  0
    5.2083   27.4750    0.0000 C   0  0  0  0  0  0           0  0  0
    6.2417   25.6750    0.0000 C   0  0  0  0  0  0           0  0  0
  -15.5833   14.2625    0.0000 C   0  0  0  0  0  0           0  0  0
  -23.3708    0.7625    0.0000 C   0  0  0  0  0  0           0  0  0
  -23.3708   -0.7333    0.0000 C   0  0  0  0  0  0           0  0  0
  2  5  1  0     0  0
  3  1  1  0     0  0
  4  6  1  0     0  0
  5 10  1  0     0  0
  6 11  1  0     0  0
  7 22  1  0     0  0
 13  8  1  6     0  0
  9  4  1  0     0  0
 10 14  1  0     0  0
 11  7  1  0     0  0
 12 27  1  0     0  0
 13  1  1  0     0  0
 14 21  1  6     0  0
 15 20  1  0     0  0
 16 23  1  0     0  0
 17 26  1  0     0  0
 18 24  1  0     0  0
 19 25  1  0     0  0
 20  9  1  0     0  0
 21 37  1  0     0  0
 22 29  1  0     0  0
 23 31  1  0     0  0
 24 32  1  0     0  0
 25 30  1  0     0  0
 33 26  1  6     0  0
 27 14  1  0     0  0
 28  8  1  0     0  0
 29 18  1  0     0  0
 30 16  1  0     0  0
 31 15  1  0     0  0
 32 17  1  0     0  0
 33  3  1  0     0  0
 34 19  1  0     0  0
 35 39  1  0     0  0
 36 34  1  0     0  0
 37 68  1  0     0  0
 38 36  1  0     0  0
 39 28  1  0     0  0
 40 43  1  0     0  0
 41  3  2  0     0  0
 42  4  2  0     0  0
 43 72  1  0     0  0
 44  5  2  0     0  0
 11 45  1  1     0  0
 46  7  2  0     0  0
 47  8  2  0     0  0
 34 48  1  1     0  0
 49 16  2  0     0  0
 50 19  2  0     0  0
 51 15  2  0     0  0
 52 17  2  0     0  0
 53 18  2  0     0  0
 54 21  2  0     0  0
 55 61  2  0     0  0
 56 12  2  0     0  0
 30 57  1  1     0  0
 29 58  1  1     0  0
 59 48  1  0     0  0
 31 60  1  6     0  0
 61 59  1  0     0  0
 62 35  2  0     0  0
 32 63  1  1     0  0
 64 97  2  0     0  0
 65 38  2  0     0  0
 66 40  2  0     0  0
 67 55  1  0     0  0
 68 84  1  0     0  0
 69 76  1  0     0  0
 70 35  1  0     0  0
 71  1  1  0     0  0
 72 86  1  0     0  0
 73 45  1  0     0  0
 74 57  1  0     0  0
 75 58  1  0     0  0
 76 59  2  0     0  0
 77 94  1  0     0  0
  9 78  1  6     0  0
 79 60  1  0     0  0
 80107  1  0     0  0
 81  6  1  0     0  0
 82 77  1  0     0  0
 83 90  1  0     0  0
 84 89  2  0     0  0
 85 92  1  0     0  0
 86 87  2  0     0  0
 87 75  1  0     0  0
 88 74  2  0     0  0
 89 73  1  0     0  0
 90 73  2  0     0  0
 91 74  1  0     0  0
 92 75  2  0     0  0
 93 88  1  0     0  0
 94 91  2  0     0  0
 95 13  1  0     0  0
 96 78  1  0     0  0
 97 79  1  0     0  0
 98 71  1  0     0  0
 99 33  1  0     0  0
100 63  1  0     0  0
101 38  1  0     0  0
102 40  1  0     0  0
103 64  1  0     0  0
104 80  1  0     0  0
 39105  1  1     0  0
106 55  1  0     0  0
107111  1  0     0  0
108 67  1  0     0  0
109 79  2  0     0  0
110 99  1  0     0  0
111110  1  0     0  0
112100  1  0     0  0
113100  1  0     0  0
114104  1  0     0  0
115104  1  0     0  0
116109  1  0     0  0
117106  2  0     0  0
118108  2  0     0  0
 95 98  1  0     0  0
 72 85  2  0     0  0
 68 83  2  0     0  0
103116  2  0     0  0
  2 12  1  0     0  0
 77 93  2  0     0  0
 67 69  2  0     0  0
117118  1  0     0  0
M  END