
  SciTegic12231509382D

 25 28  0  0  0  0            999 V2000
    3.6902   -0.8250    0.0000 C   0  0
    4.4047   -0.4125    0.0000 C   0  0
    4.4047    0.4125    0.0000 C   0  0
    5.1191    0.8250    0.0000 O   0  0
    3.6902    0.8250    0.0000 C   0  0
    2.9757    0.4125    0.0000 C   0  0
    2.9757   -0.4125    0.0000 C   0  0
    2.2613   -0.8250    0.0000 C   0  0
    1.5468   -0.4125    0.0000 C   0  0
    0.8323   -0.8250    0.0000 N   0  0
    0.1178   -0.4125    0.0000 C   0  0
   -0.5966   -0.8250    0.0000 N   0  0
    0.1178    0.4125    0.0000 N   0  0
   -0.5966    0.8250    0.0000 C   0  0
   -0.5966    1.6500    0.0000 N   0  0
   -1.3111    0.4125    0.0000 N   0  0
   -2.0957    0.6674    0.0000 N   0  0
   -1.3111   -0.4125    0.0000 C   0  0
   -2.0957   -0.6675    0.0000 N   0  0
   -2.5806    0.0000    0.0000 C   0  0
   -3.4056    0.0000    0.0000 C   0  0
   -3.8906   -0.6675    0.0000 C   0  0
   -4.6752   -0.4125    0.0000 C   0  0
   -4.6752    0.4125    0.0000 C   0  0
   -3.8906    0.6674    0.0000 O   0  0
  1  7  2  0
  1  2  1  0
  2  3  2  0
  3  5  1  0
  3  4  1  0
  5  6  2  0
  6  7  1  0
  7  8  1  0
  8  9  1  0
  9 10  1  0
 11 10  1  0
 11 12  2  0
 11 13  1  0
 18 12  1  0
 14 13  2  0
 14 16  1  0
 14 15  1  0
 16 17  1  0
 18 16  1  0
 20 17  2  0
 18 19  2  0
 20 19  1  0
 20 21  1  0
 21 22  2  0
 21 25  1  0
 22 23  1  0
 23 24  2  0
 24 25  1  0
M  END