
  SciTegic01161211252D

 29 31  0  0  0  0            999 V2000
   -1.8723   -7.4750    0.0000 C   0  0
   -1.8734   -8.3023    0.0000 C   0  0
   -1.1586   -8.7152    0.0000 C   0  0
   -0.4422   -8.3019    0.0000 C   0  0
   -0.4450   -7.4713    0.0000 C   0  0
   -1.1604   -7.0622    0.0000 N   0  0
    0.2679   -7.0561    0.0000 N   0  0
    0.9839   -7.4659    0.0000 C   0  0
    0.2648   -6.2311    0.0000 C   0  0
    0.9777   -5.8160    0.0000 O   0  0
   -0.4512   -5.8213    0.0000 N   0  0
    0.9837   -8.2886    0.0000 C   0  0
    1.6988   -8.6983    0.0000 C   0  0
    2.4127   -8.2831    0.0000 C   0  0
    2.4070   -7.4538    0.0000 C   0  0
    1.6912   -7.0478    0.0000 C   0  0
    1.6838   -6.2229    0.0000 F   0  0
    0.2698   -8.7022    0.0000 F   0  0
   -2.5882   -8.7143    0.0000 C   0  0
   -3.3024   -8.3012    0.0000 N   0  0
   -2.5889   -9.5393    0.0000 O   0  0
   -2.5868   -7.0626    0.0000 C   0  0
   -2.5836   -6.2367    0.0000 C   0  0
   -3.2973   -5.8244    0.0000 C   0  0
   -4.0127   -6.2372    0.0000 C   0  0
   -4.0098   -7.0664    0.0000 C   0  0
   -3.2955   -7.4749    0.0000 C   0  0
   -1.8683   -5.8257    0.0000 F   0  0
   -4.7278   -5.8258    0.0000 F   0  0
  5  7  1  0
 14 15  1  0
  3  4  2  0
 15 16  2  0
 16  8  1  0
  7  8  1  0
 16 17  1  0
 12 18  1  0
  7  9  1  0
  2 19  1  0
  4  5  1  0
 19 20  1  0
  9 10  2  0
 19 21  2  0
  2  3  1  0
  1 22  1  0
  9 11  1  0
 22 23  2  0
  5  6  2  0
 23 24  1  0
  8 12  2  0
 24 25  2  0
  6  1  1  0
 25 26  1  0
 12 13  1  0
 26 27  2  0
 27 22  1  0
  1  2  2  0
 23 28  1  0
 13 14  2  0
 25 29  1  0
M  END