
  SciTegic01091216402D

 26 28  0  0  0  0            999 V2000
    4.5701   -2.9644    0.0000 N   0  0
    4.6231   -3.7893    0.0000 N   0  0
    5.4207   -3.9895    0.0000 C   0  0
    5.8617   -3.2909    0.0000 C   0  0
    5.3335   -2.6581    0.0000 C   0  0  1  0  0  0
    3.8715   -2.5234    0.0000 C   0  0
    3.1416   -2.9079    0.0000 N   0  0
    3.9047   -1.7015    0.0000 N   0  0
    5.5374   -1.8586    0.0000 C   0  0
    6.3309   -1.6354    0.0000 C   0  0
    6.5348   -0.8360    0.0000 C   0  0
    5.9453   -0.2597    0.0000 C   0  0
    5.1482   -0.4848    0.0000 C   0  0
    4.9479   -1.2823    0.0000 C   0  0
    3.2061   -1.2604    0.0000 C   0  0
    3.2374   -0.4348    0.0000 C   0  0
    2.4449   -2.4706    0.0000 S   0  0
    2.8860   -1.7719    0.0000 O   0  0
    1.7249   -2.8678    0.0000 C   0  0
    1.0151   -2.4450    0.0000 C   0  0
    0.2975   -2.8472    0.0000 C   0  0
    0.2856   -3.6721    0.0000 C   0  0
    0.9913   -4.0948    0.0000 C   0  0
    1.7130   -3.6927    0.0000 C   0  0
   -0.4123   -2.4244    0.0000 Cl  0  0
    1.8542   -1.8792    0.0000 O   0  0
  1  2  1  0
  2  3  2  0
  3  4  1  0
  4  5  1  0
  1  5  1  0
  6  7  2  0
  6  8  1  0
  1  6  1  0
  9 10  1  0
 10 11  2  0
 11 12  1  0
 12 13  2  0
 13 14  1  0
  9 14  2  0
  5  9  1  6
 15 16  1  0
  8 15  1  0
 17 18  2  0
 19 20  1  0
 20 21  2  0
 21 22  1  0
 22 23  2  0
 23 24  1  0
 19 24  2  0
 17 19  1  0
 21 25  1  0
  7 17  1  0
 17 26  2  0
M  END