
  CDK    9/16/09,9:44

 22 25  0  0  0  0  0  0  0  0999 V2000
   -4.5109  -16.2665    0.0000 C   0  0  0  0  0  0  0  0  0  0  0  0
   -4.5109  -17.0954    0.0000 N   0  0  0  0  0  0  0  0  0  0  0  0
   -3.7969  -15.8497    0.0000 C   0  0  0  0  0  0  0  0  0  0  0  0
   -3.0785  -16.2665    0.0000 C   0  0  0  0  0  0  0  0  0  0  0  0
   -1.6494  -17.0939    0.0000 C   0  0  0  0  0  0  0  0  0  0  0  0
   -1.6518  -16.2637    0.0000 C   0  0  0  0  0  0  0  0  0  0  0  0
   -2.3667  -15.8544    0.0000 C   0  0  0  0  0  0  0  0  0  0  0  0
   -2.3658  -17.5067    0.0000 C   0  0  0  0  0  0  0  0  0  0  0  0
   -3.0831  -17.0950    0.0000 C   0  0  0  0  0  0  0  0  0  0  0  0
   -3.7943  -17.5079    0.0000 C   0  0  0  0  0  0  0  0  0  0  0  0
   -3.7945  -18.3343    0.0000 C   0  0  0  0  0  0  0  0  0  0  0  0
   -2.3599  -18.3314    0.0000 C   0  0  0  0  0  0  0  0  0  0  0  0
   -3.0755  -18.7419    0.0000 C   0  0  0  0  0  0  0  0  0  0  0  0
   -3.0768  -19.5650    0.0000 C   0  0  0  0  0  0  0  0  0  0  0  0
   -2.3633  -19.9786    0.0000 C   0  0  0  0  0  0  0  0  0  0  0  0
   -1.6469  -19.5631    0.0000 C   0  0  0  0  0  0  0  0  0  0  0  0
   -1.6491  -18.7413    0.0000 C   0  0  0  0  0  0  0  0  0  0  0  0
   -0.9358  -18.3281    0.0000 O   0  0  0  0  0  0  0  0  0  0  0  0
   -0.9320  -19.9736    0.0000 O   0  0  0  0  0  0  0  0  0  0  0  0
   -5.2253  -17.5030    0.0000 C   0  0  0  0  0  0  0  0  0  0  0  0
   -4.5109  -17.9151    0.0000 H   0  0  0  0  0  0  0  0  0  0  0  0
   -0.9393  -15.8493    0.0000 N   0  0  0  0  0  0  0  0  0  0  0  0
  8 12  1  0  0  0  0 
  9 10  1  0  0  0  0 
 10 11  1  0  0  0  0 
 11 13  1  0  0  0  0 
  8  5  2  0  0  0  0 
  1  3  1  0  0  0  0 
 12 13  2  0  0  0  0 
  5  6  1  0  0  0  0 
 13 14  1  0  0  0  0 
  2 10  1  0  0  0  0 
 14 15  2  0  0  0  0 
  6  7  2  0  0  0  0 
 15 16  1  0  0  0  0 
  7  4  1  0  0  0  0 
 16 17  2  0  0  0  0 
 17 12  1  0  0  0  0 
  8  9  1  0  0  0  0 
 17 18  1  0  0  0  0 
  4  3  1  0  0  0  0 
 16 19  1  0  0  0  0 
  1  2  1  0  0  0  0 
  2 20  1  0  0  0  0 
  4  9  2  0  0  0  0 
 10 21  1  6  0  0  0 
  6 22  1  0  0  0  0 
M  END