
          11280715352D 1   1.00000     0.00000     0

 30 33  0     1  0            999 V2000
    5.7250   -4.4792    0.0000 C   0  0  1  0  0  0           0  0  0
    5.0125   -3.2542    0.0000 C   0  0  2  0  0  0           0  0  0
    5.7250   -3.6542    0.0000 C   0  0  1  0  0  0           0  0  0
    6.9917   -4.0667    0.0000 O   0  0  0  0  0  0           0  0  0
    6.5125   -4.7417    0.0000 C   0  0  2  0  0  0           0  0  0
    6.5125   -3.4042    0.0000 C   0  0  1  0  0  0           0  0  0
    5.0125   -2.4292    0.0000 C   0  0  0  0  0  0           0  0  0
    6.4375   -0.7792    0.0000 N   0  0  3  0  0  0           0  0  0
    5.0042   -4.8917    0.0000 C   0  0  0  0  0  0           0  0  0
    4.3000   -3.6542    0.0000 C   0  0  2  0  0  0           0  0  0
    4.2917   -4.4792    0.0000 C   0  0  2  0  0  0           0  0  0
    5.7250   -2.0167    0.0000 C   0  0  0  0  0  0           0  0  0
    5.7250   -1.1917    0.0000 C   0  0  1  0  0  0           0  0  0
    6.4375    0.0458    0.0000 C   0  0  2  0  0  0           0  0  0
    6.9167   -5.4542    0.0000 O   0  0  0  0  0  0           0  0  0
    7.1542   -1.1917    0.0000 C   0  0  0  0  0  0           0  0  0
    6.7667   -2.6167    0.0000 C   0  0  0  0  0  0           0  0  0
    3.5917   -3.2542    0.0000 C   0  0  0  0  0  0           0  0  0
    3.5875   -4.8917    0.0000 C   0  0  0  0  0  0           0  0  0
    5.0167    0.0458    0.0000 C   0  0  0  0  0  0           0  0  0
    5.0167   -0.7792    0.0000 C   0  0  0  0  0  0           0  0  0
    5.7250    0.4583    0.0000 C   0  0  0  0  0  0           0  0  0
    7.1542    0.4583    0.0000 C   0  0  0  0  0  0           0  0  0
    2.8792   -3.6542    0.0000 C   0  0  0  0  0  0           0  0  0
    2.8750   -4.4792    0.0000 C   0  0  0  0  0  0           0  0  0
    5.7250   -5.3042    0.0000 H   0  0  0  0  0  0           0  0  0
    5.7250   -2.8292    0.0000 H   0  0  0  0  0  0           0  0  0
    4.2917   -2.8292    0.0000 H   0  0  0  0  0  0           0  0  0
    4.2875   -5.3042    0.0000 H   0  0  0  0  0  0           0  0  0
    7.3375   -4.7417    0.0000 H   0  0  0  0  0  0           0  0  0
  2  3  1  0     0  0
  3  1  1  0     0  0
  4  5  1  0     0  0
  5  1  1  0     0  0
  6  3  1  0     0  0
  2  7  1  1     0  0
  8 13  1  0     0  0
  9  1  1  0     0  0
 10 11  1  0     0  0
 11  9  1  0     0  0
 12  7  2  0     0  0
 13 12  1  1     0  0
 14  8  1  0     0  0
  5 15  1  6     0  0
 16  8  1  0     0  0
  6 17  1  6     0  0
 18 10  1  0     0  0
 19 11  1  0     0  0
 20 21  1  0     0  0
 21 13  1  0     0  0
 22 20  1  0     0  0
 14 23  1  6     0  0
 24 25  1  0     0  0
 25 19  1  0     0  0
  1 26  1  6     0  0
  3 27  1  6     0  0
 10 28  1  1     0  0
 11 29  1  6     0  0
  5 30  1  1     0  0
  4  6  1  0     0  0
  2 10  1  0     0  0
 18 24  1  0     0  0
 14 22  1  0     0  0
M  END