
          11280715082D 1   1.00000     0.00000     0

 29 32  0     1  0            999 V2000
    0.4042   -0.7417    0.0000 C   0  0  0  0  0  0           0  0  0
    0.4042   -1.3417    0.0000 C   0  0  0  0  0  0           0  0  0
    0.9167   -0.4417    0.0000 C   0  0  0  0  0  0           0  0  0
    1.4417   -0.7417    0.0000 C   0  0  0  0  0  0           0  0  0
    2.4792   -0.7417    0.0000 C   0  0  0  0  0  0           0  0  0
   -0.1208   -0.4417    0.0000 C   0  0  3  0  0  0           0  0  0
    5.0792   -1.6542    0.0000 C   0  0  0  0  0  0           0  0  0
   -0.1208   -1.6542    0.0000 C   0  0  3  0  0  0           0  0  0
    4.5542   -1.3542    0.0000 C   0  0  0  0  0  0           0  0  0
    1.9542   -0.4417    0.0000 C   0  0  1  0  0  0           0  0  0
    3.0042   -0.4542    0.0000 C   0  0  0  0  0  0           0  0  0
    0.9292   -1.6417    0.0000 C   0  0  0  0  0  0           0  0  0
    4.0292   -1.6542    0.0000 C   0  0  0  0  0  0           0  0  0
    3.5167   -0.7542    0.0000 C   0  0  0  0  0  0           0  0  0
    3.5167   -1.3542    0.0000 C   0  0  0  0  0  0           0  0  0
    1.4417   -1.3417    0.0000 C   0  0  0  0  0  0           0  0  0
    2.4792   -1.3542    0.0000 C   0  0  0  0  0  0           0  0  0
   -0.6333   -0.7417    0.0000 C   0  0  0  0  0  0           0  0  0
    5.0792   -2.2542    0.0000 O   0  0  0  0  0  0           0  0  0
   -0.6333   -1.3417    0.0000 C   0  0  0  0  0  0           0  0  0
    4.5542   -0.7417    0.0000 C   0  0  0  0  0  0           0  0  0
    3.0042   -1.6542    0.0000 C   0  0  0  0  0  0           0  0  0
    4.0292   -0.4417    0.0000 C   0  0  0  0  0  0           0  0  0
    5.5917   -1.3417    0.0000 O   0  0  0  0  0  0           0  0  0
    1.9542    0.1583    0.0000 O   0  0  0  0  0  0           0  0  0
    0.3042   -0.0167    0.0000 C   0  0  0  0  0  0           0  0  0
   -0.6333   -0.1417    0.0000 C   0  0  0  0  0  0           0  0  0
    0.4042   -1.9417    0.0000 C   0  0  0  0  0  0           0  0  0
   -0.6333   -1.9417    0.0000 C   0  0  0  0  0  0           0  0  0
  2  1  2  0     0  0
  3  1  1  0     0  0
  4  3  2  0     0  0
  5 10  1  0     0  0
  6  1  1  0     0  0
  7  9  1  0     0  0
  8  2  1  0     0  0
  9 13  2  0     0  0
 10  4  1  0     0  0
 11  5  1  0     0  0
 12  2  1  0     0  0
 13 15  1  0     0  0
 14 11  2  0     0  0
 15 22  2  0     0  0
 16  4  1  0     0  0
 17  5  2  0     0  0
 18  6  1  0     0  0
 19  7  2  0     0  0
 20 18  1  0     0  0
 21 23  2  0     0  0
 22 17  1  0     0  0
 23 14  1  0     0  0
 24  7  1  0     0  0
 10 25  1  6     0  0
 26  6  1  0     0  0
 27  6  1  0     0  0
 28  8  1  0     0  0
 29  8  1  0     0  0
 20  8  1  0     0  0
 12 16  2  0     0  0
 15 14  1  0     0  0
  9 21  1  0     0  0
M  END