
          11280715062D 1   1.00000     0.00000     0

 19 20  0     0  0            999 V2000
    2.4750   -3.9667    0.0000 N   0  0  0  0  0  0           0  0  0
    5.4167   -3.1500    0.0000 C   0  0  0  0  0  0           0  0  0
    2.5625   -3.1500    0.0000 C   0  0  0  0  0  0           0  0  0
    1.2542   -3.4250    0.0000 N   0  0  0  0  0  0           0  0  0
    1.6667   -4.1417    0.0000 C   0  0  0  0  0  0           0  0  0
    5.4167   -3.9750    0.0000 S   0  0  0  0  0  0           0  0  0
    1.8042   -2.8125    0.0000 C   0  0  0  0  0  0           0  0  0
    4.7042   -2.7375    0.0000 N   0  0  0  0  0  0           0  0  0
    6.1292   -2.7375    0.0000 N   0  0  0  0  0  0           0  0  0
    3.2750   -2.7375    0.0000 C   0  0  0  0  0  0           0  0  0
    3.9875   -3.1500    0.0000 C   0  0  0  0  0  0           0  0  0
    6.8417   -3.1500    0.0000 C   0  0  0  0  0  0           0  0  0
    8.2750   -3.1500    0.0000 C   0  0  0  0  0  0           0  0  0
    7.5625   -2.7375    0.0000 C   0  0  0  0  0  0           0  0  0
    8.2750   -3.9750    0.0000 C   0  0  0  0  0  0           0  0  0
    8.9875   -2.7375    0.0000 C   0  0  0  0  0  0           0  0  0
    9.7000   -3.1417    0.0000 C   0  0  0  0  0  0           0  0  0
    8.9875   -4.3792    0.0000 C   0  0  0  0  0  0           0  0  0
    9.7042   -3.9750    0.0000 C   0  0  0  0  0  0           0  0  0
  2  8  1  0     0  0
  3  1  1  0     0  0
  4  5  1  0     0  0
  5  1  2  0     0  0
  6  2  2  0     0  0
  7  3  2  0     0  0
  8 11  1  0     0  0
  9  2  1  0     0  0
 10  3  1  0     0  0
 11 10  1  0     0  0
 12  9  1  0     0  0
 13 14  1  0     0  0
 14 12  1  0     0  0
 15 13  2  0     0  0
 16 13  1  0     0  0
 17 16  2  0     0  0
 18 15  1  0     0  0
 19 17  1  0     0  0
  7  4  1  0     0  0
 18 19  2  0     0  0
M  END