
          11280714452D 1   1.00000     0.00000     0

 36 40  0     0  0            999 V2000
    7.2792   -0.2042    0.0000 N   0  0  0  0  0  0           0  0  0
    6.4667   -0.0292    0.0000 N   0  0  0  0  0  0           0  0  0
    7.6917    0.5125    0.0000 N   0  0  0  0  0  0           0  0  0
    6.3792    0.7833    0.0000 C   0  0  0  0  0  0           0  0  0
    7.1375    1.1250    0.0000 N   0  0  0  0  0  0           0  0  0
    4.2417   -1.2875    0.0000 C   0  0  0  0  0  0           0  0  0
   -2.8958   -1.2917    0.0000 N   0  0  0  0  0  0           0  0  0
    3.5292   -1.7000    0.0000 C   0  0  0  0  0  0           0  0  0
    2.8167   -1.2875    0.0000 C   0  0  0  0  0  0           0  0  0
   -3.6000   -1.7042    0.0000 C   0  0  0  0  0  0           0  0  0
    2.1000   -1.7000    0.0000 C   0  0  0  0  0  0           0  0  0
    4.9542   -1.7000    0.0000 C   0  0  0  0  0  0           0  0  0
   -1.4625   -1.2917    0.0000 C   0  0  0  0  0  0           0  0  0
   -0.7458   -1.7000    0.0000 C   0  0  0  0  0  0           0  0  0
    4.2417   -0.4625    0.0000 C   0  0  0  0  0  0           0  0  0
   -2.1750   -1.7042    0.0000 C   0  0  0  0  0  0           0  0  0
    5.6667    1.1958    0.0000 C   0  0  0  0  0  0           0  0  0
    3.5292   -2.5250    0.0000 O   0  0  0  0  0  0           0  0  0
   -3.6083   -2.5292    0.0000 C   0  0  0  0  0  0           0  0  0
    5.6750   -1.2875    0.0000 C   0  0  0  0  0  0           0  0  0
   -2.8833   -2.9417    0.0000 C   0  0  0  0  0  0           0  0  0
    4.9542   -0.0417    0.0000 C   0  0  0  0  0  0           0  0  0
    4.9542    0.7833    0.0000 O   0  0  0  0  0  0           0  0  0
    1.3875   -1.2875    0.0000 C   0  0  0  0  0  0           0  0  0
   -0.0333   -1.2875    0.0000 C   0  0  0  0  0  0           0  0  0
    0.6792   -1.6917    0.0000 C   0  0  0  0  0  0           0  0  0
   -2.1708   -2.5250    0.0000 C   0  0  0  0  0  0           0  0  0
    5.6750   -0.4542    0.0000 C   0  0  0  0  0  0           0  0  0
    4.9542   -2.5250    0.0000 O   0  0  0  0  0  0           0  0  0
    0.6792   -0.0417    0.0000 C   0  0  0  0  0  0           0  0  0
   -4.3125   -1.2917    0.0000 C   0  0  0  0  0  0           0  0  0
   -0.0333   -0.4625    0.0000 C   0  0  0  0  0  0           0  0  0
    1.3917   -0.4542    0.0000 C   0  0  0  0  0  0           0  0  0
   -4.3083   -2.9417    0.0000 C   0  0  0  0  0  0           0  0  0
   -5.0333   -1.7042    0.0000 C   0  0  0  0  0  0           0  0  0
   -5.0208   -2.5292    0.0000 C   0  0  0  0  0  0           0  0  0
  2  1  2  0     0  0
  3  1  1  0     0  0
  4  2  1  0     0  0
  5  3  1  0     0  0
  6 15  2  0     0  0
  7 16  2  0     0  0
  8  6  1  0     0  0
  9  8  1  0     0  0
 10  7  1  0     0  0
 11  9  2  0     0  0
 12 20  2  0     0  0
 13 14  2  0     0  0
 14 25  1  0     0  0
 15 22  1  0     0  0
 16 13  1  0     0  0
 17  4  1  0     0  0
 18  8  2  0     0  0
 19 21  1  0     0  0
 20 28  1  0     0  0
 21 27  2  0     0  0
 22 23  1  0     0  0
 23 17  1  0     0  0
 24 11  1  0     0  0
 25 26  1  0     0  0
 26 24  2  0     0  0
 27 16  1  0     0  0
 28 22  2  0     0  0
 29 12  1  0     0  0
 30 33  2  0     0  0
 31 10  2  0     0  0
 32 30  1  0     0  0
 33 24  1  0     0  0
 34 19  2  0     0  0
 35 31  1  0     0  0
 36 34  1  0     0  0
  4  5  2  0     0  0
 12  6  1  0     0  0
 32 25  2  0     0  0
 10 19  1  0     0  0
 36 35  2  0     0  0
M  END