
          08180812472D 1   1.00000     0.00000     0

 29 31  0     0  0            999 V2000
   10.5069  -17.8041    0.0000 C   0  0  0  0  0  0           0  0  0
   10.5057  -18.6315    0.0000 C   0  0  0  0  0  0           0  0  0
   11.2206  -19.0444    0.0000 C   0  0  0  0  0  0           0  0  0
   11.9370  -18.6310    0.0000 C   0  0  0  0  0  0           0  0  0
   11.9341  -17.8005    0.0000 C   0  0  0  0  0  0           0  0  0
   11.2188  -17.3914    0.0000 C   0  0  0  0  0  0           0  0  0
   12.6521  -19.0424    0.0000 O   0  0  0  0  0  0           0  0  0
    9.7923  -17.3918    0.0000 Cl  0  0  0  0  0  0           0  0  0
   12.6471  -17.3853    0.0000 C   0  0  0  0  0  0           0  0  0
   12.6439  -16.5603    0.0000 N   0  0  3  0  0  0           0  0  0
   13.3062  -16.0726    0.0000 C   0  0  0  0  0  0           0  0  0
   13.0483  -15.2890    0.0000 C   0  0  0  0  0  0           0  0  0
   12.2233  -15.2921    0.0000 C   0  0  0  0  0  0           0  0  0
   11.9714  -16.0777    0.0000 N   0  0  0  0  0  0           0  0  0
   14.0921  -16.3236    0.0000 C   0  0  0  0  0  0           0  0  0
   13.3659  -18.6288    0.0000 C   0  0  0  0  0  0           0  0  0
   14.0811  -19.0402    0.0000 C   0  0  0  0  0  0           0  0  0
   14.0777  -19.8636    0.0000 C   0  0  0  0  0  0           0  0  0
   14.7920  -20.2749    0.0000 C   0  0  0  0  0  0           0  0  0
   15.5068  -19.8612    0.0000 C   0  0  0  0  0  0           0  0  0
   15.5028  -19.0319    0.0000 C   0  0  0  0  0  0           0  0  0
   14.7880  -18.6244    0.0000 C   0  0  0  0  0  0           0  0  0
   11.7358  -14.6265    0.0000 N   0  0  0  0  0  0           0  0  0
   12.0684  -13.8716    0.0000 C   0  0  0  0  0  0           0  0  0
   12.8886  -13.7813    0.0000 O   0  0  0  0  0  0           0  0  0
   11.5806  -13.2062    0.0000 O   0  0  0  0  0  0           0  0  0
   11.9129  -12.4511    0.0000 C   0  0  3  0  0  0           0  0  0
   12.7329  -12.3613    0.0000 C   0  0  0  0  0  0           0  0  0
   11.4250  -11.7858    0.0000 C   0  0  0  0  0  0           0  0  0
 14 10  1  0     0  0
  4  7  1  0     0  0
 11 15  1  0     0  0
  3  4  2  0     0  0
  7 16  1  0     0  0
  1  8  1  0     0  0
 16 17  1  0     0  0
 17 18  2  0     0  0
  5  9  1  0     0  0
 18 19  1  0     0  0
  4  5  1  0     0  0
 19 20  2  0     0  0
  9 10  1  0     0  0
 20 21  1  0     0  0
 10 11  1  0     0  0
 21 22  2  0     0  0
 22 17  1  0     0  0
  2  3  1  0     0  0
 13 23  1  0     0  0
  5  6  2  0     0  0
 23 24  1  0     0  0
  6  1  1  0     0  0
 24 25  2  0     0  0
  1  2  2  0     0  0
 24 26  1  0     0  0
 11 12  2  0     0  0
 26 27  1  0     0  0
 12 13  1  0     0  0
 27 28  1  0     0  0
 13 14  2  0     0  0
 27 29  1  0     0  0
M  END