
          08180812482D 1   1.00000     0.00000     0

 43 47  0     0  0            999 V2000
   -4.1428   -8.5618    0.0000 C   0  0  0  0  0  0           0  0  0
   -4.1440   -9.3891    0.0000 C   0  0  0  0  0  0           0  0  0
   -3.4291   -9.8020    0.0000 C   0  0  0  0  0  0           0  0  0
   -3.4309   -8.1491    0.0000 C   0  0  0  0  0  0           0  0  0
   -2.7108   -9.3862    0.0000 C   0  0  0  0  0  0           0  0  0
   -2.7157   -8.5581    0.0000 C   0  0  0  0  0  0           0  0  0
   -2.0686   -8.0323    0.0000 N   0  0  3  0  0  0           0  0  0
   -2.0546   -9.9006    0.0000 N   0  0  3  0  0  0           0  0  0
   -1.2565   -8.2066    0.0000 C   0  0  0  0  0  0           0  0  0
   -1.2440   -9.7077    0.0000 C   0  0  0  0  0  0           0  0  0
   -0.8917   -8.9529    0.0000 N   0  0  3  0  0  0           0  0  0
   -0.7228  -10.3470    0.0000 O   0  0  0  0  0  0           0  0  0
   -0.7482   -7.5568    0.0000 O   0  0  0  0  0  0           0  0  0
   -2.2611   -7.2302    0.0000 C   0  0  0  0  0  0           0  0  0
   -1.6627   -6.6624    0.0000 C   0  0  0  0  0  0           0  0  0
   -0.8717   -6.8967    0.0000 O   0  0  0  0  0  0           0  0  0
   -0.0668   -8.9456    0.0000 C   0  0  0  0  0  0           0  0  0
    0.3393   -8.2275    0.0000 C   0  0  0  0  0  0           0  0  0
    1.1641   -8.2202    0.0000 N   0  0  0  0  0  0           0  0  0
   -0.0796   -7.5168    0.0000 O   0  0  0  0  0  0           0  0  0
    1.5702   -7.5020    0.0000 C   0  0  0  0  0  0           0  0  0
    2.3936   -7.4970    0.0000 C   0  0  0  0  0  0           0  0  0
    2.7996   -6.7798    0.0000 C   0  0  0  0  0  0           0  0  0
    2.3807   -6.0681    0.0000 C   0  0  0  0  0  0           0  0  0
    1.5516   -6.0781    0.0000 C   0  0  0  0  0  0           0  0  0
    1.1493   -6.7959    0.0000 C   0  0  0  0  0  0           0  0  0
   -2.2304  -10.7067    0.0000 C   0  0  3  0  0  0           0  0  0
   -1.8552   -5.8602    0.0000 C   0  0  3  0  0  0           0  0  0
   -2.0748   -5.0579    0.0000 C   0  0  0  0  0  0           0  0  0
   -1.0561   -5.6550    0.0000 C   0  0  0  0  0  0           0  0  0
   -2.6524   -6.0722    0.0000 C   0  0  0  0  0  0           0  0  0
   -3.0140  -10.9563    0.0000 C   0  0  0  0  0  0           0  0  0
   -3.1909  -11.7583    0.0000 C   0  0  0  0  0  0           0  0  0
   -2.5834  -12.3169    0.0000 C   0  0  0  0  0  0           0  0  0
   -1.7960  -12.0678    0.0000 C   0  0  0  0  0  0           0  0  0
   -1.6161  -11.2599    0.0000 C   0  0  0  0  0  0           0  0  0
    3.6245   -6.7728    0.0000 N   0  0  3  0  0  0           0  0  0
    4.0430   -7.4837    0.0000 C   0  0  0  0  0  0           0  0  0
    4.0309   -6.0549    0.0000 C   0  0  0  0  0  0           0  0  0
    3.7155   -8.2389    0.0000 N   0  0  0  0  0  0           0  0  0
    4.3333   -8.7857    0.0000 N   0  0  0  0  0  0           0  0  0
    5.0442   -8.3672    0.0000 N   0  0  0  0  0  0           0  0  0
    4.8657   -7.5618    0.0000 N   0  0  0  0  0  0           0  0  0
 19 21  1  0     0  0
 21 22  2  0     0  0
  9 11  1  0     0  0
 22 23  1  0     0  0
 10 11  1  0     0  0
 23 24  2  0     0  0
  2  3  1  0     0  0
 24 25  1  0     0  0
 10 12  2  0     0  0
 25 26  2  0     0  0
 26 21  1  0     0  0
  5  6  1  0     0  0
  8 27  1  0     0  0
  9 13  2  0     0  0
 15 28  1  0     0  0
  3  5  2  0     0  0
 28 29  1  0     0  0
  7 14  1  0     0  0
 28 30  1  0     0  0
  6  7  1  0     0  0
 28 31  1  0     0  0
 27 32  1  0     0  0
 14 15  1  0     0  0
  1  2  2  0     0  0
 15 16  2  0     0  0
  5  8  1  0     0  0
 11 17  1  0     0  0
 27 36  1  0     0  0
 32 33  1  0     0  0
 33 34  1  0     0  0
 34 35  1  0     0  0
 35 36  1  0     0  0
  6  4  2  0     0  0
 23 37  1  0     0  0
 17 18  1  0     0  0
 37 38  1  0     0  0
  7  9  1  0     0  0
 37 39  1  0     0  0
 38 40  1  0     0  0
 18 19  1  0     0  0
  4  1  1  0     0  0
 18 20  2  0     0  0
  8 10  1  0     0  0
 40 41  2  0     0  0
 41 42  1  0     0  0
 42 43  1  0     0  0
 43 38  2  0     0  0
M  END