
  CDK    9/16/09,10:4

 25 27  0  0  0  0  0  0  0  0999 V2000
    6.9797   -0.9126    0.0000 C   0  0  0  0  0  0  0  0  0  0  0  0
    7.6942   -0.5000    0.0000 C   0  0  0  0  0  0  0  0  0  0  0  0
    8.4087   -0.9126    0.0000 C   0  0  0  0  0  0  0  0  0  0  0  0
    9.1233   -0.5000    0.0000 C   0  0  0  0  0  0  0  0  0  0  0  0
    9.8378   -0.9126    0.0000 N   0  0  0  0  0  0  0  0  0  0  0  0
   10.5523   -0.5000    0.0000 C   0  0  0  0  0  0  0  0  0  0  0  0
   11.2668   -0.9126    0.0000 N   0  0  0  0  0  0  0  0  0  0  0  0
   10.5523    0.3250    0.0000 N   0  0  0  0  0  0  0  0  0  0  0  0
   11.9814   -0.5000    0.0000 C   0  0  0  0  0  0  0  0  0  0  0  0
   12.6958   -0.9126    0.0000 C   0  0  0  0  0  0  0  0  0  0  0  0
   11.9814    0.3250    0.0000 O   0  0  0  0  0  0  0  0  0  0  0  0
    6.1929   -0.6644    0.0000 N   0  0  0  0  0  0  0  0  0  0  0  0
    5.7137   -1.3362    0.0000 C   0  0  0  0  0  0  0  0  0  0  0  0
    6.2046   -1.9994    0.0000 N   0  0  0  0  0  0  0  0  0  0  0  0
    6.9869   -1.7375    0.0000 C   0  0  0  0  0  0  0  0  0  0  0  0
   12.6958   -1.7376    0.0000 C   0  0  0  0  0  0  0  0  0  0  0  0
   13.4104   -2.1502    0.0000 C   0  0  0  0  0  0  0  0  0  0  0  0
   13.3875   -2.9738    0.0000 C   0  0  0  0  0  0  0  0  0  0  0  0
   14.1634   -3.2543    0.0000 N   0  0  0  0  0  0  0  0  0  0  0  0
   14.2070   -1.9200    0.0000 C   0  0  0  0  0  0  0  0  0  0  0  0
   14.6674   -2.6016    0.0000 C   0  0  0  0  0  0  0  0  0  0  0  0
   15.4859   -2.5427    0.0000 C   0  0  0  0  0  0  0  0  0  0  0  0
   15.8449   -1.8031    0.0000 C   0  0  0  0  0  0  0  0  0  0  0  0
   15.3794   -1.1213    0.0000 C   0  0  0  0  0  0  0  0  0  0  0  0
   14.5626   -1.1835    0.0000 C   0  0  0  0  0  0  0  0  0  0  0  0
  6  7  2  0  0  0  0 
  3  4  1  0  0  0  0 
 12 13  2  0  0  0  0 
 13 14  1  0  0  0  0 
 14 15  1  0  0  0  0 
 15  1  2  0  0  0  0 
  6  8  1  0  0  0  0 
 10 16  1  0  0  0  0 
 16 17  1  0  0  0  0 
 17 18  2  0  0  0  0 
  7  9  1  0  0  0  0 
  4  5  1  0  0  0  0 
 18 19  1  0  0  0  0 
 19 21  1  0  0  0  0 
 20 17  1  0  0  0  0 
  9 10  1  0  0  0  0 
  2  3  1  0  0  0  0 
 20 21  2  0  0  0  0 
  9 11  2  0  0  0  0 
 21 22  1  0  0  0  0 
  1 12  1  0  0  0  0 
 22 23  2  0  0  0  0 
  5  6  1  0  0  0  0 
 23 24  1  0  0  0  0 
  1  2  1  0  0  0  0 
 24 25  2  0  0  0  0 
 25 20  1  0  0  0  0 
M  END