
  SciTegic01161211242D

 31 36  0  0  0  0            999 V2000
   -5.1177    2.1217    0.0000 N   0  0
   -5.5718    1.4265    0.0000 C   0  0
   -5.0510    0.7798    0.0000 N   0  0
   -4.3163    1.9046    0.0000 C   0  0
   -4.2788    1.0769    0.0000 N   0  0
   -3.5474    0.6975    0.0000 C   0  0
   -3.6222    2.3530    0.0000 N   0  0
   -2.8859    1.9692    0.0000 C   0  0
   -2.8513    1.1438    0.0000 C   0  0
   -2.1231    0.7633    0.0000 C   0  0
   -1.4248    1.2037    0.0000 O   0  0
   -2.1925    2.4142    0.0000 C   0  0
   -1.4625    2.0263    0.0000 C   0  0
   -0.7637    2.4644    0.0000 C   0  0
   -0.7937    3.2903    0.0000 C   0  0
   -1.5284    3.6761    0.0000 C   0  0
   -2.2242    3.2357    0.0000 C   0  0
   -2.0894   -0.0625    0.0000 C   0  0
   -2.7877   -0.4991    0.0000 C   0  0
   -2.7545   -1.3241    0.0000 C   0  0
   -2.0220   -1.7087    0.0000 C   0  0
   -1.3215   -1.2623    0.0000 C   0  0
   -1.3581   -0.4387    0.0000 C   0  0
   -1.9872   -2.5344    0.0000 Br  0  0
   -3.9654   -0.0125    0.0000 C   0  0
   -4.7904   -0.0028    0.0000 C   0  0
   -5.2083   -0.7120    0.0000 C   0  0
   -4.8024   -1.4300    0.0000 C   0  0
   -3.9741   -1.4344    0.0000 C   0  0
   -3.5599   -0.7245    0.0000 C   0  0
   -5.2207   -2.1428    0.0000 Br  0  0
  5  6  1  0
 14 15  2  0
  6  9  1  0
 15 16  1  0
  8  7  1  0
 16 17  2  0
 17 12  1  0
  8  9  2  0
 10 18  1  0
  3  5  1  0
 18 19  2  0
  4  5  1  0
 19 20  1  0
  4  1  2  0
 20 21  2  0
 21 22  1  0
  8 12  1  0
 22 23  2  0
 23 18  1  0
  9 10  1  0
 21 24  1  0
 10 11  1  0
  6 25  1  0
 11 13  1  0
 25 26  2  0
  1  2  1  0
 26 27  1  0
  2  3  2  0
 27 28  2  0
 12 13  2  0
 28 29  1  0
  4  7  1  0
 29 30  2  0
 30 25  1  0
 13 14  1  0
 28 31  1  0
M  END