
          11280714492D 1   1.00000     0.00000     0

 33 36  0     0  0            999 V2000
    5.7417   -5.9792    0.0000 N   0  3  0  0  0  0           0  0  0
    5.1667   -5.7917    0.0000 C   0  0  0  0  0  0           0  0  0
    5.1667   -5.1792    0.0000 C   0  0  0  0  0  0           0  0  0
    6.1000   -5.4792    0.0000 C   0  0  0  0  0  0           0  0  0
    5.7417   -5.0042    0.0000 N   0  0  3  0  0  0           0  0  0
    7.6750   -7.0542    0.0000 N   0  0  3  0  0  0           0  0  0
    7.9167   -6.5042    0.0000 C   0  0  0  0  0  0           0  0  0
    4.6500   -6.0917    0.0000 N   0  0  0  0  0  0           0  0  0
    4.6500   -4.8792    0.0000 N   0  0  0  0  0  0           0  0  0
    8.5125   -6.5667    0.0000 C   0  0  3  0  0  0           0  0  0
    8.1125   -7.4542    0.0000 C   0  0  0  0  0  0           0  0  0
    8.6375   -7.1542    0.0000 C   0  0  0  0  0  0           0  0  0
    4.1292   -5.7917    0.0000 C   0  0  0  0  0  0           0  0  0
    4.1292   -5.1792    0.0000 C   0  0  0  0  0  0           0  0  0
    6.7125   -5.4667    0.0000 C   0  0  0  0  0  0           0  0  0
    7.6167   -5.9792    0.0000 C   0  0  0  0  0  0           0  0  0
    7.0125   -5.9792    0.0000 C   0  0  0  0  0  0           0  0  0
    5.9500   -6.5292    0.0000 C   0  0  0  0  0  0           0  0  0
    4.3167   -7.0917    0.0000 Cl  0  5  0  0  0  0           0  0  0
    5.9250   -4.4042    0.0000 C   0  0  0  0  0  0           0  0  0
    7.0875   -7.1792    0.0000 C   0  0  0  0  0  0           0  0  0
    8.9250   -6.1292    0.0000 C   0  0  0  0  0  0           0  0  0
    9.1000   -6.7167    0.0000 C   0  0  0  0  0  0           0  0  0
    8.1125   -8.0542    0.0000 C   0  0  0  0  0  0           0  0  0
    9.1500   -7.4542    0.0000 C   0  0  0  0  0  0           0  0  0
    3.6125   -4.8792    0.0000 C   0  0  0  0  0  0           0  0  0
    3.6125   -6.0917    0.0000 C   0  0  0  0  0  0           0  0  0
    5.5500   -6.9792    0.0000 C   0  0  0  0  0  0           0  0  0
    6.5167   -4.2667    0.0000 C   0  0  0  0  0  0           0  0  0
    8.6292   -8.3542    0.0000 C   0  0  0  0  0  0           0  0  0
    9.1500   -8.0542    0.0000 C   0  0  0  0  0  0           0  0  0
    3.1000   -5.7917    0.0000 C   0  0  0  0  0  0           0  0  0
    3.1000   -5.1792    0.0000 C   0  0  0  0  0  0           0  0  0
  2  1  1  0     0  0
  3  2  1  0     0  0
  4  1  2  0     0  0
  5  4  1  0     0  0
  6  7  1  0     0  0
  7 16  2  0     0  0
  8  2  2  0     0  0
  9  3  2  0     0  0
 10  7  1  0     0  0
 11  6  1  0     0  0
 12 10  1  0     0  0
 13  8  1  0     0  0
 14 13  1  0     0  0
 15  4  1  0     0  0
 16 17  1  0     0  0
 17 15  2  0     0  0
 18  1  1  0     0  0
 20  5  1  0     0  0
 21  6  1  0     0  0
 22 10  1  0     0  0
 23 10  1  0     0  0
 24 11  1  0     0  0
 25 12  1  0     0  0
 26 14  2  0     0  0
 27 13  2  0     0  0
 28 18  1  0     0  0
 29 20  1  0     0  0
 30 24  2  0     0  0
 31 25  2  0     0  0
 32 27  1  0     0  0
 33 32  2  0     0  0
  3  5  1  0     0  0
  9 14  1  0     0  0
 33 26  1  0     0  0
 12 11  2  0     0  0
 30 31  1  0     0  0
M  CHG  2   1   1  19  -1
M  END