
          11280715372D 1   1.00000     0.00000     0

 41 45  0     1  0            999 V2000
    4.5125   -1.6417    0.0000 C   0  0  0  0  0  0           0  0  0
    6.5917   -1.6500    0.0000 N   0  0  3  0  0  0           0  0  0
    3.8542   -2.3625    0.0000 N   0  0  0  0  0  0           0  0  0
    6.0417   -4.9417    0.0000 N   0  0  3  0  0  0           0  0  0
    4.4417   -2.2417    0.0000 C   0  0  0  0  0  0           0  0  0
    6.5917   -2.2500    0.0000 C   0  0  0  0  0  0           0  0  0
    3.9625   -1.4000    0.0000 C   0  0  0  0  0  0           0  0  0
    5.5417   -2.8500    0.0000 C   0  0  0  0  0  0           0  0  0
    7.6375   -1.6542    0.0000 C   0  0  0  0  0  0           0  0  0
    7.1167   -1.3542    0.0000 C   0  0  0  0  0  0           0  0  0
    6.0542   -3.7500    0.0000 N   0  0  3  0  0  0           0  0  0
    5.5500   -2.2500    0.0000 N   0  0  0  0  0  0           0  0  0
    3.5542   -1.8417    0.0000 C   0  0  0  0  0  0           0  0  0
    5.0292   -1.3500    0.0000 C   0  0  0  0  0  0           0  0  0
    5.5542   -1.6500    0.0000 C   0  0  1  0  0  0           0  0  0
    6.0750   -1.3500    0.0000 C   0  0  0  0  0  0           0  0  0
    5.5292   -4.6292    0.0000 C   0  0  0  0  0  0           0  0  0
    6.5625   -4.6417    0.0000 C   0  0  0  0  0  0           0  0  0
    6.0625   -3.1500    0.0000 C   0  0  0  0  0  0           0  0  0
    6.0292   -5.5417    0.0000 C   0  0  0  0  0  0           0  0  0
    8.1542   -1.3542    0.0000 C   0  0  0  0  0  0           0  0  0
    6.1667   -2.6667    0.0000 O   0  0  0  0  0  0           0  0  0
    5.0167   -3.1417    0.0000 O   0  0  0  0  0  0           0  0  0
    6.5667   -4.0500    0.0000 C   0  0  0  0  0  0           0  0  0
    5.5375   -4.0417    0.0000 C   0  0  0  0  0  0           0  0  0
    8.1542   -0.7500    0.0000 O   0  0  0  0  0  0           0  0  0
    7.6375   -2.2667    0.0000 C   0  0  0  0  0  0           0  0  0
    7.0125   -2.6667    0.0000 C   0  0  0  0  0  0           0  0  0
    3.7792   -0.8292    0.0000 C   0  0  0  0  0  0           0  0  0
    2.9792   -1.7167    0.0000 C   0  0  0  0  0  0           0  0  0
    5.5042   -5.8292    0.0000 C   0  0  0  0  0  0           0  0  0
    6.5500   -5.8417    0.0000 C   0  0  0  0  0  0           0  0  0
    8.6875   -1.6542    0.0000 C   0  0  0  0  0  0           0  0  0
    8.6667   -0.4417    0.0000 C   0  0  0  0  0  0           0  0  0
    8.1542   -2.5667    0.0000 C   0  0  0  0  0  0           0  0  0
    3.2000   -0.7042    0.0000 C   0  0  0  0  0  0           0  0  0
    2.8000   -1.1500    0.0000 C   0  0  0  0  0  0           0  0  0
    5.5042   -6.4292    0.0000 C   0  0  0  0  0  0           0  0  0
    6.5417   -6.4417    0.0000 C   0  0  0  0  0  0           0  0  0
    8.6417   -2.2292    0.0000 C   0  0  0  0  0  0           0  0  0
    6.0167   -6.7375    0.0000 C   0  0  0  0  0  0           0  0  0
  2 16  1  0     0  0
  3  5  1  0     0  0
  4 17  1  0     0  0
  5  1  2  0     0  0
  6  2  1  0     0  0
  7  1  1  0     0  0
  8 12  1  0     0  0
  9 10  1  0     0  0
 10  2  1  0     0  0
 11 19  1  0     0  0
 15 12  1  1     0  0
 13  7  2  0     0  0
 14  1  1  0     0  0
 15 14  1  0     0  0
 16 15  1  0     0  0
 17 25  1  0     0  0
 18 24  1  0     0  0
 19  8  1  0     0  0
 20  4  1  0     0  0
 21  9  1  0     0  0
 22  6  2  0     0  0
 23  8  2  0     0  0
 24 11  1  0     0  0
 25 11  1  0     0  0
 26 21  1  0     0  0
 27  9  2  0     0  0
 28  6  1  0     0  0
 29  7  1  0     0  0
 30 13  1  0     0  0
 31 20  2  0     0  0
 32 20  1  0     0  0
 33 21  2  0     0  0
 34 26  1  0     0  0
 35 27  1  0     0  0
 36 29  2  0     0  0
 37 36  1  0     0  0
 38 31  1  0     0  0
 39 32  2  0     0  0
 40 35  2  0     0  0
 41 39  1  0     0  0
 13  3  1  0     0  0
 37 30  2  0     0  0
 18  4  1  0     0  0
 40 33  1  0     0  0
 38 41  2  0     0  0
M  END