
  Mrv0541 04051115152D          

 36 41  0  0  0  0            999 V2000
    4.1135    3.2816    0.0000 C   0  0  0  0  0  0  0  0  0  0  0  0
    3.2930    3.3679    0.0000 C   0  0  0  0  0  0  0  0  0  0  0  0
    2.7410    2.7548    0.0000 C   0  0  0  0  0  0  0  0  0  0  0  0
    1.9873    3.0903    0.0000 C   0  0  0  0  0  0  0  0  0  0  0  0
    1.2728    2.6778    0.0000 C   0  0  0  0  0  0  0  0  0  0  0  0
    1.2728    1.8528    0.0000 N   0  0  0  0  0  0  0  0  0  0  0  0
    0.5584    1.4403    0.0000 C   0  0  0  0  0  0  0  0  0  0  0  0
    0.5584    0.6153    0.0000 C   0  0  0  0  0  0  0  0  0  0  0  0
    1.2728    0.2028    0.0000 N   0  0  0  0  0  0  0  0  0  0  0  0
    1.2728   -0.6222    0.0000 C   0  0  0  0  0  0  0  0  0  0  0  0
    1.9873   -1.0347    0.0000 C   0  0  0  0  0  0  0  0  0  0  0  0
    2.7018   -0.6222    0.0000 Br  0  0  0  0  0  0  0  0  0  0  0  0
    1.9873   -1.8597    0.0000 C   0  0  0  0  0  0  0  0  0  0  0  0
    1.2728   -2.2722    0.0000 N   0  0  0  0  0  0  0  0  0  0  0  0
    0.5584   -1.8597    0.0000 C   0  0  0  0  0  0  0  0  0  0  0  0
   -0.2263   -2.1146    0.0000 N   0  0  0  0  0  0  0  0  0  0  0  0
   -0.7112   -1.4472    0.0000 C   0  0  0  0  0  0  0  0  0  0  0  0
   -1.5362   -1.4472    0.0000 C   0  0  0  0  0  0  0  0  0  0  0  0
   -1.9487   -2.1616    0.0000 C   0  0  0  0  0  0  0  0  0  0  0  0
   -2.7737   -2.1616    0.0000 C   0  0  0  0  0  0  0  0  0  0  0  0
   -3.1862   -1.4472    0.0000 C   0  0  0  0  0  0  0  0  0  0  0  0
   -4.0112   -1.4472    0.0000 N   0  0  0  0  0  0  0  0  0  0  0  0
   -4.4237   -0.7327    0.0000 C   0  0  0  0  0  0  0  0  0  0  0  0
   -5.2487   -0.7327    0.0000 C   0  0  0  0  0  0  0  0  0  0  0  0
   -5.6612   -1.4472    0.0000 N   0  0  0  0  0  0  0  0  0  0  0  0
   -6.4862   -1.4472    0.0000 C   0  0  0  0  0  0  0  0  0  0  0  0
   -5.2487   -2.1616    0.0000 C   0  0  0  0  0  0  0  0  0  0  0  0
   -4.4237   -2.1616    0.0000 C   0  0  0  0  0  0  0  0  0  0  0  0
   -2.7737   -0.7327    0.0000 C   0  0  0  0  0  0  0  0  0  0  0  0
   -1.9487   -0.7327    0.0000 C   0  0  0  0  0  0  0  0  0  0  0  0
   -0.2263   -0.7797    0.0000 N   0  0  0  0  0  0  0  0  0  0  0  0
    0.5584   -1.0347    0.0000 C   0  0  0  0  0  0  0  0  0  0  0  0
    1.9873    0.6153    0.0000 C   0  0  0  0  0  0  0  0  0  0  0  0
    1.9873    1.4403    0.0000 C   0  0  0  0  0  0  0  0  0  0  0  0
    2.0735    3.9108    0.0000 N   0  0  0  0  0  0  0  0  0  0  0  0
    2.8805    4.0823    0.0000 O   0  0  0  0  0  0  0  0  0  0  0  0
  1  2  1  0  0  0  0
  2  3  2  0  0  0  0
  2 36  1  0  0  0  0
  3  4  1  0  0  0  0
  4  5  1  0  0  0  0
  4 35  2  0  0  0  0
  5  6  1  0  0  0  0
  7  6  1  0  0  0  0
 34  6  1  0  0  0  0
  7  8  1  0  0  0  0
  8  9  1  0  0  0  0
 10  9  1  0  0  0  0
 33  9  1  0  0  0  0
 10 11  1  0  0  0  0
 10 32  2  0  0  0  0
 12 11  1  0  0  0  0
 11 13  2  0  0  0  0
 13 14  1  0  0  0  0
 15 14  2  0  0  0  0
 15 16  1  0  0  0  0
 15 32  1  0  0  0  0
 17 16  2  0  0  0  0
 17 18  1  0  0  0  0
 17 31  1  0  0  0  0
 18 19  1  0  0  0  0
 18 30  2  0  0  0  0
 19 20  2  0  0  0  0
 20 21  1  0  0  0  0
 21 22  1  0  0  0  0
 21 29  2  0  0  0  0
 23 22  1  0  0  0  0
 28 22  1  0  0  0  0
 23 24  1  0  0  0  0
 24 25  1  0  0  0  0
 26 25  1  0  0  0  0
 27 25  1  0  0  0  0
 27 28  1  0  0  0  0
 29 30  1  0  0  0  0
 32 31  1  0  0  0  0
 33 34  1  0  0  0  0
 35 36  1  0  0  0  0
M  END