
  SciTegic02011310442D

 42 47  0  0  0  0            999 V2000
   18.0729  -28.5837    0.0000 N   0  0
   18.7825  -28.1743    0.0000 C   0  0
   18.7797  -27.3516    0.0000 N   0  0
   18.0711  -26.9464    0.0000 C   0  0
   17.3648  -28.1748    0.0000 N   0  0
   17.3660  -27.3537    0.0000 C   0  0
   16.5855  -27.0988    0.0000 C   0  0
   16.1019  -27.7624    0.0000 C   0  0
   16.5835  -28.4273    0.0000 C   0  0
   19.4909  -28.5818    0.0000 S   0  0
   20.1979  -28.1721    0.0000 C   0  0
   18.0693  -26.1292    0.0000 N   0  0
   18.7761  -25.7190    0.0000 C   0  0
   20.9030  -28.5800    0.0000 C   0  0
   21.6095  -28.1710    0.0000 C   0  0
   21.6087  -27.3529    0.0000 C   0  0
   20.8954  -26.9456    0.0000 C   0  0
   20.1917  -27.3570    0.0000 C   0  0
   19.5212  -26.0510    0.0000 C   0  0
   20.0666  -25.4425    0.0000 C   0  0
   19.6564  -24.7357    0.0000 N   0  0
   18.8575  -24.9075    0.0000 N   0  0
   20.8795  -25.5262    0.0000 C   0  0
   22.3152  -26.9423    0.0000 N   0  0
   23.0241  -27.3488    0.0000 C   0  0
   23.7306  -26.9382    0.0000 C   0  0
   24.4395  -27.3447    0.0000 N   0  0
   23.0265  -28.1660    0.0000 O   0  0
   24.5245  -28.1550    0.0000 C   0  0
   25.3243  -28.3226    0.0000 C   0  0  1  0  0  0
   25.7309  -27.6136    0.0000 C   0  0
   25.1823  -27.0080    0.0000 C   0  0
   25.6589  -29.0681    0.0000 O   0  0
   26.4718  -29.1512    0.0000 C   0  0
   26.9502  -28.4887    0.0000 C   0  0
   27.7632  -28.5718    0.0000 C   0  0
   28.2416  -27.9092    0.0000 N   0  0
   29.0540  -27.9977    0.0000 C   0  0
   29.5319  -27.3392    0.0000 C   0  0
   29.2010  -26.5916    0.0000 O   0  0
   28.3873  -26.5065    0.0000 C   0  0
   27.9045  -27.1690    0.0000 C   0  0
  5  1  1  0
  1  2  2  0
  2  3  1  0
  3  4  2  0
  4  6  1  0
  5  6  1  0
  6  7  2  0
  7  8  1  0
  8  9  2  0
  9  5  1  0
  2 10  1  0
 10 11  1  0
  4 12  1  0
 12 13  1  0
 11 14  2  0
 14 15  1  0
 15 16  2  0
 16 17  1  0
 17 18  2  0
 18 11  1  0
 13 19  1  0
 19 20  2  0
 20 21  1  0
 21 22  1  0
 22 13  2  0
 20 23  1  0
 16 24  1  0
 24 25  1  0
 25 26  1  0
 26 27  1  0
 25 28  2  0
 27 29  1  0
 29 30  1  0
 30 31  1  0
 31 32  1  0
 32 27  1  0
 30 33  1  1
 33 34  1  0
 34 35  1  0
 35 36  1  0
 36 37  1  0
 37 38  1  0
 37 42  1  0
 38 39  1  0
 39 40  1  0
 40 41  1  0
 41 42  1  0
M  END