
  SciTegic02011310432D

 79 86  0  0  0  0            999 V2000
   -0.5117  -15.1968    0.0000 C   0  0
   -1.0848  -14.5973    0.0000 N   0  0
   -1.0663  -13.7697    0.0000 C   0  0
    0.3128  -15.2124    0.0000 C   0  0  1  0  0  0
    0.9125  -14.6392    0.0000 C   0  0
   -0.4666  -13.1963    0.0000 C   0  0
    0.3577  -13.2180    0.0000 C   0  0  2  0  0  0
    0.9332  -13.8146    0.0000 N   0  0
    1.6773  -13.4543    0.0000 C   0  0  1  0  0  0
    1.5593  -12.6350    0.0000 C   0  0
    0.7489  -12.4916    0.0000 C   0  0
   -1.8868  -14.7924    0.0000 C   0  0
   -2.4546  -14.1990    0.0000 O   0  0
   -2.1168  -15.5851    0.0000 C   0  0
   -2.9187  -15.7843    0.0000 C   0  0
   -3.1488  -16.5768    0.0000 C   0  0
   -3.4908  -15.1866    0.0000 C   0  0
    0.6112  -15.9818    0.0000 N   0  0
    0.0977  -16.6269    0.0000 C   0  0
    0.3961  -17.3963    0.0000 C   0  0  2  0  0  0
   -0.7183  -16.4986    0.0000 O   0  0
   -0.1216  -18.0374    0.0000 C   0  0
    1.2122  -17.5206    0.0000 N   0  0
    1.5106  -18.2898    0.0000 C   0  0
    1.6678  -14.9757    0.0000 O   0  0
    2.4064  -13.8405    0.0000 C   0  0
    2.4345  -14.6655    0.0000 O   0  0
    3.0016  -13.2743    0.0000 N   0  0
    3.7935  -13.5066    0.0000 C   0  0  1  0  0  0
    4.3927  -12.9363    0.0000 C   0  0
    4.0516  -14.2918    0.0000 C   0  0
    5.1823  -13.1698    0.0000 C   0  0
    5.7811  -12.6044    0.0000 C   0  0
    5.5845  -11.8009    0.0000 C   0  0
    4.7877  -11.5658    0.0000 C   0  0
    4.1964  -12.1369    0.0000 C   0  0
    3.5585  -14.9591    0.0000 N   0  0
    4.0457  -15.6246    0.0000 N   0  0
    4.8277  -15.3694    0.0000 N   0  0
    4.8252  -14.5430    0.0000 C   0  0
    5.5354  -15.7970    0.0000 C   0  0
    6.2583  -15.3954    0.0000 C   0  0
    6.9660  -15.8233    0.0000 C   0  0
    7.6889  -15.4217    0.0000 C   0  0
    8.3967  -15.8496    0.0000 C   0  0
    9.1197  -15.4480    0.0000 C   0  0
    9.8274  -15.8759    0.0000 C   0  0
   10.5461  -15.4742    0.0000 C   0  0
   11.2539  -15.9020    0.0000 C   0  0
   11.9769  -15.5004    0.0000 C   0  0
   12.6846  -15.9283    0.0000 N   0  0
   13.4075  -15.5267    0.0000 C   0  0
   14.1153  -15.9546    0.0000 C   0  0
   13.4227  -14.7014    0.0000 O   0  0
   14.0971  -16.7782    0.0000 C   0  0
   14.8039  -17.2018    0.0000 C   0  0
   15.5237  -16.8042    0.0000 C   0  0
   15.5423  -15.9734    0.0000 C   0  0
   14.8329  -15.5505    0.0000 C   0  0
   16.2311  -17.2269    0.0000 C   0  0
   17.6465  -18.0776    0.0000 O   0  0
   16.9499  -16.8288    0.0000 C   0  0
   17.6561  -17.2498    0.0000 C   0  0
   18.3736  -16.8522    0.0000 C   0  0
   18.3861  -16.0300    0.0000 C   0  0
   17.6753  -15.6068    0.0000 C   0  0
   16.9606  -16.0108    0.0000 C   0  0
   16.9231  -18.4802    0.0000 C   0  0
   16.2198  -18.0514    0.0000 C   0  0
   15.5004  -18.4486    0.0000 C   0  0
   15.4832  -19.2704    0.0000 C   0  0
   16.1912  -19.6932    0.0000 C   0  0
   16.9077  -19.2977    0.0000 C   0  0
   19.1070  -15.6248    0.0000 O   0  0
   16.1771  -20.5186    0.0000 O   0  0
   15.9452  -15.2535    0.0000 C   0  0
   15.5225  -14.5426    0.0000 O   0  0
   16.7706  -15.2445    0.0000 O   0  0
   -0.0580  -12.5027    0.0000 H   0  0
 18 19  1  0
 31 37  1  0
 38 39  1  0
 39 40  1  0
 40 31  2  0
  4  5  1  0
 39 41  1  0
 19 20  1  0
 41 42  1  0
  8  9  1  0
 42 43  1  0
 19 21  2  0
 43 44  1  0
  9 10  1  0
 44 45  1  0
 20 22  1  0
 45 46  1  0
 10 11  1  0
 46 47  1  0
 20 23  1  1
 47 48  1  0
 11  7  1  0
 48 49  1  0
 23 24  1  0
 49 50  1  0
  5  8  1  0
 50 51  1  0
  5 25  2  0
 51 52  1  0
  2 12  1  0
 52 53  1  0
  9 26  1  1
 52 54  2  0
  7  6  1  0
 53 55  2  0
 26 27  2  0
 55 56  1  0
 12 13  2  0
 56 57  2  0
 26 28  1  0
 57 58  1  0
  6  3  1  0
 58 59  2  0
 59 53  1  0
 28 29  1  0
 60 69  2  0
 12 14  1  0
 68 61  1  0
 61 63  1  0
 62 60  1  0
 57 60  1  0
 29 30  1  1
  7  8  1  0
 62 63  1  0
 29 31  1  0
 63 64  2  0
 14 15  1  0
 64 65  1  0
 30 32  2  0
 65 66  2  0
 66 67  1  0
 67 62  2  0
 32 33  1  0
 15 16  1  0
 68 69  1  0
 33 34  2  0
 69 70  1  0
  1  2  1  0
 70 71  2  0
 34 35  1  0
 71 72  1  0
 15 17  1  0
 72 73  1  0
 73 68  2  0
 35 36  2  0
 65 74  1  0
 36 30  1  0
 72 75  2  0
 37 38  2  0
 58 76  1  0
  2  3  1  0
 76 77  1  0
  4 18  1  1
 76 78  2  0
  1  4  1  0
  7 79  1  6
M  END