
          11280714572D 1   1.00000     0.00000     0

 34 37  0     0  0            999 V2000
    3.7125   -2.4125    0.0000 C   0  0  0  0  0  0           0  0  0
    4.5375   -2.4042    0.0000 C   0  0  0  0  0  0           0  0  0
    3.4625   -3.2000    0.0000 N   0  0  0  0  0  0           0  0  0
    4.1375   -3.6875    0.0000 C   0  0  0  0  0  0           0  0  0
    4.7917   -3.1917    0.0000 S   0  0  0  0  0  0           0  0  0
    3.2250   -1.7500    0.0000 C   0  0  3  0  0  0           0  0  0
    8.0417   -6.5167    0.0000 C   0  0  0  0  0  0           0  0  0
    7.0542   -7.4167    0.0000 N   0  0  0  0  0  0           0  0  0
    7.2167   -6.6125    0.0000 N   0  0  0  0  0  0           0  0  0
    7.7667   -7.8292    0.0000 N   0  0  0  0  0  0           0  0  0
    8.3792   -7.2667    0.0000 N   0  0  0  0  0  0           0  0  0
    5.0167   -1.7417    0.0000 C   0  0  0  0  0  0           0  0  0
    8.4417   -5.8042    0.0000 C   0  0  0  0  0  0           0  0  0
    4.1417   -4.5042    0.0000 N   0  0  3  0  0  0           0  0  0
    8.0250   -5.0875    0.0000 C   0  0  0  0  0  0           0  0  0
    7.2042   -5.0875    0.0000 C   0  0  0  0  0  0           0  0  0
    4.7292   -5.1000    0.0000 C   0  0  0  0  0  0           0  0  0
    4.6792   -0.9875    0.0000 O   0  0  0  0  0  0           0  0  0
    2.7792   -1.1417    0.0000 F   0  0  0  0  0  0           0  0  0
    3.4375   -0.9167    0.0000 F   0  0  0  0  0  0           0  0  0
    2.3625   -1.7042    0.0000 F   0  0  0  0  0  0           0  0  0
    6.7917   -4.3750    0.0000 C   0  0  0  0  0  0           0  0  0
    6.8000   -5.8042    0.0000 C   0  0  0  0  0  0           0  0  0
    5.5542   -5.0917    0.0000 C   0  0  0  0  0  0           0  0  0
    5.8417   -1.8167    0.0000 O   0  0  0  0  0  0           0  0  0
    5.9667   -4.3792    0.0000 C   0  0  0  0  0  0           0  0  0
    5.9750   -5.8125    0.0000 C   0  0  0  0  0  0           0  0  0
    9.2667   -5.7917    0.0000 C   0  0  0  0  0  0           0  0  0
    8.4375   -4.3667    0.0000 C   0  0  0  0  0  0           0  0  0
    3.3792   -4.8292    0.0000 C   0  0  0  0  0  0           0  0  0
    3.2750   -5.6417    0.0000 C   0  0  0  0  0  0           0  0  0
    9.2625   -4.3667    0.0000 C   0  0  0  0  0  0           0  0  0
    9.6792   -5.0792    0.0000 C   0  0  0  0  0  0           0  0  0
    2.5042   -5.9667    0.0000 C   0  0  0  0  0  0           0  0  0
  2  1  2  0     0  0
  3  1  1  0     0  0
  4  3  2  0     0  0
  5  2  1  0     0  0
  6  1  1  0     0  0
  7 13  1  0     0  0
  8  9  2  0     0  0
  9  7  1  0     0  0
 10 11  1  0     0  0
 11  7  2  0     0  0
 12  2  1  0     0  0
 13 15  2  0     0  0
 14  4  1  0     0  0
 15 16  1  0     0  0
 16 23  2  0     0  0
 17 14  1  0     0  0
 18 12  2  0     0  0
 19  6  1  0     0  0
 20  6  1  0     0  0
 21  6  1  0     0  0
 22 26  2  0     0  0
 23 27  1  0     0  0
 24 17  1  0     0  0
 25 12  1  0     0  0
 26 24  1  0     0  0
 27 24  2  0     0  0
 28 13  1  0     0  0
 29 15  1  0     0  0
 30 14  1  0     0  0
 31 30  1  0     0  0
 32 29  2  0     0  0
 33 32  1  0     0  0
 34 31  1  0     0  0
  5  4  1  0     0  0
 22 16  1  0     0  0
 33 28  2  0     0  0
 10  8  1  0     0  0
M  END