
          11280714512D 1   1.00000     0.00000     0

 19 19  0     0  0            999 V2000
    6.1667   -2.3417    0.0000 C   0  0  0  0  0  0           0  0  0
    1.1667   -1.9542    0.0000 O   0  0  0  0  0  0           0  0  0
    0.4542   -2.3667    0.0000 C   0  0  0  0  0  0           0  0  0
    5.4542   -1.9375    0.0000 C   0  0  0  0  0  0           0  0  0
    6.1667   -3.1667    0.0000 O   0  0  0  0  0  0           0  0  0
    0.4542   -3.2000    0.0000 C   0  0  0  0  0  0           0  0  0
    1.8792   -2.3625    0.0000 C   0  0  0  0  0  0           0  0  0
    2.5917   -1.9500    0.0000 C   0  0  3  0  0  0           0  0  0
    4.0250   -1.9417    0.0000 N   0  0  0  0  0  0           0  0  0
    6.8792   -1.9292    0.0000 O   0  0  0  0  0  0           0  0  0
    2.5917   -1.1250    0.0000 O   0  0  0  0  0  0           0  0  0
    4.7417   -2.3542    0.0000 C   0  0  0  0  0  0           0  0  0
    3.3125   -2.3542    0.0000 C   0  0  0  0  0  0           0  0  0
   -0.2625   -1.9542    0.0000 C   0  0  0  0  0  0           0  0  0
    1.1667   -3.6125    0.0000 C   0  0  0  0  0  0           0  0  0
   -0.2625   -3.6125    0.0000 C   0  0  0  0  0  0           0  0  0
    7.5917   -2.3417    0.0000 C   0  0  0  0  0  0           0  0  0
   -0.9750   -3.2000    0.0000 C   0  0  0  0  0  0           0  0  0
   -0.9750   -2.3750    0.0000 C   0  0  0  0  0  0           0  0  0
  2  7  1  0     0  0
  3  2  1  0     0  0
  4  1  1  0     0  0
  5  1  2  0     0  0
  6  3  1  0     0  0
  7  8  1  0     0  0
  8 13  1  0     0  0
  9 12  1  0     0  0
 10  1  1  0     0  0
 11  8  1  0     0  0
 12  4  1  0     0  0
 13  9  1  0     0  0
 14  3  2  0     0  0
 15  6  1  0     0  0
 16  6  2  0     0  0
 17 10  1  0     0  0
 18 19  2  0     0  0
 19 14  1  0     0  0
 16 18  1  0     0  0
M  END