
  SciTegic01161211272D

 40 46  0  0  0  0            999 V2000
   19.8722  -14.4247    0.0000 N   0  0
   19.1861  -14.8749    0.0000 C   0  0
   19.2364  -15.6950    0.0000 C   0  0
   19.9732  -16.0622    0.0000 C   0  0
   20.6070  -14.7849    0.0000 C   0  0
   20.6608  -15.6021    0.0000 C   0  0
   21.4547  -15.8034    0.0000 N   0  0
   21.8915  -15.1106    0.0000 O   0  0
   21.3676  -14.4813    0.0000 N   0  0
   14.2255  -13.4908    0.0000 N   0  0
   15.6519  -13.4979    0.0000 C   0  0
   14.9405  -13.0805    0.0000 C   0  0
   12.8515  -11.7976    0.0000 C   0  0
   13.5523  -12.2335    0.0000 C   0  0
   13.5286  -13.0603    0.0000 C   0  0
   16.3869  -13.1421    0.0000 C   0  0
   17.0876  -13.5739    0.0000 N   0  0
   16.4063  -12.3153    0.0000 O   0  0
   17.0596  -14.3971    0.0000 C   0  0
   17.7563  -14.8328    0.0000 C   0  0
   18.4828  -14.4413    0.0000 N   0  0
   18.5125  -13.6135    0.0000 C   0  0
   17.8075  -13.1773    0.0000 C   0  0
   14.2766  -11.8385    0.0000 C   0  0
   12.1273  -12.1926    0.0000 C   0  0
   11.4259  -11.7544    0.0000 C   0  0
   11.3838  -13.4084    0.0000 C   0  0
   12.1089  -13.0157    0.0000 C   0  0
   14.2213  -14.3180    0.0000 C   0  0
   15.6477  -14.3252    0.0000 C   0  0
   14.9295  -14.7363    0.0000 C   0  0
   14.9250  -15.5579    0.0000 C   0  0
   15.6370  -15.9744    0.0000 C   0  0
   16.3553  -15.5675    0.0000 C   0  0
   16.3614  -14.7396    0.0000 C   0  0
   10.6809  -12.9827    0.0000 C   0  0
   10.7014  -12.1507    0.0000 C   0  0
    9.9164  -11.8742    0.0000 O   0  0
    9.4108  -12.5353    0.0000 C   0  0
    9.8835  -13.2204    0.0000 O   0  0
  8  9  1  0
  9  5  2  0
  5  1  1  0
  5  6  1  0
  2  3  1  0
 17 19  1  0
 14 24  1  0
 13 25  1  0
 13 14  1  0
 25 26  2  0
 26 37  1  0
 10 12  1  0
 36 27  1  0
 14 15  1  0
 27 28  2  0
 28 25  1  0
 15 10  1  0
 17 23  1  0
 31 29  1  0
 19 20  1  0
 20 21  1  0
 30 31  1  0
 21 22  1  0
 22 23  1  0
 30 11  1  0
 11 16  1  0
 11 12  1  0
 30 35  1  0
 31 32  1  0
 32 33  1  0
 33 34  1  0
 34 35  1  0
 16 17  1  0
 10 29  1  0
 16 18  2  0
 36 37  2  0
  1  2  2  0
  3  4  2  0
  4  6  1  0
  6  7  2  0
  7  8  1  0
 37 38  1  0
 38 39  1  0
 39 40  1  0
 40 36  1  0
 21  2  1  0
M  END