
  SciTegic06181315362D

 31 32  0  0  0  0            999 V2000
    4.5277  -13.2540    0.0000 C   0  0
    4.5265  -14.0813    0.0000 C   0  0
    5.2414  -14.4942    0.0000 C   0  0
    5.9577  -14.0808    0.0000 C   0  0
    5.9549  -13.2504    0.0000 C   0  0
    5.2395  -12.8412    0.0000 C   0  0
    3.8132  -12.8416    0.0000 O   0  0
    3.0988  -13.2543    0.0000 C   0  0
    3.0990  -14.0793    0.0000 C   0  0
    2.3845  -14.4920    0.0000 O   0  0
    6.6729  -14.4922    0.0000 O   0  0
    7.3867  -14.0786    0.0000 C   0  0
    8.1018  -14.4900    0.0000 C   0  0
    8.8156  -14.0764    0.0000 C   0  0
    8.1031  -15.3150    0.0000 O   0  0
    9.5307  -14.4878    0.0000 N   0  0
   10.2446  -14.0742    0.0000 C   0  0
   10.9596  -14.4856    0.0000 C   0  0
   11.6735  -14.0719    0.0000 N   0  0
   12.3886  -14.4832    0.0000 C   0  0
   13.1024  -14.0696    0.0000 N   0  0
   12.3898  -15.3082    0.0000 O   0  0
   13.8175  -14.4810    0.0000 C   0  0
   13.8150  -15.3051    0.0000 C   0  0
   14.5293  -15.7164    0.0000 C   0  0
   15.2441  -15.3027    0.0000 C   0  0
   15.2402  -14.4734    0.0000 C   0  0
   14.5253  -14.0659    0.0000 C   0  0
   15.9598  -15.7132    0.0000 O   0  0
    1.6699  -14.0800    0.0000 C   0  0
    1.6694  -13.2550    0.0000 C   0  0
  1  2  2  0
  2  3  1  0
  3  4  2  0
  4  5  1  0
  5  6  2  0
  6  1  1  0
  1  7  1  0
  7  8  1  0
  8  9  1  0
  9 10  1  0
  4 11  1  0
 11 12  1  0
 12 13  1  0
 13 14  1  0
 13 15  1  0
 14 16  1  0
 16 17  1  0
 17 18  1  0
 18 19  1  0
 19 20  1  0
 20 21  1  0
 20 22  2  0
 21 23  1  0
 23 24  2  0
 24 25  1  0
 25 26  2  0
 26 27  1  0
 27 28  2  0
 28 23  1  0
 26 29  1  0
 10 30  1  0
 30 31  1  0
M  END