
  SciTegic06051315212D

 23 23  0  0  0  0            999 V2000
   13.1438   -8.7497    0.0000 C   0  0
   13.1427   -9.5692    0.0000 C   0  0
   13.8507   -9.9782    0.0000 C   0  0
   14.5604   -9.5687    0.0000 C   0  0
   14.5575   -8.7461    0.0000 C   0  0
   13.8489   -8.3408    0.0000 C   0  0
   13.8465   -7.5236    0.0000 S   0  0
   14.5530   -7.1129    0.0000 N   0  0
   13.0503   -7.7303    0.0000 O   0  0
   13.4300   -6.8099    0.0000 O   0  0
   15.2637   -8.3348    0.0000 F   0  0
   12.4360   -8.3413    0.0000 F   0  0
   12.4346   -9.9773    0.0000 F   0  0
   15.2687   -9.9762    0.0000 F   0  0
   13.8505  -10.7954    0.0000 N   0  0
   13.1427  -11.2038    0.0000 C   0  0
   12.4351  -10.7950    0.0000 C   0  0
   11.7273  -11.2035    0.0000 C   0  0
   11.0197  -10.7947    0.0000 C   0  0
   10.3119  -11.2031    0.0000 C   0  0
    9.6043  -10.7943    0.0000 C   0  0
    8.8964  -11.2028    0.0000 O   0  0
    9.6045   -9.9771    0.0000 O   0  0
  1  2  2  0
  2  3  1  0
  3  4  2  0
  4  5  1  0
  5  6  2  0
  6  1  1  0
  6  7  1  0
  7  8  1  0
  7  9  2  0
  7 10  2  0
  5 11  1  0
  1 12  1  0
  2 13  1  0
  4 14  1  0
  3 15  1  0
 15 16  1  0
 16 17  1  0
 17 18  1  0
 18 19  1  0
 19 20  1  0
 20 21  1  0
 21 22  1  0
 21 23  2  0
M  END