
  SciTegic11261311332D

 24 25  0  0  1  0            999 V2000
    1.1172   -3.8581    0.0000 S   0  0
    1.8621   -4.1719    0.0000 C   0  0
    1.9876   -4.9879    0.0000 C   0  0
    2.6153   -3.8204    0.0000 S   0  0
    3.1802   -4.4230    0.0000 C   0  0
    3.9962   -4.3183    0.0000 S   0  0
    0.4687   -4.3602    0.0000 N   0  0
    2.7910   -5.1385    0.0000 C   0  0
    1.3432   -5.4983    0.0000 C   0  0  2  0  0  0
    0.5817   -5.1762    0.0000 C   0  0
    0.4561   -3.3559    0.0000 O   0  0
    1.6110   -3.2011    0.0000 O   0  0
    4.0715   -5.1887    0.0000 O   0  0
    4.0464   -3.5024    0.0000 O   0  0
    4.8330   -4.2849    0.0000 N   0  0
    1.4478   -6.3185    0.0000 N   0  0
   -0.2971   -4.0464    0.0000 C   0  0
   -3.1383   -4.4355    0.0000 O   0  0
    2.2219   -6.6323    0.0000 C   0  0
   -2.3726   -4.7493    0.0000 C   0  0
   -3.7994   -4.9460    0.0000 C   0  0
   -0.9498   -4.5485    0.0000 C   0  0
   -1.7156   -4.2430    0.0000 C   0  0
    2.3266   -7.4566    0.0000 C   0  0
  2  1  1  0
  3  2  2  0
  4  2  1  0
  5  4  1  0
  6  5  1  0
  7  1  1  0
  8  3  1  0
  9 10  1  0
 10  7  1  0
 11  1  2  0
 12  1  2  0
 13  6  2  0
 14  6  2  0
 15  6  1  0
  9 16  1  1
  7 17  1  0
 18 20  1  0
 19 16  1  0
 20 23  1  0
 21 18  1  0
 22 17  1  0
 23 22  1  0
 24 19  1  0
  9  3  1  0
  8  5  2  0
M  END