
  SciTegic11201313502D

 18 20  0  0  0  0            999 V2000
   -3.9831    0.1490    0.0000 N   0  0
   -2.6592    0.5444    0.0000 C   0  0
   -1.8339    0.5444    0.0000 C   0  0
   -3.0604   -0.1777    0.0000 C   0  0
   -3.2781   -1.0890    0.0000 C   0  0
   -2.8827   -1.7939    0.0000 C   0  0
   -2.4586   -1.0890    0.0000 C   0  0
   -3.9888   -0.6763    0.0000 C   0  0
   -1.4213   -0.1777    0.0000 C   0  0
   -0.5960   -0.1777    0.0000 C   0  0
   -4.6192   -0.0746    0.0000 C   0  0
   -3.3297    0.3209    0.0000 C   0  0
   -0.1833   -0.8826    0.0000 O   0  0
   -2.6592    1.3697    0.0000 C   0  0
   -1.4213    1.2551    0.0000 C   0  0
   -4.2066    0.6476    0.0000 C   0  0
   -0.6018    1.2551    0.0000 C   0  0
   -0.1833    0.5444    0.0000 C   0  0
  4  2  1  0
  3  2  1  0
  1  4  1  0
  5  8  1  0
  6  5  1  0
  7  5  1  0
  8  1  1  0
  9  3  2  0
 10  9  1  0
 11  1  1  0
 12 16  1  0
 13 10  1  0
 14  2  1  0
 15  3  1  0
 16 11  1  0
 17 15  2  0
 18 17  1  0
 12  2  1  0
  7  6  1  0
 18 10  2  0
M  END