
  SciTegic03291108492D

 22 25  0  0  0  0            999 V2000
   -1.0998    1.9427    0.0000 S   0  0
    0.3993   -0.3747    0.0000 S   0  0
    1.1138    0.8628    0.0000 N   0  0
    0.3993    2.1003    0.0000 N   0  0
    1.8675   -0.4516    0.0000 N   0  0
    1.2000   -1.6077    0.0000 N   0  0
    2.4195   -1.0647    0.0000 N   0  0
    2.0070   -1.7792    0.0000 N   0  0
   -0.3151    0.8628    0.0000 C   0  0
   -1.0998    0.6079    0.0000 C   0  0
    0.3993    0.4503    0.0000 C   0  0
   -0.3151    1.6878    0.0000 C   0  0
   -1.3547   -0.1768    0.0000 C   0  0
   -1.5847    1.2753    0.0000 C   0  0
    1.1138   -0.7872    0.0000 C   0  0
    1.1138    1.6878    0.0000 C   0  0
   -0.8027   -0.7898    0.0000 C   0  0
   -2.1617   -0.3483    0.0000 C   0  0
   -1.0576   -1.5745    0.0000 C   0  0
   -2.4166   -1.1329    0.0000 C   0  0
    2.0390    0.3553    0.0000 C   0  0
   -1.8646   -1.7460    0.0000 C   0  0
  1 12  1  0
  1 14  1  0
  2 11  1  0
  2 15  1  0
  3 11  2  0
  3 16  1  0
  4 12  1  0
  4 16  2  0
  5  7  1  0
  5 15  1  0
  5 21  1  0
  6  8  1  0
  6 15  2  0
  7  8  2  0
  9 10  1  0
  9 11  1  0
  9 12  2  0
 10 13  1  0
 10 14  2  0
 13 17  2  0
 13 18  1  0
 17 19  1  0
 18 20  2  0
 19 22  2  0
 20 22  1  0
M  END