
  SciTegic02271217242D

 42 45  0  0  0  0            999 V2000
   14.1486   -6.4416    0.0000 C   0  0
   14.1474   -7.2690    0.0000 C   0  0
   14.8622   -7.6819    0.0000 C   0  0
   15.5787   -7.2685    0.0000 C   0  0
   15.5758   -6.4380    0.0000 C   0  0
   14.8604   -6.0289    0.0000 C   0  0
   16.2887   -6.0228    0.0000 O   0  0
   17.0047   -6.4326    0.0000 C   0  0
   17.0045   -7.2553    0.0000 C   0  0
   17.7197   -7.6650    0.0000 C   0  0
   18.4336   -7.2497    0.0000 C   0  0
   18.4278   -6.4205    0.0000 C   0  0
   17.7120   -6.0145    0.0000 C   0  0
   19.1501   -7.6586    0.0000 Cl  0  0
   17.7047   -5.1895    0.0000 N   0  0
   18.4154   -4.7706    0.0000 S   0  0
   19.1335   -5.1767    0.0000 C   0  0
   17.9958   -4.0500    0.0000 O   0  0
   18.8208   -4.0500    0.0000 O   0  0
   19.1379   -6.0011    0.0000 C   0  0
   19.8552   -6.4071    0.0000 C   0  0
   20.5670   -5.9881    0.0000 C   0  0
   20.5569   -5.1589    0.0000 C   0  0
   19.8390   -4.7567    0.0000 C   0  0
   21.2856   -6.3933    0.0000 Cl  0  0
   13.4326   -7.6809    0.0000 C   0  0
   12.7185   -7.2679    0.0000 N   0  0
   13.4320   -8.5059    0.0000 O   0  0
   12.7191   -6.4429    0.0000 C   0  0
   12.0050   -6.0298    0.0000 C   0  0
   11.2902   -6.4417    0.0000 N   0  0
   10.5738   -6.0217    0.0000 C   0  0
    9.8611   -6.4301    0.0000 C   0  0
    9.8562   -7.2554    0.0000 C   0  0
   10.5702   -7.6707    0.0000 C   0  0
   11.2891   -7.2606    0.0000 C   0  0
   21.2662   -4.7375    0.0000 C   0  0
   21.9857   -5.1411    0.0000 F   0  0
   21.2559   -3.9126    0.0000 F   0  0
   21.9750   -4.3208    0.0000 F   0  0
   16.2938   -7.6799    0.0000 O   0  0
   16.2951   -8.5049    0.0000 C   0  0
  9 10  1  0
 20 21  1  0
  2  3  1  0
 21 22  2  0
 10 11  2  0
 22 23  1  0
  5  6  2  0
 23 24  2  0
 24 17  1  0
 11 12  1  0
 22 25  1  0
  6  1  1  0
  2 26  1  0
 12 13  2  0
 26 27  1  0
 13  8  1  0
 26 28  2  0
  1  2  2  0
 27 29  1  0
 11 14  1  0
 29 30  1  0
  5  7  1  0
 30 31  1  0
 31 32  1  0
 13 15  1  0
  3  4  2  0
 15 16  1  0
  7  8  1  0
 16 17  1  0
 31 36  1  0
 32 33  1  0
 33 34  1  0
 34 35  1  0
 35 36  1  0
 23 37  1  0
 16 18  2  0
 37 38  1  0
  8  9  2  0
 37 39  1  0
 16 19  2  0
 37 40  1  0
  4  5  1  0
  4 41  1  0
 17 20  2  0
 41 42  1  0
M  END