
  SciTegic06051313522D

 46 51  0  0  0  0            999 V2000
    9.5166   -9.6510    0.0000 O   0  0
    8.7987  -10.8825    0.0000 C   0  0  2  0  0  0
    7.5592  -14.7626    0.0000 C   0  0
    8.0947   -9.6448    0.0000 C   0  0
   10.9380  -11.3022    0.0000 O   0  0
    9.5103  -11.2974    0.0000 C   0  0  1  0  0  0
    7.9947  -14.0708    0.0000 C   0  0
    8.7688  -15.5168    0.0000 C   0  0
    8.8064  -10.0596    0.0000 C   0  0  1  0  0  0
   10.0650  -13.3500    0.0000 N   0  0
    9.2021  -14.8219    0.0000 C   0  0
    8.9360  -12.6456    0.0000 C   0  0
    8.8101  -14.1000    0.0000 C   0  0
    9.2441  -13.4047    0.0000 C   0  0
    8.0864  -11.2948    0.0000 O   0  0
   10.2283  -10.0659    0.0000 C   0  0  2  0  0  0
   10.2262  -10.8873    0.0000 C   0  0  2  0  0  0
    9.5685  -12.1203    0.0000 N   0  0
    7.3788  -10.0549    0.0000 O   0  0
    7.9446  -15.4890    0.0000 C   0  0
   10.2618  -12.5529    0.0000 N   0  0
   17.4639   -9.2110    0.0000 C   0  0
   17.0576   -8.4960    0.0000 C   0  0
   13.0719  -12.5358    0.0000 O   0  0
   11.6505   -9.2489    0.0000 H   0  0
   16.2400   -8.4925    0.0000 C   0  0
   12.3612   -8.8328    0.0000 O   0  0
   15.8263   -9.1971    0.0000 C   0  0
   14.5313   -8.5191    0.0000 N   0  0
   16.2308   -9.9104    0.0000 C   0  0
   15.0068   -9.1904    0.0000 C   0  0
   14.5206   -9.8498    0.0000 C   0  0
   13.7867  -11.3001    0.0000 O   0  0
   13.0719  -10.8924    0.0000 C   0  0  2  0  0  0
   10.9357   -9.6567    0.0000 S   0  0
   17.0496   -9.9174    0.0000 C   0  0
   13.7431   -9.5888    0.0000 N   0  0
   11.6505  -10.0686    0.0000 C   0  0  1  0  0  0
   12.3612   -9.6567    0.0000 C   0  0  1  0  0  0
   12.3612  -12.1239    0.0000 C   0  0
   13.0719  -10.0686    0.0000 C   0  0  2  0  0  0
   13.7489   -8.7677    0.0000 N   0  0
   12.3612  -11.3001    0.0000 C   0  0  1  0  0  0
   11.6505  -10.8924    0.0000 O   0  0
    9.1532  -16.2379    0.0000 O   0  0
   17.4701   -7.7905    0.0000 O   0  0
  6 17  1  0
 20  3  1  0
 17  5  1  6
 18 21  1  0
  4 19  1  0
 10 14  1  0
  6 18  1  1
  9  4  1  1
 16  1  1  0
  3  7  2  0
 21 10  2  0
  8 20  2  0
 13 11  2  0
  7 13  1  0
 12 18  1  0
  2 15  1  1
 11  8  1  0
 16 17  1  0
  1  9  1  0
 14 13  1  0
  9  2  1  0
 14 12  2  0
  2  6  1  0
 22 23  1  0
 29 42  2  0
 38 39  1  0
 42 37  1  0
 31 29  1  0
 36 22  2  0
 39 27  1  6
 38 35  1  0
 26 28  1  0
 43 40  1  1
 34 33  1  1
 24 40  1  0
 32 31  2  0
 30 36  1  0
 28 30  2  0
 23 26  2  0
 31 28  1  0
 39 41  1  0
 44 38  1  0
 41 34  1  0
 37 32  1  0
 38 25  1  6
 43 34  1  0
 43 44  1  0
 41 37  1  1
 16 35  1  1
  8 45  1  0
 23 46  1  0
M  END