
  SciTegic11201309402D

 96100  0  0  1  0            999 V2000
   10.4792   -1.3542    0.0000 N   0  0
    9.7542   -1.7417    0.0000 C   0  0
    1.5917   -1.7417    0.0000 C   0  0
   11.8042   -1.3667    0.0000 C   0  0
   -5.8708   -3.8667    0.0000 N   0  3
    0.9042   -1.2792    0.0000 C   0  0  1  0  0  0
   11.1167   -1.8292    0.0000 C   0  0  2  0  0  0
    7.7167   -1.3667    0.0000 C   0  0
    3.6292   -1.3667    0.0000 C   0  0
    0.2667   -1.7542    0.0000 N   0  0
    5.6750   -1.7417    0.0000 C   0  0
   13.8417   -1.7417    0.0000 C   0  0
    2.3125   -1.3542    0.0000 N   0  0
    6.3917   -1.3542    0.0000 N   0  0
    8.4375   -1.7542    0.0000 N   0  0
   12.5250   -1.7542    0.0000 N   0  0
   14.5625   -1.3542    0.0000 N   0  0
    7.0375   -1.8292    0.0000 C   0  0  1  0  0  0
    4.3542   -1.7542    0.0000 N   0  0
    7.0375   -2.6500    0.0000 C   0  0
   -0.5333   -1.3417    0.0000 C   0  0
    2.9542   -1.8292    0.0000 C   0  0  1  0  0  0
   -6.6167   -4.3542    0.0000 N   0  5
    9.0792   -1.2792    0.0000 C   0  0  1  0  0  0
   11.2000    1.5750    0.0000 C   0  0
   15.2875    1.5750    0.0000 C   0  0
   15.2042   -1.8292    0.0000 C   0  0  2  0  0  0
   15.8875   -1.3667    0.0000 C   0  0
    5.0000   -1.2792    0.0000 C   0  0  1  0  0  0
    7.7417   -3.0542    0.0000 C   0  0
   -5.1083   -3.3792    0.0000 N   0  0
   13.1667   -1.2792    0.0000 C   0  0  1  0  0  0
    5.7042    0.7583    0.0000 C   0  0
   15.9917    1.1708    0.0000 N   0  0
   11.9042    1.1708    0.0000 N   0  0
    9.7625   -2.5625    0.0000 O   0  0
    0.9042   -0.4667    0.0000 C   0  0
    1.5917   -2.5625    0.0000 O   0  0
   11.8042   -0.5500    0.0000 O   0  0
    7.7167   -0.5500    0.0000 O   0  0
    3.6292   -0.5500    0.0000 O   0  0
   13.8417   -2.5625    0.0000 O   0  0
    5.6792   -2.5625    0.0000 O   0  0
   15.2042   -2.6500    0.0000 C   0  0
    2.9542   -2.6500    0.0000 C   0  0
   -0.5833   -0.4500    0.0000 O   0  0
   15.8917   -0.5500    0.0000 O   0  0
   -1.2875   -1.8292    0.0000 C   0  0
    7.7417   -3.8750    0.0000 O   0  0
    6.4125    1.1708    0.0000 O   0  0
    5.0000   -0.4667    0.0000 C   0  0
   10.4875    1.1458    0.0000 N   0  0
   14.5750    1.1458    0.0000 N   0  0
   15.2875    2.3958    0.0000 N   0  0
   11.2000    2.3958    0.0000 N   0  0
   16.6042   -1.7542    0.0000 N   0  0
    9.8417   -1.9875    0.0000 C   0  0
   -4.3583   -2.8875    0.0000 C   0  0
    8.4542   -2.6500    0.0000 N   0  0
    5.7042   -0.0542    0.0000 C   0  0
    1.6167   -0.0542    0.0000 C   0  0
    5.0000    1.1708    0.0000 N   0  0
   15.9125   -3.0625    0.0000 C   0  0
   -2.8458   -1.9125    0.0000 C   0  0
   17.3292   -3.8792    0.0000 C   0  0
    3.0292    0.7625    0.0000 C   0  0
   -2.0875   -1.4250    0.0000 C   0  0
    3.6625   -3.0625    0.0000 C   0  0
   -3.5458   -3.2917    0.0000 C   0  0
   -4.3958   -1.9875    0.0000 C   0  0
   15.9125   -3.8792    0.0000 C   0  0
    1.6167    0.7625    0.0000 C   0  0
   16.6167   -2.6542    0.0000 C   0  0
    2.3167   -0.4542    0.0000 C   0  0
    2.3167    1.1708    0.0000 C   0  0
   17.3292   -3.0625    0.0000 C   0  0
    3.0292   -0.0542    0.0000 C   0  0
   16.6167   -4.2875    0.0000 C   0  0
   -2.7958   -2.8042    0.0000 C   0  0
   -3.6458   -1.5000    0.0000 C   0  0
   11.1167   -2.6542    0.0000 C   0  0
    0.2625   -2.6500    0.0000 C   0  0
   18.0292   -4.2875    0.0000 O   0  0
    3.7375    1.1708    0.0000 O   0  0
   10.2417   -2.7875    0.0000 C   0  0
    9.0792   -0.4667    0.0000 C   0  0
   13.1667   -0.4667    0.0000 C   0  0
   13.8750    0.7583    0.0000 C   0  0
    9.7792    0.7583    0.0000 C   0  0
    4.3667   -2.6500    0.0000 C   0  0
    3.6625   -3.8750    0.0000 C   0  0
    9.7792   -0.0542    0.0000 C   0  0
   13.8750   -0.0542    0.0000 C   0  0
    5.0750   -3.0625    0.0000 C   0  0
    4.3667   -4.2875    0.0000 C   0  0
    5.0750   -3.8750    0.0000 C   0  0
  2  1  1  0
  3 13  1  0
  7  4  1  6
  5 31  2  0
  6  3  1  0
  7  1  1  0
  8 15  1  0
  9 19  1  0
 10  6  1  0
 11 14  1  0
 12 32  1  0
 22 13  1  6
 18 14  1  6
 24 15  1  1
 16  4  1  0
 17 12  1  0
 18  8  1  0
 29 19  1  1
 18 20  1  0
 21 10  1  0
 22  9  1  0
 23  5  2  0
 24  2  1  0
 25 52  2  0
 26 53  2  0
 27 17  1  6
 28 27  1  0
 29 11  1  0
 30 20  1  0
 31 58  1  0
 32 16  1  1
 33 60  1  0
 34 26  1  0
 35 25  1  0
 36  2  2  0
  6 37  1  1
 38  3  2  0
 39  4  2  0
 40  8  2  0
 41  9  2  0
 42 12  2  0
 43 11  2  0
 27 44  1  0
 22 45  1  0
 46 21  2  0
 47 28  2  0
 48 21  1  0
 49 30  2  0
 50 33  2  0
 29 51  1  0
 52 89  1  0
 53 88  1  0
 54 26  1  0
 55 25  1  0
 56 28  1  0
 57  1  1  0
 58 70  2  0
 59 30  1  0
 60 51  1  0
 61 37  1  0
 62 33  1  0
 63 44  1  0
 64 67  1  0
 65 76  1  0
 66 77  1  0
 67 48  1  0
 68 45  1  0
 69 79  2  0
 70 80  1  0
 71 63  2  0
 72 61  2  0
 73 63  1  0
 74 61  1  0
 75 72  1  0
 76 73  2  0
 77 74  2  0
 78 71  1  0
 79 64  1  0
 80 64  2  0
  7 81  1  0
 82 10  1  0
 83 65  1  0
 84 66  1  0
 85 57  1  0
 24 86  1  0
 32 87  1  0
 88 93  1  0
 89 92  1  0
 90 68  1  0
 91 68  2  0
 92 86  1  0
 93 87  1  0
 94 90  2  0
 95 91  1  0
 96 95  2  0
 85 81  1  0
 65 78  2  0
 94 96  1  0
 66 75  2  0
 69 58  1  0
M  CHG  2   5   1  23  -1
M  END