
          11280715362D 1   1.00000     0.00000     0

 35 38  0     1  0            999 V2000
    3.6667   -4.2167    0.0000 C   0  0  1  0  0  0           0  0  0
    3.7042   -3.3917    0.0000 C   0  0  2  0  0  0           0  0  0
    4.3042   -4.7292    0.0000 N   0  0  3  0  0  0           0  0  0
    2.8667   -4.4292    0.0000 C   0  0  0  0  0  0           0  0  0
    2.9417   -3.0917    0.0000 C   0  0  2  0  0  0           0  0  0
    7.8875   -4.0792    0.0000 C   0  0  0  0  0  0           0  0  0
    5.8000   -1.7125    0.0000 C   0  0  0  0  0  0           0  0  0
    2.7292   -2.2917    0.0000 O   0  0  0  0  0  0           0  0  0
    8.2667   -1.6917    0.0000 N   0  0  0  0  0  0           0  0  0
    2.4167   -3.7375    0.0000 C   0  0  0  0  0  0           0  0  0
    8.5417   -4.0792    0.0000 O   0  0  0  0  0  0           0  0  0
    6.6167   -1.7042    0.0000 C   0  0  0  0  0  0           0  0  0
    5.3750   -0.9917    0.0000 C   0  0  0  0  0  0           0  0  0
    5.3875   -2.4292    0.0000 C   0  0  0  0  0  0           0  0  0
    5.4542   -3.1167    0.0000 C   0  0  0  0  0  0           0  0  0
    6.3292   -3.2750    0.0000 C   0  0  0  0  0  0           0  0  0
    4.4042   -2.9417    0.0000 O   0  0  0  0  0  0           0  0  0
    3.3167   -1.7167    0.0000 C   0  0  0  0  0  0           0  0  0
    4.1417   -1.7167    0.0000 C   0  0  0  0  0  0           0  0  0
    7.7292   -4.8042    0.0000 O   0  0  0  0  0  0           0  0  0
    4.5625   -2.4375    0.0000 C   0  0  0  0  0  0           0  0  0
    4.5500   -1.0042    0.0000 C   0  0  0  0  0  0           0  0  0
    5.0500   -4.3792    0.0000 C   0  0  0  0  0  0           0  0  0
    4.1167   -5.5417    0.0000 C   0  0  0  0  0  0           0  0  0
    4.9250   -3.4292    0.0000 C   0  0  0  0  0  0           0  0  0
    7.3542   -3.6167    0.0000 C   0  0  0  0  0  0           0  0  0
    7.8625   -2.4125    0.0000 C   0  0  0  0  0  0           0  0  0
    7.8417   -0.9792    0.0000 C   0  0  0  0  0  0           0  0  0
    6.6417   -3.8042    0.0000 C   0  0  0  0  0  0           0  0  0
    7.0167   -0.9875    0.0000 C   0  0  0  0  0  0           0  0  0
    7.0375   -2.4167    0.0000 C   0  0  0  0  0  0           0  0  0
    4.6292   -6.1917    0.0000 C   0  0  0  0  0  0           0  0  0
    5.7917   -4.7542    0.0000 C   0  0  0  0  0  0           0  0  0
    5.4542   -6.1917    0.0000 C   0  0  0  0  0  0           0  0  0
    5.9750   -5.5542    0.0000 C   0  0  0  0  0  0           0  0  0
  2  1  1  0     0  0
  1  3  1  1     0  0
  4  1  1  0     0  0
  5  2  1  0     0  0
  6 26  1  0     0  0
  7 13  1  0     0  0
  5  8  1  1     0  0
  9 27  2  0     0  0
 10  4  1  0     0  0
 11  6  2  0     0  0
 12  7  1  0     0  0
 13 22  2  0     0  0
 14 21  1  0     0  0
 15 25  1  0     0  0
 16 15  2  0     0  0
  2 17  1  6     0  0
 18  8  1  0     0  0
 19 18  1  0     0  0
 20  6  1  0     0  0
 21 19  2  0     0  0
 22 19  1  0     0  0
 23  3  1  0     0  0
 24  3  1  0     0  0
 25 17  1  0     0  0
 26 29  1  0     0  0
 27 31  1  0     0  0
 28 30  2  0     0  0
 29 16  1  0     0  0
 30 12  1  0     0  0
 31 12  2  0     0  0
 32 24  1  0     0  0
 33 23  1  0     0  0
 34 32  1  0     0  0
 35 33  1  0     0  0
 10  5  1  0     0  0
 34 35  1  0     0  0
  7 14  2  0     0  0
 28  9  1  0     0  0
M  END