
  SciTegic11201309402D

 54 58  0  0  1  0            999 V2000
    8.2875   -5.8542    0.0000 N   0  0
    3.5917   -7.1792    0.0000 N   0  0
    8.3292   -7.4417    0.0000 C   0  0
    4.2917   -4.9625    0.0000 N   0  0
    7.9625   -8.1625    0.0000 N   0  0
    6.5292   -4.3292    0.0000 N   0  0
    8.4375   -6.6500    0.0000 C   0  0  2  0  0  0
    3.8167   -5.6125    0.0000 C   0  0
    3.8792   -7.9375    0.0000 C   0  0
    7.8792   -5.1625    0.0000 C   0  0
    5.7292   -4.2875    0.0000 C   0  0
    3.8042   -3.7125    0.0000 C   0  0
    3.5750   -6.3792    0.0000 C   0  0  2  0  0  0
    4.9542   -4.5042    0.0000 C   0  0  2  0  0  0
    6.6625   -9.0667    0.0000 C   0  0
    7.2750   -4.6292    0.0000 C   0  0  2  0  0  0
    7.3875   -8.7250    0.0000 C   0  0  2  0  0  0
    5.8625   -9.1542    0.0000 N   0  0
    2.5417   -4.0042    0.0000 N   0  0
    3.2792   -4.3167    0.0000 C   0  0
    4.5167   -6.9917    0.0000 C   0  0
    5.5167   -6.4875    0.0000 C   0  0
    4.3917   -8.5542    0.0000 C   0  0  1  0  0  0
    6.4625   -7.1042    0.0000 N   0  0
    4.6042   -3.7792    0.0000 C   0  0
    3.3917   -3.0250    0.0000 C   0  0
    2.6042   -3.2042    0.0000 C   0  0
    7.4667   -6.5917    0.0000 C   0  0
    5.0750   -8.9792    0.0000 C   0  0
    9.0917   -7.6792    0.0000 O   0  0
    3.1792   -8.3417    0.0000 O   0  0
    3.0917   -5.2500    0.0000 O   0  0
    5.6417   -3.4875    0.0000 O   0  0
    8.5000   -4.6500    0.0000 O   0  0
    7.6917   -3.9500    0.0000 C   0  0
    6.8792   -9.8375    0.0000 O   0  0
    7.8417   -9.3792    0.0000 C   0  0
    5.5500   -5.7750    0.0000 O   0  0
    8.5000   -3.9667    0.0000 C   0  0
    3.8625   -9.1667    0.0000 C   0  0
    3.6167   -2.2542    0.0000 C   0  0
    7.5042  -10.1125    0.0000 C   0  0
    2.0542   -2.6250    0.0000 C   0  0
    8.8792   -4.6750    0.0000 C   0  0
    8.9167   -3.2792    0.0000 C   0  0
    7.9625  -10.7750    0.0000 C   0  0
    6.7000  -10.1792    0.0000 C   0  0
    3.0667   -1.6667    0.0000 C   0  0
    2.2875   -1.8542    0.0000 C   0  0
    9.7250   -3.3042    0.0000 C   0  0
    9.6875   -4.7000    0.0000 C   0  0
   10.1042   -4.0167    0.0000 C   0  0
    4.5649   -6.5210    0.0000 H   0  0
    7.4378   -6.6752    0.0000 H   0  0
  2 13  1  0
  3  7  1  0
  4 14  1  0
  5  3  1  0
  6 16  1  0
  7  1  1  0
  8  4  1  0
  9  2  1  0
 10  1  1  0
 11  6  1  0
 12 25  1  0
 13 21  1  0
 14 11  1  0
 15 17  1  0
 16 10  1  0
 17  5  1  0
 18 15  1  0
 19 20  1  0
 20 12  2  0
 21 22  1  0
 22 24  1  0
 23 29  1  0
 24 28  1  0
 14 25  1  1
 26 12  1  0
 27 26  1  0
  7 28  1  0
 29 18  1  0
 30  3  2  0
 31  9  2  0
 32  8  2  0
 33 11  2  0
 34 10  2  0
 16 35  1  1
 36 15  2  0
 17 37  1  1
 38 22  2  0
 39 35  1  0
 23 40  1  1
 41 26  2  0
 42 37  1  0
 43 27  2  0
 44 39  1  0
 45 39  2  0
 46 42  1  0
 47 42  1  0
 48 41  1  0
 49 48  2  0
 50 45  1  0
 51 44  2  0
 52 50  2  0
 13  8  1  0
 51 52  1  0
 23  9  1  0
 27 19  1  0
 49 43  1  0
 13 53  1  1
  7 54  1  1
M  END