
  SciTegic09261415472D

 13 14  0  0  0  0            999 V2000
   13.2292   -7.3934    0.0000 C   0  0
   13.2067   -8.2192    0.0000 C   0  0
   12.4809   -8.6138    0.0000 C   0  0
   11.7776   -8.1826    0.0000 C   0  0
   11.8002   -7.3567    0.0000 C   0  0
   12.5260   -6.9621    0.0000 O   0  0
   11.0969   -6.9255    0.0000 C   0  0
   10.3711   -7.3201    0.0000 C   0  0
   10.3507   -8.1424    0.0000 C   0  0
   11.0540   -8.5737    0.0000 C   0  0
   13.9099   -8.6504    0.0000 C   0  0
   12.4605   -9.4361    0.0000 O   0  0
   14.6114   -9.0792    0.0000 N   0  0
  1  2  2  0
  2  3  1  0
  3  4  1  0
  4  5  1  0
  5  6  1  0
  1  6  1  0
  7  8  1  0
  8  9  2  0
  9 10  1  0
  4 10  2  0
  5  7  2  0
  2 11  1  0
  3 12  2  0
 11 13  3  0
M  END