
  SciTegic01161211252D

100108  0  0  0  0            999 V2000
   -1.2661  -16.7960    0.0000 C   0  0
   -1.2196  -18.4501    0.0000 O   0  0
    2.5466  -14.6789    0.0000 N   0  0
    1.7236  -14.6919    0.0000 C   0  0
    1.3232  -15.4132    0.0000 N   0  0
    1.2991  -13.9844    0.0000 S   0  0
    0.4983  -15.4271    0.0000 C   0  0
    0.0796  -14.7191    0.0000 C   0  0
   -0.7445  -14.7326    0.0000 C   0  0
    0.1059  -16.1472    0.0000 C   0  0
   -0.7168  -16.1642    0.0000 C   0  0
   -1.1475  -15.4501    0.0000 C   0  0
   -1.9597  -15.6390    0.0000 C   0  0
   -2.0311  -16.4699    0.0000 O   0  0
   -2.5832  -15.0988    0.0000 O   0  0
   -0.5366  -17.1848    0.0000 C   0  0
   -0.5174  -18.0141    0.0000 C   0  0
    0.2093  -18.4103    0.0000 C   0  0
    0.9173  -17.9783    0.0000 C   0  0
    0.8939  -17.1459    0.0000 C   0  0
    0.1667  -16.7534    0.0000 C   0  0
   -1.9475  -18.0550    0.0000 C   0  0
   -1.9688  -17.2329    0.0000 C   0  0
   -2.6903  -16.8421    0.0000 C   0  0
   -3.3910  -17.2723    0.0000 C   0  0
   -3.3655  -18.0975    0.0000 C   0  0
   -2.6436  -18.4845    0.0000 C   0  0
    1.6423  -18.3719    0.0000 O   0  0
   -4.0668  -18.5320    0.0000 O   0  0
   11.8110  -15.8422    0.0000 C   0  0
   12.6358  -15.8253    0.0000 N   0  0
   11.4132  -16.5649    0.0000 O   0  0
   13.0628  -16.5312    0.0000 C   0  0  2  0  0  0
   13.8876  -16.5143    0.0000 C   0  0
   12.6650  -17.2539    0.0000 C   0  0  1  0  0  0
   11.8402  -17.2708    0.0000 C   0  0
   13.0920  -17.9598    0.0000 O   0  0
   14.3147  -17.2202    0.0000 N   0  0
   14.2854  -15.7915    0.0000 O   0  0
   10.5642  -15.1521    0.0000 N   0  0
   11.3844  -15.1365    0.0000 C   0  0  1  0  0  0
   11.6228  -14.3514    0.0000 C   0  0
   10.9497  -13.8820    0.0000 C   0  0
   10.2955  -14.3771    0.0000 C   0  0
   15.1395  -17.2033    0.0000 C   0  0  2  0  0  0
   15.5665  -17.9092    0.0000 C   0  0
   15.5373  -16.4805    0.0000 C   0  0
   15.1687  -18.6319    0.0000 O   0  0
   16.3889  -17.8923    0.0000 N   0  0
   16.4017  -18.7159    0.0000 C   0  0
   17.1889  -18.9630    0.0000 C   0  0
   17.6671  -18.2906    0.0000 C   0  0
   17.1757  -17.6266    0.0000 C   0  0  1  0  0  0
   17.5469  -16.8898    0.0000 C   0  0
   18.3698  -16.8430    0.0000 N   0  0
   17.0945  -16.2000    0.0000 O   0  0
   18.6682  -17.6115    0.0000 C   0  0
   19.4920  -17.5672    0.0000 C   0  0
   19.7046  -16.7700    0.0000 C   0  0
   19.0124  -16.3204    0.0000 C   0  0  1  0  0  0
   18.7034  -15.5555    0.0000 C   0  0
   19.2098  -14.8969    0.0000 N   0  0
   17.8865  -15.4405    0.0000 O   0  0
   13.4557  -15.8010    0.0000 H   0  0
   10.1721  -15.8780    0.0000 C   0  0
    9.3475  -15.9015    0.0000 C   0  0
   10.6048  -16.5805    0.0000 O   0  0
    8.9148  -15.1990    0.0000 N   0  0
   18.7896  -14.1872    0.0000 C   0  0  2  0  0  0
   17.9646  -14.1958    0.0000 C   0  0
   19.1936  -13.4686    0.0000 C   0  0
   20.0179  -13.4343    0.0000 C   0  0
   20.4597  -14.1310    0.0000 C   0  0
   20.0788  -14.8631    0.0000 O   0  0
   21.2856  -14.0978    0.0000 O   0  0
   17.5443  -13.4858    0.0000 N   0  0
   17.5596  -14.9146    0.0000 O   0  0
   17.8454  -12.7167    0.0000 C   0  0
   18.6616  -12.5964    0.0000 C   0  0
   18.9654  -11.8293    0.0000 N   0  0
   19.1739  -13.2430    0.0000 O   0  0
    8.0902  -15.2225    0.0000 C   0  0
    7.6577  -14.5198    0.0000 C   0  0  2  0  0  0
    7.6981  -15.9484    0.0000 O   0  0
   16.7194  -13.5014    0.0000 C   0  0
   16.2935  -12.7948    0.0000 C   0  0
   15.4687  -12.8104    0.0000 C   0  0
    7.9242  -13.7435    0.0000 C   0  0
    7.2660  -13.2460    0.0000 C   0  0
    6.5895  -13.7183    0.0000 C   0  0
    6.8284  -14.5075    0.0000 N   0  0
    6.1307  -14.9476    0.0000 C   0  0
    5.4006  -14.5634    0.0000 C   0  0
    6.1630  -15.7720    0.0000 O   0  0
    4.7028  -15.0036    0.0000 C   0  0
    3.9727  -14.6193    0.0000 C   0  0
    3.2750  -15.0595    0.0000 C   0  0
    8.9083  -14.3708    0.0000 C   0  0
    9.6195  -13.9527    0.0000 C   0  0
    9.6131  -13.1278    0.0000 C   0  0
 46 48  2  0
 11 10  2  0
 46 49  1  0
 49 50  1  0
 22 23  2  0
 10  7  1  0
 23 24  1  0
 11 12  1  0
 50 51  1  0
 51 52  1  0
 52 53  1  0
 53 49  1  0
 24 25  2  0
 53 54  1  6
  1 16  1  0
 54 55  1  0
 25 26  1  0
 54 56  2  0
 55 57  1  0
  4  5  1  0
 26 27  2  0
 27 22  1  0
 22  2  1  0
 57 58  1  0
 58 59  1  0
 59 60  1  0
 60 55  1  0
 19 28  1  0
 60 61  1  6
  4  6  2  0
 61 62  1  0
 26 29  1  0
 61 63  2  0
 12 13  1  0
 33 64  1  1
 41 30  1  1
 40 65  1  0
 13 14  1  0
 65 66  1  0
 30 31  1  0
 65 67  2  0
 14  1  1  0
 66 68  1  0
 30 32  2  0
 62 69  1  0
  1 11  1  0
 69 70  1  0
 31 33  1  0
 69 71  1  6
  2 17  1  0
 71 72  1  0
 33 34  1  0
 72 73  1  0
 13 15  2  0
 33 35  1  0
 73 74  1  0
 73 75  2  0
  5  7  1  0
 70 76  1  0
 35 36  1  0
 70 77  2  0
 76 78  1  0
 35 37  1  6
 78 79  1  0
 16 17  2  0
 79 80  1  0
 34 38  1  0
 79 81  2  0
  7  8  2  0
 68 82  1  0
 34 39  2  0
 83 82  1  1
 40 41  1  0
 82 84  2  0
 17 18  1  0
 76 85  1  0
  1 23  1  0
 85 86  1  0
 18 19  2  0
 86 87  2  0
 83 88  1  0
  8  9  1  0
 19 20  1  0
 41 42  1  0
 42 43  1  0
 88 89  1  0
 89 90  1  0
 90 91  1  0
 91 83  1  0
 43 44  1  0
 91 92  1  0
 44 40  1  0
 92 93  1  0
  9 12  2  0
 92 94  2  0
 38 45  1  0
 93 95  1  0
 20 21  2  0
 95 96  1  0
 45 46  1  0
 96 97  1  0
 97  3  1  0
 21 16  1  0
 68 98  1  0
 45 47  1  1
 98 99  1  0
  3  4  1  0
 99100  2  0
M  END