
          11280714522D 1   1.00000     0.00000     0

 58 63  0     0  0            999 V2000
    3.5542   -0.6792    0.0000 N   0  0  0  0  0  0           0  0  0
    3.4375    0.1458    0.0000 C   0  0  3  0  0  0           0  0  0
    1.9417    0.2708    0.0000 N   0  0  3  0  0  0           0  0  0
    2.9875   -1.2875    0.0000 C   0  0  0  0  0  0           0  0  0
    2.7167    0.5708    0.0000 C   0  0  0  0  0  0           0  0  0
    2.1542   -1.2167    0.0000 C   0  0  0  0  0  0           0  0  0
    4.1250    0.6083    0.0000 N   0  0  0  0  0  0           0  0  0
    1.6917   -0.5292    0.0000 C   0  0  0  0  0  0           0  0  0
    4.8625    0.2458    0.0000 C   0  0  0  0  0  0           0  0  0
    3.2792   -2.0542    0.0000 C   0  0  0  0  0  0           0  0  0
    5.5500    0.7083    0.0000 N   0  0  0  0  0  0           0  0  0
   12.7917  -12.2792    0.0000 N   0  0  3  0  0  0           0  0  0
    6.3167   -3.9667    0.0000 C   0  0  0  0  0  0           0  0  0
    2.7875    1.3958    0.0000 O   0  0  0  0  0  0           0  0  0
    8.8500   -6.5292    0.0000 C   0  0  0  0  0  0           0  0  0
    4.9167   -0.5792    0.0000 O   0  0  0  0  0  0           0  0  0
    4.0917   -2.1792    0.0000 C   0  0  0  0  0  0           0  0  0
    6.2917    0.3458    0.0000 C   0  0  0  0  0  0           0  0  0
    6.8375   -3.3250    0.0000 O   0  0  0  0  0  0           0  0  0
    9.6375   -6.2792    0.0000 O   0  0  0  0  0  0           0  0  0
   12.0417  -11.9417    0.0000 C   0  0  0  0  0  0           0  0  0
   11.9500  -11.1250    0.0000 C   0  0  0  0  0  0           0  0  0
    8.6667   -7.3375    0.0000 N   0  0  0  0  0  0           0  0  0
    6.6167   -4.7375    0.0000 N   0  0  0  0  0  0           0  0  0
    5.2042   -3.0750    0.0000 O   0  0  0  0  0  0           0  0  0
    1.3417    0.8333    0.0000 C   0  0  0  0  0  0           0  0  0
    5.5042   -3.8417    0.0000 C   0  0  0  0  0  0           0  0  0
    4.3917   -2.9500    0.0000 C   0  0  0  0  0  0           0  0  0
    6.3417   -0.4792    0.0000 C   0  0  0  0  0  0           0  0  0
   11.2000  -10.7875    0.0000 C   0  0  0  0  0  0           0  0  0
    1.7917   -1.9542    0.0000 C   0  0  0  0  0  0           0  0  0
   11.1125   -9.9750    0.0000 C   0  0  0  0  0  0           0  0  0
    0.8667   -0.5875    0.0000 C   0  0  0  0  0  0           0  0  0
    7.0792   -0.8417    0.0000 C   0  0  0  0  0  0           0  0  0
    2.7625   -2.6917    0.0000 C   0  0  0  0  0  0           0  0  0
    9.5167   -8.4875    0.0000 C   0  0  0  0  0  0           0  0  0
   10.3625   -9.6417    0.0000 O   0  0  0  0  0  0           0  0  0
   12.8792  -13.1000    0.0000 C   0  0  0  0  0  0           0  0  0
   13.4417  -11.7917    0.0000 C   0  0  0  0  0  0           0  0  0
    3.0542   -3.4667    0.0000 C   0  0  0  0  0  0           0  0  0
   12.5167   -9.8250    0.0000 C   0  0  0  0  0  0           0  0  0
    7.7042    0.4458    0.0000 C   0  0  0  0  0  0           0  0  0
    8.5500   -5.7542    0.0000 C   0  0  0  0  0  0           0  0  0
    9.4167   -7.6667    0.0000 C   0  0  0  0  0  0           0  0  0
    6.9667    0.8000    0.0000 C   0  0  0  0  0  0           0  0  0
   12.6125  -10.6417    0.0000 C   0  0  0  0  0  0           0  0  0
   10.2667   -8.8167    0.0000 C   0  0  0  0  0  0           0  0  0
    3.8667   -3.5917    0.0000 C   0  0  0  0  0  0           0  0  0
    7.4375   -4.8667    0.0000 C   0  0  0  0  0  0           0  0  0
   11.7667   -9.4917    0.0000 C   0  0  0  0  0  0           0  0  0
    7.7667   -0.3792    0.0000 C   0  0  0  0  0  0           0  0  0
    7.1375   -1.6667    0.0000 C   0  0  0  0  0  0           0  0  0
    7.7292   -5.6292    0.0000 C   0  0  0  0  0  0           0  0  0
    0.9667   -2.0125    0.0000 C   0  0  0  0  0  0           0  0  0
    0.5042   -1.3250    0.0000 C   0  0  0  0  0  0           0  0  0
   14.1917  -12.1292    0.0000 C   0  0  0  0  0  0           0  0  0
   13.6292  -13.4292    0.0000 C   0  0  0  0  0  0           0  0  0
   14.2917  -12.9500    0.0000 C   0  0  0  0  0  0           0  0  0
  2  1  1  0     0  0
  3  5  1  0     0  0
  4  1  2  0     0  0
  5  2  1  0     0  0
  6  4  1  0     0  0
  7  2  1  0     0  0
  8  6  1  0     0  0
  9  7  1  0     0  0
 10  4  1  0     0  0
 11  9  1  0     0  0
 12 21  1  0     0  0
 13 27  1  0     0  0
 14  5  2  0     0  0
 15 43  1  0     0  0
 16  9  2  0     0  0
 17 10  1  0     0  0
 18 11  1  0     0  0
 19 13  2  0     0  0
 20 15  2  0     0  0
 21 22  1  0     0  0
 22 30  2  0     0  0
 23 15  1  0     0  0
 24 13  1  0     0  0
 25 28  1  0     0  0
 26  3  1  0     0  0
 27 25  1  0     0  0
 28 17  2  0     0  0
 29 18  2  0     0  0
 30 32  1  0     0  0
 31  6  2  0     0  0
 32 37  1  0     0  0
 33  8  2  0     0  0
 34 29  1  0     0  0
 35 10  2  0     0  0
 36 44  1  0     0  0
 37 47  1  0     0  0
 38 12  1  0     0  0
 39 12  1  0     0  0
 40 35  1  0     0  0
 41 50  1  0     0  0
 42 45  2  0     0  0
 43 53  1  0     0  0
 44 23  1  0     0  0
 45 18  1  0     0  0
 46 41  2  0     0  0
 47 36  1  0     0  0
 48 40  2  0     0  0
 49 24  1  0     0  0
 50 32  2  0     0  0
 51 42  1  0     0  0
 52 34  1  0     0  0
 53 49  1  0     0  0
 54 31  1  0     0  0
 55 54  2  0     0  0
 56 39  1  0     0  0
 57 38  1  0     0  0
 58 56  1  0     0  0
  3  8  1  0     0  0
 48 28  1  0     0  0
 55 33  1  0     0  0
 51 34  2  0     0  0
 22 46  1  0     0  0
 57 58  1  0     0  0
M  END