
  SciTegic03291108512D

 22 24  0  0  0  0            999 V2000
    0.1272   -1.9572    0.0000 O   0  0
    1.2832   -1.1173    0.0000 O   0  0
   -0.4347    4.0335    0.0000 O   0  0
   -0.4347    0.7335    0.0000 N   0  0
    0.2328    0.2486    0.0000 N   0  0
   -1.1021    0.2486    0.0000 C   0  0
   -0.0222   -0.5361    0.0000 C   0  0
   -0.4347    1.5585    0.0000 C   0  0
   -0.8472   -0.5361    0.0000 C   0  0
   -1.8867    0.5035    0.0000 C   0  0
    0.4628   -1.2035    0.0000 C   0  0
   -1.1491    1.9710    0.0000 C   0  0
    0.2798    1.9710    0.0000 C   0  0
   -2.4998   -0.0485    0.0000 C   0  0
   -2.0583    1.3105    0.0000 C   0  0
   -0.4347    3.2085    0.0000 C   0  0
   -1.1491    2.7960    0.0000 C   0  0
    0.2798    2.7960    0.0000 C   0  0
   -3.2844    0.2064    0.0000 C   0  0
   -2.8429    1.5654    0.0000 C   0  0
   -3.4560    1.0134    0.0000 C   0  0
   -1.1491    4.4460    0.0000 C   0  0
  1 11  2  0
  2 11  1  0
  3 16  1  0
  3 22  1  0
  4  5  1  0
  4  6  1  0
  4  8  1  0
  5  7  2  0
  6  9  2  0
  6 10  1  0
  7  9  1  0
  7 11  1  0
  8 12  2  0
  8 13  1  0
 10 14  2  0
 10 15  1  0
 12 17  1  0
 13 18  2  0
 14 19  1  0
 15 20  2  0
 16 17  2  0
 16 18  1  0
 19 21  2  0
 20 21  1  0
M  END