
          11280714502D 1   1.00000     0.00000     0

 38 42  0     0  0            999 V2000
    2.2250   -2.0292    0.0000 C   0  0  0  0  0  0           0  0  0
    0.6292   -2.4667    0.0000 C   0  0  0  0  0  0           0  0  0
    0.8417   -1.6667    0.0000 C   0  0  0  0  0  0           0  0  0
    1.6375   -1.4500    0.0000 O   0  0  0  0  0  0           0  0  0
    1.2167   -3.0500    0.0000 C   0  0  0  0  0  0           0  0  0
    2.0042   -2.8292    0.0000 C   0  0  0  0  0  0           0  0  0
    3.0167   -1.8125    0.0000 C   0  0  0  0  0  0           0  0  0
    8.3792   -1.0875    0.0000 N   0  0  3  0  0  0           0  0  0
    3.2250   -1.0125    0.0000 C   0  0  0  0  0  0           0  0  0
    9.1750   -0.8667    0.0000 C   0  0  0  0  0  0           0  0  0
    6.7875   -1.5167    0.0000 N   0  0  3  0  0  0           0  0  0
    0.2625   -1.0875    0.0000 C   0  0  0  0  0  0           0  0  0
    1.0042   -3.8417    0.0000 O   0  0  0  0  0  0           0  0  0
    8.1667   -1.8875    0.0000 C   0  0  0  0  0  0           0  0  0
    7.7917   -0.5042    0.0000 C   0  0  0  0  0  0           0  0  0
    2.6375   -0.4292    0.0000 O   0  0  0  0  0  0           0  0  0
    9.3792   -0.0792    0.0000 C   0  0  0  0  0  0           0  0  0
    4.0167   -0.7917    0.0000 N   0  0  0  0  0  0           0  0  0
    6.9917   -0.7167    0.0000 C   0  0  0  0  0  0           0  0  0
    7.3750   -2.1000    0.0000 C   0  0  0  0  0  0           0  0  0
   -0.1625   -2.6792    0.0000 C   0  0  0  0  0  0           0  0  0
    3.6042   -2.3917    0.0000 C   0  0  0  0  0  0           0  0  0
    2.5917   -3.4042    0.0000 C   0  0  0  0  0  0           0  0  0
    8.7917    0.5000    0.0000 O   0  0  0  0  0  0           0  0  0
    5.9917   -1.7375    0.0000 C   0  0  0  0  0  0           0  0  0
    5.4042   -1.1542    0.0000 C   0  0  0  0  0  0           0  0  0
    3.3917   -3.1917    0.0000 C   0  0  0  0  0  0           0  0  0
    9.7542   -1.4542    0.0000 C   0  0  0  0  0  0           0  0  0
    4.6042   -1.3750    0.0000 C   0  0  0  0  0  0           0  0  0
   -0.5333   -1.3042    0.0000 C   0  0  0  0  0  0           0  0  0
    0.4667   -0.2917    0.0000 C   0  0  0  0  0  0           0  0  0
   10.1667    0.1458    0.0000 C   0  0  0  0  0  0           0  0  0
    8.9917    1.3000    0.0000 C   0  0  0  0  0  0           0  0  0
   10.5500   -1.2417    0.0000 C   0  0  0  0  0  0           0  0  0
   -1.1125   -0.7292    0.0000 C   0  0  0  0  0  0           0  0  0
   -0.1125    0.2875    0.0000 C   0  0  0  0  0  0           0  0  0
   10.7625   -0.4417    0.0000 C   0  0  0  0  0  0           0  0  0
   -0.9083    0.0708    0.0000 C   0  0  0  0  0  0           0  0  0
  2  5  1  0     0  0
  3  4  1  0     0  0
  4  1  1  0     0  0
  5  6  1  0     0  0
  6  1  2  0     0  0
  7  1  1  0     0  0
  8 14  1  0     0  0
  9  7  1  0     0  0
 10  8  1  0     0  0
 11 25  1  0     0  0
 12  3  1  0     0  0
 13  5  2  0     0  0
 14 20  1  0     0  0
 15 19  1  0     0  0
 16  9  2  0     0  0
 17 10  1  0     0  0
 18  9  1  0     0  0
 19 11  1  0     0  0
 20 11  1  0     0  0
 21  2  1  0     0  0
 22  7  2  0     0  0
 23  6  1  0     0  0
 24 17  1  0     0  0
 25 26  1  0     0  0
 26 29  1  0     0  0
 27 22  1  0     0  0
 28 10  2  0     0  0
 29 18  1  0     0  0
 30 12  2  0     0  0
 31 12  1  0     0  0
 32 17  2  0     0  0
 33 24  1  0     0  0
 34 28  1  0     0  0
 35 30  1  0     0  0
 36 31  2  0     0  0
 37 34  2  0     0  0
 38 36  1  0     0  0
  3  2  2  0     0  0
 23 27  2  0     0  0
 35 38  2  0     0  0
 15  8  1  0     0  0
 32 37  1  0     0  0
M  END