
  SciTegic09081514182D

 28 31  0  0  0  0            999 V2000
    3.1658    1.0705    0.0000 O   0  0
    2.5889    0.0182    0.0000 S   0  0
    3.1810   -1.0255    0.0000 O   0  0
   -1.3024    4.5407    0.0000 C   0  0
   -0.8424    5.9685    0.0000 C   0  0
    0.6240    6.2840    0.0000 C   0  0
    1.6305    5.1718    0.0000 C   0  0
    1.1706    3.7440    0.0000 C   0  0
   -0.2959    3.4285    0.0000 C   0  0
    2.1753    2.6291    0.0000 C   0  0
    1.7138    1.2033    0.0000 N   0  0
    1.7138   -1.2033    0.0000 N   0  0
    0.2917   -0.7475    0.0000 C   0  0
    0.2917    0.7475    0.0000 C   0  0
   -1.0028    1.5132    0.0000 C   0  0
   -2.3155    0.7475    0.0000 C   0  0
   -2.3155   -0.7475    0.0000 C   0  0
   -1.0028   -1.5132    0.0000 C   0  0
    2.1796   -2.6273    0.0000 C   0  0
    1.1782   -3.7452    0.0000 C   0  0
    1.6448   -5.1717    0.0000 C   0  0
    0.6434   -6.2896    0.0000 C   0  0
    1.1099   -7.7161    0.0000 N   0  0
   -0.5309   -6.0427    0.0000 O   0  0
    0.2263   -8.9123    0.0000 C   0  0
    1.1128  -10.1223    0.0000 C   0  0
    2.5375   -9.6531    0.0000 C   0  0
    2.5315   -8.1531    0.0000 C   0  0
  2  1  2  0
  3  2  2  0
  4  5  2  0
  5  6  1  0
  6  7  2  0
  7  8  1  0
  8  9  2  0
  9  4  1  0
  8 10  1  0
 10 11  1  0
 11 14  1  0
 13 12  1  0
 12  2  1  0
  2 11  1  0
 13 14  2  0
 14 15  1  0
 15 16  2  0
 16 17  1  0
 17 18  2  0
 18 13  1  0
 12 19  1  0
 19 20  1  0
 20 21  1  0
 21 22  1  0
 22 23  1  0
 22 24  2  0
 23 25  1  0
 25 26  1  0
 26 27  1  0
 27 28  1  0
 28 23  1  0
M  END