
  CDK    9/16/09,10:8

 29 32  0  0  0  0  0  0  0  0999 V2000
    3.9684   -2.2503    0.0000 C   0  0  0  0  0  0  0  0  0  0  0  0
    4.3415   -2.9859    0.0000 N   0  0  0  0  0  0  0  0  0  0  0  0
    4.4194   -1.5601    0.0000 O   0  0  0  0  0  0  0  0  0  0  0  0
    3.1442   -2.2091    0.0000 O   0  0  0  0  0  0  0  0  0  0  0  0
    5.6867   -2.3882    0.0000 C   0  0  0  0  0  0  0  0  0  0  0  0
    5.1657   -3.0314    0.0000 C   0  0  0  0  0  0  0  0  0  0  0  0
    5.6168   -3.7215    0.0000 C   0  0  0  0  0  0  0  0  0  0  0  0
    6.4120   -3.5087    0.0000 C   0  0  0  0  0  0  0  0  0  0  0  0
    6.4574   -2.6845    0.0000 S   0  0  0  0  0  0  0  0  0  0  0  0
    2.7710   -1.4734    0.0000 C   0  0  0  0  0  0  0  0  0  0  0  0
    1.9460   -1.4734    0.0000 C   0  0  0  0  0  0  0  0  0  0  0  0
    1.5314   -0.7577    0.0000 C   0  0  0  0  0  0  0  0  0  0  0  0
    0.7064   -0.7577    0.0000 C   0  0  0  0  0  0  0  0  0  0  0  0
    0.2959   -1.4734    0.0000 C   0  0  0  0  0  0  0  0  0  0  0  0
    0.7064   -2.1850    0.0000 C   0  0  0  0  0  0  0  0  0  0  0  0
    1.5314   -2.1850    0.0000 C   0  0  0  0  0  0  0  0  0  0  0  0
   -3.2330   -1.8839    0.0000 C   0  0  0  0  0  0  0  0  0  0  0  0
   -2.5173   -2.2985    0.0000 N   0  0  0  0  0  0  0  0  0  0  0  0
   -1.8015   -1.8839    0.0000 C   0  0  0  0  0  0  0  0  0  0  0  0
   -1.8015   -1.0588    0.0000 C   0  0  0  0  0  0  0  0  0  0  0  0
   -2.5173   -0.6484    0.0000 C   0  0  0  0  0  0  0  0  0  0  0  0
   -3.2330   -1.0588    0.0000 N   0  0  0  0  0  0  0  0  0  0  0  0
   -1.0156   -0.8060    0.0000 N   0  0  0  0  0  0  0  0  0  0  0  0
   -1.0156   -2.1407    0.0000 C   0  0  0  0  0  0  0  0  0  0  0  0
   -0.5333   -1.4734    0.0000 C   0  0  0  0  0  0  0  0  0  0  0  0
   -2.5173    0.1766    0.0000 O   0  0  0  0  0  0  0  0  0  0  0  0
   -3.9446   -2.2985    0.0000 O   0  0  0  0  0  0  0  0  0  0  0  0
   -3.9446   -0.6484    0.0000 C   0  0  0  0  0  0  0  0  0  0  0  0
   -2.5173   -3.1235    0.0000 C   0  0  0  0  0  0  0  0  0  0  0  0
  1  2  1  0  0  0  0 
  1  3  2  0  0  0  0 
  1  4  1  0  0  0  0 
  5  6  2  0  0  0  0 
  6  7  1  0  0  0  0 
  7  8  2  0  0  0  0 
  8  9  1  0  0  0  0 
  5  9  1  0  0  0  0 
  2  6  1  0  0  0  0 
 11 12  1  0  0  0  0 
 12 13  2  0  0  0  0 
 13 14  1  0  0  0  0 
 14 15  2  0  0  0  0 
 15 16  1  0  0  0  0 
 11 16  2  0  0  0  0 
 17 18  1  0  0  0  0 
 18 19  1  0  0  0  0 
 19 20  2  0  0  0  0 
 20 21  1  0  0  0  0 
 21 22  1  0  0  0  0 
 17 22  1  0  0  0  0 
 24 25  2  0  0  0  0 
 23 25  1  0  0  0  0 
 19 24  1  0  0  0  0 
 20 23  1  0  0  0  0 
 21 26  2  0  0  0  0 
 17 27  2  0  0  0  0 
 22 28  1  0  0  0  0 
 18 29  1  0  0  0  0 
 14 25  1  0  0  0  0 
 10 11  1  0  0  0  0 
  4 10  1  0  0  0  0 
M  END