
  SciTegic01161211252D

 28 30  0  0  0  0            999 V2000
   16.1792  -22.3209    0.0000 C   0  0
   12.6088  -22.7417    0.0000 C   0  0
   12.6076  -23.5689    0.0000 C   0  0
   13.3223  -23.9816    0.0000 C   0  0
   14.0387  -23.5684    0.0000 C   0  0
   14.0358  -22.7381    0.0000 C   0  0
   13.3205  -22.3289    0.0000 C   0  0
   11.8929  -23.9807    0.0000 N   0  0
   11.1790  -23.5677    0.0000 C   0  0
   10.4643  -23.9796    0.0000 N   0  0
   11.1796  -22.7429    0.0000 O   0  0
    9.7502  -23.5661    0.0000 C   0  0
    9.4765  -22.7870    0.0000 C   0  0
    8.6508  -22.8027    0.0000 C   0  0
    8.4120  -23.5933    0.0000 O   0  0
    9.0907  -24.0636    0.0000 N   0  0
    8.1526  -22.1451    0.0000 C   0  0
    8.5281  -21.4106    0.0000 C   0  0
    7.3289  -22.1871    0.0000 C   0  0
    7.6267  -21.4997    0.0000 C   0  0
   16.8932  -22.7360    0.0000 C   0  0
   17.6075  -22.3249    0.0000 C   0  0
   16.1786  -21.4997    0.0000 C   0  0
   16.8898  -21.0863    0.0000 C   0  0
   17.6071  -21.5006    0.0000 N   0  0
   14.7485  -22.3229    0.0000 C   0  0
   15.4644  -22.7327    0.0000 N   0  0
   14.7454  -21.4979    0.0000 O   0  0
  3  8  1  0
 12 13  1  0
 14 15  1  0
 15 16  1  0
 16 12  2  0
  4  5  2  0
 14 17  1  0
  8  9  1  0
 17 18  1  0
 17 19  1  0
  9 10  1  0
 17 20  1  0
  5  6  1  0
  6 26  1  0
  9 11  2  0
 26 27  1  0
  3  4  1  0
 27  1  1  0
 10 12  1  0
  1 21  2  0
 13 14  2  0
 21 22  1  0
 22 25  2  0
  6  7  2  0
 24 23  2  0
 23  1  1  0
  7  2  1  0
  2  3  2  0
 24 25  1  0
 26 28  2  0
M  END