
  CDK    9/16/09,9:48

 41 44  0  0  0  0  0  0  0  0999 V2000
   12.7811   -1.9757    0.0000 C   0  0  0  0  0  0  0  0  0  0  0  0
   12.7702   -0.3344    0.0000 C   0  0  0  0  0  0  0  0  0  0  0  0
   12.0600   -0.7546    0.0000 C   0  0  0  0  0  0  0  0  0  0  0  0
   12.0693   -1.5734    0.0000 C   0  0  0  0  0  0  0  0  0  0  0  0
   13.4848   -0.7403    0.0000 C   0  0  0  0  0  0  0  0  0  0  0  0
   13.4940   -1.5630    0.0000 C   0  0  0  0  0  0  0  0  0  0  0  0
   14.2071   -1.9640    0.0000 C   0  0  0  0  0  0  0  0  0  0  0  0
   14.9155   -1.5470    0.0000 C   0  0  0  0  0  0  0  0  0  0  0  0
   14.9062   -0.7244    0.0000 C   0  0  0  0  0  0  0  0  0  0  0  0
   14.1886   -0.3188    0.0000 N   0  0  0  0  0  0  0  0  0  0  0  0
   14.1782    0.5061    0.0000 C   0  0  0  0  0  0  0  0  0  0  0  0
   14.8875    0.9277    0.0000 O   0  0  0  0  0  0  0  0  0  0  0  0
   13.4586    0.9096    0.0000 C   0  0  0  0  0  0  0  0  0  0  0  0
   15.6166   -0.3046    0.0000 C   0  0  0  0  0  0  0  0  0  0  0  0
   16.3352   -0.7099    0.0000 C   0  0  0  0  0  0  0  0  0  0  0  0
   15.6339   -1.9525    0.0000 O   0  0  0  0  0  0  0  0  0  0  0  0
   16.3436   -1.5349    0.0000 O   0  0  0  0  0  0  0  0  0  0  0  0
   17.0455   -0.2901    0.0000 O   0  0  0  0  0  0  0  0  0  0  0  0
   14.2151   -2.7891    0.0000 N   0  0  0  0  0  0  0  0  0  0  0  0
   13.5047   -3.2085    0.0000 C   0  0  0  0  0  0  0  0  0  0  0  0
   12.7861   -2.8030    0.0000 O   0  0  0  0  0  0  0  0  0  0  0  0
   13.5128   -4.0336    0.0000 O   0  0  0  0  0  0  0  0  0  0  0  0
   11.3591   -1.9932    0.0000 O   0  0  0  0  0  0  0  0  0  0  0  0
   10.6404   -1.5880    0.0000 C   0  0  0  0  0  0  0  0  0  0  0  0
    9.9302   -2.0079    0.0000 O   0  0  0  0  0  0  0  0  0  0  0  0
    9.2115   -1.6027    0.0000 C   0  0  0  0  0  0  0  0  0  0  0  0
    8.5012   -2.0226    0.0000 C   0  0  0  0  0  0  0  0  0  0  0  0
    7.7825   -1.6174    0.0000 O   0  0  0  0  0  0  0  0  0  0  0  0
    7.0723   -2.0372    0.0000 C   0  0  0  0  0  0  0  0  0  0  0  0
   13.4522    1.7336    0.0000 C   0  0  0  0  0  0  0  0  0  0  0  0
   12.0362    0.8862    0.0000 C   0  0  0  0  0  0  0  0  0  0  0  0
   12.7555    0.4866    0.0000 C   0  0  0  0  0  0  0  0  0  0  0  0
   12.8023   -4.4530    0.0000 C   0  0  0  0  0  0  0  0  0  0  0  0
   12.8104   -5.2780    0.0000 C   0  0  0  0  0  0  0  0  0  0  0  0
   12.1000   -5.6975    0.0000 C   0  0  0  0  0  0  0  0  0  0  0  0
   12.0232    1.7154    0.0000 C   0  0  0  0  0  0  0  0  0  0  0  0
   12.7377    2.1362    0.0000 C   0  0  0  0  0  0  0  0  0  0  0  0
   12.7297    2.9634    0.0000 C   0  0  0  0  0  0  0  0  0  0  0  0
   12.0078    3.3710    0.0000 C   0  0  0  0  0  0  0  0  0  0  0  0
   11.2926    2.9453    0.0000 C   0  0  0  0  0  0  0  0  0  0  0  0
   11.3041    2.1194    0.0000 C   0  0  0  0  0  0  0  0  0  0  0  0
 19 20  1  0  0  0  0 
  8  9  1  0  0  0  0 
 20 21  2  0  0  0  0 
  9 10  1  0  0  0  0 
 20 22  1  0  0  0  0 
  5  6  1  0  0  0  0 
  4 23  1  0  0  0  0 
 10 11  1  0  0  0  0 
 23 24  1  0  0  0  0 
  5  2  2  0  0  0  0 
 24 25  1  0  0  0  0 
 11 12  2  0  0  0  0 
 25 26  1  0  0  0  0 
  1  6  2  0  0  0  0 
 26 27  1  0  0  0  0 
 11 13  1  0  0  0  0 
 27 28  1  0  0  0  0 
  2  3  1  0  0  0  0 
 28 29  1  0  0  0  0 
  9 14  1  1  0  0  0 
 13 30  2  0  0  0  0 
 30 37  1  0  0  0  0 
 36 31  1  0  0  0  0 
 14 15  1  0  0  0  0 
 31 32  2  0  0  0  0 
 32 13  1  0  0  0  0 
  3  4  2  0  0  0  0 
 22 33  1  0  0  0  0 
  8 16  1  6  0  0  0 
 33 34  1  0  0  0  0 
  4  1  1  0  0  0  0 
 34 35  2  0  0  0  0 
 15 17  2  0  0  0  0 
  5 10  1  0  0  0  0 
 36 37  1  0  0  0  0 
 15 18  1  0  0  0  0 
 37 38  2  0  0  0  0 
  6  7  1  0  0  0  0 
 38 39  1  0  0  0  0 
  7 19  1  1  0  0  0 
 39 40  2  0  0  0  0 
  7  8  1  0  0  0  0 
 40 41  1  0  0  0  0 
 41 36  2  0  0  0  0 
M  END