
          11280715102D 1   1.00000     0.00000     0

 38 41  0     1  0            999 V2000
   12.5042   -5.8000    0.0000 S   0  0  3  0  0  0           0  0  0
    7.4375   -4.1417    0.0000 C   0  0  0  0  0  0           0  0  0
    6.9542   -4.8042    0.0000 N   0  0  3  0  0  0           0  0  0
    8.2167   -4.3917    0.0000 C   0  0  0  0  0  0           0  0  0
   12.9167   -5.0875    0.0000 N   0  0  0  0  0  0           0  0  0
   12.5125   -4.3750    0.0000 C   0  0  2  0  0  0           0  0  0
    8.2250   -5.2167    0.0000 C   0  0  0  0  0  0           0  0  0
    8.9375   -3.9750    0.0000 C   0  0  0  0  0  0           0  0  0
   10.3667   -3.9667    0.0000 C   0  0  0  0  0  0           0  0  0
    7.4417   -5.4750    0.0000 C   0  0  0  0  0  0           0  0  0
   13.2250   -3.9542    0.0000 C   0  0  0  0  0  0           0  0  0
    9.6542   -4.3792    0.0000 C   0  0  0  0  0  0           0  0  0
   11.0792   -4.3792    0.0000 N   0  0  0  0  0  0           0  0  0
   11.7042   -5.5792    0.0000 O   0  0  0  0  0  0           0  0  0
   13.3000   -6.0125    0.0000 O   0  0  0  0  0  0           0  0  0
    7.1792   -3.3542    0.0000 O   0  0  0  0  0  0           0  0  0
    6.2417   -4.3917    0.0000 C   0  0  0  0  0  0           0  0  0
   11.7917   -3.9667    0.0000 C   0  0  0  0  0  0           0  0  0
   12.1000   -6.5167    0.0000 C   0  0  0  0  0  0           0  0  0
    3.3875   -3.5667    0.0000 N   0  0  0  0  0  0           0  0  0
    8.9375   -5.6292    0.0000 C   0  0  0  0  0  0           0  0  0
   10.3625   -3.1417    0.0000 O   0  0  0  0  0  0           0  0  0
   13.2167   -3.1292    0.0000 O   0  0  0  0  0  0           0  0  0
    9.6542   -5.2167    0.0000 C   0  0  0  0  0  0           0  0  0
   13.9417   -4.3667    0.0000 O   0  0  0  0  0  0           0  0  0
    5.5250   -4.8042    0.0000 C   0  0  0  0  0  0           0  0  0
   12.5167   -7.2292    0.0000 C   0  0  0  0  0  0           0  0  0
    4.8125   -4.3917    0.0000 C   0  0  3  0  0  0           0  0  0
    3.3875   -4.3917    0.0000 C   0  0  0  0  0  0           0  0  0
    4.1042   -3.1542    0.0000 C   0  0  0  0  0  0           0  0  0
   12.1125   -7.9417    0.0000 C   0  0  0  0  0  0           0  0  0
   13.3417   -7.2167    0.0000 C   0  0  0  0  0  0           0  0  0
    4.1000   -4.8125    0.0000 C   0  0  0  0  0  0           0  0  0
    4.8167   -3.5750    0.0000 C   0  0  0  0  0  0           0  0  0
   13.7625   -7.9167    0.0000 C   0  0  0  0  0  0           0  0  0
   12.5292   -8.6542    0.0000 C   0  0  0  0  0  0           0  0  0
   13.3542   -8.6417    0.0000 C   0  0  0  0  0  0           0  0  0
   12.0917   -5.0875    0.0000 H   0  0  0  0  0  0           0  0  0
  2  4  1  0     0  0
  3  2  1  0     0  0
  4  8  1  0     0  0
  5  1  1  0     0  0
  6  5  1  1     0  0
  7 21  1  0     0  0
  8 12  2  0     0  0
  9 13  1  0     0  0
 10  7  1  0     0  0
 11  6  1  0     0  0
 12  9  1  0     0  0
 13 18  1  0     0  0
 14  1  2  0     0  0
 15  1  2  0     0  0
 16  2  2  0     0  0
 17  3  1  0     0  0
 18  6  1  0     0  0
 19  1  1  0     0  0
 20 30  1  0     0  0
 21 24  2  0     0  0
 22  9  2  0     0  0
 23 11  2  0     0  0
 24 12  1  0     0  0
 25 11  1  0     0  0
 26 17  1  0     0  0
 27 19  1  0     0  0
 28 26  1  0     0  0
 29 33  1  0     0  0
 30 34  1  0     0  0
 31 27  2  0     0  0
 32 27  1  0     0  0
 33 28  1  0     0  0
 34 28  1  0     0  0
 35 32  2  0     0  0
 36 31  1  0     0  0
 37 35  1  0     0  0
  6 38  1  6     0  0
 36 37  2  0     0  0
  4  7  2  0     0  0
  3 10  1  0     0  0
 29 20  1  0     0  0
M  END