
  SciTegic04021211102D

 18 20  0  0  0  0            999 V2000
   15.7736   -6.7750    0.0000 N   0  0
   15.7724   -7.6023    0.0000 C   0  0
   16.4872   -8.0152    0.0000 N   0  0
   16.4854   -6.3622    0.0000 C   0  0
   17.2008   -6.7713    0.0000 C   0  0
   17.2011   -7.5978    0.0000 C   0  0
   17.9872   -7.8529    0.0000 N   0  0
   18.4728   -7.1841    0.0000 C   0  0
   17.9867   -6.5158    0.0000 N   0  0
   16.4830   -5.5372    0.0000 N   0  0
   17.1962   -5.1226    0.0000 C   0  0
   17.9098   -5.5353    0.0000 C   0  0
   18.6225   -5.1214    0.0000 C   0  0
   18.6205   -4.2955    0.0000 C   0  0
   17.8998   -3.8853    0.0000 C   0  0
   17.1900   -4.3016    0.0000 C   0  0
   15.0576   -8.0143    0.0000 N   0  0
   17.8944   -3.0603    0.0000 Cl  0  0
  8  9  2  0
  9  5  1  0
  4  1  1  0
  4 10  1  0
  5  6  1  0
 10 11  1  0
 11 12  2  0
  2  3  1  0
 12 13  1  0
  3  6  2  0
 13 14  2  0
  1  2  2  0
 14 15  1  0
  5  4  2  0
 15 16  2  0
 16 11  1  0
  6  7  1  0
  2 17  1  0
  7  8  1  0
 15 18  1  0
M  END