
  CDK    9/16/09,9:46

 21 23  0  0  0  0  0  0  0  0999 V2000
    4.4488  -17.6273    0.0000 C   0  0  0  0  0  0  0  0  0  0  0  0
    4.4475  -18.4541    0.0000 C   0  0  0  0  0  0  0  0  0  0  0  0
    5.8751  -17.6233    0.0000 C   0  0  0  0  0  0  0  0  0  0  0  0
    5.1578  -17.2150    0.0000 C   0  0  0  0  0  0  0  0  0  0  0  0
    5.0379  -19.6982    0.0000 N   0  0  0  0  0  0  0  0  0  0  0  0
    5.6412  -20.3125    0.0000 C   0  0  0  0  0  0  0  0  0  0  0  0
    6.4509  -20.2175    0.0000 C   0  0  0  0  0  0  0  0  0  0  0  0
    5.1557  -18.8659    0.0000 C   0  0  0  0  0  0  0  0  0  0  0  0
    5.8783  -18.4535    0.0000 C   0  0  0  0  0  0  0  0  0  0  0  0
    6.6847  -18.7749    0.0000 C   0  0  0  0  0  0  0  0  0  0  0  0
    6.9144  -19.5405    0.0000 N   0  0  0  0  0  0  0  0  0  0  0  0
    5.3672  -21.0899    0.0000 O   0  0  0  0  0  0  0  0  0  0  0  0
    4.2551  -19.9557    0.0000 C   0  0  0  0  0  0  0  0  0  0  0  0
    7.2925  -18.2182    0.0000 C   0  0  0  0  0  0  0  0  0  0  0  0
    8.0787  -18.4682    0.0000 C   0  0  0  0  0  0  0  0  0  0  0  0
    8.6862  -17.9124    0.0000 C   0  0  0  0  0  0  0  0  0  0  0  0
    8.5082  -17.1069    0.0000 C   0  0  0  0  0  0  0  0  0  0  0  0
    7.7174  -16.8601    0.0000 C   0  0  0  0  0  0  0  0  0  0  0  0
    7.1134  -17.4175    0.0000 C   0  0  0  0  0  0  0  0  0  0  0  0
    5.1538  -16.3909    0.0000 C   0  0  0  0  0  0  0  0  0  0  0  0
    5.1462  -15.5624    0.0000 C   0  0  0  0  0  0  0  0  0  0  0  0
 10 11  2  0  0  0  0 
 11  7  1  0  0  0  0 
  8  9  2  0  0  0  0 
  6 12  2  0  0  0  0 
  9  3  1  0  0  0  0 
  5 13  1  0  0  0  0 
  1  2  2  0  0  0  0 
 10 14  1  0  0  0  0 
  3  4  2  0  0  0  0 
 14 15  2  0  0  0  0 
  4  1  1  0  0  0  0 
 15 16  1  0  0  0  0 
  2  8  1  0  0  0  0 
 16 17  2  0  0  0  0 
  5  6  1  0  0  0  0 
 17 18  1  0  0  0  0 
  6  7  1  0  0  0  0 
 18 19  2  0  0  0  0 
 19 14  1  0  0  0  0 
  5  8  1  0  0  0  0 
  4 20  1  0  0  0  0 
  9 10  1  0  0  0  0 
 20 21  3  0  0  0  0 
M  END