
  SciTegic01061111512D

 52 57  0  0  0  0            999 V2000
   15.0472   -6.6923    0.0000 S   0  0
   14.3289   -7.9310    0.0000 C   0  0  2  0  0  0
   15.0472   -8.3426    0.0000 O   0  0
   13.6146   -8.3426    0.0000 C   0  0  2  0  0  0
   12.9005   -7.9310    0.0000 C   0  0  1  0  0  0
   12.1862   -8.3426    0.0000 O   0  0
   12.9005   -7.1038    0.0000 C   0  0  2  0  0  0
   13.6146   -6.6923    0.0000 O   0  0
   12.1862   -6.6923    0.0000 C   0  0
   12.1862   -5.8650    0.0000 O   0  0
   13.6146   -9.1699    0.0000 N   0  0
   14.2828   -9.6535    0.0000 N   0  0
   14.0262  -10.4405    0.0000 N   0  0
   13.2031  -10.4405    0.0000 C   0  0
   12.9466   -9.6535    0.0000 C   0  0
   12.7153  -11.1086    0.0000 C   0  0
   11.8949  -11.0198    0.0000 O   0  0
   13.0521  -11.8613    0.0000 N   0  0
   12.5685  -12.5293    0.0000 C   0  0
   12.9012  -13.2820    0.0000 C   0  0
   13.7258  -13.3708    0.0000 C   0  0
   14.0584  -14.1235    0.0000 C   0  0
   13.5748  -14.7916    0.0000 C   0  0
   12.7544  -14.7069    0.0000 C   0  0
   12.4176  -13.9542    0.0000 C   0  0
   15.0472   -5.8650    0.0000 C   0  0  1  0  0  0
   14.3289   -5.4534    0.0000 C   0  0  2  0  0  0
   13.6146   -5.8650    0.0000 O   0  0
   14.3289   -4.6261    0.0000 C   0  0  2  0  0  0
   15.0472   -4.2146    0.0000 C   0  0  1  0  0  0
   15.0472   -3.3874    0.0000 O   0  0
   15.7615   -4.6261    0.0000 C   0  0  2  0  0  0
   15.7615   -5.4534    0.0000 O   0  0
   16.4757   -4.2146    0.0000 C   0  0
   16.4757   -3.3874    0.0000 O   0  0
   13.6146   -4.2146    0.0000 N   0  0
   12.8620   -4.5514    0.0000 N   0  0
   12.3060   -3.9364    0.0000 N   0  0
   12.7217   -3.2181    0.0000 C   0  0
   13.5300   -3.3900    0.0000 C   0  0
   12.3849   -2.4653    0.0000 C   0  0
   12.8685   -1.7973    0.0000 O   0  0
   11.5645   -2.3807    0.0000 N   0  0
   11.2276   -1.6239    0.0000 C   0  0
   10.4072   -1.5411    0.0000 C   0  0
    9.9194   -2.2073    0.0000 C   0  0
    9.0990   -2.1185    0.0000 C   0  0
    8.7622   -1.3695    0.0000 C   0  0
    9.2500   -0.6991    0.0000 C   0  0
   10.0704   -0.7890    0.0000 C   0  0
   14.3289   -7.1038    0.0000 C   0  0  1  0  0  0
   15.0434   -7.5163    0.0000 H   0  0
 51  2  1  0
  2  3  1  6
  2  4  1  0
  4  5  1  0
  5  6  1  1
  5  7  1  0
  7  8  1  0
  7  9  1  1
  9 10  1  0
 51  8  1  0
 11 12  1  0
 12 13  2  0
 13 14  1  0
 14 15  2  0
 11 15  1  0
 16 17  2  0
 19 20  1  0
 20 21  1  0
 21 22  2  0
 22 23  1  0
 23 24  2  0
 24 25  1  0
 20 25  2  0
 18 19  1  0
 16 18  1  0
 14 16  1  0
  4 11  1  1
 51  1  1  0
 26 27  1  0
 27 28  1  6
 27 29  1  0
 29 30  1  0
 30 31  1  1
 30 32  1  0
 32 33  1  0
 32 34  1  1
 34 35  1  0
 26 33  1  0
 36 37  1  0
 37 38  2  0
 38 39  1  0
 39 40  2  0
 36 40  1  0
 41 42  2  0
 44 45  1  0
 45 46  1  0
 46 47  2  0
 47 48  1  0
 48 49  2  0
 49 50  1  0
 45 50  2  0
 43 44  1  0
 41 43  1  0
 39 41  1  0
 29 36  1  1
 26  1  1  1
 51 52  1  6
M  END