
  SciTegic01161211212D

 18 19  0  0  0  0            999 V2000
    3.9402   -9.1791    0.0000 C   0  0
    3.9391  -10.0065    0.0000 C   0  0
    4.6539  -10.4194    0.0000 C   0  0
    5.3703  -10.0060    0.0000 C   0  0
    5.3675   -9.1755    0.0000 C   0  0
    4.6521   -8.7664    0.0000 C   0  0
    3.2243  -10.4184    0.0000 Cl  0  0
    6.0804   -8.7603    0.0000 C   0  0
    6.7964   -9.1701    0.0000 N   0  0
    6.0773   -7.9353    0.0000 O   0  0
    7.5093   -8.7549    0.0000 C   0  0
    8.2253   -9.1647    0.0000 C   0  0
    8.9383   -8.7495    0.0000 N   0  0
    9.6502   -9.1602    0.0000 C   0  0
   10.3610   -8.7486    0.0000 C   0  0
   10.3621   -7.9232    0.0000 O   0  0
    9.6463   -7.5112    0.0000 C   0  0
    8.9292   -7.9246    0.0000 C   0  0
  8  9  1  0
  4  5  1  0
  8 10  2  0
  2  3  1  0
  9 11  1  0
  5  6  2  0
 11 12  1  0
  6  1  1  0
 12 13  1  0
 13 14  1  0
  1  2  2  0
  2  7  1  0
  3  4  2  0
  5  8  1  0
 13 18  1  0
 14 15  1  0
 15 16  1  0
 16 17  1  0
 17 18  1  0
M  END