
          11280715122D 1   1.00000     0.00000     0

 30 32  0     0  0            999 V2000
    8.7292   -6.2042    0.0000 C   0  0  0  0  0  0           0  0  0
    8.0167   -5.7917    0.0000 C   0  0  0  0  0  0           0  0  0
    3.6292   -6.2167    0.0000 N   0  0  3  0  0  0           0  0  0
    8.7292   -7.0375    0.0000 C   0  0  0  0  0  0           0  0  0
    7.9042   -7.0375    0.0000 N   0  0  0  0  0  0           0  0  0
    7.1917   -7.4500    0.0000 C   0  0  0  0  0  0           0  0  0
    2.9167   -5.8042    0.0000 C   0  0  0  0  0  0           0  0  0
    5.0542   -7.0417    0.0000 N   0  0  3  0  0  0           0  0  0
    8.0167   -4.9667    0.0000 N   0  0  3  0  0  0           0  0  0
    6.4792   -7.0375    0.0000 C   0  0  0  0  0  0           0  0  0
    7.3042   -6.2042    0.0000 O   0  0  0  0  0  0           0  0  0
    4.3417   -5.8000    0.0000 C   0  0  0  0  0  0           0  0  0
    3.6292   -7.0417    0.0000 C   0  0  0  0  0  0           0  0  0
    2.9167   -4.9750    0.0000 C   0  0  0  0  0  0           0  0  0
    7.1917   -8.2750    0.0000 O   0  0  0  0  0  0           0  0  0
    5.7667   -7.4500    0.0000 C   0  0  0  0  0  0           0  0  0
    5.0542   -6.2167    0.0000 C   0  0  0  0  0  0           0  0  0
    4.3417   -7.4500    0.0000 C   0  0  0  0  0  0           0  0  0
    9.4417   -5.7917    0.0000 C   0  0  0  0  0  0           0  0  0
    3.6292   -4.5542    0.0000 O   0  0  0  0  0  0           0  0  0
    9.4417   -7.4500    0.0000 C   0  0  0  0  0  0           0  0  0
    2.1917   -6.2167    0.0000 C   0  0  0  0  0  0           0  0  0
    8.7292   -4.5542    0.0000 C   0  0  0  0  0  0           0  0  0
    7.3042   -4.5542    0.0000 C   0  0  0  0  0  0           0  0  0
    2.1917   -4.5625    0.0000 C   0  0  0  0  0  0           0  0  0
    4.3417   -4.9667    0.0000 C   0  0  0  0  0  0           0  0  0
   10.1542   -6.2042    0.0000 C   0  0  0  0  0  0           0  0  0
   10.1625   -7.0292    0.0000 C   0  0  0  0  0  0           0  0  0
    1.4875   -5.8042    0.0000 C   0  0  0  0  0  0           0  0  0
    1.4875   -4.9750    0.0000 C   0  0  0  0  0  0           0  0  0
  2  1  1  0     0  0
  3 13  1  0     0  0
  4  1  2  0     0  0
  5  4  1  0     0  0
  6  5  1  0     0  0
  7  3  1  0     0  0
  8 16  1  0     0  0
  9  2  1  0     0  0
 10  6  1  0     0  0
 11  2  2  0     0  0
 12 17  1  0     0  0
 13 18  1  0     0  0
 14  7  1  0     0  0
 15  6  2  0     0  0
 16 10  1  0     0  0
 17  8  1  0     0  0
 18  8  1  0     0  0
 19  1  1  0     0  0
 20 14  1  0     0  0
 21  4  1  0     0  0
 22  7  2  0     0  0
 23  9  1  0     0  0
 24  9  1  0     0  0
 25 14  2  0     0  0
 26 20  1  0     0  0
 27 19  2  0     0  0
 28 27  1  0     0  0
 29 22  1  0     0  0
 30 29  2  0     0  0
 28 21  2  0     0  0
  3 12  1  0     0  0
 30 25  1  0     0  0
M  END