
  Mrv0541 04051115152D          

  9 10  0  0  0  0            999 V2000
   -0.9511   -0.6674    0.0000 C   0  0  0  0  0  0  0  0  0  0  0  0
   -1.4360   -0.0000    0.0000 C   0  0  0  0  0  0  0  0  0  0  0  0
   -0.9511    0.6674    0.0000 C   0  0  0  0  0  0  0  0  0  0  0  0
    0.5480    0.8250    0.0000 C   0  0  0  0  0  0  0  0  0  0  0  0
    1.2625    0.4125    0.0000 C   0  0  0  0  0  0  0  0  0  0  0  0
    1.2625   -0.4125    0.0000 C   0  0  0  0  0  0  0  0  0  0  0  0
    0.5480   -0.8250    0.0000 C   0  0  0  0  0  0  0  0  0  0  0  0
   -0.1664   -0.4125    0.0000 C   0  0  0  0  0  0  0  0  0  0  0  0
   -0.1664    0.4125    0.0000 C   0  0  0  0  0  0  0  0  0  0  0  0
  1  2  1  0  0  0  0
  1  8  1  0  0  0  0
  2  3  2  0  0  0  0
  3  9  1  0  0  0  0
  4  5  2  0  0  0  0
  4  9  1  0  0  0  0
  5  6  1  0  0  0  0
  6  7  2  0  0  0  0
  7  8  1  0  0  0  0
  8  9  2  0  0  0  0
M  END