
  Mrv0541 04051115152D          

 50 52  0  0  0  0            999 V2000
   -7.7211    0.0586    0.0000 C   0  0  0  0  0  0  0  0  0  0  0  0
    5.7134   -2.0603    0.0000 O   0  0  0  0  0  0  0  0  0  0  0  0
    4.9989   -1.6478    0.0000 C   0  0  0  0  0  0  0  0  0  0  0  0
    4.2844   -2.0603    0.0000 N   0  0  0  0  0  0  0  0  0  0  0  0
    4.9989   -0.8228    0.0000 C   0  0  1  0  0  0  0  0  0  0  0  0
    5.7134   -0.4103    0.0000 C   0  0  0  0  0  0  0  0  0  0  0  0
    6.4279   -0.8228    0.0000 C   0  0  0  0  0  0  0  0  0  0  0  0
    7.1423   -0.4103    0.0000 C   0  0  0  0  0  0  0  0  0  0  0  0
    7.8568   -0.8228    0.0000 N   0  0  0  0  0  0  0  0  0  0  0  0
    8.5713   -0.4103    0.0000 C   0  0  0  0  0  0  0  0  0  0  0  0
    9.2857   -0.8228    0.0000 N   0  0  0  0  0  0  0  0  0  0  0  0
    8.5713    0.4147    0.0000 N   0  0  0  0  0  0  0  0  0  0  0  0
    4.2844   -0.4103    0.0000 N   0  0  0  0  0  0  0  0  0  0  0  0
    3.5700   -0.8228    0.0000 C   0  0  0  0  0  0  0  0  0  0  0  0
    3.5700   -1.6478    0.0000 O   0  0  0  0  0  0  0  0  0  0  0  0
    2.8555   -0.4103    0.0000 C   0  0  1  0  0  0  0  0  0  0  0  0
    2.8555    0.4147    0.0000 C   0  0  0  0  0  0  0  0  0  0  0  0
    3.5700    0.8272    0.0000 C   0  0  0  0  0  0  0  0  0  0  0  0
    3.5700    1.6522    0.0000 C   0  0  0  0  0  0  0  0  0  0  0  0
    4.2844    2.0647    0.0000 N   0  0  0  0  0  0  0  0  0  0  0  0
    4.2844    2.8897    0.0000 C   0  0  0  0  0  0  0  0  0  0  0  0
    3.5700    3.3022    0.0000 N   0  0  0  0  0  0  0  0  0  0  0  0
    4.9989    3.3022    0.0000 N   0  0  0  0  0  0  0  0  0  0  0  0
    2.1410   -0.8228    0.0000 N   0  0  0  0  0  0  0  0  0  0  0  0
    1.4266   -0.4103    0.0000 C   0  0  0  0  0  0  0  0  0  0  0  0
    1.4266    0.4147    0.0000 O   0  0  0  0  0  0  0  0  0  0  0  0
    0.7121   -0.8228    0.0000 C   0  0  0  0  0  0  0  0  0  0  0  0
   -0.0024   -0.4103    0.0000 C   0  0  0  0  0  0  0  0  0  0  0  0
   -0.7169   -0.8228    0.0000 C   0  0  0  0  0  0  0  0  0  0  0  0
   -1.4313   -0.4103    0.0000 C   0  0  0  0  0  0  0  0  0  0  0  0
   -2.1458   -0.8228    0.0000 C   0  0  0  0  0  0  0  0  0  0  0  0
   -2.8603   -0.4103    0.0000 N   0  0  0  0  0  0  0  0  0  0  0  0
   -3.5747   -0.8228    0.0000 C   0  0  0  0  0  0  0  0  0  0  0  0
   -3.5747   -1.6478    0.0000 O   0  0  0  0  0  0  0  0  0  0  0  0
   -4.2892   -0.4103    0.0000 C   0  0  1  0  0  0  0  0  0  0  0  0
   -5.0429   -0.7458    0.0000 O   0  0  0  0  0  0  0  0  0  0  0  0
   -5.5949   -0.1327    0.0000 C   0  0  2  0  0  0  0  0  0  0  0  0
   -5.1824    0.5818    0.0000 C   0  0  2  0  0  0  0  0  0  0  0  0
   -5.5180    1.3354    0.0000 O   0  0  0  0  0  0  0  0  0  0  0  0
   -4.3754    0.4102    0.0000 C   0  0  2  0  0  0  0  0  0  0  0  0
   -3.7624    0.9623    0.0000 O   0  0  0  0  0  0  0  0  0  0  0  0
   -6.4154   -0.2190    0.0000 N   0  0  0  0  0  0  0  0  0  0  0  0
   -6.9674    0.3941    0.0000 C   0  0  0  0  0  0  0  0  0  0  0  0
   -7.6349   -0.7619    0.0000 N   0  0  0  0  0  0  0  0  0  0  0  0
   -6.8279   -0.9334    0.0000 C   0  0  0  0  0  0  0  0  0  0  0  0
   -6.8812    1.2146    0.0000 N   0  0  0  0  0  0  0  0  0  0  0  0
   -7.5486    1.6995    0.0000 C   0  0  0  0  0  0  0  0  0  0  0  0
   -8.3023    1.3640    0.0000 N   0  0  0  0  0  0  0  0  0  0  0  0
   -8.3885    0.5435    0.0000 C   0  0  0  0  0  0  0  0  0  0  0  0
   -9.1422    0.2080    0.0000 N   0  0  0  0  0  0  0  0  0  0  0  0
  1 49  2  0  0  0  0
 43  1  1  0  0  0  0
  1 44  1  0  0  0  0
  3  2  2  0  0  0  0
  5  3  1  0  0  0  0
  3  4  1  0  0  0  0
  5 13  1  6  0  0  0
  5  6  1  0  0  0  0
  6  7  1  0  0  0  0
  7  8  1  0  0  0  0
  8  9  1  0  0  0  0
 10  9  1  0  0  0  0
 10 11  2  0  0  0  0
 10 12  1  0  0  0  0
 14 13  1  0  0  0  0
 16 14  1  0  0  0  0
 14 15  2  0  0  0  0
 16 24  1  6  0  0  0
 16 17  1  0  0  0  0
 17 18  1  0  0  0  0
 18 19  1  0  0  0  0
 19 20  1  0  0  0  0
 21 20  1  0  0  0  0
 21 22  2  0  0  0  0
 21 23  1  0  0  0  0
 25 24  1  0  0  0  0
 25 26  2  0  0  0  0
 27 25  1  0  0  0  0
 28 27  1  0  0  0  0
 29 28  1  0  0  0  0
 30 29  1  0  0  0  0
 31 30  1  0  0  0  0
 31 32  1  0  0  0  0
 33 32  1  0  0  0  0
 33 34  2  0  0  0  0
 35 33  1  1  0  0  0
 35 36  1  0  0  0  0
 40 35  1  0  0  0  0
 37 36  1  0  0  0  0
 37 42  1  1  0  0  0
 37 38  1  0  0  0  0
 38 39  1  6  0  0  0
 38 40  1  0  0  0  0
 40 41  1  6  0  0  0
 43 42  1  0  0  0  0
 45 42  1  0  0  0  0
 43 46  2  0  0  0  0
 45 44  2  0  0  0  0
 47 46  1  0  0  0  0
 47 48  2  0  0  0  0
 49 48  1  0  0  0  0
 49 50  1  0  0  0  0
M  END