
  SciTegic12231509382D

 45 49  0  0  0  0            999 V2000
    3.0579  -17.4480    0.0000 C   0  0  2  0  0  0
    2.3414  -17.8687    0.0000 N   0  0
    3.0579  -16.6356    0.0000 C   0  0
   -1.9165  -17.9437    0.0000 N   0  0
   -2.6539  -17.5813    0.0000 C   0  0  1  0  0  0
   -1.2291  -17.4855    0.0000 C   0  0
   -3.3829  -17.9604    0.0000 C   0  0
    3.7913  -18.6771    0.0000 N   0  0
   -3.9745  -17.3813    0.0000 C   0  0
   -2.7955  -16.7648    0.0000 C   0  0  1  0  0  0
    2.3289  -16.2231    0.0000 N   0  0
   -0.5124  -17.8979    0.0000 C   0  0  1  0  0  0
    3.7788  -17.8605    0.0000 C   0  0
   -3.6079  -16.6439    0.0000 C   0  0
    1.6290  -17.4605    0.0000 C   0  0
    2.3539  -18.7021    0.0000 C   0  0
    3.7704  -16.2106    0.0000 O   0  0
   -1.2416  -16.6689    0.0000 O   0  0
    0.2000  -17.4855    0.0000 C   0  0
   -0.5041  -18.7229    0.0000 C   0  0
    2.3289  -15.3940    0.0000 C   0  0
    4.5078  -19.0978    0.0000 C   0  0
    5.2452  -21.1518    0.0000 N   0  0
    3.0829  -19.1020    0.0000 C   0  0
    4.5162  -19.9144    0.0000 C   0  0
    0.9249  -17.8854    0.0000 C   0  0  2  0  0  0
   -2.2039  -16.1731    0.0000 O   0  0
   -1.2166  -19.1395    0.0000 C   0  0
    5.2327  -20.3227    0.0000 C   0  0
    0.9249  -18.7146    0.0000 O   0  0
   -3.5954  -18.7645    0.0000 C   0  0
   -4.7537  -17.5980    0.0000 C   0  0
    4.5287  -21.5683    0.0000 C   0  0
    3.1538  -15.3815    0.0000 C   0  0
    1.5040  -15.4024    0.0000 C   0  0
    2.3247  -14.5650    0.0000 C   0  0
    3.8038  -20.3269    0.0000 C   0  0
   -1.2082  -19.9727    0.0000 C   0  0
   -1.9290  -18.7395    0.0000 C   0  0
    3.8038  -21.1643    0.0000 C   0  0
   -4.3870  -18.9770    0.0000 C   0  0
   -4.9661  -18.3979    0.0000 C   0  0
   -1.9165  -20.3894    0.0000 C   0  0
   -2.6455  -19.1520    0.0000 C   0  0
   -2.6330  -19.9769    0.0000 C   0  0
  5  4  1  1
  6 12  1  0
  7  5  1  0
  8 13  1  0
  9  7  1  0
 10  5  1  0
 11  3  1  0
 12 19  1  1
 13  1  1  0
 14 10  1  0
 15  2  1  0
 16  2  1  0
 17  3  2  0
 18  6  2  0
 19 26  1  0
 20 12  1  0
 21 11  1  0
 22  8  1  0
 23 29  1  0
 24 16  1  0
 25 22  1  0
 26 15  1  0
 10 27  1  1
 28 20  1  0
 29 25  2  0
 26 30  1  1
 31  7  2  0
 32  9  2  0
 33 40  1  0
 34 21  1  0
 35 21  1  0
 36 21  1  0
 37 25  1  0
 38 28  2  0
 39 28  1  0
 40 37  2  0
 41 31  1  0
 42 41  2  0
 43 38  1  0
 44 39  2  0
 45 43  2  0
 24  8  1  0
 23 33  2  0
 44 45  1  0
 14  9  1  0
 32 42  1  0
  2  1  1  0
  1  3  1  6
  4  6  1  0
M  END