
          11280714502D 1   1.00000     0.00000     0

 32 34  0     0  0            999 V2000
    1.8000   -2.6750    0.0000 N   0  0  0  0  0  0           0  0  0
    1.8042   -3.5042    0.0000 C   0  0  0  0  0  0           0  0  0
    0.3750   -2.6792    0.0000 C   0  0  0  0  0  0           0  0  0
    1.0792   -2.2667    0.0000 C   0  0  0  0  0  0           0  0  0
    1.0917   -3.9167    0.0000 N   0  0  0  0  0  0           0  0  0
    0.3750   -3.5042    0.0000 C   0  0  0  0  0  0           0  0  0
    8.2417   -3.9125    0.0000 C   0  0  0  0  0  0           0  0  0
   -0.3458   -2.2667    0.0000 C   0  0  0  0  0  0           0  0  0
    8.9542   -3.5000    0.0000 C   0  0  0  0  0  0           0  0  0
   -0.3458   -3.9250    0.0000 C   0  0  0  0  0  0           0  0  0
   -1.0583   -2.6875    0.0000 C   0  0  0  0  0  0           0  0  0
   -1.0583   -3.5125    0.0000 C   0  0  0  0  0  0           0  0  0
    2.5250   -3.9125    0.0000 N   0  0  3  0  0  0           0  0  0
    9.7042   -3.8292    0.0000 O   0  0  0  0  0  0           0  0  0
    7.5250   -3.5000    0.0000 N   0  0  3  0  0  0           0  0  0
    8.2417   -4.7375    0.0000 O   0  0  0  0  0  0           0  0  0
    9.0375   -2.6750    0.0000 C   0  0  0  0  0  0           0  0  0
   10.2542   -3.2167    0.0000 C   0  0  0  0  0  0           0  0  0
    9.8417   -2.5042    0.0000 C   0  0  0  0  0  0           0  0  0
    1.0792   -1.4417    0.0000 N   0  0  0  0  0  0           0  0  0
   -1.7708   -2.2750    0.0000 O   0  0  0  0  0  0           0  0  0
   -1.7708   -3.9250    0.0000 O   0  0  0  0  0  0           0  0  0
    3.2375   -3.5000    0.0000 C   0  0  0  0  0  0           0  0  0
    6.8125   -3.9125    0.0000 C   0  0  0  0  0  0           0  0  0
    2.5250   -4.7375    0.0000 C   0  0  0  0  0  0           0  0  0
    7.5250   -2.6750    0.0000 C   0  0  0  0  0  0           0  0  0
   -1.7708   -1.4500    0.0000 C   0  0  0  0  0  0           0  0  0
   -2.4833   -3.5125    0.0000 C   0  0  0  0  0  0           0  0  0
    6.0917   -3.5000    0.0000 C   0  0  0  0  0  0           0  0  0
    3.9542   -3.9125    0.0000 C   0  0  0  0  0  0           0  0  0
    4.6667   -3.5000    0.0000 C   0  0  0  0  0  0           0  0  0
    5.3792   -3.9125    0.0000 C   0  0  0  0  0  0           0  0  0
  2  1  1  0     0  0
  3  4  1  0     0  0
  4  1  2  0     0  0
  5  2  2  0     0  0
  6  3  1  0     0  0
  7 15  1  0     0  0
  8  3  2  0     0  0
  9  7  1  0     0  0
 10  6  2  0     0  0
 11  8  1  0     0  0
 12 11  2  0     0  0
 13  2  1  0     0  0
 14  9  1  0     0  0
 15 24  1  0     0  0
 16  7  2  0     0  0
 17  9  2  0     0  0
 18 14  1  0     0  0
 19 17  1  0     0  0
 20  4  1  0     0  0
 21 11  1  0     0  0
 22 12  1  0     0  0
 23 13  1  0     0  0
 24 29  1  0     0  0
 25 13  1  0     0  0
 26 15  1  0     0  0
 27 21  1  0     0  0
 28 22  1  0     0  0
 29 32  1  0     0  0
 30 23  1  0     0  0
 31 30  1  0     0  0
 32 31  1  0     0  0
  6  5  1  0     0  0
 12 10  1  0     0  0
 18 19  2  0     0  0
M  END