
  SciTegic03161210572D

 35 36  0  0  0  0            999 V2000
   12.6065  -13.9994    0.0000 F   0  0
   13.0236  -14.7168    0.0000 C   0  0
   13.4363  -13.9969    0.0000 F   0  0
   12.7150  -15.8427    0.0000 F   0  0
   12.3063  -15.1295    0.0000 C   0  0
   11.8931  -15.8400    0.0000 F   0  0
   11.1762  -13.9994    0.0000 F   0  0
   11.5932  -14.7168    0.0000 C   0  0
   12.0059  -13.9969    0.0000 F   0  0
   11.2846  -15.8427    0.0000 F   0  0
   10.8759  -15.1295    0.0000 C   0  0
   10.4627  -15.8400    0.0000 F   0  0
    9.7458  -13.9994    0.0000 F   0  0
   10.1629  -14.7168    0.0000 C   0  0
   10.5755  -13.9969    0.0000 F   0  0
    9.8542  -15.8427    0.0000 F   0  0
    9.4455  -15.1295    0.0000 C   0  0
    9.0323  -15.8400    0.0000 F   0  0
    8.0193  -15.1336    0.0000 N   0  0
    8.7344  -14.7209    0.0000 C   0  0
    8.7344  -13.8951    0.0000 O   0  0
   13.7400  -15.1336    0.0000 C   0  0
   14.4550  -14.7209    0.0000 N   0  0
   13.7400  -15.9594    0.0000 O   0  0
   15.1701  -15.1336    0.0000 O   0  0
    7.3042  -14.7209    0.0000 C   0  0
    7.3092  -13.8941    0.0000 C   0  0
    6.5950  -13.4812    0.0000 C   0  0
    5.8789  -13.8942    0.0000 C   0  0
    6.5964  -15.1331    0.0000 C   0  0
    5.8845  -14.7212    0.0000 C   0  0
    5.1738  -15.1314    0.0000 C   0  0
    5.1737  -15.9539    0.0000 C   0  0
    5.8903  -16.3641    0.0000 C   0  0
    6.5981  -15.9514    0.0000 C   0  0
  8  7  1  0
 20 21  2  0
 17 14  1  0
 14 11  1  0
 11  8  1  0
  8  5  1  0
  5  2  1  0
 14 13  1  0
  2 22  1  0
 15 14  1  0
 22 23  1  0
  9  8  1  0
 22 24  2  0
  5  4  1  0
 23 25  1  0
  6  5  1  0
 19 26  1  0
 17 16  1  0
 26 27  2  0
 18 17  1  0
 27 28  1  0
 28 29  2  0
 29 31  1  0
 30 26  1  0
 11 10  1  0
 12 11  1  0
 30 31  1  0
  2  1  1  0
 31 32  2  0
  3  2  1  0
 32 33  1  0
 19 20  1  0
 33 34  2  0
 20 17  1  0
 34 35  1  0
 35 30  2  0
M  END