
  SciTegic12201615522D

 28 30  0  0  0  0            999 V2000
    1.2990   -0.7500    0.0000 C   0  0
    1.2990    0.7500    0.0000 C   0  0
    0.0000    1.5000    0.0000 C   0  0
   -1.2990    0.7500    0.0000 C   0  0
   -1.2990   -0.7500    0.0000 C   0  0
    0.0000   -1.5000    0.0000 C   0  0
   -2.3383    1.3500    0.0000 C   0  0
   -2.5972   -1.5031    0.0000 C   0  0
   -3.6375   -0.9049    0.0000 O   0  0
   -2.5955   -2.7031    0.0000 O   0  0
    0.0000    3.0008    0.0000 C   0  0
    1.2121    3.8625    0.0000 O   0  0
    0.7463    5.2884    0.0000 C   0  0
   -0.7537    5.2860    0.0000 C   0  0
   -1.2149    3.8587    0.0000 C   0  0
    1.6225    6.5037    0.0000 C   0  0
    1.0079    7.8729    0.0000 C   0  0
    1.7656    9.1528    0.0000 S   0  0
    0.7608   10.2665    0.0000 C   0  0
   -0.6089    9.6550    0.0000 N   0  0
   -0.4507    8.1634    0.0000 C   0  0
   -1.3368    7.3543    0.0000 O   0  0
    1.0091   11.4405    0.0000 O   0  0
   -1.9087   10.4002    0.0000 C   0  0
   -3.2067    9.6466    0.0000 C   0  0
   -4.5087   10.3930    0.0000 O   0  0
   -3.2034    8.4466    0.0000 O   0  0
   -5.5465    9.7905    0.0000 C   0  0
  1  2  2  0
  2  3  1  0
  3  4  2  0
  4  5  1  0
  5  6  2  0
  6  1  1  0
  4  7  1  0
  5  8  1  0
  8  9  1  0
  8 10  2  0
  3 11  1  0
 11 12  1  0
 12 13  1  0
 13 14  2  0
 14 15  1  0
 15 11  2  0
 13 16  1  0
 16 17  2  0
 17 18  1  0
 18 19  1  0
 19 20  1  0
 20 21  1  0
 21 17  1  0
 21 22  2  0
 19 23  2  0
 20 24  1  0
 24 25  1  0
 25 26  1  0
 25 27  2  0
 26 28  1  0
M  END