
  SciTegic02271514372D

 23 24  0  0  0  0            999 V2000
    3.1481   -5.5325    0.0000 C   0  0
    3.8626   -5.9450    0.0000 C   0  0
    4.5771   -5.5325    0.0000 C   0  0
    5.2915   -5.9450    0.0000 C   0  0
    5.2915   -6.7700    0.0000 C   0  0
    4.5771   -7.1825    0.0000 C   0  0
    3.8626   -6.7700    0.0000 C   0  0
    3.1481   -4.7075    0.0000 O   0  0
    2.4337   -5.9450    0.0000 O   0  0
    3.1481   -7.1825    0.0000 O   0  0
    6.0060   -7.1825    0.0000 O   0  0
    6.0060   -5.5325    0.0000 Cl  0  0
    4.5771   -4.7075    0.0000 C   0  0
    5.2915   -4.2950    0.0000 C   0  0
    5.2915   -3.4700    0.0000 C   0  0
    6.0060   -3.0575    0.0000 O   0  0
    4.5771   -3.0575    0.0000 N   0  0
    5.2445   -1.7476    0.0000 S   0  0
    4.5771   -2.2325    0.0000 C   0  0
    3.9096   -1.7476    0.0000 N   0  0
    4.1646   -0.9630    0.0000 N   0  0
    4.9896   -0.9630    0.0000 C   0  0
    2.4337   -6.7700    0.0000 C   0  0
  1  2  1  0
  2  3  1  0
  3  4  2  0
  4  5  1  0
  5  6  2  0
  6  7  1  0
  2  7  2  0
  1  8  2  0
  1  9  1  0
  7 10  1  0
  5 11  1  0
  4 12  1  0
 13 14  1  0
 14 15  1  0
 15 16  2  0
 18 19  1  0
 19 20  2  0
 20 21  1  0
 21 22  2  0
 18 22  1  0
 17 19  1  0
 15 17  1  0
  3 13  1  0
  9 23  1  0
M  END