
          11280714522D 1   1.00000     0.00000     0

 14 14  0     0  0            999 V2000
    5.2542   -4.5542    0.0000 C   0  0  0  0  0  0           0  0  0
    5.2542   -5.1542    0.0000 C   0  0  0  0  0  0           0  0  0
    5.7667   -4.2500    0.0000 C   0  0  0  0  0  0           0  0  0
    4.7292   -5.4542    0.0000 C   0  0  0  0  0  0           0  0  0
    5.7750   -5.4542    0.0000 O   0  0  0  0  0  0           0  0  0
    6.8042   -4.2417    0.0000 N   0  0  0  0  0  0           0  0  0
    4.7292   -6.0542    0.0000 O   0  0  0  0  0  0           0  0  0
    6.2917   -4.5417    0.0000 C   0  0  3  0  0  0           0  0  0
    4.7292   -4.2542    0.0000 C   0  0  0  0  0  0           0  0  0
    4.2167   -4.5542    0.0000 C   0  0  0  0  0  0           0  0  0
    4.2167   -5.1542    0.0000 C   0  0  0  0  0  0           0  0  0
    5.7750   -6.0542    0.0000 C   0  0  0  0  0  0           0  0  0
    5.2542   -6.3542    0.0000 C   0  0  0  0  0  0           0  0  0
    6.2917   -5.1542    0.0000 C   0  0  0  0  0  0           0  0  0
  2  1  1  0     0  0
  3  1  1  0     0  0
  4  2  2  0     0  0
  5  2  1  0     0  0
  6  8  1  0     0  0
  7  4  1  0     0  0
  8  3  1  0     0  0
  9  1  2  0     0  0
 10  9  1  0     0  0
 11 10  2  0     0  0
 12  5  1  0     0  0
 13  7  1  0     0  0
 14  8  1  0     0  0
 11  4  1  0     0  0
M  END