
          01230816052D 1   1.00000     0.00000     0

 53 54  0     1  0            999 V2000
   -1.7128  -10.1068    0.0000 C   0  0  0  0  0  0           0  0  0
   -0.9963   -9.6935    0.0000 C   0  0  0  0  0  0           0  0  0
   -0.9992   -8.8630    0.0000 C   0  0  0  0  0  0           0  0  0
   -0.2867   -8.4471    0.0000 O   0  0  0  0  0  0           0  0  0
    0.4297   -8.8562    0.0000 C   0  0  0  0  0  0           0  0  0
    1.1423   -8.4404    0.0000 C   0  0  0  0  0  0           0  0  0
    1.8587   -8.8495    0.0000 N   0  0  0  0  0  0           0  0  0
    1.1384   -7.6154    0.0000 O   0  0  0  0  0  0           0  0  0
    2.5712   -8.4336    0.0000 C   0  0  2  0  0  0           0  0  0
    3.2876   -8.8427    0.0000 C   0  0  0  0  0  0           0  0  0
    4.0001   -8.4269    0.0000 N   0  0  0  0  0  0           0  0  0
    3.2915   -9.6677    0.0000 O   0  0  0  0  0  0           0  0  0
    2.5673   -7.6086    0.0000 C   0  0  0  0  0  0           0  0  0
    3.2798   -7.1928    0.0000 C   0  0  0  0  0  0           0  0  0
    3.2759   -6.3678    0.0000 C   0  0  0  0  0  0           0  0  0
    3.9884   -5.9519    0.0000 C   0  0  0  0  0  0           0  0  0
    3.9845   -5.1269    0.0000 N   0  0  0  0  0  0           0  0  0
    4.7165   -8.8360    0.0000 C   0  0  2  0  0  0           0  0  0
    5.4290   -8.4201    0.0000 C   0  0  0  0  0  0           0  0  0
    4.7204   -9.6610    0.0000 C   0  0  3  0  0  0           0  0  0
    4.0079  -10.0769    0.0000 C   0  0  0  0  0  0           0  0  0
    5.4368  -10.0701    0.0000 C   0  0  0  0  0  0           0  0  0
    6.1454   -8.8293    0.0000 N   0  0  0  0  0  0           0  0  0
    5.4251   -7.5951    0.0000 O   0  0  0  0  0  0           0  0  0
    6.8580   -8.4134    0.0000 C   0  0  0  0  0  0           0  0  0
    7.5744   -8.8225    0.0000 C   0  0  0  0  0  0           0  0  0
    8.2869   -8.4066    0.0000 N   0  0  0  0  0  0           0  0  0
    7.5783   -9.6475    0.0000 O   0  0  0  0  0  0           0  0  0
    9.0033   -8.8158    0.0000 C   0  0  2  0  0  0           0  0  0
    9.7158   -8.3999    0.0000 C   0  0  0  0  0  0           0  0  0
    9.0072   -9.6408    0.0000 C   0  0  1  0  0  0           0  0  0
    8.2947  -10.0566    0.0000 C   0  0  0  0  0  0           0  0  0
    9.7236  -10.0499    0.0000 O   0  0  0  0  0  0           0  0  0
   10.4322   -8.8090    0.0000 N   0  0  0  0  0  0           0  0  0
    9.7119   -7.5749    0.0000 O   0  0  0  0  0  0           0  0  0
   -2.4276   -9.6940    0.0000 C   0  0  0  0  0  0           0  0  0
   11.1447   -8.3932    0.0000 C   0  0  2  0  0  0           0  0  0
   11.8611   -8.8023    0.0000 C   0  0  0  0  0  0           0  0  0
   11.1408   -7.5682    0.0000 C   0  0  0  0  0  0           0  0  0
   12.5737   -8.3864    0.0000 O   0  0  0  0  0  0           0  0  0
   13.2901   -8.7955    0.0000 C   0  0  0  0  0  0           0  0  0
   14.0026   -8.3797    0.0000 N   0  0  0  0  0  0           0  0  0
   13.2940   -9.6205    0.0000 O   0  0  0  0  0  0           0  0  0
   14.7190   -8.7888    0.0000 C   0  0  3  0  0  0           0  0  0
   15.4292   -9.2000    0.0000 C   0  0  0  0  0  0           0  0  0
   15.1302   -8.0736    0.0000 C   0  0  0  0  0  0           0  0  0
   14.3116   -9.5062    0.0000 C   0  0  0  0  0  0           0  0  0
   -2.4263   -8.8703    0.0000 C   0  0  0  0  0  0           0  0  0
   -1.7156   -8.4550    0.0000 C   0  0  0  0  0  0           0  0  0
   -1.7209   -7.6338    0.0000 N   0  0  0  0  0  0           0  0  0
   -2.4361   -7.2269    0.0000 C   0  0  0  0  0  0           0  0  0
   -3.1475   -7.6472    0.0000 C   0  0  0  0  0  0           0  0  0
   -3.1387   -8.4670    0.0000 C   0  0  0  0  0  0           0  0  0
 26 28  2  0     0  0
  9 13  1  1     0  0
 29 27  1  6     0  0
  2  3  1  0     0  0
 29 30  1  0     0  0
 13 14  1  0     0  0
 29 31  1  0     0  0
  5  6  1  0     0  0
 31 32  1  0     0  0
 14 15  1  0     0  0
 31 33  1  6     0  0
  3 49  2  0     0  0
 30 34  1  0     0  0
 15 16  1  0     0  0
 30 35  2  0     0  0
  6  7  1  0     0  0
 16 17  1  0     0  0
 36 48  2  0     0  0
 11 18  1  0     0  0
  6  8  2  0     0  0
 18 19  1  0     0  0
 18 20  1  6     0  0
 34 37  1  0     0  0
  7  9  1  0     0  0
 37 38  1  0     0  0
 20 21  1  0     0  0
 37 39  1  1     0  0
  1  2  2  0     0  0
 38 40  1  0     0  0
 20 22  1  0     0  0
 40 41  1  0     0  0
  9 10  1  0     0  0
 41 42  1  0     0  0
 19 23  1  0     0  0
 41 43  2  0     0  0
  3  4  1  0     0  0
 42 44  1  0     0  0
 19 24  2  0     0  0
 44 45  1  0     0  0
 10 11  1  0     0  0
 44 46  1  0     0  0
 23 25  1  0     0  0
 44 47  1  0     0  0
 36  1  1  0     0  0
 48 49  1  0     0  0
 25 26  1  0     0  0
 49 50  1  0     0  0
 10 12  2  0     0  0
 50 51  2  0     0  0
 26 27  1  0     0  0
 51 52  1  0     0  0
  4  5  1  0     0  0
 52 53  2  0     0  0
 53 48  1  0     0  0
M  END