
          11280715222D 1   1.00000     0.00000     0

 24 26  0     0  0            999 V2000
    0.3292   -1.5542    0.0000 C   0  0  0  0  0  0           0  0  0
    0.3292   -2.3750    0.0000 C   0  0  0  0  0  0           0  0  0
   -0.3958   -1.1417    0.0000 C   0  0  3  0  0  0           0  0  0
   -0.3958   -2.8042    0.0000 C   0  0  3  0  0  0           0  0  0
    5.3375   -2.8042    0.0000 C   0  0  0  0  0  0           0  0  0
    1.0417   -2.7917    0.0000 C   0  0  0  0  0  0           0  0  0
    1.0417   -1.1417    0.0000 C   0  0  0  0  0  0           0  0  0
    4.6167   -2.3875    0.0000 C   0  0  0  0  0  0           0  0  0
    2.4792   -1.1292    0.0000 S   0  0  0  0  0  0           0  0  0
    1.7667   -1.5417    0.0000 C   0  0  0  0  0  0           0  0  0
   -1.1000   -1.5542    0.0000 C   0  0  0  0  0  0           0  0  0
   -1.1000   -2.3875    0.0000 C   0  0  0  0  0  0           0  0  0
    5.1125   -3.6042    0.0000 O   0  0  0  0  0  0           0  0  0
    3.9000   -2.7917    0.0000 C   0  0  0  0  0  0           0  0  0
    4.6292   -1.5417    0.0000 C   0  0  0  0  0  0           0  0  0
    3.1917   -1.5417    0.0000 C   0  0  0  0  0  0           0  0  0
    1.7667   -2.3750    0.0000 C   0  0  0  0  0  0           0  0  0
    6.0417   -2.3750    0.0000 O   0  0  0  0  0  0           0  0  0
    3.1917   -2.3750    0.0000 C   0  0  0  0  0  0           0  0  0
    3.9125   -1.1292    0.0000 C   0  0  0  0  0  0           0  0  0
   -1.1083   -0.7250    0.0000 C   0  0  0  0  0  0           0  0  0
    0.1917   -0.5542    0.0000 C   0  0  0  0  0  0           0  0  0
   -1.1083   -3.2042    0.0000 C   0  0  0  0  0  0           0  0  0
    0.3292   -3.2167    0.0000 C   0  0  0  0  0  0           0  0  0
  2  1  2  0     0  0
  3  1  1  0     0  0
  4  2  1  0     0  0
  5  8  1  0     0  0
  6  2  1  0     0  0
  7  1  1  0     0  0
  8 15  1  0     0  0
  9 10  1  0     0  0
 10  7  2  0     0  0
 11  3  1  0     0  0
 12 11  1  0     0  0
 13  5  2  0     0  0
 14 19  1  0     0  0
 15 20  2  0     0  0
 16  9  1  0     0  0
 17 10  1  0     0  0
 18  5  1  0     0  0
 19 16  2  0     0  0
 20 16  1  0     0  0
 21  3  1  0     0  0
 22  3  1  0     0  0
 23  4  1  0     0  0
 24  4  1  0     0  0
  6 17  2  0     0  0
 12  4  1  0     0  0
 14  8  2  0     0  0
M  END