
          11280715362D 1   1.00000     0.00000     0

 59 64  0     1  0            999 V2000
    2.8917   -7.5542    0.0000 C   0  0  3  0  0  0           0  0  0
    3.6167   -7.4375    0.0000 C   0  0  3  0  0  0           0  0  0
    5.5125   -7.0792    0.0000 C   0  0  3  0  0  0           0  0  0
    4.8750   -7.4375    0.0000 C   0  0  0  0  0  0           0  0  0
    2.9042   -8.3667    0.0000 C   0  0  3  0  0  0           0  0  0
    4.2417   -7.0750    0.0000 N   0  0  0  0  0  0           0  0  0
    7.8542   -4.9167    0.0000 N   0  0  0  0  0  0           0  0  0
    3.3625   -7.9917    0.0000 O   0  0  0  0  0  0           0  0  0
    7.1750   -4.6542    0.0000 C   0  0  0  0  0  0           0  0  0
    6.7292   -3.4792    0.0000 C   0  0  0  0  0  0           0  0  0
    8.5667   -6.1417    0.0000 C   0  0  0  0  0  0           0  0  0
    2.5167   -8.8542    0.0000 C   0  0  3  0  0  0           0  0  0
    6.0042   -7.6042    0.0000 C   0  0  0  0  0  0           0  0  0
    5.8167   -5.0667    0.0000 N   0  0  0  0  0  0           0  0  0
    3.2292   -8.7417    0.0000 C   0  0  3  0  0  0           0  0  0
    8.4542   -6.8542    0.0000 N   0  0  0  0  0  0           0  0  0
    6.4417   -4.7042    0.0000 C   0  0  1  0  0  0           0  0  0
    8.3500   -5.4417    0.0000 C   0  0  1  0  0  0           0  0  0
    5.4042   -5.6667    0.0000 C   0  0  0  0  0  0           0  0  0
    7.2250   -2.4167    0.0000 N   0  0  0  0  0  0           0  0  0
    6.6875   -7.8667    0.0000 N   0  0  0  0  0  0           0  0  0
    6.5917   -2.7667    0.0000 C   0  0  0  0  0  0           0  0  0
    2.3375   -7.0792    0.0000 N   0  0  0  0  0  0           0  0  0
    6.2292   -4.0042    0.0000 C   0  0  0  0  0  0           0  0  0
    7.4542   -3.5667    0.0000 C   0  0  0  0  0  0           0  0  0
    5.2917   -6.3792    0.0000 C   0  0  0  0  0  0           0  0  0
    1.6542   -7.3292    0.0000 C   0  0  0  0  0  0           0  0  0
    7.7542   -2.9125    0.0000 C   0  0  0  0  0  0           0  0  0
    4.8750   -8.1625    0.0000 O   0  0  0  0  0  0           0  0  0
    8.0417   -7.4542    0.0000 C   0  0  1  0  0  0           0  0  0
    7.2792   -3.9292    0.0000 O   0  0  0  0  0  0           0  0  0
    9.1667   -6.1500    0.0000 O   0  0  0  0  0  0           0  0  0
    8.9792   -5.0792    0.0000 C   0  0  0  0  0  0           0  0  0
    5.5917   -8.2042    0.0000 O   0  0  0  0  0  0           0  0  0
    4.7250   -5.4042    0.0000 O   0  0  0  0  0  0           0  0  0
    1.1000   -6.8625    0.0000 O   0  0  0  0  0  0           0  0  0
    7.4167   -7.8167    0.0000 C   0  0  0  0  0  0           0  0  0
    2.2667   -8.0042    0.0000 O   0  0  0  0  0  0           0  0  0
    1.8875   -9.2292    0.0000 O   0  0  0  0  0  0           0  0  0
    8.5417   -7.9875    0.0000 C   0  0  0  0  0  0           0  0  0
    9.6167   -5.4417    0.0000 C   0  0  0  0  0  0           0  0  0
    3.7875   -9.2125    0.0000 C   0  0  0  0  0  0           0  0  0
    8.3292   -8.6792    0.0000 C   0  0  0  0  0  0           0  0  0
    3.6542   -9.9250    0.0000 O   0  0  0  0  0  0           0  0  0
    7.8750   -4.1542    0.0000 C   0  0  0  0  0  0           0  0  0
    1.3917   -7.9917    0.0000 C   0  0  0  0  0  0           0  0  0
    8.4875   -2.8417    0.0000 C   0  0  0  0  0  0           0  0  0
   10.2500   -5.0792    0.0000 C   0  0  0  0  0  0           0  0  0
    9.6167   -6.1667    0.0000 C   0  0  0  0  0  0           0  0  0
    8.8250   -9.2125    0.0000 C   0  0  0  0  0  0           0  0  0
    7.6167   -8.8417    0.0000 C   0  0  0  0  0  0           0  0  0
    8.6000   -4.0917    0.0000 C   0  0  0  0  0  0           0  0  0
    8.9042   -3.4375    0.0000 C   0  0  0  0  0  0           0  0  0
   10.2500   -6.5375    0.0000 C   0  0  0  0  0  0           0  0  0
    8.6042   -9.9042    0.0000 C   0  0  0  0  0  0           0  0  0
    7.4042   -9.5292    0.0000 C   0  0  0  0  0  0           0  0  0
   10.8792   -5.4417    0.0000 C   0  0  0  0  0  0           0  0  0
   10.8792   -6.1667    0.0000 C   0  0  0  0  0  0           0  0  0
    7.9000  -10.0667    0.0000 C   0  0  0  0  0  0           0  0  0
  2  1  1  0     0  0
  3  4  1  0     0  0
  4  6  1  0     0  0
  5  1  1  0     0  0
  6  2  1  0     0  0
  7  9  1  0     0  0
  8  2  1  0     0  0
  9 17  1  0     0  0
 10 24  1  0     0  0
 11 16  1  0     0  0
 12  5  1  0     0  0
 13  3  1  0     0  0
 14 19  1  0     0  0
 15 12  1  0     0  0
 16 30  1  0     0  0
 17 14  1  0     0  0
 18  7  1  0     0  0
 19 26  1  0     0  0
 20 22  1  0     0  0
 21 13  1  0     0  0
 22 10  2  0     0  0
 23  1  1  0     0  0
 17 24  1  1     0  0
 25 10  1  0     0  0
 26  3  1  0     0  0
 27 23  1  0     0  0
 28 25  2  0     0  0
 29  4  2  0     0  0
 30 37  1  0     0  0
 31  9  2  0     0  0
 32 11  2  0     0  0
 18 33  1  6     0  0
 34 13  2  0     0  0
 35 19  2  0     0  0
 36 27  2  0     0  0
 37 21  1  0     0  0
 38  5  1  0     0  0
 39 12  1  0     0  0
 30 40  1  6     0  0
 41 33  1  0     0  0
 42 15  1  0     0  0
 43 40  1  0     0  0
 44 42  1  0     0  0
 45 25  1  0     0  0
 46 27  1  0     0  0
 47 28  1  0     0  0
 48 41  1  0     0  0
 49 41  2  0     0  0
 50 43  2  0     0  0
 51 43  1  0     0  0
 52 45  2  0     0  0
 53 52  1  0     0  0
 54 49  1  0     0  0
 55 50  1  0     0  0
 56 51  2  0     0  0
 57 48  2  0     0  0
 58 54  2  0     0  0
 59 56  1  0     0  0
 15  8  1  0     0  0
 18 11  1  0     0  0
 20 28  1  0     0  0
 59 55  2  0     0  0
 53 47  2  0     0  0
 58 57  1  0     0  0
M  END