
  SciTegic01161211212D

 77 81  0  0  0  0            999 V2000
    3.0641   -0.4028    0.0000 C   0  0
    2.3950    0.0827    0.0000 O   0  0
    9.4936   -2.5047    0.0000 O   0  0
    8.7849   -1.2606    0.0000 O   0  0
    8.7810   -2.0928    0.0000 C   0  0  2  0  0  0
    8.0638   -2.5074    0.0000 C   0  0  1  0  0  0
    7.3461   -2.0857    0.0000 C   0  0  2  0  0  0
    7.3510   -1.2594    0.0000 C   0  0  1  0  0  0
    8.0681   -0.8491    0.0000 C   0  0  1  0  0  0
    8.0711   -0.0223    0.0000 C   0  0
   10.2089   -2.0913    0.0000 C   0  0
   10.9253   -2.5072    0.0000 C   0  0
   11.6364   -2.0938    0.0000 Si  0  0
   12.3528   -2.5054    0.0000 C   0  0
   11.6355   -1.2688    0.0000 C   0  0
   11.8526   -2.8884    0.0000 C   0  0
    6.6373   -0.8470    0.0000 O   0  0
    5.9192   -1.2554    0.0000 C   0  0  1  0  0  0
    5.2115   -0.8354    0.0000 C   0  0  1  0  0  0
    4.4965   -1.2427    0.0000 C   0  0  2  0  0  0
    4.4894   -2.0683    0.0000 C   0  0  2  0  0  0
    5.2028   -2.4839    0.0000 C   0  0  2  0  0  0
    5.9230   -2.0742    0.0000 O   0  0
    3.7854   -0.8222    0.0000 O   0  0
    5.1980   -3.3089    0.0000 C   0  0
    3.0690   -1.2306    0.0000 C   0  0  2  0  0  0
    2.3566   -0.8061    0.0000 O   0  0
    1.6393   -1.2093    0.0000 C   0  0  1  0  0  0
    1.6276   -2.0347    0.0000 C   0  0  2  0  0  0
    3.0610   -2.0530    0.0000 C   0  0
    2.3330   -3.2794    0.0000 O   0  0
    0.9306   -0.7929    0.0000 C   0  0  1  0  0  0
    0.9406    0.0320    0.0000 C   0  0  1  0  0  0
    0.2319    0.4526    0.0000 C   0  0
    0.9014   -3.2692    0.0000 C   0  0
    0.1827   -3.6736    0.0000 C   0  0
    1.6101   -3.6898    0.0000 O   0  0
    2.7538   -3.9870    0.0000 C   0  0  2  0  0  0
    2.3493   -4.7027    0.0000 C   0  0  2  0  0  0
    3.5857   -5.4056    0.0000 C   0  0  2  0  0  0
    3.9879   -4.6863    0.0000 C   0  0  2  0  0  0
    3.5717   -3.9741    0.0000 O   0  0
    2.3579   -6.1264    0.0000 O   0  0
    4.8157   -4.6786    0.0000 C   0  0
    1.5303   -6.1338    0.0000 C   0  0  2  0  0  0
    1.0389   -5.4729    0.0000 O   0  0
    0.2591   -5.7347    0.0000 C   0  0  2  0  0  0
    0.2644   -6.5589    0.0000 C   0  0  1  0  0  0
    1.0513   -6.8057    0.0000 C   0  0  1  0  0  0
   -0.4123   -5.2565    0.0000 C   0  0  2  0  0  0
   -0.3340   -4.4327    0.0000 O   0  0
   -1.1666   -5.5951    0.0000 C   0  0
   -0.5211   -6.0154    0.0000 H   0  0
    0.8778   -1.5290    0.0000 H   0  0
    3.7491   -1.5923    0.0000 H   0  0
    6.6389   -1.6813    0.0000 H   0  0
    3.8146   -0.0691    0.0000 O   0  0
    8.0573   -3.3306    0.0000 O   0  0
    6.6272   -2.4972    0.0000 O   0  0
    8.7846    0.3873    0.0000 O   0  0
    5.2165   -0.0116    0.0000 O   0  0
    3.7715   -2.4736    0.0000 O   0  0
    5.9076   -3.7259    0.0000 O   0  0
    0.9114   -2.4443    0.0000 N   0  0
    1.6576    0.4395    0.0000 O   0  0
   -0.4885    0.0472    0.0000 O   0  0
    0.2102   -1.1982    0.0000 O   0  0
    4.0052   -6.1172    0.0000 O   0  0
    1.5207   -4.7136    0.0000 O   0  0
    5.2215   -3.9629    0.0000 O   0  0
    1.3115   -7.5925    0.0000 O   0  0
   -0.4013   -7.0532    0.0000 O   0  0
   -1.2448   -6.4190    0.0000 O   0  0
    2.3427   -2.4546    0.0000 C   0  0  2  0  0  0
    3.0572   -2.8671    0.0000 H   0  0
    2.7650   -5.4092    0.0000 C   0  0  2  0  0  0
    3.1924   -6.1148    0.0000 H   0  0
 33 34  1  0
 18 19  1  0
  9 10  1  1
  5  3  1  1
 35 36  1  0
 35 37  2  0
 18 23  1  0
 19 20  1  0
 38 31  1  1
 38 39  1  0
 20 21  1  0
 21 22  1  0
 22 23  1  0
 38 42  1  0
 39 76  1  0
 76 40  1  0
 40 41  1  0
 41 42  1  0
  1  2  2  0
 20 24  1  0
 76 43  1  0
  3 11  1  0
 41 44  1  6
 22 25  1  6
 45 43  1  1
 45 46  1  0
 11 12  1  0
  9  4  1  0
 24 26  1  0
 46 47  1  0
 47 48  1  0
 48 49  1  0
 49 45  1  0
 26 27  1  0
 12 13  1  0
  4  5  1  0
 47 50  1  0
 13 14  1  0
 50 51  1  1
  5  6  1  0
 50 52  1  0
 13 15  1  0
 26 30  1  0
 47 53  1  1
 28 54  1  6
 20 55  1  1
  8 56  1  1
 27 28  1  0
 28 29  1  0
 29 74  1  0
 74 30  1  0
 26  1  1  1
  6  7  1  0
 74 31  1  0
 13 16  1  0
  7  8  1  0
 28 32  1  0
  8 17  1  0
 32 33  1  0
  8  9  1  0
 18 17  1  6
 10 60  1  0
 33 65  1  1
  6 58  1  6
 34 66  1  0
 19 61  1  1
 32 67  1  6
  1 57  1  0
 40 68  1  6
 21 62  1  6
 39 69  1  1
  7 59  1  1
 44 70  1  0
 25 63  1  0
 49 71  1  6
 48 72  1  1
 64 35  1  0
 29 64  1  1
 52 73  1  0
 74 75  1  1
 76 77  1  1
M  END