
          11280714582D 1   1.00000     0.00000     0

 48 51  0     1  0            999 V2000
    0.3125   -1.6542    0.0000 S   0  0  3  0  0  0           0  0  0
    2.9042   -4.3542    0.0000 C   0  0  0  0  0  0           0  0  0
    3.4292   -4.0542    0.0000 N   0  0  0  0  0  0           0  0  0
    1.8667   -4.9542    0.0000 C   0  0  0  0  0  0           0  0  0
    4.4667   -4.0542    0.0000 C   0  0  0  0  0  0           0  0  0
    2.3792   -4.0542    0.0000 C   0  0  1  0  0  0           0  0  0
    1.8667   -4.3542    0.0000 N   0  0  0  0  0  0           0  0  0
    0.8292   -4.9542    0.0000 C   0  0  0  0  0  0           0  0  0
    3.9417   -4.3542    0.0000 C   0  0  2  0  0  0           0  0  0
    4.9875   -4.3542    0.0000 N   0  0  0  0  0  0           0  0  0
    0.8292   -1.3500    0.0000 O   0  0  0  0  0  0           0  0  0
    0.3417   -1.0000    0.0000 O   0  0  0  0  0  0           0  0  0
    1.3500   -5.2542    0.0000 C   0  0  0  0  0  0           0  0  0
    0.3167   -5.2542    0.0000 C   0  0  0  0  0  0           0  0  0
    3.4292   -5.8542    0.0000 C   0  0  0  0  0  0           0  0  0
    0.3125   -2.2542    0.0000 C   0  0  0  0  0  0           0  0  0
    2.9042   -4.9542    0.0000 O   0  0  0  0  0  0           0  0  0
    2.3792   -3.4542    0.0000 C   0  0  0  0  0  0           0  0  0
    4.4667   -3.4542    0.0000 O   0  0  0  0  0  0           0  0  0
    2.3792   -5.2542    0.0000 O   0  0  0  0  0  0           0  0  0
   -0.2083   -1.3542    0.0000 O   0  0  0  0  0  0           0  0  0
    2.9042   -6.1542    0.0000 O   0  0  0  0  0  0           0  0  0
    3.9417   -4.9542    0.0000 C   0  0  0  0  0  0           0  0  0
   -0.2083   -4.9542    0.0000 C   0  0  0  0  0  0           0  0  0
    3.4292   -5.2542    0.0000 C   0  0  0  0  0  0           0  0  0
    1.8667   -3.1542    0.0000 C   0  0  0  0  0  0           0  0  0
    5.5042   -4.0542    0.0000 C   0  0  0  0  0  0           0  0  0
    0.8292   -2.5500    0.0000 C   0  0  0  0  0  0           0  0  0
    6.0250   -4.3542    0.0000 C   0  0  0  0  0  0           0  0  0
    7.0625   -4.9542    0.0000 C   0  0  0  0  0  0           0  0  0
    3.9417   -6.1542    0.0000 O   0  0  0  0  0  0           0  0  0
    1.3542   -3.4500    0.0000 C   0  0  0  0  0  0           0  0  0
    1.8667   -2.5500    0.0000 C   0  0  0  0  0  0           0  0  0
    1.3500   -2.2500    0.0000 C   0  0  0  0  0  0           0  0  0
    0.8292   -3.1542    0.0000 C   0  0  0  0  0  0           0  0  0
    6.5417   -4.0542    0.0000 C   0  0  0  0  0  0           0  0  0
    6.0250   -4.9542    0.0000 C   0  0  0  0  0  0           0  0  0
    6.5417   -5.2542    0.0000 C   0  0  0  0  0  0           0  0  0
    7.0625   -4.3500    0.0000 C   0  0  0  0  0  0           0  0  0
    0.8292   -4.3500    0.0000 C   0  0  0  0  0  0           0  0  0
    7.5792   -5.2542    0.0000 O   0  0  0  0  0  0           0  0  0
    0.3125   -4.0500    0.0000 C   0  0  0  0  0  0           0  0  0
    0.3250   -5.8542    0.0000 C   0  0  0  0  0  0           0  0  0
   -0.2083   -4.3500    0.0000 C   0  0  0  0  0  0           0  0  0
   -0.7208   -5.2542    0.0000 C   0  0  0  0  0  0           0  0  0
    7.5792   -5.8542    0.0000 C   0  0  0  0  0  0           0  0  0
   -0.1958   -6.1542    0.0000 C   0  0  0  0  0  0           0  0  0
   -0.7208   -5.8542    0.0000 C   0  0  0  0  0  0           0  0  0
  2  6  1  0     0  0
  3  2  1  0     0  0
  4  7  1  0     0  0
  5  9  1  0     0  0
  6 18  1  1     0  0
  7  6  1  0     0  0
  8 13  1  0     0  0
  9  3  1  0     0  0
 10  5  1  0     0  0
 11  1  2  0     0  0
 12  1  2  0     0  0
 13  4  1  0     0  0
 14  8  2  0     0  0
 15 25  1  0     0  0
 16  1  1  0     0  0
 17  2  2  0     0  0
 18 26  1  0     0  0
 19  5  2  0     0  0
 20  4  2  0     0  0
 21  1  1  0     0  0
 22 15  2  0     0  0
  9 23  1  6     0  0
 24 14  1  0     0  0
 25 23  1  0     0  0
 26 32  1  0     0  0
 27 10  1  0     0  0
 28 16  1  0     0  0
 29 27  1  0     0  0
 30 38  2  0     0  0
 31 15  1  0     0  0
 32 35  2  0     0  0
 33 34  1  0     0  0
 34 28  2  0     0  0
 35 28  1  0     0  0
 36 29  1  0     0  0
 37 29  2  0     0  0
 38 37  1  0     0  0
 39 36  2  0     0  0
 40  8  1  0     0  0
 41 30  1  0     0  0
 42 40  2  0     0  0
 43 14  1  0     0  0
 44 42  1  0     0  0
 45 24  1  0     0  0
 46 41  1  0     0  0
 47 43  2  0     0  0
 48 47  1  0     0  0
 26 33  2  0     0  0
 24 44  2  0     0  0
 45 48  2  0     0  0
 39 30  1  0     0  0
M  END