
  SciTegic01091216402D

 91 93  0  0  0  0            999 V2000
    9.2402  -14.6023    0.0000 Na  0  3
   -0.2644  -19.1105    0.0000 C   0  0  1  0  0  0
   -0.2682  -19.9375    0.0000 C   0  0  1  0  0  0
    0.4442  -20.3483    0.0000 C   0  0  2  0  0  0
    1.1606  -19.9442    0.0000 C   0  0
    1.1636  -19.1149    0.0000 C   0  0  1  0  0  0
    0.4520  -18.6940    0.0000 O   0  0
    1.1654  -18.2870    0.0000 C   0  0
    0.4495  -17.8697    0.0000 O   0  0
    0.4404  -21.1754    0.0000 O   0  0
   -0.9824  -20.3468    0.0000 N   0  0
   -0.9765  -18.6936    0.0000 C   0  0  1  0  0  0
   -0.9751  -17.8664    0.0000 C   0  0  1  0  0  0
   -0.9851  -21.1739    0.0000 C   0  0
   -1.7033  -21.5874    0.0000 C   0  0
   -0.2736  -21.5920    0.0000 O   0  0
   -1.6941  -19.1080    0.0000 O   0  0
   -0.2647  -18.2832    0.0000 H   0  0
   -1.6912  -17.4537    0.0000 C   0  0
   -0.2616  -17.4561    0.0000 O   0  0
    1.8702  -19.5277    0.0000 O   0  0
   -1.6918  -16.6306    0.0000 O   0  0
    6.1524  -14.6622    0.0000 C   0  0  1  0  0  0
    5.4449  -15.0906    0.0000 C   0  0  1  0  0  0
    5.4664  -15.9128    0.0000 C   0  0  2  0  0  0
    6.1848  -16.3130    0.0000 C   0  0
    6.8939  -15.8827    0.0000 C   0  0  1  0  0  0
    6.8816  -15.0559    0.0000 O   0  0
    7.6010  -15.4521    0.0000 C   0  0
    7.5833  -14.6237    0.0000 O   0  0
    4.7588  -16.3411    0.0000 O   0  0
    4.7231  -14.6951    0.0000 N   0  0
    6.1364  -13.8373    0.0000 C   0  0  1  0  0  0
    6.8428  -13.4068    0.0000 C   0  0  1  0  0  0
    4.0161  -15.1245    0.0000 C   0  0
    3.2886  -14.7275    0.0000 C   0  0
    4.0309  -15.9495    0.0000 O   0  0
    5.4085  -13.4414    0.0000 O   0  0
    6.8579  -14.2303    0.0000 H   0  0
    6.8212  -12.5805    0.0000 C   0  0
    7.5650  -13.8012    0.0000 O   0  0
    6.9104  -16.7008    0.0000 O   0  0
    2.5904  -19.1220    0.0000 C   0  0  2  0  0  0
    3.2997  -19.5391    0.0000 C   0  0  2  0  0  0
    4.0138  -19.1391    0.0000 C   0  0  1  0  0  0
    4.0247  -18.3162    0.0000 O   0  0
    3.3153  -17.8950    0.0000 C   0  0  1  0  0  0
    2.5951  -18.3008    0.0000 C   0  0  2  0  0  0
    1.8818  -17.8786    0.0000 O   0  0
    3.3246  -17.0678    0.0000 C   0  0
    2.6126  -16.6482    0.0000 O   0  0
    4.7216  -19.5591    0.0000 O   0  0
    3.2911  -20.3663    0.0000 O   0  0
    5.4434  -19.1561    0.0000 C   0  0  2  0  0  0
    6.1517  -19.5790    0.0000 C   0  0  2  0  0  0
    6.8713  -19.1795    0.0000 C   0  0  2  0  0  0
    6.8853  -18.3520    0.0000 O   0  0
    6.1735  -17.9258    0.0000 C   0  0  1  0  0  0
    5.4478  -18.3311    0.0000 C   0  0  2  0  0  0
    5.4369  -19.9809    0.0000 H   0  0
    4.7352  -17.9078    0.0000 O   0  0
    6.1860  -17.0988    0.0000 C   0  0
    7.5817  -19.6020    0.0000 O   0  0
    6.1387  -20.4062    0.0000 N   0  0
    6.8449  -20.8288    0.0000 C   0  0
    6.8319  -21.6518    0.0000 C   0  0
    7.5640  -20.4286    0.0000 O   0  0
    8.2998  -19.1999    0.0000 C   0  0  1  0  0  0
    9.0070  -19.6207    0.0000 C   0  0  2  0  0  0
    8.3105  -18.3770    0.0000 C   0  0
    8.9963  -20.4437    0.0000 N   0  0
    9.7252  -19.2186    0.0000 C   0  0
   10.4324  -19.6394    0.0000 O   0  0
    9.7359  -18.3955    0.0000 O   0  0
   11.1505  -19.2372    0.0000 C   0  0
    9.7036  -20.8644    0.0000 C   0  0
    9.6929  -21.6875    0.0000 C   0  0
   10.4216  -20.4623    0.0000 O   0  0
    8.3228  -15.8478    0.0000 O   0  5
    7.5228  -12.1504    0.0000 N   0  0
    1.1597  -17.4621    0.0000 O   0  5
    7.5012  -11.3277    0.0000 C   0  0
    8.2029  -10.8976    0.0000 O   0  0
    6.7780  -10.9350    0.0000 C   0  0
    6.7617  -10.1142    0.0000 C   0  0
    6.0392   -9.7216    0.0000 C   0  0
    5.3367  -10.1517    0.0000 C   0  0
    5.3610  -10.9786    0.0000 C   0  0
    6.0838  -11.3675    0.0000 C   0  0
    4.6128   -9.7601    0.0000 F   0  0
    0.8979  -15.5999    0.0000 Na  0  3
 23 24  1  0
 43 48  1  0
 44 45  1  0
 45 46  1  0
 46 47  1  0
 47 48  1  0
  3 11  1  1
 48 49  1  1
  2  7  1  0
 47 50  1  1
  2 12  1  0
 50 51  1  0
  3  4  1  0
 45 52  1  1
 43 21  1  1
 12 13  1  0
 44 53  1  6
 23 28  1  0
 54 52  1  0
 54 55  1  0
 24 25  1  0
 25 26  1  0
 26 27  1  0
 27 28  1  0
  4  5  1  0
 54 59  1  0
 55 56  1  0
 56 57  1  0
 57 58  1  0
 58 59  1  0
 27 29  1  1
 54 60  1  6
 11 14  1  0
 59 61  1  1
 29 30  2  0
 58 62  1  1
 62 42  1  0
  5  6  1  0
 56 63  1  6
 25 31  1  6
 55 64  1  6
 14 15  1  0
 64 65  1  0
 24 32  1  1
 65 66  1  0
  6  7  1  0
 65 67  2  0
 23 33  1  0
 63 68  1  0
 14 16  2  0
 68 69  1  0
 33 34  1  0
 68 70  1  6
 69 71  1  1
 32 35  1  0
 69 72  1  0
 12 17  1  6
 72 73  1  0
 35 36  1  0
 72 74  2  0
  6  8  1  1
 73 75  1  0
 35 37  2  0
 71 76  1  0
  2 18  1  1
 76 77  1  0
 33 38  1  6
 76 78  2  0
  2  3  1  0
 29 79  1  0
 23 39  1  1
 40 80  1  0
 13 19  1  0
  8 81  1  0
 34 40  1  0
 80 82  1  0
  8  9  2  0
 82 83  2  0
 34 41  1  1
 82 84  1  0
 13 20  1  1
 84 85  2  0
 27 42  1  0
 85 86  1  0
 86 87  2  0
 43 44  1  0
 87 88  1  0
  6 21  1  0
 88 89  2  0
 89 84  1  0
  4 10  1  6
 87 90  1  0
 19 22  1  0
M  CHG  4   1   1  79  -1  81  -1  91   1
M  END