
  SciTegic04201614442D

 29 33  0  0  0  0            999 V2000
   -2.3155    0.7475    0.0000 C   0  0
   -2.3155   -0.7475    0.0000 C   0  0
   -1.0028   -1.5132    0.0000 N   0  0
   -1.0028    1.5132    0.0000 C   0  0
    0.2917    0.7475    0.0000 C   0  0
    0.2917   -0.7475    0.0000 C   0  0
    1.7138   -1.2033    0.0000 N   0  0
    2.5889    0.0182    0.0000 N   0  0
    1.7138    1.2033    0.0000 C   0  0
   -3.6187   -1.4919    0.0000 O   0  0
   -3.6267   -2.9927    0.0000 C   0  0
   -4.9300   -3.7369    0.0000 C   0  0
   -4.9380   -5.2378    0.0000 N   0  0
   -5.9662   -3.1317    0.0000 O   0  0
   -6.2413   -5.9820    0.0000 C   0  0  1  0  0  0
    2.0907   -2.3426    0.0000 C   0  0
   -0.9991    2.7132    0.0000 C   0  0
    2.1749    2.6315    0.0000 C   0  0
   -8.5826   -6.4563    0.0000 C   0  0
   -7.5624   -5.3531    0.0000 C   0  0
   -7.8498   -7.7575    0.0000 C   0  0
   -6.3854   -7.4564    0.0000 C   0  0
   -5.3746   -8.5701    0.0000 C   0  0
   -5.8603  -10.0101    0.0000 C   0  0
   -7.3247  -10.3112    0.0000 C   0  0
   -8.3391   -9.1796    0.0000 N   0  0
   -7.7005  -11.4508    0.0000 C   0  0
    1.9486    4.0312    0.0000 C   0  0
    3.3328    3.4533    0.0000 C   0  0
  1  2  2  0
  2  3  1  0
  3  6  2  0
  5  4  2  0
  4  1  1  0
  5  6  1  0
  6  7  1  0
  7  8  1  0
  8  9  2  0
  9  5  1  0
  2 10  1  0
 10 11  1  0
 11 12  1  0
 12 13  1  0
 12 14  2  0
 15 13  1  6
  7 16  1  0
  4 17  1  0
  9 18  1  0
 15 22  1  0
 21 19  1  0
 19 20  1  0
 15 20  1  0
 21 22  2  0
 22 23  1  0
 23 24  2  0
 24 25  1  0
 25 26  2  0
 26 21  1  0
 25 27  1  0
 28 18  1  0
 29 28  1  0
 18 29  1  0
M  END