
  SciTegic01161211212D

 35 39  0  0  0  0            999 V2000
   -3.2715   -8.6620    0.0000 C   0  0
   -3.2732   -9.4902    0.0000 C   0  0
   -2.5572   -9.9029    0.0000 C   0  0
   -2.5600   -8.2494    0.0000 C   0  0
   -1.8431   -8.6565    0.0000 C   0  0
   -1.8449   -9.4864    0.0000 C   0  0
   -1.1316   -9.8993    0.0000 C   0  0
   -0.4139   -9.4894    0.0000 C   0  0
   -0.4122   -8.6595    0.0000 C   0  0
   -1.1322   -8.2439    0.0000 O   0  0
   -1.1351  -10.7240    0.0000 O   0  0
    0.3007   -8.2500    0.0000 C   0  0
    1.0123   -8.6677    0.0000 C   0  0
    1.0148   -7.0186    0.0000 C   0  0
    0.3031   -7.4307    0.0000 C   0  0
    1.7322   -7.4332    0.0000 C   0  0
    1.7220   -8.2582    0.0000 C   0  0
    2.4308   -8.6717    0.0000 O   0  0
    3.1485   -8.2675    0.0000 C   0  0
    3.1546   -7.4425    0.0000 C   0  0
    2.4430   -7.0220    0.0000 O   0  0
    3.8758   -7.0403    0.0000 C   0  0
    3.8580   -8.6901    0.0000 C   0  0
    3.8481   -9.5136    0.0000 C   0  0
    4.5605   -9.9318    0.0000 C   0  0
    5.2792   -9.5258    0.0000 C   0  0
    5.2831   -8.6989    0.0000 C   0  0
    4.5740   -8.2821    0.0000 C   0  0
    5.9981   -8.2891    0.0000 O   0  0
    6.7098   -8.7078    0.0000 C   0  0
    0.2999   -9.9005    0.0000 O   0  0
   -2.5547  -10.7276    0.0000 O   0  0
   -3.9829   -8.2500    0.0000 O   0  0
    3.8831   -6.2157    0.0000 O   0  0
    5.9895   -9.9427    0.0000 O   0  0
  4  1  1  0
  5  6  1  0
  5 10  1  0
  6  7  1  0
  7  8  1  0
  8  9  2  0
  9 10  1  0
  7 11  2  0
  9 12  1  0
 12 13  2  0
 13 17  1  0
 16 14  1  0
 14 15  2  0
 15 12  1  0
 16 17  2  0
 16 21  1  0
 17 18  1  0
 18 19  1  0
 19 20  1  0
 20 21  1  0
 20 22  1  0
 19 23  1  0
 23 24  2  0
 24 25  1  0
 25 26  2  0
 26 27  1  0
 27 28  2  0
 28 23  1  0
 27 29  1  0
 29 30  1  0
  1  2  2  0
  2  3  1  0
  3  6  2  0
  5  4  2  0
  8 31  1  0
  1 33  1  0
 22 34  1  0
  3 32  1  0
 26 35  1  0
M  END