
          11280714582D 1   1.00000     0.00000     0

 33 36  0     0  0            999 V2000
    4.2292   -6.6292    0.0000 N   0  0  3  0  0  0           0  0  0
    4.9500   -6.2167    0.0000 C   0  0  0  0  0  0           0  0  0
    6.3875  -10.3625    0.0000 C   0  0  0  0  0  0           0  0  0
    3.5167   -6.2167    0.0000 C   0  0  0  0  0  0           0  0  0
    5.0667  -10.6417    0.0000 N   0  0  0  0  0  0           0  0  0
    5.6292  -10.0250    0.0000 N   0  0  0  0  0  0           0  0  0
    5.4875  -11.3542    0.0000 N   0  0  0  0  0  0           0  0  0
    6.3000  -11.1875    0.0000 N   0  0  0  0  0  0           0  0  0
    5.6667   -6.6292    0.0000 C   0  0  0  0  0  0           0  0  0
    7.1042   -9.9417    0.0000 C   0  0  0  0  0  0           0  0  0
    7.1042   -9.1125    0.0000 C   0  0  0  0  0  0           0  0  0
    4.9500   -5.3917    0.0000 C   0  0  0  0  0  0           0  0  0
    4.2292   -4.9667    0.0000 C   0  0  3  0  0  0           0  0  0
    3.5167   -5.3917    0.0000 C   0  0  0  0  0  0           0  0  0
    4.2292   -7.4542    0.0000 C   0  0  0  0  0  0           0  0  0
    6.3875   -8.7042    0.0000 C   0  0  0  0  0  0           0  0  0
    2.8042   -6.6292    0.0000 O   0  0  0  0  0  0           0  0  0
    6.3875   -6.2167    0.0000 C   0  0  0  0  0  0           0  0  0
    6.3917   -5.3917    0.0000 O   0  0  0  0  0  0           0  0  0
    6.3792   -7.8667    0.0000 C   0  0  0  0  0  0           0  0  0
    5.6667   -9.1167    0.0000 C   0  0  0  0  0  0           0  0  0
    4.9542   -7.8750    0.0000 C   0  0  0  0  0  0           0  0  0
    5.6667   -7.4542    0.0000 C   0  0  0  0  0  0           0  0  0
    4.9500   -8.7042    0.0000 C   0  0  0  0  0  0           0  0  0
    7.8250  -10.3625    0.0000 C   0  0  0  0  0  0           0  0  0
    7.8167   -8.7000    0.0000 C   0  0  0  0  0  0           0  0  0
    3.5167   -4.5542    0.0000 C   0  0  0  0  0  0           0  0  0
    4.9500   -4.5542    0.0000 C   0  0  0  0  0  0           0  0  0
    7.1000   -6.6292    0.0000 C   0  0  0  0  0  0           0  0  0
    3.5250   -3.7292    0.0000 C   0  0  0  0  0  0           0  0  0
    4.9542   -3.7375    0.0000 C   0  0  0  0  0  0           0  0  0
    8.5292   -9.1042    0.0000 C   0  0  0  0  0  0           0  0  0
    8.5375   -9.9417    0.0000 C   0  0  0  0  0  0           0  0  0
  2  1  1  0     0  0
  3 10  1  0     0  0
  4  1  1  0     0  0
  5  6  2  0     0  0
  6  3  1  0     0  0
  7  8  1  0     0  0
  8  3  2  0     0  0
  9  2  2  0     0  0
 10 11  2  0     0  0
 11 16  1  0     0  0
 12  2  1  0     0  0
 13 14  1  0     0  0
 14  4  1  0     0  0
 15  1  1  0     0  0
 16 21  2  0     0  0
 17  4  2  0     0  0
 18  9  1  0     0  0
 19 18  2  0     0  0
 20 23  2  0     0  0
 21 24  1  0     0  0
 22 15  1  0     0  0
 23 22  1  0     0  0
 24 22  2  0     0  0
 25 10  1  0     0  0
 26 11  1  0     0  0
 27 13  1  0     0  0
 28 13  1  0     0  0
 29 18  1  0     0  0
 30 27  1  0     0  0
 31 28  1  0     0  0
 32 26  2  0     0  0
 33 32  1  0     0  0
 13 12  1  0     0  0
 16 20  1  0     0  0
 33 25  2  0     0  0
  7  5  1  0     0  0
M  END