
          11280715102D 1   1.00000     0.00000     0

 23 26  0     0  0            999 V2000
    2.7917   -4.4667    0.0000 N   0  0  3  0  0  0           0  0  0
    2.7917   -3.6417    0.0000 C   0  0  0  0  0  0           0  0  0
    3.5042   -4.8750    0.0000 C   0  0  0  0  0  0           0  0  0
    4.9500   -5.6667    0.0000 C   0  0  0  0  0  0           0  0  0
    5.7292   -5.9042    0.0000 N   0  0  3  0  0  0           0  0  0
    4.9292   -4.8542    0.0000 C   0  0  0  0  0  0           0  0  0
    4.2167   -4.4542    0.0000 C   0  0  0  0  0  0           0  0  0
    3.5167   -5.6917    0.0000 C   0  0  0  0  0  0           0  0  0
    4.2375   -6.1000    0.0000 C   0  0  0  0  0  0           0  0  0
    6.2000   -5.2375    0.0000 C   0  0  0  0  0  0           0  0  0
    2.0667   -3.2375    0.0000 N   0  0  0  0  0  0           0  0  0
    5.7042   -4.5792    0.0000 C   0  0  0  0  0  0           0  0  0
    3.5042   -3.2292    0.0000 O   0  0  0  0  0  0           0  0  0
    0.6417   -4.8917    0.0000 N   0  0  0  0  0  0           0  0  0
    2.0792   -4.8792    0.0000 C   0  0  0  0  0  0           0  0  0
    1.3625   -3.6542    0.0000 C   0  0  0  0  0  0           0  0  0
    6.0042   -6.6875    0.0000 C   0  0  0  0  0  0           0  0  0
    2.7917   -6.1167    0.0000 C   0  0  0  0  0  0           0  0  0
    1.3625   -4.4792    0.0000 C   0  0  0  0  0  0           0  0  0
    2.0792   -5.7042    0.0000 C   0  0  0  0  0  0           0  0  0
   -0.0708   -4.4792    0.0000 C   0  0  0  0  0  0           0  0  0
    0.6417   -3.2417    0.0000 C   0  0  0  0  0  0           0  0  0
   -0.0708   -3.6542    0.0000 C   0  0  0  0  0  0           0  0  0
  2  1  1  0     0  0
  3  1  1  0     0  0
  4  9  1  0     0  0
  5  4  1  0     0  0
  6  7  1  0     0  0
  7  3  2  0     0  0
  8  3  1  0     0  0
  9  8  2  0     0  0
 10 12  2  0     0  0
 11  2  1  0     0  0
 12  6  1  0     0  0
 13  2  2  0     0  0
 14 19  2  0     0  0
 15  1  1  0     0  0
 16 11  1  0     0  0
 17  5  1  0     0  0
 18 20  1  0     0  0
 19 16  1  0     0  0
 20 15  1  0     0  0
 21 23  2  0     0  0
 22 16  2  0     0  0
 23 22  1  0     0  0
 18  8  1  0     0  0
  4  6  2  0     0  0
 10  5  1  0     0  0
 14 21  1  0     0  0
M  END