
  Mrv0541 04051115152D          

 45 49  0  0  0  0            999 V2000
    0.7649   -0.0730    0.0000 N   0  0  0  0  0  0  0  0  0  0  0  0
    0.0832   -0.5378    0.0000 S   0  0  0  0  0  0  0  0  0  0  0  0
   -0.7051   -0.2946    0.0000 N   0  0  0  0  0  0  0  0  0  0  0  0
   -1.0065    0.4734    0.0000 C   0  0  1  0  0  0  0  0  0  0  0  0
   -0.5940    1.1878    0.0000 C   0  0  1  0  0  0  0  0  0  0  0  0
    0.2218    1.3108    0.0000 C   0  0  2  0  0  0  0  0  0  0  0  0
    0.8265    0.7497    0.0000 C   0  0  1  0  0  0  0  0  0  0  0  0
    1.4794   -0.4855    0.0000 C   0  0  0  0  0  0  0  0  0  0  0  0
    1.4794   -1.3105    0.0000 C   0  0  0  0  0  0  0  0  0  0  0  0
    2.1938   -1.7230    0.0000 C   0  0  0  0  0  0  0  0  0  0  0  0
    2.1938   -2.5480    0.0000 C   0  0  0  0  0  0  0  0  0  0  0  0
    1.4794   -2.9605    0.0000 C   0  0  0  0  0  0  0  0  0  0  0  0
    0.7649   -2.5480    0.0000 C   0  0  0  0  0  0  0  0  0  0  0  0
    0.7649   -1.7230    0.0000 C   0  0  0  0  0  0  0  0  0  0  0  0
    0.5632   -1.2088    0.0000 O   0  0  0  0  0  0  0  0  0  0  0  0
   -2.1872    1.2783    0.0000 O   0  0  0  0  0  0  0  0  0  0  0  0
   -3.0099    1.3400    0.0000 C   0  0  0  0  0  0  0  0  0  0  0  0
   -3.4746    0.6583    0.0000 C   0  0  0  0  0  0  0  0  0  0  0  0
   -4.2973    0.7200    0.0000 C   0  0  0  0  0  0  0  0  0  0  0  0
   -4.6552    1.4633    0.0000 C   0  0  0  0  0  0  0  0  0  0  0  0
   -4.1905    2.1449    0.0000 C   0  0  0  0  0  0  0  0  0  0  0  0
   -3.3678    2.0833    0.0000 C   0  0  0  0  0  0  0  0  0  0  0  0
   -1.2662   -0.8994    0.0000 C   0  0  0  0  0  0  0  0  0  0  0  0
   -2.0706   -0.7158    0.0000 C   0  0  0  0  0  0  0  0  0  0  0  0
   -2.6317   -1.3206    0.0000 C   0  0  0  0  0  0  0  0  0  0  0  0
   -3.4360   -1.1370    0.0000 C   0  0  0  0  0  0  0  0  0  0  0  0
   -3.6792   -0.3486    0.0000 C   0  0  0  0  0  0  0  0  0  0  0  0
   -3.1181    0.2561    0.0000 C   0  0  0  0  0  0  0  0  0  0  0  0
   -2.3137    0.0726    0.0000 C   0  0  0  0  0  0  0  0  0  0  0  0
   -1.0588    1.8695    0.0000 O   0  0  0  0  0  0  0  0  0  0  0  0
    0.4649    2.0992    0.0000 O   0  0  0  0  0  0  0  0  0  0  0  0
    1.5945    1.0511    0.0000 C   0  0  0  0  0  0  0  0  0  0  0  0
    1.7175    1.8669    0.0000 O   0  0  0  0  0  0  0  0  0  0  0  0
    2.4854    2.1683    0.0000 C   0  0  0  0  0  0  0  0  0  0  0  0
    2.6084    2.9840    0.0000 C   0  0  0  0  0  0  0  0  0  0  0  0
    3.3764    3.2855    0.0000 C   0  0  0  0  0  0  0  0  0  0  0  0
    4.0214    2.7711    0.0000 C   0  0  0  0  0  0  0  0  0  0  0  0
    3.8984    1.9553    0.0000 C   0  0  0  0  0  0  0  0  0  0  0  0
    3.1305    1.6539    0.0000 C   0  0  0  0  0  0  0  0  0  0  0  0
   -0.1776   -1.3205    0.0000 O   0  0  0  0  0  0  0  0  0  0  0  0
   -1.8292    0.5350    0.0000 C   0  0  0  0  0  0  0  0  0  0  0  0
    2.9083   -2.9605    0.0000 C   0  0  0  0  0  0  0  0  0  0  0  0
    3.6228   -2.5480    0.0000 O   0  0  0  0  0  0  0  0  0  0  0  0
    2.9083   -3.7855    0.0000 N   0  0  0  0  0  0  0  0  0  0  0  0
    3.6228   -4.1980    0.0000 C   0  0  0  0  0  0  0  0  0  0  0  0
  1  2  1  0  0  0  0
  7  1  1  0  0  0  0
  8  1  1  0  0  0  0
  3  2  1  0  0  0  0
 15  2  2  0  0  0  0
 40  2  2  0  0  0  0
  4  3  1  0  0  0  0
 23  3  1  0  0  0  0
  4  5  1  0  0  0  0
  4 41  1  6  0  0  0
  5  6  1  0  0  0  0
  5 30  1  6  0  0  0
  6  7  1  0  0  0  0
  6 31  1  1  0  0  0
  7 32  1  1  0  0  0
  8  9  1  0  0  0  0
  9 10  2  0  0  0  0
  9 14  1  0  0  0  0
 10 11  1  0  0  0  0
 11 12  2  0  0  0  0
 11 42  1  0  0  0  0
 12 13  1  0  0  0  0
 13 14  2  0  0  0  0
 17 16  1  0  0  0  0
 41 16  1  0  0  0  0
 17 18  2  0  0  0  0
 17 22  1  0  0  0  0
 18 19  1  0  0  0  0
 19 20  2  0  0  0  0
 20 21  1  0  0  0  0
 21 22  2  0  0  0  0
 23 24  1  0  0  0  0
 24 25  2  0  0  0  0
 24 29  1  0  0  0  0
 25 26  1  0  0  0  0
 26 27  2  0  0  0  0
 27 28  1  0  0  0  0
 28 29  2  0  0  0  0
 32 33  1  0  0  0  0
 34 33  1  0  0  0  0
 34 35  2  0  0  0  0
 34 39  1  0  0  0  0
 35 36  1  0  0  0  0
 36 37  2  0  0  0  0
 37 38  1  0  0  0  0
 38 39  2  0  0  0  0
 42 43  2  0  0  0  0
 42 44  1  0  0  0  0
 45 44  1  0  0  0  0
M  END