
          11280715192D 1   1.00000     0.00000     0

 16 17  0     0  0            999 V2000
   -0.4208   -3.8667    0.0000 N   0  0  3  0  0  0           0  0  0
   -0.8208   -3.4250    0.0000 C   0  0  0  0  0  0           0  0  0
   -0.7250   -4.3792    0.0000 C   0  0  0  0  0  0           0  0  0
   -1.3625   -3.6625    0.0000 N   0  0  0  0  0  0           0  0  0
    0.5375   -4.2917    0.0000 C   0  0  0  0  0  0           0  0  0
    0.8917   -4.7792    0.0000 C   0  0  0  0  0  0           0  0  0
   -1.3000   -4.2542    0.0000 C   0  0  0  0  0  0           0  0  0
    1.8500   -5.2125    0.0000 N   0  0  3  0  0  0           0  0  0
   -0.6875   -2.8292    0.0000 O   0  0  0  0  0  0           0  0  0
   -0.4333   -4.8917    0.0000 O   0  0  0  0  0  0           0  0  0
    0.1792   -3.8042    0.0000 C   0  0  0  0  0  0           0  0  0
    1.2500   -5.2667    0.0000 C   0  0  0  0  0  0           0  0  0
    2.0917   -4.6667    0.0000 C   0  0  0  0  0  0           0  0  0
    2.2875   -5.6125    0.0000 C   0  0  0  0  0  0           0  0  0
    2.8042   -5.3167    0.0000 C   0  0  0  0  0  0           0  0  0
    2.6792   -4.7375    0.0000 C   0  0  0  0  0  0           0  0  0
  2  1  1  0     0  0
  3  1  1  0     0  0
  4  2  1  0     0  0
  5 11  1  0     0  0
  6  5  3  0     0  0
  7  3  1  0     0  0
  8 12  1  0     0  0
  9  2  2  0     0  0
 10  3  2  0     0  0
 11  1  1  0     0  0
 12  6  1  0     0  0
 13  8  1  0     0  0
 14  8  1  0     0  0
 15 14  1  0     0  0
 16 13  1  0     0  0
  7  4  1  0     0  0
 16 15  1  0     0  0
M  END