
          11280715212D 1   1.00000     0.00000     0

 14 14  0     0  0            999 V2000
    5.4500   -0.7667    0.0000 C   0  0  0  0  0  0           0  0  0
    6.1667   -2.0125    0.0000 C   0  0  0  0  0  0           0  0  0
    6.1667   -1.1792    0.0000 C   0  0  0  0  0  0           0  0  0
    4.7375   -2.0125    0.0000 C   0  0  0  0  0  0           0  0  0
    5.4500   -2.4250    0.0000 C   0  0  0  0  0  0           0  0  0
    4.7375   -1.1875    0.0000 C   0  0  0  0  0  0           0  0  0
    5.4417    0.0583    0.0000 C   0  0  0  0  0  0           0  0  0
    4.0167   -2.4250    0.0000 C   0  0  0  0  0  0           0  0  0
    3.3125   -2.8375    0.0000 N   0  0  0  0  0  0           0  0  0
    4.7292    0.4625    0.0000 O   0  0  0  0  0  0           0  0  0
    6.8792   -2.4250    0.0000 Br  0  0  0  0  0  0           0  0  0
    5.4500   -3.2500    0.0000 N   0  0  0  0  0  0           0  0  0
    6.8792   -0.7667    0.0000 O   0  0  0  0  0  0           0  0  0
    6.1625    0.4708    0.0000 O   0  0  0  0  0  0           0  0  0
  2  3  1  0     0  0
  3  1  2  0     0  0
  4  6  2  0     0  0
  5  4  1  0     0  0
  6  1  1  0     0  0
  7  1  1  0     0  0
  8  4  1  0     0  0
  9  8  3  0     0  0
 10  7  2  0     0  0
 11  2  1  0     0  0
 12  5  1  0     0  0
 13  3  1  0     0  0
 14  7  1  0     0  0
  5  2  2  0     0  0
M  END