
  CDK    9/16/09,10:1

 39 43  0  0  0  0  0  0  0  0999 V2000
    0.4476  -23.9467    0.0000 N   0  0  0  0  0  0  0  0  0  0  0  0
    0.4462  -24.7743    0.0000 C   0  0  0  0  0  0  0  0  0  0  0  0
    1.1592  -25.1871    0.0000 N   0  0  0  0  0  0  0  0  0  0  0  0
    1.1573  -23.5339    0.0000 C   0  0  0  0  0  0  0  0  0  0  0  0
    1.8754  -23.9427    0.0000 C   0  0  0  0  0  0  0  0  0  0  0  0
    1.8760  -24.7743    0.0000 C   0  0  0  0  0  0  0  0  0  0  0  0
    2.6669  -25.0307    0.0000 N   0  0  0  0  0  0  0  0  0  0  0  0
    3.1553  -24.3576    0.0000 C   0  0  0  0  0  0  0  0  0  0  0  0
    2.6660  -23.6852    0.0000 C   0  0  0  0  0  0  0  0  0  0  0  0
   -0.2687  -25.1856    0.0000 N   0  0  0  0  0  0  0  0  0  0  0  0
    1.1534  -22.7089    0.0000 N   0  0  0  0  0  0  0  0  0  0  0  0
   -0.2699  -26.0106    0.0000 C   0  0  0  0  0  0  0  0  0  0  0  0
    1.8658  -22.2931    0.0000 C   0  0  0  0  0  0  0  0  0  0  0  0
   -0.9842  -26.4227    0.0000 C   0  0  0  0  0  0  0  0  0  0  0  0
   -0.9858  -27.2469    0.0000 C   0  0  0  0  0  0  0  0  0  0  0  0
    0.4440  -26.4225    0.0000 C   0  0  0  0  0  0  0  0  0  0  0  0
    2.5808  -22.7053    0.0000 C   0  0  0  0  0  0  0  0  0  0  0  0
    3.2928  -22.2901    0.0000 C   0  0  0  0  0  0  0  0  0  0  0  0
    3.2894  -21.4643    0.0000 C   0  0  0  0  0  0  0  0  0  0  0  0
    2.5680  -21.0553    0.0000 C   0  0  0  0  0  0  0  0  0  0  0  0
    1.8590  -21.4728    0.0000 C   0  0  0  0  0  0  0  0  0  0  0  0
   -1.6982  -26.0095    0.0000 O   0  0  0  0  0  0  0  0  0  0  0  0
   -1.6973  -25.1845    0.0000 C   0  0  0  0  0  0  0  0  0  0  0  0
    1.1411  -21.0663    0.0000 C   0  0  0  0  0  0  0  0  0  0  0  0
    1.1340  -20.2415    0.0000 N   0  0  0  0  0  0  0  0  0  0  0  0
    0.4302  -21.4849    0.0000 O   0  0  0  0  0  0  0  0  0  0  0  0
    2.5613  -20.2304    0.0000 F   0  0  0  0  0  0  0  0  0  0  0  0
    0.4460  -27.2454    0.0000 C   0  0  0  0  0  0  0  0  0  0  0  0
   -0.2671  -27.6613    0.0000 C   0  0  0  0  0  0  0  0  0  0  0  0
   -0.0920  -28.4681    0.0000 C   0  0  0  0  0  0  0  0  0  0  0  0
    0.7296  -28.5508    0.0000 C   0  0  0  0  0  0  0  0  0  0  0  0
    1.0620  -27.7951    0.0000 N   0  0  0  0  0  0  0  0  0  0  0  0
    1.8837  -27.7920    0.0000 C   0  0  0  0  0  0  0  0  0  0  0  0
    2.2989  -28.5047    0.0000 C   0  0  0  0  0  0  0  0  0  0  0  0
    2.2934  -27.0759    0.0000 O   0  0  0  0  0  0  0  0  0  0  0  0
    3.1238  -28.5015    0.0000 N   0  0  0  0  0  0  0  0  0  0  0  0
    3.5391  -29.2144    0.0000 C   0  0  0  0  0  0  0  0  0  0  0  0
    3.5336  -27.7855    0.0000 C   0  0  0  0  0  0  0  0  0  0  0  0
    0.4162  -19.8351    0.0000 C   0  0  0  0  0  0  0  0  0  0  0  0
 17 18  1  0  0  0  0 
  8  9  2  0  0  0  0 
 18 19  2  0  0  0  0 
  9  5  1  0  0  0  0 
 19 20  1  0  0  0  0 
  4  1  1  0  0  0  0 
 20 21  2  0  0  0  0 
 21 13  1  0  0  0  0 
  2 10  1  0  0  0  0 
 14 22  1  0  0  0  0 
  5  6  1  0  0  0  0 
 22 23  1  0  0  0  0 
  4 11  1  0  0  0  0 
 21 24  1  0  0  0  0 
 24 25  1  0  0  0  0 
 10 12  1  0  0  0  0 
 24 26  2  0  0  0  0 
  2  3  1  0  0  0  0 
 20 27  1  0  0  0  0 
 28 29  1  0  0  0  0 
 11 13  1  0  0  0  0 
  3  6  2  0  0  0  0 
 12 14  2  0  0  0  0 
  1  2  2  0  0  0  0 
 14 15  1  0  0  0  0 
 29 30  1  0  0  0  0 
 30 31  1  0  0  0  0 
 31 32  1  0  0  0  0 
 32 28  1  0  0  0  0 
 15 29  2  0  0  0  0 
 32 33  1  0  0  0  0 
  5  4  2  0  0  0  0 
 33 34  1  0  0  0  0 
 28 16  2  0  0  0  0 
 33 35  2  0  0  0  0 
 16 12  1  0  0  0  0 
 34 36  1  0  0  0  0 
  6  7  1  0  0  0  0 
 36 37  1  0  0  0  0 
 13 17  2  0  0  0  0 
 36 38  1  0  0  0  0 
  7  8  1  0  0  0  0 
 25 39  1  0  0  0  0 
M  END