
          11280715102D 1   1.00000     0.00000     0

 26 28  0     0  0            999 V2000
    2.5667    1.8833    0.0000 N   0  0  0  0  0  0           0  0  0
    2.7292    1.0708    0.0000 C   0  0  0  0  0  0           0  0  0
    3.8875    1.7333    0.0000 C   0  0  3  0  0  0           0  0  0
    2.0167    0.6500    0.0000 C   0  0  0  0  0  0           0  0  0
    3.2792    2.2833    0.0000 O   0  0  0  0  0  0           0  0  0
    3.5542    0.9750    0.0000 C   0  0  0  0  0  0           0  0  0
    4.6917    1.9083    0.0000 C   0  0  0  0  0  0           0  0  0
    2.0167   -0.1792    0.0000 C   0  0  0  0  0  0           0  0  0
    1.2917    1.0625    0.0000 C   0  0  0  0  0  0           0  0  0
    2.7292   -0.5917    0.0000 O   0  0  0  0  0  0           0  0  0
    4.9542    2.6958    0.0000 O   0  0  0  0  0  0           0  0  0
    1.3000   -0.5917    0.0000 C   0  0  0  0  0  0           0  0  0
    0.5792    0.6500    0.0000 C   0  0  0  0  0  0           0  0  0
    2.7292   -1.4167    0.0000 C   0  0  0  0  0  0           0  0  0
    5.2500    1.2958    0.0000 O   0  0  0  0  0  0           0  0  0
    2.0042   -1.8375    0.0000 C   0  0  0  0  0  0           0  0  0
    0.5792   -2.6625    0.0000 C   0  0  0  0  0  0           0  0  0
    0.5792   -0.1792    0.0000 C   0  0  0  0  0  0           0  0  0
   -0.1333    1.0583    0.0000 Br  0  0  0  0  0  0           0  0  0
    1.2917   -1.4250    0.0000 C   0  0  0  0  0  0           0  0  0
    2.0042   -2.6625    0.0000 C   0  0  0  0  0  0           0  0  0
    1.2917   -3.0750    0.0000 C   0  0  0  0  0  0           0  0  0
    0.5792   -1.8375    0.0000 C   0  0  0  0  0  0           0  0  0
   -0.1333   -3.0750    0.0000 O   0  0  0  0  0  0           0  0  0
    6.0417    1.5083    0.0000 C   0  0  0  0  0  0           0  0  0
   -0.1333   -3.9000    0.0000 C   0  0  0  0  0  0           0  0  0
  2  1  2  0     0  0
  3  5  1  0     0  0
  4  2  1  0     0  0
  5  1  1  0     0  0
  6  2  1  0     0  0
  7  3  1  0     0  0
  8  4  1  0     0  0
  9  4  2  0     0  0
 10  8  1  0     0  0
 11  7  2  0     0  0
 12  8  2  0     0  0
 13  9  1  0     0  0
 14 10  1  0     0  0
 15  7  1  0     0  0
 16 14  1  0     0  0
 17 22  1  0     0  0
 18 13  2  0     0  0
 19 13  1  0     0  0
 20 16  2  0     0  0
 21 16  1  0     0  0
 22 21  2  0     0  0
 23 20  1  0     0  0
 24 17  1  0     0  0
 25 15  1  0     0  0
 26 24  1  0     0  0
  3  6  1  0     0  0
 12 18  1  0     0  0
 17 23  2  0     0  0
M  END