
  CDK    9/16/09,9:46

 27 28  0  0  0  0  0  0  0  0999 V2000
    0.2450    0.2893    0.0000 O   0  0  0  0  0  0  0  0  0  0  0  0
    0.9555   -0.1180    0.0000 P   0  0  0  0  0  0  0  0  0  0  0  0
    0.5461   -0.8369    0.0000 O   0  0  0  0  0  0  0  0  0  0  0  0
    1.3673    0.6021    0.0000 O   0  0  0  0  0  0  0  0  0  0  0  0
    1.6770   -0.5264    0.0000 O   0  0  0  0  0  0  0  0  0  0  0  0
    2.3871   -0.1127    0.0000 P   0  0  0  0  0  0  0  0  0  0  0  0
    1.9687    0.6020    0.0000 O   0  0  0  0  0  0  0  0  0  0  0  0
    2.8063   -0.8247    0.0000 O   0  0  0  0  0  0  0  0  0  0  0  0
    3.1025    0.3067    0.0000 O   0  0  0  0  0  0  0  0  0  0  0  0
    3.0997    1.1289    0.0000 P   0  0  0  0  0  0  0  0  0  0  0  0
    2.2770    1.1263    0.0000 O   0  0  0  0  0  0  0  0  0  0  0  0
    3.9233    1.1314    0.0000 O   0  0  0  0  0  0  0  0  0  0  0  0
    3.0972    1.9521    0.0000 O   0  0  0  0  0  0  0  0  0  0  0  0
   -3.7990    1.1952    0.0000 N   0  0  0  0  0  0  0  0  0  0  0  0
   -2.9744    1.1954    0.0000 C   0  0  0  0  0  0  0  0  0  0  0  0
   -2.5600    1.9038    0.0000 N   0  0  0  0  0  0  0  0  0  0  0  0
   -2.9713    2.6221    0.0000 C   0  0  0  0  0  0  0  0  0  0  0  0
   -3.8018    2.6193    0.0000 C   0  0  0  0  0  0  0  0  0  0  0  0
   -4.2133    1.9042    0.0000 C   0  0  0  0  0  0  0  0  0  0  0  0
   -2.5506    0.4773    0.0000 O   0  0  0  0  0  0  0  0  0  0  0  0
   -5.0360    1.9042    0.0000 N   0  0  0  0  0  0  0  0  0  0  0  0
   -1.7332    1.9038    0.0000 C   0  0  0  0  0  0  0  0  0  0  0  0
   -1.2243    1.2644    0.0000 O   0  0  0  0  0  0  0  0  0  0  0  0
   -0.4540    1.5579    0.0000 C   0  0  0  0  0  0  0  0  0  0  0  0
   -0.4920    2.3679    0.0000 S   0  0  0  0  0  0  0  0  0  0  0  0
   -1.2813    2.5887    0.0000 C   0  0  0  0  0  0  0  0  0  0  0  0
    0.2446    1.1100    0.0000 C   0  0  0  0  0  0  0  0  0  0  0  0
  1  2  1  0  0  0  0 
  2  3  1  0  0  0  0 
  2  4  2  0  0  0  0 
  2  5  1  0  0  0  0 
  5  6  1  0  0  0  0 
  6  7  2  0  0  0  0 
  6  8  1  0  0  0  0 
  6  9  1  0  0  0  0 
  9 10  1  0  0  0  0 
 10 11  2  0  0  0  0 
 10 12  1  0  0  0  0 
 10 13  1  0  0  0  0 
 14 15  1  0  0  0  0 
 15 16  1  0  0  0  0 
 16 17  1  0  0  0  0 
 17 18  2  0  0  0  0 
 18 19  1  0  0  0  0 
 19 14  2  0  0  0  0 
 15 20  2  0  0  0  0 
 19 21  1  0  0  0  0 
 22 16  1  6  0  0  0 
 22 23  1  0  0  0  0 
 23 24  1  0  0  0  0 
 24 25  1  0  0  0  0 
 25 26  1  0  0  0  0 
 26 22  1  0  0  0  0 
 24 27  1  6  0  0  0 
  1 27  1  0  0  0  0 
M  END