
  SciTegic11111309142D

 28 30  0  0  0  0            999 V2000
    0.7363  -22.9169    0.0000 N   0  0
    0.7363  -23.7447    0.0000 C   0  0
    1.4552  -24.1566    0.0000 C   0  0
    2.1699  -23.7447    0.0000 N   0  0
    2.1699  -22.9169    0.0000 C   0  0
    1.4552  -22.5050    0.0000 C   0  0
    0.0216  -22.5050    0.0000 C   0  0
    0.0216  -21.6772    0.0000 O   0  0
   -1.4121  -22.5050    0.0000 C   0  0
    2.8847  -24.1566    0.0000 C   0  0
    2.8847  -24.9844    0.0000 C   0  0  2  0  0  0
    2.1699  -25.3963    0.0000 N   0  0
    2.1699  -26.2241    0.0000 C   0  0
    2.8847  -26.6360    0.0000 C   0  0
    3.5994  -26.2241    0.0000 N   0  0
    3.5994  -25.3963    0.0000 C   0  0
    4.3141  -26.6360    0.0000 C   0  0
   -1.4121  -21.6772    0.0000 C   0  0
   -2.1267  -21.2653    0.0000 C   0  0
   -2.8415  -21.6772    0.0000 C   0  0
   -2.8415  -22.5050    0.0000 C   0  0
   -2.1267  -22.9169    0.0000 C   0  0
   -3.5563  -21.2653    0.0000 Cl  0  0
   -3.5563  -22.9169    0.0000 Cl  0  0
    4.3141  -27.4638    0.0000 C   0  0
    3.5994  -23.7447    0.0000 O   0  0
   -0.6931  -22.9169    0.0000 N   0  0
    5.0274  -26.2238    0.0000 C   0  0
  2  3  1  0
 27  9  1  0
  3  4  1  0
  4 10  1  0
  4  5  1  0
 11 10  1  1
  5  6  1  0
 11 12  1  0
  1  7  1  0
  1  2  1  0
  7  8  2  0
  1  6  1  0
 11 16  1  0
 12 13  1  0
 13 14  1  0
 14 15  1  0
 15 16  1  0
 15 17  1  0
  9 18  2  0
 18 19  1  0
 19 20  2  0
 20 21  1  0
 21 22  2  0
 22  9  1  0
 20 23  1  0
 21 24  1  0
 17 25  1  0
 10 26  2  0
  7 27  1  0
 17 28  1  0
M  END