
  SciTegic07111213592D

 45 49  0  0  0  0            999 V2000
    4.4720  -15.8189    0.0000 N   0  0
    5.8966  -15.8261    0.0000 C   0  0
    5.1862  -15.4067    0.0000 C   0  0
    3.0959  -14.1261    0.0000 C   0  0
    3.7998  -14.5599    0.0000 C   0  0
    3.7761  -15.3865    0.0000 C   0  0
    6.6309  -15.4686    0.0000 C   0  0
    7.3307  -15.9024    0.0000 N   0  0
    6.6504  -14.6420    0.0000 O   0  0
    7.3027  -16.7252    0.0000 C   0  0
    7.9984  -17.1588    0.0000 C   0  0
    8.7283  -16.7696    0.0000 N   0  0
    8.7540  -15.9421    0.0000 C   0  0
    8.0498  -15.5039    0.0000 C   0  0
    9.4235  -17.2052    0.0000 C   0  0
    9.3952  -18.0327    0.0000 C   0  0
   10.0967  -18.4691    0.0000 C   0  0
   10.8227  -18.0791    0.0000 C   0  0
   10.8469  -17.2483    0.0000 C   0  0
   10.1489  -16.8156    0.0000 C   0  0
   11.5267  -18.5166    0.0000 N   0  3
   12.2511  -18.1256    0.0000 O   0  0
   11.5010  -19.3430    0.0000 O   0  5
    4.5233  -14.1672    0.0000 C   0  0
    2.3723  -14.5188    0.0000 C   0  0
    1.6720  -14.0828    0.0000 C   0  0
    1.6297  -15.7361    0.0000 C   0  0
    2.3539  -15.3416    0.0000 C   0  0
    0.9249  -15.3023    0.0000 C   0  0
    0.9482  -14.4767    0.0000 C   0  0
    4.4678  -16.6457    0.0000 C   0  0
    5.8925  -16.6530    0.0000 C   0  0
    5.1751  -17.0619    0.0000 C   0  0
    5.1706  -17.8831    0.0000 C   0  0
    5.8818  -18.3016    0.0000 C   0  0
    6.5992  -17.8926    0.0000 C   0  0
    6.6054  -17.0652    0.0000 C   0  0
    1.6078  -16.5608    0.0000 C   0  0
    0.8827  -16.9543    0.0000 O   0  0
    2.3111  -16.9921    0.0000 O   0  0
    0.8609  -17.7790    0.0000 C   0  0
    0.2450  -14.0453    0.0000 C   0  0
    0.2670  -13.2206    0.0000 O   0  0
   -0.4803  -14.4385    0.0000 O   0  0
   -1.1835  -14.0071    0.0000 C   0  0
  5 24  1  0
  5  6  1  0
  4 25  1  0
  6  1  1  0
 25 26  2  0
 26 30  1  0
  8 14  1  0
 29 27  1  0
 10 11  1  0
 27 28  2  0
 28 25  1  0
 29 30  2  0
 11 12  1  0
 12 13  1  0
 13 14  1  0
 32  2  1  0
  2  7  1  0
 33 31  1  0
 15 16  2  0
  2  3  1  0
 32 33  1  0
 16 17  1  0
  7  8  1  0
 17 18  2  0
  1 31  1  0
 18 19  1  0
  7  9  2  0
 32 37  1  0
 33 34  1  0
 34 35  1  0
 35 36  1  0
 36 37  1  0
 19 20  2  0
 20 15  1  0
 27 38  1  0
 12 15  1  0
 38 39  1  0
  8 10  1  0
 38 40  2  0
  4  5  1  0
 39 41  1  0
 21 22  2  0
 30 42  1  0
 21 23  1  0
 42 43  2  0
 18 21  1  0
 42 44  1  0
  1  3  1  0
 44 45  1  0
M  CHG  2  21   1  23  -1
M  END