
  SciTegic07061118172D

 46 51  0  0  0  0            999 V2000
    1.5070  -21.0637    0.0000 C   0  0
    2.2236  -21.4742    0.0000 C   0  0
    2.2229  -22.2980    0.0000 C   0  0
    2.9385  -22.7084    0.0000 C   0  0
    3.6534  -22.2932    0.0000 C   0  0
    3.6481  -21.4631    0.0000 C   0  0
    2.9317  -21.0563    0.0000 C   0  0
    4.3704  -22.7028    0.0000 O   0  0
    5.0837  -22.2866    0.0000 C   0  0
    5.8008  -22.6962    0.0000 C   0  0
    6.5140  -22.2801    0.0000 C   0  0
    7.2311  -22.6897    0.0000 N   0  0
    7.1767  -23.5440    0.0000 C   0  0
    7.7839  -24.0764    0.0000 C   0  0
    7.9187  -22.2273    0.0000 C   0  0
    8.7012  -22.4851    0.0000 C   0  0
    8.9999  -23.2913    0.0000 C   0  0
    8.5891  -23.9682    0.0000 C   0  0
   -1.0469  -23.5815    0.0000 C   0  0
   -0.2211  -23.5815    0.0000 C   0  0
    0.0359  -22.7965    0.0000 C   0  0
   -0.6341  -22.3094    0.0000 N   0  0
   -1.2997  -22.7965    0.0000 C   0  0  1  0  0  0
   -5.6769  -25.2663    0.0000 C   0  0
   -5.6845  -26.0945    0.0000 C   0  0
   -4.9723  -26.5133    0.0000 C   0  0
   -4.2519  -26.1052    0.0000 C   0  0
   -4.2483  -25.2738    0.0000 C   0  0
   -4.9611  -24.8588    0.0000 C   0  0
   -3.5350  -24.8620    0.0000 C   0  0
   -3.5346  -24.0380    0.0000 C   0  0
   -2.8191  -23.6272    0.0000 N   0  0
   -2.8218  -22.8022    0.0000 N   0  0
   -3.5392  -22.3912    0.0000 C   0  0
   -3.5434  -21.5654    0.0000 O   0  0
   -4.2489  -23.6349    0.0000 C   0  0
   -4.2535  -22.8144    0.0000 C   0  0
   -4.9652  -22.4100    0.0000 C   0  0
   -5.6728  -22.8248    0.0000 C   0  0
   -5.6642  -23.6485    0.0000 C   0  0
   -4.9518  -24.0491    0.0000 C   0  0
   -2.1083  -22.3871    0.0000 C   0  0
   -6.4093  -26.5012    0.0000 O   0  0
   -0.6353  -21.4835    0.0000 C   0  0
    0.0793  -21.0696    0.0000 C   0  0
    0.7951  -21.4813    0.0000 C   0  0
 22 23  1  0
 23 19  1  0
  5  6  1  0
 11 12  1  0
 24 25  2  0
  1  2  1  0
 25 26  1  0
  6  7  2  0
 26 27  2  0
  7  2  1  0
 27 28  1  0
  3  4  1  0
 28 29  2  0
 29 24  1  0
  5  8  1  0
 28 30  1  0
 30 31  1  0
 12 13  1  0
 31 32  2  0
 13 14  1  0
 32 33  1  0
 12 15  1  0
 33 34  1  0
 34 37  1  0
 36 31  1  0
 16 17  1  0
 34 35  2  0
 17 18  1  0
 18 14  1  0
 36 37  2  0
 15 16  1  0
 37 38  1  0
 19 20  1  0
 38 39  2  0
  8  9  1  0
 39 40  1  0
  4  5  2  0
 40 41  2  0
 41 36  1  0
  9 10  1  0
 33 42  1  0
  2  3  2  0
 25 43  1  0
 23 42  1  6
 10 11  1  0
 22 44  1  0
 20 21  1  0
 44 45  1  0
 21 22  1  0
 45 46  1  0
 46  1  1  0
M  END