
  SciTegic12161611472D

 21 23  0  0  0  0            999 V2000
   -0.9991   -2.7132    0.0000 O   0  0
   -1.0028   -1.5132    0.0000 C   0  0
    0.2917   -0.7475    0.0000 C   0  0
    0.2917    0.7475    0.0000 C   0  0
    1.7138    1.2033    0.0000 N   0  0
    2.5889    0.0182    0.0000 C   0  0
    1.7138   -1.2033    0.0000 N   0  0
    2.1855   -2.6254    0.0000 C   0  0
    3.3606   -2.8684    0.0000 C   0  0
   -1.0028    1.5132    0.0000 N   0  0
   -0.9971    3.0138    0.0000 C   0  0
   -2.2935    3.7700    0.0000 C   0  0
   -2.2901    5.2700    0.0000 C   0  0
   -3.5873    6.0231    0.0000 C   0  0
   -4.8881    5.2761    0.0000 C   0  0
   -5.9259    5.8786    0.0000 Cl  0  0
   -4.8917    3.7761    0.0000 C   0  0
   -3.5944    3.0231    0.0000 C   0  0
   -2.3155    0.7475    0.0000 C   0  0
   -2.3155   -0.7475    0.0000 N   0  0
   -3.3560    1.3452    0.0000 O   0  0
  1  2  2  0
  2  3  1  0
  3  4  2  0
  4  5  1  0
  5  6  2  0
  6  7  1  0
  3  7  1  0
  7  8  1  0
  8  9  1  0
  4 10  1  0
 10 11  1  0
 11 12  1  0
 12 13  2  0
 13 14  1  0
 14 15  2  0
 15 16  1  0
 15 17  1  0
 17 18  2  0
 12 18  1  0
 10 19  1  0
 19 20  1  0
  2 20  1  0
 19 21  2  0
M  END