
          11280714572D 1   1.00000     0.00000     0

 42 45  0     0  0            999 V2000
    7.4292   -0.5125    0.0000 S   0  0  3  0  0  0           0  0  0
    8.2542   -0.5125    0.0000 C   0  0  0  0  0  0           0  0  0
    3.8542    0.7250    0.0000 N   0  0  0  0  0  0           0  0  0
    8.6667   -1.2250    0.0000 C   0  0  0  0  0  0           0  0  0
    9.4792   -1.2250    0.0000 C   0  0  0  0  0  0           0  0  0
    3.1417    1.1375    0.0000 C   0  0  0  0  0  0           0  0  0
    3.8542   -0.0917    0.0000 C   0  0  0  0  0  0           0  0  0
    9.8917   -1.9250    0.0000 C   0  0  0  0  0  0           0  0  0
    2.4292    1.5458    0.0000 N   0  0  0  0  0  0           0  0  0
    7.4250    0.3125    0.0000 O   0  0  0  0  0  0           0  0  0
    7.4250   -1.3375    0.0000 O   0  0  0  0  0  0           0  0  0
   -3.2833   -0.1042    0.0000 N   0  0  3  0  0  0           0  0  0
    6.7167   -0.0875    0.0000 N   0  0  0  0  0  0           0  0  0
   10.7167   -1.9167    0.0000 N   0  0  3  0  0  0           0  0  0
   -2.5708   -0.5167    0.0000 C   0  0  0  0  0  0           0  0  0
    3.1417   -0.5125    0.0000 N   0  0  0  0  0  0           0  0  0
    4.5750   -0.5042    0.0000 N   0  0  0  0  0  0           0  0  0
   -1.8583   -0.1042    0.0000 C   0  0  0  0  0  0           0  0  0
   -1.1458   -0.5167    0.0000 C   0  0  0  0  0  0           0  0  0
    6.0042   -0.5042    0.0000 C   0  0  0  0  0  0           0  0  0
   -0.4250   -0.1042    0.0000 C   0  0  0  0  0  0           0  0  0
    9.8917   -0.5042    0.0000 C   0  0  0  0  0  0           0  0  0
    8.2542   -1.9292    0.0000 C   0  0  0  0  0  0           0  0  0
    8.6542    0.2000    0.0000 C   0  0  0  0  0  0           0  0  0
    9.4917   -2.6292    0.0000 C   0  0  0  0  0  0           0  0  0
    1.7167   -0.5167    0.0000 C   0  0  0  0  0  0           0  0  0
    0.2875   -0.5167    0.0000 O   0  0  0  0  0  0           0  0  0
   -4.0000   -0.5125    0.0000 C   0  0  0  0  0  0           0  0  0
   -3.2833    0.7250    0.0000 C   0  0  0  0  0  0           0  0  0
    8.6667   -2.6375    0.0000 C   0  0  0  0  0  0           0  0  0
    9.4792    0.2083    0.0000 C   0  0  0  0  0  0           0  0  0
   -1.1458    1.1333    0.0000 C   0  0  0  0  0  0           0  0  0
    5.2917   -0.0917    0.0000 C   0  0  0  0  0  0           0  0  0
    2.4292   -0.0917    0.0000 C   0  0  0  0  0  0           0  0  0
   11.1375   -2.6292    0.0000 C   0  0  0  0  0  0           0  0  0
   11.1292   -1.2042    0.0000 C   0  0  0  0  0  0           0  0  0
   -1.8583    0.7208    0.0000 C   0  0  0  0  0  0           0  0  0
    1.0042   -0.1042    0.0000 C   0  0  0  0  0  0           0  0  0
   -0.4250    0.7250    0.0000 C   0  0  0  0  0  0           0  0  0
   -3.9875    1.1375    0.0000 C   0  0  0  0  0  0           0  0  0
   -4.7208   -0.0917    0.0000 C   0  0  0  0  0  0           0  0  0
   -4.7083    0.7333    0.0000 C   0  0  0  0  0  0           0  0  0
  2  1  1  0     0  0
  3  7  1  0     0  0
  4  2  2  0     0  0
  5  4  1  0     0  0
  6  3  1  0     0  0
  7 17  2  0     0  0
  8  5  1  0     0  0
  9  6  3  0     0  0
 10  1  2  0     0  0
 11  1  2  0     0  0
 12 15  1  0     0  0
 13  1  1  0     0  0
 14  8  1  0     0  0
 15 18  1  0     0  0
 16  7  1  0     0  0
 17 33  1  0     0  0
 18 19  1  0     0  0
 19 21  2  0     0  0
 20 13  1  0     0  0
 21 27  1  0     0  0
 22 31  1  0     0  0
 23  4  1  0     0  0
 24  2  1  0     0  0
 25 30  1  0     0  0
 26 34  1  0     0  0
 27 38  1  0     0  0
 28 12  1  0     0  0
 29 12  1  0     0  0
 30 23  2  0     0  0
 31 24  2  0     0  0
 32 39  2  0     0  0
 33 20  1  0     0  0
 34 16  1  0     0  0
 35 14  1  0     0  0
 36 14  1  0     0  0
 37 32  1  0     0  0
 38 26  1  0     0  0
 39 21  1  0     0  0
 40 29  1  0     0  0
 41 28  1  0     0  0
 42 40  1  0     0  0
 22  5  2  0     0  0
  8 25  2  0     0  0
 18 37  2  0     0  0
 41 42  1  0     0  0
M  END