
          11280714492D 1   1.00000     0.00000     0

 15 16  0     0  0            999 V2000
    4.1917   -4.9500    0.0000 C   0  0  0  0  0  0           0  0  0
    4.5667   -4.4792    0.0000 N   0  0  0  0  0  0           0  0  0
    4.5167   -5.4500    0.0000 N   0  0  0  0  0  0           0  0  0
    5.1292   -4.6917    0.0000 C   0  0  0  0  0  0           0  0  0
    5.1000   -5.2917    0.0000 C   0  0  0  0  0  0           0  0  0
    3.5917   -4.9167    0.0000 C   0  0  0  0  0  0           0  0  0
    3.2667   -5.4250    0.0000 C   0  0  0  0  0  0           0  0  0
    5.6417   -4.3792    0.0000 C   0  0  0  0  0  0           0  0  0
    2.6750   -5.4000    0.0000 C   0  0  0  0  0  0           0  0  0
    2.3417   -5.9042    0.0000 Br  0  0  0  0  0  0           0  0  0
    6.7417   -4.5292    0.0000 N   0  0  0  0  0  0           0  0  0
    3.3167   -4.3792    0.0000 C   0  0  0  0  0  0           0  0  0
    2.7167   -4.3542    0.0000 C   0  0  0  0  0  0           0  0  0
    6.1625   -4.6875    0.0000 C   0  0  0  0  0  0           0  0  0
    2.3917   -4.8625    0.0000 C   0  0  0  0  0  0           0  0  0
  2  1  2  0     0  0
  3  1  1  0     0  0
  4  2  1  0     0  0
  5  3  1  0     0  0
  6  1  1  0     0  0
  7  6  1  0     0  0
  8  4  1  0     0  0
  9  7  2  0     0  0
 10  9  1  0     0  0
 11 14  1  0     0  0
 12  6  2  0     0  0
 13 12  1  0     0  0
 14  8  1  0     0  0
 15 13  2  0     0  0
  4  5  2  0     0  0
 15  9  1  0     0  0
M  END