
  SciTegic01161211232D

 32 35  0  0  0  0            999 V2000
   -2.1372  -22.1122    0.0000 O   0  0
   -2.8669  -22.4955    0.0000 C   0  0  1  0  0  0
   -2.8961  -23.3208    0.0000 C   0  0  2  0  0  0
   -2.1945  -23.7588    0.0000 O   0  0
   -3.6268  -23.7082    0.0000 C   0  0  1  0  0  0
   -3.6560  -24.5336    0.0000 O   0  0
   -4.3242  -23.2704    0.0000 C   0  0  2  0  0  0
   -5.0550  -23.6578    0.0000 O   0  0
   -4.2951  -22.4450    0.0000 C   0  0  2  0  0  0
   -3.5686  -22.0575    0.0000 O   0  0
   -4.9967  -22.0070    0.0000 C   0  0
   -4.9675  -21.1817    0.0000 O   0  0
   -2.8634  -21.6699    0.0000 H   0  0
   -0.7154  -22.1568    0.0000 C   0  0
   -1.4373  -22.5480    0.0000 C   0  0
   -1.4651  -23.3752    0.0000 C   0  0
   -0.7526  -23.8073    0.0000 C   0  0
   -0.7729  -24.6329    0.0000 O   0  0
   -0.0154  -22.5933    0.0000 C   0  0
   -0.0336  -23.4119    0.0000 C   0  0
    0.6623  -23.8348    0.0000 C   0  0
    1.3811  -23.4436    0.0000 C   0  0
    1.3994  -22.6249    0.0000 C   0  0
    0.6989  -22.1973    0.0000 O   0  0
    0.6428  -24.6604    0.0000 O   0  0
    2.1217  -22.2302    0.0000 C   0  0
    2.8274  -22.6614    0.0000 C   0  0
    3.5515  -22.2659    0.0000 C   0  0
    3.5713  -21.4394    0.0000 C   0  0
    2.8608  -21.0100    0.0000 C   0  0
    2.1396  -21.4078    0.0000 C   0  0
    4.2954  -21.0423    0.0000 O   0  0
 15 16  2  0
  3  5  1  0
 16 17  1  0
 17 20  2  0
  5  6  1  1
 17 18  1  0
 19 20  1  0
  5  7  1  0
  7  8  1  6
  7  9  1  0
  9 10  1  0
  9 11  1  1
 11 12  1  0
 19 24  1  0
 20 21  1  0
 21 22  1  0
 22 23  2  0
 23 24  1  0
  2 10  1  0
 21 25  2  0
  2 13  1  6
 26 27  2  0
  2  1  1  0
 27 28  1  0
 19 14  2  0
 28 29  2  0
  2  3  1  0
 29 30  1  0
 14 15  1  0
 30 31  2  0
 31 26  1  0
 23 26  1  0
  3  4  1  6
 29 32  1  0
 15  1  1  0
M  END