
  SciTegic11201309402D

 40 44  0  0  1  0            999 V2000
    6.5167   -0.5292    0.0000 C   0  0
    6.4500    0.2875    0.0000 C   0  0
    7.3417   -0.4625    0.0000 C   0  0
    7.2667    0.3583    0.0000 C   0  0
    1.9542   -2.6167    0.0000 N   0  0
    2.4875   -1.9917    0.0000 C   0  0
    5.6792   -4.8542    0.0000 C   0  0
    6.4417   -5.9417    0.0000 C   0  0
    5.6542   -6.1917    0.0000 C   0  0
    5.1792   -5.5125    0.0000 C   0  0
    6.4625   -5.1167    0.0000 C   0  0
    1.1292   -2.5542    0.0000 C   0  0  2  0  0  0
    4.3792   -3.0917    0.0000 C   0  0
    0.6917   -1.8542    0.0000 C   0  0
    3.5792   -2.9125    0.0000 N   0  0
    3.3000   -2.1375    0.0000 C   0  0  1  0  0  0
    5.4375   -4.0667    0.0000 C   0  0
    7.9667   -0.9917    0.0000 O   0  0
    7.8042    0.9875    0.0000 O   0  0
    2.2042   -1.2167    0.0000 O   0  0
    5.9875   -1.1625    0.0000 N   0  0
    4.6292   -3.8792    0.0000 O   0  0
    4.9417   -2.4875    0.0000 O   0  0
    1.0875   -1.1292    0.0000 O   0  0
    5.8167    0.8208    0.0000 O   0  0
   -0.1250   -1.8792    0.0000 N   0  0
    2.1500   -3.4167    0.0000 C   0  0
    5.3125   -6.9292    0.0000 C   0  0
    7.1542   -6.3667    0.0000 C   0  0
    7.1792   -4.7167    0.0000 C   0  0
    4.3625   -5.5875    0.0000 C   0  0
    0.8167   -3.3250    0.0000 C   0  0
    1.4500   -3.8542    0.0000 C   0  0
    3.8292   -1.5042    0.0000 C   0  0
    5.1750   -1.0167    0.0000 C   0  0
    4.6417   -1.6500    0.0000 C   0  0
    4.0167   -6.3375    0.0000 C   0  0
    4.4917   -7.0125    0.0000 C   0  0
    7.8792   -5.9667    0.0000 C   0  0
    7.8875   -5.1417    0.0000 C   0  0
  2  1  1  0
  3  1  1  0
  4  3  1  0
  5  6  1  0
  6 16  1  0
  7 17  1  0
  8 11  2  0
  9 10  2  0
 10  7  1  0
 11  7  1  0
 12  5  1  0
 13 15  1  0
 12 14  1  1
 16 15  1  6
 16 34  1  0
 17 22  1  0
 18  3  2  0
 19  4  1  0
 20  6  2  0
 21  1  2  0
 22 13  1  0
 23 13  2  0
 24 14  2  0
 25  2  1  0
 26 14  1  0
 27  5  1  0
 28  9  1  0
 29  8  1  0
 30 11  1  0
 31 10  1  0
 12 32  1  0
 33 27  1  0
 34 36  1  0
 35 21  1  0
 36 35  1  0
 37 31  2  0
 38 37  1  0
 39 40  1  0
 40 30  2  0
  4  2  2  0
 33 32  1  0
  8  9  1  0
 39 29  2  0
 28 38  2  0
M  END