
  SciTegic10311316212D

 29 33  0  0  0  0            999 V2000
   25.7277  -26.2533    0.0000 C   0  0
   25.7266  -27.0728    0.0000 C   0  0
   26.4346  -27.4818    0.0000 C   0  0
   26.4328  -25.8444    0.0000 C   0  0
   27.1415  -26.2497    0.0000 C   0  0
   27.1417  -27.0683    0.0000 C   0  0
   27.9204  -27.3210    0.0000 S   0  0
   28.4014  -26.6586    0.0000 C   0  0
   27.9199  -25.9965    0.0000 C   0  0
   25.0231  -27.4800    0.0000 N   0  0
   24.2768  -27.1470    0.0000 C   0  0
   23.7295  -27.7539    0.0000 N   0  0
   24.1376  -28.4620    0.0000 N   0  0
   24.9370  -28.2926    0.0000 C   0  0
   25.5427  -28.8366    0.0000 C   0  0
   25.3706  -29.6366    0.0000 C   0  0
   25.9767  -30.1836    0.0000 C   0  0
   26.3164  -28.5844    0.0000 C   0  0
   24.1075  -26.3476    0.0000 S   0  0
   29.2165  -26.6561    0.0000 C   0  0
   29.6254  -27.3637    0.0000 O   0  0
   29.6249  -25.9483    0.0000 O   0  0
   28.1722  -25.2192    0.0000 Cl  0  0
   26.9239  -29.1279    0.0000 C   0  0
   26.7549  -29.9287    0.0000 C   0  0
   27.3632  -30.4735    0.0000 C   0  0
   28.1408  -30.2187    0.0000 C   0  0
   28.3065  -29.4140    0.0000 C   0  0
   27.6968  -28.8727    0.0000 C   0  0
  1  2  2  0
  2  3  1  0
  3  6  2  0
  5  4  2  0
  4  1  1  0
  5  6  1  0
  6  7  1  0
  7  8  1  0
  8  9  2  0
  9  5  1  0
 10 11  1  0
 11 12  2  0
 12 13  1  0
 13 14  2  0
 14 10  1  0
  2 10  1  0
 15 16  2  0
 16 17  1  0
 17 25  2  0
 24 18  2  0
 18 15  1  0
 14 15  1  0
 11 19  1  0
 20 21  1  0
 20 22  2  0
  8 20  1  0
  9 23  1  0
 24 25  1  0
 25 26  1  0
 26 27  2  0
 27 28  1  0
 28 29  2  0
 29 24  1  0
M  END