
  SciTegic06051315212D

 53 55  0  0  0  0            999 V2000
   25.1203   -6.3832    0.0000 C   0  0
   25.8347   -5.9707    0.0000 C   0  0
   25.1203   -7.2082    0.0000 C   0  0
   26.5492   -6.3832    0.0000 C   0  0
   25.8347   -5.1457    0.0000 C   0  0
   26.5492   -7.2082    0.0000 O   0  0
   27.2636   -5.9707    0.0000 O   0  0
   27.9084   -6.4847    0.0000 C   0  0  1  0  0  0
   27.8710   -7.3088    0.0000 C   0  0
   28.7006   -6.2637    0.0000 C   0  0  2  0  0  0
   27.1826   -7.7633    0.0000 C   0  0
   28.6491   -7.6006    0.0000 C   0  0
   29.1580   -6.9514    0.0000 C   0  0  1  0  0  0
   29.9885   -6.9417    0.0000 C   0  0  1  0  0  0
   30.5142   -7.5805    0.0000 C   0  0
   30.3369   -8.3882    0.0000 C   0  0  1  0  0  0
   29.4926   -9.5877    0.0000 C   0  0  2  0  0  0
   29.5946   -8.7595    0.0000 C   0  0  2  0  0  0
   28.8374   -8.4072    0.0000 C   0  0  1  0  0  0
   28.2693   -9.0198    0.0000 O   0  0
   28.6774   -9.7484    0.0000 C   0  0
   28.3314  -10.4973    0.0000 O   0  0
   29.4868  -10.4122    0.0000 C   0  0
   30.2868   -9.7997    0.0000 O   0  0
   30.3868   -8.9706    0.0000 O   0  0
   29.7701   -6.1415    0.0000 C   0  0
   30.6993   -6.5248    0.0000 O   0  0
   30.6937   -5.6999    0.0000 C   0  0
   31.4053   -5.2826    0.0000 O   0  0
   29.9764   -5.2923    0.0000 C   0  0
   31.1623   -8.3924    0.0000 O   0  0
   31.5787   -7.6802    0.0000 C   0  0
   32.4037   -7.6847    0.0000 C   0  0
   31.1700   -6.9636    0.0000 O   0  0
   32.8199   -6.9724    0.0000 C   0  0
   33.6449   -6.9769    0.0000 C   0  0
   28.9785   -5.4876    0.0000 O   0  0
   28.5625   -4.7753    0.0000 C   0  0
   28.9715   -4.0587    0.0000 O   0  0
   27.7375   -4.7793    0.0000 C   0  0
   29.3701   -7.7456    0.0000 H   0  0
   27.3215   -4.0670    0.0000 C   0  0
   26.4965   -4.0711    0.0000 C   0  0
   26.0805   -3.3587    0.0000 C   0  0
   25.2555   -3.3629    0.0000 C   0  0
   24.8394   -2.6504    0.0000 C   0  0
   24.0144   -2.6546    0.0000 C   0  0
   31.1261   -9.3357    0.0000 C   0  0
   31.1004  -10.1603    0.0000 O   0  0
   31.8492   -8.9379    0.0000 C   0  0
   32.5551   -9.3651    0.0000 C   0  0
   33.2778   -8.9675    0.0000 C   0  0
   28.0329   -8.1916    0.0000 H   0  0
  1  2  2  0
  1  3  1  0
  2  4  1  0
  2  5  1  0
  4  6  2  0
  4  7  1  0
  8  7  1  6
  9 12  2  0
  8  9  1  0
 13 10  1  0
 10  8  1  0
  9 11  1  0
 12 13  1  0
 13 14  1  0
 12 19  1  0
 14 15  1  0
 15 16  1  0
 18 16  1  0
 18 19  1  0
 17 18  1  0
 19 20  1  0
 20 21  1  0
 21 17  1  0
 21 22  2  0
 17 23  1  1
 17 24  1  0
 18 25  1  1
 14 26  1  0
 14 27  1  1
 27 28  1  0
 28 29  2  0
 28 30  1  0
 16 31  1  6
 31 32  1  0
 32 33  1  0
 32 34  2  0
 33 35  1  0
 35 36  1  0
 10 37  1  1
 37 38  1  0
 38 39  2  0
 38 40  1  0
 13 41  1  1
 40 42  1  0
 42 43  1  0
 43 44  1  0
 44 45  1  0
 45 46  1  0
 46 47  1  0
 25 48  1  0
 48 49  2  0
 48 50  1  0
 50 51  1  0
 51 52  1  0
 19 53  1  6
M  END