
  SciTegic01091216402D

 20 21  0  0  0  0            999 V2000
    5.4297   -4.4215    0.0000 N   0  0
    5.5207   -5.2412    0.0000 N   0  0
    6.3258   -5.4079    0.0000 C   0  0
    6.7373   -4.6916    0.0000 C   0  0
    6.1831   -4.0814    0.0000 C   0  0
    4.7134   -4.0100    0.0000 C   0  0
    4.0002   -4.4247    0.0000 N   0  0
    4.7122   -3.1875    0.0000 N   0  0
    5.4253   -2.7728    0.0000 C   0  0
    6.1395   -3.1807    0.0000 C   0  0
    3.2859   -4.0168    0.0000 S   0  0
    3.6973   -3.3004    0.0000 O   0  0
    2.5772   -4.4406    0.0000 C   0  0
    2.5935   -5.2654    0.0000 C   0  0
    1.8859   -5.6919    0.0000 C   0  0
    1.1663   -5.2935    0.0000 C   0  0
    1.1500   -4.4687    0.0000 C   0  0
    1.8535   -4.0423    0.0000 C   0  0
    1.8709   -6.5166    0.0000 Cl  0  0
    2.6956   -3.4289    0.0000 O   0  0
  1  2  1  0
  2  3  2  0
  3  4  1  0
  4  5  1  0
  1  5  1  0
  6  7  2  0
  6  8  1  0
  1  6  1  0
  9 10  1  0
  8  9  1  0
 11 12  2  0
 13 14  1  0
 14 15  2  0
 15 16  1  0
 16 17  2  0
 17 18  1  0
 13 18  2  0
 11 13  1  0
 15 19  1  0
  7 11  1  0
 11 20  2  0
M  END