
  SciTegic01181116592D

 45 47  0  0  0  0            999 V2000
   16.0398  -16.2191    0.0000 N   0  0
   -1.9154  -17.6266    0.0000 C   0  0
   -2.3366  -18.3388    0.0000 C   0  0
   -1.9305  -19.0575    0.0000 C   0  0
   -1.1034  -19.0652    0.0000 C   0  0
   -0.6840  -18.3483    0.0000 C   0  0
   -1.0925  -17.6326    0.0000 C   0  0
   -0.6753  -16.9210    0.0000 N   0  0
    0.1457  -16.8397    0.0000 N   0  0
    0.3221  -16.0338    0.0000 C   0  0
   -0.3899  -15.6169    0.0000 C   0  0
   -1.0062  -16.1653    0.0000 C   0  0
   -1.8266  -16.1669    0.0000 C   0  0
   -2.2391  -15.4511    0.0000 C   0  0
   -3.0633  -15.4514    0.0000 C   0  0
   -3.4761  -16.1667    0.0000 C   0  0
   -3.0586  -16.8832    0.0000 C   0  0
   -2.2357  -16.8794    0.0000 C   0  0
   -0.4711  -14.7959    0.0000 C   0  0
    1.0418  -15.6299    0.0000 C   0  0
    1.7514  -16.0508    0.0000 N   0  0
    1.0515  -14.8049    0.0000 O   0  0
    0.1409  -18.3527    0.0000 Cl  0  0
   -2.3496  -19.7681    0.0000 Cl  0  0
   -4.3011  -16.1684    0.0000 Cl  0  0
    2.4706  -15.6467    0.0000 C   0  0
    3.1802  -16.0676    0.0000 C   0  0
    3.8995  -15.6635    0.0000 C   0  0
    4.6090  -16.0844    0.0000 C   0  0
    5.3283  -15.6804    0.0000 C   0  0
    6.0379  -16.1013    0.0000 C   0  0
    6.7572  -15.6972    0.0000 C   0  0
    7.4667  -16.1181    0.0000 C   0  0
    8.1860  -15.7141    0.0000 C   0  0
    8.8956  -16.1349    0.0000 N   0  0
    9.6149  -15.7309    0.0000 C   0  0
   10.3244  -16.1518    0.0000 C   0  0
   11.0437  -15.7477    0.0000 C   0  0
   11.7533  -16.1686    0.0000 C   0  0
   12.4725  -15.7646    0.0000 C   0  0
   13.1821  -16.1854    0.0000 C   0  0
   13.9014  -15.7814    0.0000 C   0  0
   14.6109  -16.2023    0.0000 C   0  0
   15.3302  -15.7982    0.0000 C   0  0
    8.8859  -16.9599    0.0000 C   0  0
 20 22  2  0
 11 12  2  0
  6 23  1  0
 12  8  1  0
  4 24  1  0
  7  8  1  0
 16 25  1  0
  6  7  2  0
 21 26  1  0
  7  2  1  0
 26 27  1  0
 13 14  2  0
 27 28  1  0
  8  9  1  0
 28 29  1  0
 14 15  1  0
 29 30  1  0
  2  3  2  0
 30 31  1  0
 15 16  2  0
 31 32  1  0
  4  5  2  0
 32 33  1  0
 16 17  1  0
 33 34  1  0
 34 35  1  0
 17 18  2  0
 35 36  1  0
 18 13  1  0
 36 37  1  0
 12 13  1  0
 37 38  1  0
  5  6  1  0
 38 39  1  0
 11 19  1  0
 39 40  1  0
  3  4  1  0
 40 41  1  0
 10 20  1  0
 41 42  1  0
  9 10  2  0
 42 43  1  0
 20 21  1  0
 43 44  1  0
 44  1  1  0
 10 11  1  0
 35 45  1  0
M  END