
          11280714552D 1   1.00000     0.00000     0

 20 22  0     0  0            999 V2000
    4.3375   -4.1792    0.0000 N   0  0  3  0  0  0           0  0  0
    0.4917   -3.5500    0.0000 C   0  0  0  0  0  0           0  0  0
    3.2750   -3.9917    0.0000 C   0  0  3  0  0  0           0  0  0
    3.3042   -4.8042    0.0000 C   0  0  3  0  0  0           0  0  0
   -0.2208   -3.9625    0.0000 C   0  0  0  0  0  0           0  0  0
    1.9167   -3.5417    0.0000 C   0  0  3  0  0  0           0  0  0
    1.2042   -3.9542    0.0000 O   0  0  0  0  0  0           0  0  0
    2.6292   -3.1292    0.0000 C   0  0  0  0  0  0           0  0  0
    2.6500   -3.8417    0.0000 C   0  0  0  0  0  0           0  0  0
   -0.2208   -4.7917    0.0000 C   0  0  0  0  0  0           0  0  0
   -0.9375   -3.5542    0.0000 C   0  0  0  0  0  0           0  0  0
    0.4875   -2.7250    0.0000 O   0  0  0  0  0  0           0  0  0
    2.7000   -5.3417    0.0000 C   0  0  0  0  0  0           0  0  0
    3.0417   -5.9042    0.0000 C   0  0  0  0  0  0           0  0  0
   -1.6500   -3.9667    0.0000 C   0  0  0  0  0  0           0  0  0
   -0.9333   -5.2042    0.0000 C   0  0  0  0  0  0           0  0  0
   -1.6500   -4.7917    0.0000 C   0  0  0  0  0  0           0  0  0
    5.1792   -4.1792    0.0000 C   0  0  0  0  0  0           0  0  0
   -2.3708   -3.5542    0.0000 C   0  0  0  0  0  0           0  0  0
   -0.9375   -6.0292    0.0000 C   0  0  0  0  0  0           0  0  0
  2  7  1  0     0  0
  3  1  1  0     0  0
  4  1  1  0     0  0
  5  2  1  0     0  0
  6  9  1  0     0  0
  7  6  1  0     0  0
  8  3  1  0     0  0
  9  4  1  0     0  0
 10  5  1  0     0  0
 11  5  2  0     0  0
 12  2  2  0     0  0
 13  3  1  0     0  0
 14  4  1  0     0  0
 15 11  1  0     0  0
 16 10  2  0     0  0
 17 15  2  0     0  0
 18  1  1  0     0  0
 19 15  1  0     0  0
 20 16  1  0     0  0
 14 13  1  0     0  0
  8  6  1  0     0  0
 17 16  1  0     0  0
M  END