
  Mrv0541 04051115152D          

 12 12  0  0  0  0            999 V2000
    1.0127   -1.9169    0.0000 O   0  0  0  0  0  0  0  0  0  0  0  0
    1.0127   -1.0919    0.0000 C   0  0  0  0  0  0  0  0  0  0  0  0
    1.7272   -0.6794    0.0000 O   0  0  0  0  0  0  0  0  0  0  0  0
    0.2983   -0.6794    0.0000 C   0  0  0  0  0  0  0  0  0  0  0  0
   -0.4162   -1.0919    0.0000 C   0  0  0  0  0  0  0  0  0  0  0  0
   -1.1307   -0.6794    0.0000 C   0  0  0  0  0  0  0  0  0  0  0  0
    0.2983    0.1456    0.0000 C   0  0  0  0  0  0  0  0  0  0  0  0
   -0.4162    0.5581    0.0000 C   0  0  0  0  0  0  0  0  0  0  0  0
   -1.1307    0.1456    0.0000 N   0  0  0  0  0  0  0  0  0  0  0  0
   -0.4162    1.3831    0.0000 C   0  0  0  0  0  0  0  0  0  0  0  0
   -1.1307    1.7956    0.0000 O   0  0  0  0  0  0  0  0  0  0  0  0
    0.2983    1.7956    0.0000 O   0  0  0  0  0  0  0  0  0  0  0  0
  2  1  2  0  0  0  0
  2  3  1  0  0  0  0
  4  2  1  0  0  0  0
  4  5  2  0  0  0  0
  7  4  1  0  0  0  0
  5  6  1  0  0  0  0
  6  9  2  0  0  0  0
  8  7  2  0  0  0  0
  8  9  1  0  0  0  0
  8 10  1  0  0  0  0
 10 11  2  0  0  0  0
 10 12  1  0  0  0  0
M  END