
  CDK    9/16/09,9:46

 32 35  0  0  0  0  0  0  0  0999 V2000
   -4.6170  -11.1327    0.0000 C   0  0  0  0  0  0  0  0  0  0  0  0
   -4.6182  -11.9603    0.0000 C   0  0  0  0  0  0  0  0  0  0  0  0
   -3.9053  -12.3731    0.0000 C   0  0  0  0  0  0  0  0  0  0  0  0
   -3.1859  -11.9598    0.0000 C   0  0  0  0  0  0  0  0  0  0  0  0
   -3.1891  -11.1287    0.0000 C   0  0  0  0  0  0  0  0  0  0  0  0
   -3.9072  -10.7199    0.0000 C   0  0  0  0  0  0  0  0  0  0  0  0
   -2.4764  -10.7161    0.0000 C   0  0  0  0  0  0  0  0  0  0  0  0
   -1.7210  -11.0479    0.0000 N   0  0  0  0  0  0  0  0  0  0  0  0
   -1.1720  -10.4321    0.0000 N   0  0  0  0  0  0  0  0  0  0  0  0
   -1.5882   -9.7197    0.0000 C   0  0  0  0  0  0  0  0  0  0  0  0
   -2.3941   -9.8952    0.0000 C   0  0  0  0  0  0  0  0  0  0  0  0
   -3.0100   -9.3463    0.0000 C   0  0  0  0  0  0  0  0  0  0  0  0
   -1.2564   -8.9643    0.0000 C   0  0  0  0  0  0  0  0  0  0  0  0
   -0.4364   -8.8739    0.0000 N   0  0  0  0  0  0  0  0  0  0  0  0
   -1.7446   -8.2992    0.0000 O   0  0  0  0  0  0  0  0  0  0  0  0
   -0.1046   -8.1185    0.0000 N   0  0  0  0  0  0  0  0  0  0  0  0
    0.7196   -8.0305    0.0000 C   0  0  0  0  0  0  0  0  0  0  0  0
    1.0518   -7.2863    0.0000 C   0  0  0  0  0  0  0  0  0  0  0  0
    0.5667   -6.6157    0.0000 C   0  0  0  0  0  0  0  0  0  0  0  0
   -0.2544   -6.7014    0.0000 C   0  0  0  0  0  0  0  0  0  0  0  0
   -0.5906   -7.4563    0.0000 C   0  0  0  0  0  0  0  0  0  0  0  0
   -1.5447  -11.8525    0.0000 C   0  0  0  0  0  0  0  0  0  0  0  0
   -2.1568  -12.4073    0.0000 C   0  0  0  0  0  0  0  0  0  0  0  0
   -1.9817  -13.2128    0.0000 C   0  0  0  0  0  0  0  0  0  0  0  0
   -1.1952  -13.4644    0.0000 C   0  0  0  0  0  0  0  0  0  0  0  0
   -0.5835  -12.9045    0.0000 C   0  0  0  0  0  0  0  0  0  0  0  0
   -0.7616  -12.1012    0.0000 C   0  0  0  0  0  0  0  0  0  0  0  0
   -0.1529  -11.5445    0.0000 Cl  0  0  0  0  0  0  0  0  0  0  0  0
   -1.0186  -14.2703    0.0000 Cl  0  0  0  0  0  0  0  0  0  0  0  0
   -5.3333  -12.3717    0.0000 Cl  0  0  0  0  0  0  0  0  0  0  0  0
   -3.9111   -9.8949    0.0000 C   0  0  0  0  0  0  0  0  0  0  0  0
   -2.9424  -12.1554    0.0000 Cl  0  0  0  0  0  0  0  0  0  0  0  0
  3  4  2  0  0  0  0 
 14 16  1  0  0  0  0 
 16 17  1  0  0  0  0 
  4  5  1  0  0  0  0 
  2  3  1  0  0  0  0 
  8  9  1  0  0  0  0 
  9 10  2  0  0  0  0 
 16 21  1  0  0  0  0 
 17 18  1  0  0  0  0 
 18 19  1  0  0  0  0 
 19 20  1  0  0  0  0 
 20 21  1  0  0  0  0 
 10 11  1  0  0  0  0 
 11  7  2  0  0  0  0 
 22 23  2  0  0  0  0 
  5  7  1  0  0  0  0 
 23 24  1  0  0  0  0 
  5  6  2  0  0  0  0 
 24 25  2  0  0  0  0 
 11 12  1  0  0  0  0 
 25 26  1  0  0  0  0 
  6  1  1  0  0  0  0 
 26 27  2  0  0  0  0 
 27 22  1  0  0  0  0 
  8 22  1  0  0  0  0 
 10 13  1  0  0  0  0 
 27 28  1  0  0  0  0 
  7  8  1  0  0  0  0 
 25 29  1  0  0  0  0 
 13 14  1  0  0  0  0 
  2 30  1  0  0  0  0 
  1  2  2  0  0  0  0 
  6 31  1  0  0  0  0 
 13 15  2  0  0  0  0 
 23 32  1  0  0  0  0 
M  END