
  SciTegic05221516342D

 27 30  0  0  0  0            999 V2000
    5.6427   -9.4514    0.0000 N   0  0
    6.1037   -8.7766    0.0000 C   0  0
    5.6044   -8.1297    0.0000 N   0  0
    4.8348   -8.4047    0.0000 C   0  0
    4.1156   -8.0168    0.0000 N   0  0
    3.4200   -8.4457    0.0000 C   0  0
    3.4437   -9.2626    0.0000 N   0  0
    4.1630   -9.6505    0.0000 C   0  0
    4.8586   -9.2215    0.0000 C   0  0
    4.1867  -10.4673    0.0000 O   0  0
    2.7008   -8.0578    0.0000 N   0  0
    6.9205   -8.7529    0.0000 S   0  0
    7.3084   -8.0336    0.0000 C   0  0
    8.1253   -8.0099    0.0000 C   0  0
    8.5132   -7.2907    0.0000 O   0  0
    9.4121  -10.0966    0.0000 C   0  0
    9.8000   -9.3773    0.0000 C   0  0
    9.3711   -8.6818    0.0000 C   0  0
    8.5542   -8.7055    0.0000 C   0  0
    8.1663   -9.4248    0.0000 C   0  0
    8.5953  -10.1203    0.0000 C   0  0
    9.8411  -10.7922    0.0000 C   0  0
    9.4532  -11.5114    0.0000 C   0  0
    9.8822  -12.2070    0.0000 C   0  0
   10.6990  -12.1833    0.0000 C   0  0
   11.0869  -11.4640    0.0000 C   0  0
   10.6579  -10.7685    0.0000 C   0  0
  1  2  2  0
  2  3  1  0
  3  4  1  0
  4  5  1  0
  5  6  2  0
  6  7  1  0
  7  8  1  0
  8  9  1  0
  1  9  1  0
  4  9  2  0
  8 10  2  0
  6 11  1  0
 13 14  1  0
 14 15  2  0
 16 17  1  0
 17 18  2  0
 18 19  1  0
 19 20  2  0
 20 21  1  0
 16 21  2  0
 22 23  1  0
 23 24  2  0
 24 25  1  0
 25 26  2  0
 26 27  1  0
 22 27  2  0
 16 22  1  0
 14 19  1  0
 12 13  1  0
  2 12  1  0
M  END