
  SciTegic01161211252D

 39 44  0  0  0  0            999 V2000
    1.0327   -1.4400    0.0000 N   0  0
    2.4586   -1.4471    0.0000 C   0  0
    1.7475   -1.0299    0.0000 C   0  0
   -0.3407    0.2526    0.0000 C   0  0
    0.3598   -0.1832    0.0000 C   0  0
    0.3361   -1.0097    0.0000 C   0  0
    3.1933   -1.0914    0.0000 C   0  0
    3.8938   -1.5231    0.0000 N   0  0
    3.2127   -0.2649    0.0000 O   0  0
    3.8658   -2.3460    0.0000 C   0  0
    4.5622   -2.7815    0.0000 C   0  0
    5.2885   -2.3902    0.0000 N   0  0
    5.3182   -1.5627    0.0000 C   0  0
    4.6134   -1.1266    0.0000 C   0  0
    5.9844   -2.8278    0.0000 C   0  0
    5.9563   -3.6553    0.0000 C   0  0
    6.6584   -4.0936    0.0000 C   0  0
    7.3849   -3.7014    0.0000 C   0  0
    7.4091   -2.8705    0.0000 C   0  0
    6.7104   -2.4401    0.0000 C   0  0
    1.0838    0.2117    0.0000 C   0  0
   -1.0647   -0.1423    0.0000 C   0  0
   -1.7658    0.2957    0.0000 C   0  0
   -1.8079   -1.3576    0.0000 C   0  0
   -1.0831   -0.9651    0.0000 C   0  0
    1.0285   -2.2669    0.0000 C   0  0
    2.4544   -2.2741    0.0000 C   0  0
    1.7365   -2.6851    0.0000 C   0  0
    1.7320   -3.5064    0.0000 C   0  0
    2.4437   -3.9227    0.0000 C   0  0
    3.1618   -3.5159    0.0000 C   0  0
    3.1679   -2.6884    0.0000 C   0  0
   -2.5105   -0.9321    0.0000 C   0  0
   -2.4901   -0.1004    0.0000 C   0  0
   -3.2748    0.1760    0.0000 O   0  0
   -3.7802   -0.4849    0.0000 C   0  0
   -3.3077   -1.1696    0.0000 O   0  0
    8.0872   -4.1343    0.0000 F   0  0
    8.1352   -2.4788    0.0000 F   0  0
 23 34  1  0
  1  3  1  0
 33 24  1  0
  5  6  1  0
 24 25  2  0
 25 22  1  0
  6  1  1  0
  8 14  1  0
 28 26  1  0
 10 11  1  0
 11 12  1  0
 27 28  1  0
 12 13  1  0
 13 14  1  0
 27  2  1  0
  2  7  1  0
 15 16  2  0
  2  3  1  0
 27 32  1  0
 28 29  1  0
 29 30  1  0
 30 31  1  0
 31 32  1  0
 16 17  1  0
  7  8  1  0
 17 18  2  0
  1 26  1  0
 18 19  1  0
  7  9  2  0
 19 20  2  0
 20 15  1  0
 33 34  2  0
 12 15  1  0
  8 10  1  0
  5 21  1  0
  4 22  1  0
 34 35  1  0
 35 36  1  0
 36 37  1  0
 37 33  1  0
  4  5  1  0
 18 38  1  0
 22 23  2  0
 19 39  1  0
M  END