
  SciTegic01161211242D

 26 29  0  0  0  0            999 V2000
   -3.3758  -18.9736    0.0000 C   0  0
   -3.3769  -19.8018    0.0000 C   0  0
   -2.6613  -20.2151    0.0000 C   0  0
   -1.9442  -19.8013    0.0000 C   0  0
   -1.9470  -18.9700    0.0000 C   0  0
   -2.6631  -18.5604    0.0000 C   0  0
   -4.0921  -20.2162    0.0000 C   0  0
   -4.8076  -20.6286    0.0000 N   0  0
   -1.2365  -18.5556    0.0000 C   0  0
   -0.5194  -18.9676    0.0000 C   0  0
   -0.5306  -17.3159    0.0000 N   0  0
   -1.2409  -17.7332    0.0000 C   0  0
    0.1911  -17.7260    0.0000 C   0  0
    0.1941  -18.5505    0.0000 C   0  0
    0.9792  -18.8026    0.0000 C   0  0
    1.4616  -18.1337    0.0000 C   0  0
    0.9744  -17.4684    0.0000 N   0  0
    1.3085  -19.5596    0.0000 N   0  0
    2.1343  -19.5506    0.0000 C   0  0
    2.5550  -20.2613    0.0000 C   0  0
    2.5395  -18.8309    0.0000 O   0  0
    2.1472  -20.9775    0.0000 C   0  0
    2.5671  -21.6877    0.0000 C   0  0
    3.3938  -21.6792    0.0000 C   0  0
    3.7987  -20.9545    0.0000 N   0  0
    3.3765  -20.2473    0.0000 C   0  0
  5  9  1  0
 13 14  2  0
  6  1  1  0
  1  2  2  0
  3  4  2  0
  7  8  3  0
  2  7  1  0
 14 15  1  0
 15 16  2  0
 16 17  1  0
 17 13  1  0
 15 18  1  0
  4  5  1  0
 18 19  1  0
  9 10  2  0
 19 20  1  0
 10 14  1  0
 19 21  2  0
  2  3  1  0
 20 22  2  0
 13 11  1  0
 22 23  1  0
  5  6  2  0
 23 24  2  0
 11 12  2  0
 24 25  1  0
 12  9  1  0
 25 26  2  0
 26 20  1  0
M  END