
  SciTegic12231509382D

 29 31  0  0  1  0            999 V2000
    3.5248   -2.8891    0.0000 C   0  0
    2.7091   -3.0121    0.0000 O   0  0
    2.1947   -2.3671    0.0000 C   0  0
    1.3789   -2.4900    0.0000 C   0  0
    0.8645   -1.8450    0.0000 C   0  0
    1.1659   -1.0770    0.0000 C   0  0
    1.9817   -0.9541    0.0000 C   0  0
    2.4961   -1.5991    0.0000 C   0  0
    0.6515   -0.4320    0.0000 C   0  0  2  0  0  0
   -0.1528   -0.6156    0.0000 C   0  0
   -0.7978   -0.1012    0.0000 C   0  0
   -1.5123   -0.5137    0.0000 C   0  0
   -1.5123   -1.3387    0.0000 O   0  0
   -2.2267   -1.7512    0.0000 C   0  0
   -2.2267   -0.1012    0.0000 C   0  0
   -2.9412   -0.5137    0.0000 Br  0  0
   -2.2267    0.7238    0.0000 C   0  0
   -1.5123    1.1363    0.0000 C   0  0
   -0.7978    0.7238    0.0000 C   0  0
   -0.1528    1.2382    0.0000 N   0  0
   -0.3364    2.0425    0.0000 C   0  0
   -1.1247    2.2856    0.0000 C   0  0
   -1.3083    3.0900    0.0000 N   0  0
   -2.0966    3.3331    0.0000 C   0  0
   -0.7035    3.6511    0.0000 C   0  0
    0.6515    1.0546    0.0000 C   0  0
    1.1659    1.6996    0.0000 O   0  0
    1.0095    0.3113    0.0000 C   0  0  2  0  0  0
    1.8345    0.3113    0.0000 C   0  0
  1  2  1  0
  2  3  1  0
  3  4  2  0
  4  5  1  0
  5  6  2  0
  6  7  1  0
  7  8  2  0
  3  8  1  0
  9  6  1  6
  9 10  1  0
 10 11  1  0
 11 12  2  0
 12 13  1  0
 13 14  1  0
 12 15  1  0
 15 16  1  0
 15 17  2  0
 17 18  1  0
 18 19  2  0
 11 19  1  0
 19 20  1  0
 20 21  1  0
 21 22  1  0
 22 23  1  0
 23 24  1  0
 23 25  1  0
 20 26  1  0
 26 27  2  0
 26 28  1  0
  9 28  1  0
 28 29  1  6
M  END