
  SciTegic12231509382D

 26 29  0  0  0  0            999 V2000
    0.2917   -0.7475    0.0000 C   0  0
    0.2917    0.7475    0.0000 C   0  0
   -1.0028   -1.5132    0.0000 C   0  0
    1.7138    1.2033    0.0000 S   0  0
   -8.7885   -1.5672    0.0000 C   0  0
   -4.9153    0.7255    0.0000 N   0  0
   -1.0028    1.5132    0.0000 C   0  0
   -2.3155    0.7475    0.0000 C   0  0
    1.7138   -1.2033    0.0000 C   0  0
    2.5889    0.0182    0.0000 C   0  0
   -2.3155   -0.7475    0.0000 C   0  0
   -8.7711   -3.0679    0.0000 C   0  0
   -7.4980   -0.8010    0.0000 C   0  0
   -0.9991   -2.7132    0.0000 O   0  0
   -9.8348   -0.9797    0.0000 O   0  0
   -3.6217    1.4865    0.0000 C   0  0
  -10.0598   -3.8357    0.0000 C   0  0
   -7.4619   -3.8003    0.0000 C   0  0
   -7.5133    0.6990    0.0000 C   0  0
   -6.1914   -1.5377    0.0000 C   0  0
   -6.2219    1.4621    0.0000 C   0  0
   -4.9001   -0.7745    0.0000 C   0  0
   -8.7302   -6.0678    0.0000 C   0  0
   -7.4415   -5.3001    0.0000 C   0  0
  -10.0393   -5.3355    0.0000 C   0  0
   -8.7138   -7.2677    0.0000 F   0  0
  1  2  2  0
  1  3  1  0
  2  4  1  0
  2  7  1  0
  7  8  1  0
  1  9  1  0
  4 10  1  0
  9 10  2  0
  3 11  1  0
  8 11  1  0
  5 12  1  0
  5 13  1  0
  3 14  2  0
  5 15  2  0
  6 16  1  0
  8 16  1  0
 12 17  1  0
 12 18  2  0
 13 19  1  0
 13 20  1  0
  6 21  1  0
 19 21  1  0
  6 22  1  0
 20 22  1  0
 18 24  1  0
 23 24  2  0
 17 25  2  0
 23 25  1  0
 23 26  1  0
M  END