
  SciTegic04201616412D

 18 19  0  0  0  0            999 V2000
    1.2990   -0.7500    0.0000 N   0  0
    1.2990    0.7500    0.0000 C   0  0
    0.0000    1.5000    0.0000 C   0  0
   -1.2990    0.7500    0.0000 C   0  0
   -1.2990   -0.7500    0.0000 N   0  0
    0.0000   -1.5000    0.0000 C   0  0
    2.3383    1.3500    0.0000 O   0  0
    0.0000    2.7000    0.0000 C   0  0
   -4.9530   -1.9978    0.0000 C   0  0  1  0  0  0
   -3.9511   -0.8815    0.0000 C   0  0  2  0  0  0
   -2.5987   -1.5004    0.0000 C   0  0  1  0  0  0
   -2.7343   -2.9815    0.0000 O   0  0
   -4.2010   -3.2957    0.0000 C   0  0  2  0  0  0
   -4.8053   -4.6666    0.0000 C   0  0
   -4.0971   -5.6353    0.0000 N   0  0
   -6.1467   -1.8743    0.0000 O   0  0
   -4.1955    0.2933    0.0000 O   0  0
    0.0000   -2.7000    0.0000 O   0  0
  1  2  1  0
  1  6  1  0
  2  3  1  0
  3  4  2  0
  4  5  1  0
  5  6  1  0
  2  7  2  0
  3  8  1  0
  9 10  1  0
 10 11  1  0
 11 12  1  0
 12 13  1  0
 13  9  1  0
 13 14  1  6
 14 15  1  0
 11  5  1  6
  9 16  1  1
 10 17  1  1
  6 18  2  0
M  END