
  SciTegic01161211262D

 66 70  0  0  0  0            999 V2000
    0.8042  -17.0500    0.0000 Na  0  3
   -1.8981  -13.3805    0.0000 C   0  0  2  0  0  0
   -1.9228  -14.2020    0.0000 C   0  0  2  0  0  0
   -1.2217  -14.6326    0.0000 O   0  0
   -0.4979  -14.2442    0.0000 C   0  0  2  0  0  0
   -0.4732  -13.4228    0.0000 C   0  0
   -1.1720  -12.9834    0.0000 C   0  0  2  0  0  0
   -0.5293  -15.0719    0.0000 C   0  0
    0.3225  -14.2690    0.0000 O   0  0
    0.7585  -13.5686    0.0000 C   0  0  2  0  0  0
    1.5828  -13.5980    0.0000 C   0  0  2  0  0  0
    2.0166  -12.8966    0.0000 C   0  0  2  0  0  0
    1.6268  -12.1658    0.0000 O   0  0
    0.8031  -12.1427    0.0000 C   0  0  2  0  0  0
    0.3631  -12.8439    0.0000 C   0  0  2  0  0  0
    0.4151  -11.4080    0.0000 C   0  0
    2.8308  -12.9130    0.0000 O   0  0
    3.2054  -13.6457    0.0000 C   0  0  2  0  0  0
    2.7618  -14.3382    0.0000 C   0  0
    3.1322  -15.0679    0.0000 C   0  0
    3.9583  -15.1157    0.0000 O   0  0
    4.4075  -14.4247    0.0000 C   0  0  2  0  0  0
    4.0335  -13.6852    0.0000 C   0  0  2  0  0  0
    5.2311  -14.4680    0.0000 C   0  0
    5.5803  -15.2153    0.0000 O   0  0
    5.2776  -15.9797    0.0000 C   0  0
    5.7097  -16.6826    0.0000 C   0  0
    5.3173  -17.4142    0.0000 C   0  0
    5.7487  -18.1141    0.0000 C   0  0
    6.5749  -18.0883    0.0000 C   0  0
    6.9687  -17.3603    0.0000 C   0  0
    6.5331  -16.6608    0.0000 C   0  0
   -1.2628  -15.4550    0.0000 O   0  0
    0.1688  -15.5120    0.0000 O   0  5
   -2.5815  -12.1237    0.0000 C   0  0
   -3.2846  -11.6882    0.0000 O   0  0
   -2.6510  -14.5980    0.0000 C   0  0  2  0  0  0
   -2.6730  -15.4195    0.0000 C   0  0  2  0  0  0
   -3.3970  -15.8158    0.0000 C   0  0
   -4.1500  -17.0348    0.0000 C   0  0
   -4.1720  -17.8584    0.0000 C   0  0
   -4.8557  -16.5988    0.0000 O   0  0
   -4.9001  -18.2496    0.0000 C   0  0
   -4.9231  -19.0756    0.0000 C   0  0
   -4.2201  -19.5091    0.0000 C   0  0
   -3.4908  -19.1154    0.0000 C   0  0
   -3.4697  -18.2925    0.0000 C   0  0
   -4.2440  -20.3368    0.0000 Cl  0  0
   -1.8903  -15.0252    0.0000 H   0  0
    7.0046  -18.7885    0.0000 C   0  0
    6.6097  -19.5114    0.0000 C   0  0
    7.0409  -20.2137    0.0000 C   0  0
    7.8651  -20.1894    0.0000 C   0  0
    8.2569  -19.4594    0.0000 C   0  0
    7.8222  -18.7617    0.0000 C   0  0
    2.4603  -12.2015    0.0000 H   0  0
   -0.4606  -12.8229    0.0000 O   0  0
    0.8519  -10.7151    0.0000 O   0  0
    1.9704  -14.3287    0.0000 O   0  0
    4.4815  -12.9885    0.0000 O   0  0
   -1.1454  -12.1599    0.0000 O   0  0
   -2.6009  -12.9485    0.0000 N   0  0
   -1.8527  -11.7283    0.0000 O   0  0
   -1.9713  -15.8564    0.0000 O   0  0
   -3.4255  -16.6403    0.0000 N   0  0
   -3.2940  -14.0762    0.0000 O   0  0
 10  9  1  1
 10 11  1  0
 10 15  1  0
 11 12  1  0
 12 13  1  0
 13 14  1  0
 14 15  1  0
 14 16  1  1
 12 17  1  0
 18 17  1  1
 18 19  1  0
 18 23  1  0
 19 20  1  0
 20 21  1  0
 21 22  1  0
 22 23  1  0
 22 24  1  1
 24 25  1  0
 25 26  1  0
 26 27  1  0
 27 28  2  0
 28 29  1  0
 29 30  2  0
 30 31  1  0
 31 32  2  0
 32 27  1  0
  8 33  2  0
  8 34  1  0
 35 36  2  0
  3 37  1  0
 37 38  1  0
 38 39  1  0
 40 41  1  0
 40 42  2  0
 41 43  2  0
 43 44  1  0
 44 45  2  0
 45 46  1  0
 46 47  2  0
 47 41  1  0
 45 48  1  0
  3 49  1  6
 50 51  2  0
 51 52  1  0
 52 53  2  0
 53 54  1  0
 54 55  2  0
 55 50  1  0
 30 50  1  0
 12 56  1  6
  2  3  1  0
  2  7  1  0
  3  4  1  0
  4  5  1  0
  5  6  1  0
  6  7  1  0
  5  8  1  6
  5  9  1  0
  7 61  1  1
 16 58  1  0
  2 62  1  6
 62 35  1  0
 35 63  1  0
 11 59  1  6
 38 64  1  6
 15 57  1  1
 39 65  1  0
 65 40  1  0
 23 60  1  1
 37 66  1  1
M  CHG  2   1   1  34  -1
M  END