
  SciTegic11201309402D

 81 85  0  0  1  0            999 V2000
    6.5417   -5.2292    0.0000 N   0  0
    5.7292   -5.4042    0.0000 C   0  0
    3.9542   -0.2417    0.0000 N   0  0
    5.1792   -4.7917    0.0000 C   0  0  1  0  0  0
    5.3667   -1.0667    0.0000 C   0  0
    5.6917   -4.1542    0.0000 N   0  0
    5.8167   -1.7542    0.0000 N   0  0
    1.6417   -0.8667    0.0000 N   0  0
    3.1292   -0.2042    0.0000 C   0  0
    5.9917   -3.3792    0.0000 C   0  0
    1.1167   -1.5167    0.0000 C   0  0
    7.0667   -6.6042    0.0000 C   0  0
    4.7292   -0.5417    0.0000 C   0  0  2  0  0  0
    6.0417   -2.5542    0.0000 C   0  0  2  0  0  0
    0.7792   -3.1042    0.0000 N   0  0
    7.1542   -5.7792    0.0000 C   0  0  2  0  0  0
    2.3292   -0.4167    0.0000 C   0  0  2  0  0  0
    0.9917   -3.9042    0.0000 C   0  0
    0.8167   -2.2792    0.0000 C   0  0  2  0  0  0
    7.7417   -7.0917    0.0000 N   0  0
    6.8542   -2.4667    0.0000 C   0  0
    9.2167   -7.1542    0.0000 C   0  0
    9.6542   -3.3167    0.0000 C   0  0
    1.4417   -4.6042    0.0000 C   0  0
    3.6792   -5.4542    0.0000 S   0  0
    2.8792   -5.4667    0.0000 S   0  0
    7.4417   -3.0542    0.0000 C   0  0
    9.9292   -6.7417    0.0000 N   0  0
    2.0792   -5.1167    0.0000 C   0  0
    8.4917   -6.7417    0.0000 C   0  0  2  0  0  0
   11.3042   -6.6667    0.0000 C   0  0
    5.4667   -6.1917    0.0000 O   0  0
    9.7417   -4.1417    0.0000 N   0  0
    5.9917   -0.5042    0.0000 O   0  0
    4.4792   -5.2417    0.0000 C   0  0
    6.3167   -6.9417    0.0000 O   0  0
    2.9792    0.4083    0.0000 O   0  0
    6.8042   -3.5542    0.0000 O   0  0
    0.4042   -1.0917    0.0000 O   0  0
    1.9917    0.3333    0.0000 C   0  0
    0.0167   -2.1042    0.0000 C   0  0
    0.2292   -4.2417    0.0000 O   0  0
    9.2167   -7.9792    0.0000 O   0  0
    7.2542   -3.6667    0.0000 O   0  0
   11.2292   -5.8417    0.0000 O   0  0
   10.6417   -7.1417    0.0000 C   0  0
    8.9042   -2.9792    0.0000 N   0  0
   10.3292   -2.8292    0.0000 N   0  0
    5.1417    0.1708    0.0000 C   0  0  2  0  0  0
    6.8792   -4.4792    0.0000 C   0  0
   12.0667   -6.9917    0.0000 N   0  0
    8.2542   -2.9667    0.0000 N   0  0
    2.4792    1.0083    0.0000 C   0  0
   -0.7083   -2.5167    0.0000 C   0  0
   11.7417   -9.1542    0.0000 N   0  0
    7.8667   -5.3667    0.0000 C   0  0
    7.6917   -4.5667    0.0000 C   0  0
    9.0792   -4.6167    0.0000 C   0  0
    2.5542   -5.7417    0.0000 C   0  0
    1.3167   -5.0167    0.0000 C   0  0
    8.4917   -5.9167    0.0000 C   0  0
   12.2167   -7.8042    0.0000 C   0  0
   11.5917   -8.3417    0.0000 C   0  0
    5.9667    0.1708    0.0000 C   0  0
    4.7292    0.8958    0.0000 C   0  0
   -0.7083   -3.3417    0.0000 C   0  0
    3.3042    0.9208    0.0000 C   0  0
    2.1417    1.7583    0.0000 C   0  0
   -1.4208   -2.0917    0.0000 C   0  0
    9.1542   -5.4417    0.0000 C   0  0
    6.3792    0.8833    0.0000 C   0  0
    0.9042   -5.7417    0.0000 C   0  0
    2.1417   -6.4542    0.0000 C   0  0
    2.6292    2.4333    0.0000 C   0  0
   -2.1333   -2.5042    0.0000 C   0  0
   -1.4208   -3.7417    0.0000 C   0  0
    3.7917    1.5958    0.0000 C   0  0
   -2.1458   -3.3292    0.0000 C   0  0
    3.4542    2.3458    0.0000 C   0  0
    1.3167   -6.4542    0.0000 C   0  0
    4.3973    0.4016    0.0000 H   0  0
  2  1  1  0
  3 13  1  0
  4  2  1  6
  5  7  1  0
  6  4  1  0
  7 14  1  0
  8 11  1  0
  9  3  1  0
 10  6  1  0
 11 19  1  0
 16 12  1  1
 13  5  1  0
 14 10  1  0
 15 18  1  0
 16  1  1  0
 17  9  1  0
 18 24  1  0
 19 15  1  0
 20 12  1  0
 14 21  1  1
 22 30  1  0
 23 33  2  0
 24 29  1  0
 25 35  1  0
 26 25  1  0
 27 21  1  0
 28 22  1  0
 29 26  1  0
 30 20  1  1
 31 46  1  0
 32  2  2  0
 33 58  1  0
 34  5  2  0
  4 35  1  0
 36 12  2  0
 37  9  2  0
 38 10  2  0
 39 11  2  0
 17 40  1  1
 19 41  1  6
 42 18  2  0
 43 22  2  0
 44 27  2  0
 45 31  2  0
 46 28  1  0
 47 23  1  0
 48 23  1  0
 13 49  1  0
 50  1  1  0
 51 31  1  0
 52 27  1  0
 53 40  1  0
 54 41  1  0
 55 63  1  0
 56 16  1  0
 57 50  1  0
 58 70  1  0
 59 29  1  0
 60 29  1  0
 30 61  1  0
 62 51  1  0
 63 62  1  0
 64 49  1  0
 49 65  1  1
 66 54  1  0
 67 53  1  0
 68 53  2  0
 69 54  2  0
 70 61  1  0
 71 64  1  0
 72 60  1  0
 73 59  1  0
 74 68  1  0
 75 69  1  0
 76 66  2  0
 77 67  2  0
 78 75  2  0
 79 74  2  0
 80 72  1  0
 56 57  1  0
 73 80  1  0
  8 17  1  0
 76 78  1  0
 77 79  1  0
 13 81  1  6
M  END