
          11280715492D 1   1.00000     0.00000     0

 17 19  0     0  0            999 V2000
   -5.1306   -9.3958    0.0000 C   0  0  0  0  0  0           0  0  0
   -5.1318  -10.2232    0.0000 C   0  0  0  0  0  0           0  0  0
   -4.4169  -10.6360    0.0000 C   0  0  0  0  0  0           0  0  0
   -4.4187   -8.9830    0.0000 C   0  0  0  0  0  0           0  0  0
   -3.7034   -9.3922    0.0000 C   0  0  0  0  0  0           0  0  0
   -3.7026  -10.2190    0.0000 C   0  0  0  0  0  0           0  0  0
   -2.9873  -10.6300    0.0000 N   0  0  0  0  0  0           0  0  0
   -2.2723  -10.2152    0.0000 C   0  0  0  0  0  0           0  0  0
   -2.2770   -9.3852    0.0000 C   0  0  0  0  0  0           0  0  0
   -2.9929   -8.9780    0.0000 C   0  0  0  0  0  0           0  0  0
   -1.5562  -10.6249    0.0000 N   0  0  0  0  0  0           0  0  0
   -0.8433  -10.2097    0.0000 C   0  0  0  0  0  0           0  0  0
   -0.8465   -9.3847    0.0000 C   0  0  0  0  0  0           0  0  0
   -0.1783   -8.8975    0.0000 N   0  0  0  0  0  0           0  0  0
   -0.4388   -8.1177    0.0000 C   0  0  0  0  0  0           0  0  0
   -1.2766   -8.1259    0.0000 C   0  0  0  0  0  0           0  0  0
   -1.5163   -8.9041    0.0000 C   0  0  0  0  0  0           0  0  0
  5  4  1  0     0  0
  8  9  2  0     0  0
  4  1  2  0     0  0
  9 10  1  0     0  0
 10  5  2  0     0  0
  8 11  1  0     0  0
  2  3  2  0     0  0
 11 12  1  0     0  0
  5  6  1  0     0  0
 12 13  1  0     0  0
  3  6  1  0     0  0
  6  7  2  0     0  0
  1  2  1  0     0  0
  7  8  1  0     0  0
 14 15  1  0     0  0
 15 16  2  0     0  0
 16 17  1  0     0  0
 17 13  2  0     0  0
 13 14  1  0     0  0
M  END