
  SciTegic05171617272D

 32 36  0  0  1  0            999 V2000
   -3.6251    2.6919    0.0000 C   0  0
   -3.6187    1.4919    0.0000 O   0  0
   -2.3155    0.7475    0.0000 C   0  0
   -2.3155   -0.7475    0.0000 C   0  0
   -1.0028   -1.5132    0.0000 C   0  0
    0.2917   -0.7475    0.0000 C   0  0
    1.7138   -1.2033    0.0000 C   0  0  2  0  0  0
    2.5889    0.0182    0.0000 C   0  0
    1.7138    1.2033    0.0000 C   0  0
    0.2917    0.7475    0.0000 C   0  0
   -1.0028    1.5132    0.0000 C   0  0
    2.1796   -2.6273    0.0000 N   0  0
    1.1782   -3.7452    0.0000 C   0  0
    0.0039   -3.4984    0.0000 O   0  0
    1.6448   -5.1717    0.0000 C   0  0
    0.6434   -6.2896    0.0000 O   0  0
    1.1099   -7.7161    0.0000 C   0  0
    0.1068   -8.8262    0.0000 C   0  0
    0.5681  -10.2742    0.0000 C   0  0
   -0.4332  -11.3918    0.0000 C   0  0
   -1.6078  -11.1460    0.0000 F   0  0
   -0.0592  -12.5320    0.0000 F   0  0
    2.0421  -10.5732    0.0000 C   0  0
    2.7922  -11.8645    0.0000 C   0  0
    4.2603  -11.5442    0.0000 N   0  0
    4.4049  -10.0781    0.0000 N   0  0
    5.4437   -9.4775    0.0000 C   0  0
    3.0439   -9.4635    0.0000 C   0  0
    2.5961   -8.0277    0.0000 N   0  0
    2.1873  -13.2379    0.0000 C   0  0
    2.2591  -14.6537    0.0000 C   0  0
    0.9464  -13.9279    0.0000 C   0  0
  1  2  1  0
  2  3  1  0
  3  4  2  0
  4  5  1  0
  5  6  2  0
  6  7  1  0
  7  8  1  0
  8  9  1  0
  9 10  1  0
  6 10  1  0
 10 11  2  0
  3 11  1  0
  7 12  1  6
 12 13  1  0
 13 14  2  0
 13 15  1  0
 15 16  1  0
 16 17  1  0
 17 18  2  0
 18 19  1  0
 19 20  1  0
 20 21  1  0
 20 22  1  0
 19 23  2  0
 23 24  1  0
 24 25  2  0
 25 26  1  0
 26 27  1  0
 26 28  1  0
 23 28  1  0
 28 29  2  0
 17 29  1  0
 24 30  1  0
 30 31  1  0
 31 32  1  0
 30 32  1  0
M  END