
          11280715252D 1   1.00000     0.00000     0

 22 24  0     0  0            999 V2000
    0.2167   -3.1625    0.0000 N   0  0  3  0  0  0           0  0  0
    3.0667    0.9708    0.0000 N   0  0  3  0  0  0           0  0  0
    0.9292   -2.7500    0.0000 C   0  0  0  0  0  0           0  0  0
    0.9292   -1.9250    0.0000 C   0  0  0  0  0  0           0  0  0
    0.9292   -0.2667    0.0000 C   0  0  0  0  0  0           0  0  0
    0.2167   -1.5125    0.0000 C   0  0  0  0  0  0           0  0  0
    1.6417   -1.5125    0.0000 C   0  0  0  0  0  0           0  0  0
    0.2167   -0.6875    0.0000 C   0  0  0  0  0  0           0  0  0
    1.6417   -0.6792    0.0000 C   0  0  0  0  0  0           0  0  0
    0.9250    0.5583    0.0000 O   0  0  0  0  0  0           0  0  0
    2.3542    0.5583    0.0000 C   0  0  0  0  0  0           0  0  0
    1.6417    0.9708    0.0000 C   0  0  0  0  0  0           0  0  0
   -0.4958   -2.7500    0.0000 C   0  0  0  0  0  0           0  0  0
    0.2167   -3.9875    0.0000 C   0  0  0  0  0  0           0  0  0
    3.7875    0.5583    0.0000 C   0  0  0  0  0  0           0  0  0
    3.0667    1.7958    0.0000 C   0  0  0  0  0  0           0  0  0
   -0.4958   -4.3917    0.0000 C   0  0  0  0  0  0           0  0  0
    4.5000    0.9708    0.0000 C   0  0  0  0  0  0           0  0  0
    3.7792    2.2083    0.0000 C   0  0  0  0  0  0           0  0  0
   -1.2083   -3.1542    0.0000 C   0  0  0  0  0  0           0  0  0
   -1.2125   -3.9792    0.0000 C   0  0  0  0  0  0           0  0  0
    4.5000    1.7958    0.0000 C   0  0  0  0  0  0           0  0  0
  2 11  1  0     0  0
  3  1  1  0     0  0
  4  3  1  0     0  0
  5  9  2  0     0  0
  6  4  1  0     0  0
  7  4  2  0     0  0
  8  6  2  0     0  0
  9  7  1  0     0  0
 10  5  1  0     0  0
 11 12  1  0     0  0
 12 10  1  0     0  0
 13  1  1  0     0  0
 14  1  1  0     0  0
 15  2  1  0     0  0
 16  2  1  0     0  0
 17 14  1  0     0  0
 18 15  1  0     0  0
 19 16  1  0     0  0
 20 13  1  0     0  0
 21 17  1  0     0  0
 22 19  1  0     0  0
 20 21  1  0     0  0
  8  5  1  0     0  0
 18 22  1  0     0  0
M  END