
  SciTegic10311316262D

 29 31  0  0  0  0            999 V2000
   12.9013  -12.9207    0.0000 C   0  0
   12.9002  -13.7481    0.0000 C   0  0
   13.6150  -14.1609    0.0000 C   0  0
   14.3314  -13.7476    0.0000 C   0  0
   14.3286  -12.9171    0.0000 C   0  0
   13.6132  -12.5079    0.0000 C   0  0
   15.0415  -12.5019    0.0000 N   0  0
   15.7575  -12.9117    0.0000 C   0  0
   16.4704  -12.4965    0.0000 C   0  0
   15.7606  -13.7367    0.0000 O   0  0
   17.1864  -12.9063    0.0000 S   0  0
   17.8993  -12.4911    0.0000 C   0  0
   18.6152  -12.9041    0.0000 N   0  0
   19.3260  -12.4924    0.0000 C   0  0
   19.3272  -11.6670    0.0000 C   0  0
   18.6113  -11.2550    0.0000 C   0  0
   17.8943  -11.6684    0.0000 N   0  0
   18.6110  -10.4300    0.0000 O   0  0
   20.0423  -11.2588    0.0000 C   0  0
   20.7568  -10.8463    0.0000 N   0  0
   20.0388  -12.9040    0.0000 C   0  0
   20.0375  -13.7301    0.0000 C   0  0
   20.7511  -14.1426    0.0000 C   0  0
   21.4666  -13.7300    0.0000 C   0  0
   21.4639  -12.9008    0.0000 C   0  0
   20.7497  -12.4921    0.0000 C   0  0
   22.1816  -14.1416    0.0000 Cl  0  0
   13.6107  -11.6829    0.0000 O   0  0
   14.3239  -11.2683    0.0000 C   0  0
  1  2  2  0
  2  3  1  0
  3  4  2  0
  4  5  1  0
  5  6  2  0
  6  1  1  0
  5  7  1  0
  7  8  1  0
  8  9  1  0
  8 10  2  0
  9 11  1  0
 11 12  1  0
 12 13  2  0
 12 17  1  0
 13 14  1  0
 14 15  2  0
 15 16  1  0
 16 17  1  0
 16 18  2  0
 19 20  3  0
 15 19  1  0
 21 22  2  0
 22 23  1  0
 23 24  2  0
 24 25  1  0
 25 26  2  0
 26 21  1  0
 14 21  1  0
 24 27  1  0
  6 28  1  0
 28 29  1  0
M  END