
  SciTegic01161211252D

 30 32  0  0  0  0            999 V2000
   16.1777   -9.8166    0.0000 C   0  0
   16.1766  -10.6440    0.0000 C   0  0
   16.8914  -11.0569    0.0000 C   0  0
   17.6078  -10.6435    0.0000 C   0  0
   17.6050   -9.8130    0.0000 C   0  0
   16.8896   -9.4039    0.0000 C   0  0
   16.8912  -11.8819    0.0000 O   0  0
   17.6056  -12.2945    0.0000 C   0  0
   17.6054  -13.1195    0.0000 C   0  0
   18.3201  -11.8822    0.0000 O   0  0
   16.8904  -13.5275    0.0000 C   0  0
   16.8898  -14.3518    0.0000 C   0  0
   17.6047  -14.7653    0.0000 C   0  0
   18.3217  -14.3485    0.0000 C   0  0
   18.3187  -13.5256    0.0000 C   0  0
   16.1750  -14.7637    0.0000 O   0  0
   17.6056  -15.5903    0.0000 O   0  0
   19.0375  -14.7587    0.0000 O   0  0
   18.3230  -11.0549    0.0000 O   0  0
   19.0368  -10.6413    0.0000 C   0  0
   19.7519  -11.0527    0.0000 C   0  0
   19.0355   -9.8163    0.0000 O   0  0
   19.7485  -11.8761    0.0000 C   0  0
   20.4628  -12.2874    0.0000 C   0  0
   21.1776  -11.8737    0.0000 C   0  0
   21.1736  -11.0444    0.0000 C   0  0
   20.4588  -10.6369    0.0000 C   0  0
   21.8860  -10.6283    0.0000 O   0  0
   21.8933  -12.2841    0.0000 O   0  0
   20.4637  -13.1124    0.0000 O   0  0
 14 15  2  0
 15  9  1  0
  3  4  2  0
 12 16  1  0
  7  8  1  0
 13 17  1  0
 14 18  1  0
  8  9  1  0
  4 19  1  0
  4  5  1  0
 19 20  1  0
  8 10  2  0
 20 21  1  0
  2  3  1  0
 20 22  2  0
  9 11  2  0
 21 23  2  0
  5  6  2  0
 23 24  1  0
 11 12  1  0
 24 25  2  0
  6  1  1  0
 25 26  1  0
 12 13  2  0
 26 27  2  0
 27 21  1  0
  1  2  2  0
 26 28  1  0
 13 14  1  0
 25 29  1  0
  3  7  1  0
 24 30  1  0
M  END