
          11280714542D 1   1.00000     0.00000     0

 31 32  0     0  0            999 V2000
    0.5792   -5.0750    0.0000 C   0  0  0  0  0  0           0  0  0
    1.1000   -5.3667    0.0000 N   0  0  0  0  0  0           0  0  0
    4.2667   -4.1917    0.0000 N   0  0  3  0  0  0           0  0  0
    1.6167   -5.0667    0.0000 C   0  0  0  0  0  0           0  0  0
    0.0625   -5.3792    0.0000 C   0  0  0  0  0  0           0  0  0
    4.0375   -4.8917    0.0000 C   0  0  3  0  0  0           0  0  0
    3.7167   -4.5042    0.0000 C   0  0  3  0  0  0           0  0  0
    2.6542   -5.0667    0.0000 C   0  0  3  0  0  0           0  0  0
    3.1750   -4.7625    0.0000 C   0  0  0  0  0  0           0  0  0
    2.8917   -4.3625    0.0000 C   0  0  0  0  0  0           0  0  0
    2.1417   -5.3667    0.0000 O   0  0  0  0  0  0           0  0  0
    5.3292   -5.1167    0.0000 C   0  0  0  0  0  0           0  0  0
    6.5292   -5.1167    0.0000 C   0  0  0  0  0  0           0  0  0
    0.5750   -4.4750    0.0000 O   0  0  0  0  0  0           0  0  0
   -0.4583   -5.0792    0.0000 C   0  0  0  0  0  0           0  0  0
    1.6167   -4.4667    0.0000 O   0  0  0  0  0  0           0  0  0
    4.0292   -5.4917    0.0000 C   0  0  0  0  0  0           0  0  0
    3.5125   -5.1917    0.0000 C   0  0  0  0  0  0           0  0  0
    4.7292   -5.1167    0.0000 O   0  0  0  0  0  0           0  0  0
    7.1292   -5.1167    0.0000 O   0  0  0  0  0  0           0  0  0
    5.6292   -4.6042    0.0000 C   0  0  0  0  0  0           0  0  0
    6.2292   -4.6042    0.0000 C   0  0  0  0  0  0           0  0  0
    6.2292   -5.6417    0.0000 O   0  0  0  0  0  0           0  0  0
    5.6292   -5.6417    0.0000 O   0  0  0  0  0  0           0  0  0
    4.5625   -3.6667    0.0000 C   0  0  0  0  0  0           0  0  0
    0.0625   -5.9792    0.0000 C   0  0  0  0  0  0           0  0  0
   -0.4625   -4.4792    0.0000 O   0  0  0  0  0  0           0  0  0
   -0.9750   -5.3792    0.0000 C   0  0  0  0  0  0           0  0  0
   -0.9833   -4.1792    0.0000 C   0  0  0  0  0  0           0  0  0
   -0.4583   -6.2792    0.0000 C   0  0  0  0  0  0           0  0  0
   -0.9750   -5.9792    0.0000 C   0  0  0  0  0  0           0  0  0
  2  1  1  0     0  0
  3  6  1  0     0  0
  4  2  1  0     0  0
  5  1  1  0     0  0
  6  9  1  0     0  0
  7 10  1  0     0  0
  8 11  1  0     0  0
  9  8  1  0     0  0
 10  8  1  0     0  0
 11  4  1  0     0  0
 13 22  1  0     0  0
 14  1  2  0     0  0
 15  5  2  0     0  0
 16  4  2  0     0  0
 17  6  1  0     0  0
 18  7  1  0     0  0
 19 12  2  0     0  0
 20 13  2  0     0  0
 21 12  1  0     0  0
 22 21  1  0     0  0
 23 13  1  0     0  0
 24 12  1  0     0  0
 25  3  1  0     0  0
 26  5  1  0     0  0
 27 15  1  0     0  0
 28 15  1  0     0  0
 29 27  1  0     0  0
 30 26  2  0     0  0
 31 30  1  0     0  0
 31 28  2  0     0  0
  7  3  1  0     0  0
 18 17  1  0     0  0
M  END