
  SciTegic04151115542D

 23 26  0  0  0  0            999 V2000
    8.7968   -5.5186    0.0000 C   0  0
    9.5137   -5.1051    0.0000 C   0  0
    9.5109   -4.2739    0.0000 C   0  0
    8.7950   -3.8646    0.0000 C   0  0
    8.0816   -5.1055    0.0000 C   0  0
    8.0857   -4.2821    0.0000 C   0  0
    7.3787   -3.8692    0.0000 C   0  0
    6.6629   -4.2750    0.0000 C   0  0
    6.6588   -5.0983    0.0000 C   0  0
    7.3703   -5.5159    0.0000 C   0  0
    5.9415   -5.5068    0.0000 N   0  0
    5.2290   -5.0897    0.0000 C   0  0
    4.5116   -5.4982    0.0000 C   0  0
    5.2339   -4.2642    0.0000 O   0  0
    3.7988   -5.0812    0.0000 C   0  0
    3.8084   -4.2570    0.0000 C   0  0
    3.0273   -3.9897    0.0000 N   0  0
    3.0066   -5.3252    0.0000 C   0  0
    2.5323   -4.6498    0.0000 C   0  0
    1.7122   -4.7237    0.0000 C   0  0
    1.3653   -5.4723    0.0000 C   0  0
    1.8447   -6.1480    0.0000 C   0  0
    2.6631   -6.0706    0.0000 C   0  0
  9 11  1  0
  1  2  2  0
 11 12  1  0
  5  1  1  0
 12 13  1  0
  2  3  1  0
 12 14  2  0
 13 15  1  0
 15 16  2  0
  3  4  2  0
  4  6  1  0
 16 17  1  0
 17 19  1  0
 18 15  1  0
  5 10  1  0
  6  7  1  0
 18 19  2  0
  7  8  1  0
 19 20  1  0
  8  9  1  0
 20 21  2  0
  9 10  1  0
 21 22  1  0
  5  6  2  0
 22 23  2  0
 23 18  1  0
M  END