
          11280714482D 1   1.00000     0.00000     0

 18 18  0     0  0            999 V2000
    3.5250  -19.0042    0.0000 C   0  0  0  0  0  0           0  0  0
    4.0417  -18.7042    0.0000 C   0  0  0  0  0  0           0  0  0
    4.5625  -17.7917    0.0000 O   0  0  0  0  0  0           0  0  0
    4.0417  -18.1000    0.0000 C   0  0  0  0  0  0           0  0  0
    3.0042  -18.7042    0.0000 C   0  0  0  0  0  0           0  0  0
    5.6000  -17.7917    0.0000 C   0  0  3  0  0  0           0  0  0
    5.0792  -18.0917    0.0000 C   0  0  3  0  0  0           0  0  0
    6.1250  -18.0875    0.0000 C   0  0  0  0  0  0           0  0  0
    6.6417  -17.7875    0.0000 N   0  0  0  0  0  0           0  0  0
    3.0042  -18.1000    0.0000 C   0  0  0  0  0  0           0  0  0
    3.5250  -19.6042    0.0000 Cl  0  0  0  0  0  0           0  0  0
    3.5250  -17.8000    0.0000 C   0  0  0  0  0  0           0  0  0
    2.4875  -19.0042    0.0000 Cl  0  0  0  0  0  0           0  0  0
    5.6000  -17.1917    0.0000 O   0  0  0  0  0  0           0  0  0
    7.1625  -18.0792    0.0000 C   0  0  3  0  0  0           0  0  0
    5.0875  -18.6917    0.0000 C   0  0  0  0  0  0           0  0  0
    7.1667  -18.6792    0.0000 C   0  0  0  0  0  0           0  0  0
    7.6792  -17.7792    0.0000 C   0  0  0  0  0  0           0  0  0
  2  1  2  0     0  0
  3  4  1  0     0  0
  4  2  1  0     0  0
  5  1  1  0     0  0
  6  7  1  0     0  0
  7  3  1  0     0  0
  8  6  1  0     0  0
  9  8  1  0     0  0
 10  5  2  0     0  0
 11  1  1  0     0  0
 12 10  1  0     0  0
 13  5  1  0     0  0
 14  6  1  0     0  0
 15  9  1  0     0  0
 16  7  1  0     0  0
 17 15  1  0     0  0
 18 15  1  0     0  0
 12  4  2  0     0  0
M  END