
          11280715122D 1   1.00000     0.00000     0

 25 25  0     0  0            999 V2000
   -1.5458    1.7875    0.0000 N   0  0  0  0  0  0           0  0  0
   -1.5375    0.4500    0.0000 N   0  0  0  0  0  0           0  0  0
   -2.0333    1.1208    0.0000 C   0  0  0  0  0  0           0  0  0
   -0.7583    1.5375    0.0000 C   0  0  0  0  0  0           0  0  0
    3.7250   -1.3875    0.0000 C   0  0  0  0  0  0           0  0  0
    2.0917   -1.3417    0.0000 C   0  0  0  0  0  0           0  0  0
    2.5042   -0.6292    0.0000 C   0  0  0  0  0  0           0  0  0
    3.3292   -0.6542    0.0000 C   0  0  0  0  0  0           0  0  0
   -0.7583    0.7125    0.0000 C   0  0  0  0  0  0           0  0  0
    2.4917   -2.0667    0.0000 O   0  0  0  0  0  0           0  0  0
    4.5500   -1.4167    0.0000 O   0  0  0  0  0  0           0  0  0
    3.2917   -2.0917    0.0000 O   0  0  0  0  0  0           0  0  0
    1.2667   -1.3375    0.0000 O   0  0  0  0  0  0           0  0  0
    2.0917    1.5458    0.0000 O   0  0  0  0  0  0           0  0  0
   -0.0458    1.9583    0.0000 C   0  0  0  0  0  0           0  0  0
    4.9417    1.5458    0.0000 C   0  0  3  0  0  0           0  0  0
    2.8042    1.9583    0.0000 C   0  0  0  0  0  0           0  0  0
    1.3792    1.9583    0.0000 C   0  0  0  0  0  0           0  0  0
    4.2292    1.9583    0.0000 C   0  0  0  0  0  0           0  0  0
    4.9292    0.7208    0.0000 C   0  0  0  0  0  0           0  0  0
    5.7250    1.7958    0.0000 C   0  0  0  0  0  0           0  0  0
    0.6667    1.5458    0.0000 C   0  0  0  0  0  0           0  0  0
    3.5167    1.5458    0.0000 C   0  0  0  0  0  0           0  0  0
    6.2042    1.1208    0.0000 C   0  0  0  0  0  0           0  0  0
    5.7167    0.4583    0.0000 C   0  0  0  0  0  0           0  0  0
  2  3  1  0     0  0
  3  1  2  0     0  0
  4  1  1  0     0  0
  6  7  1  0     0  0
  7  8  2  0     0  0
  8  5  1  0     0  0
  9  4  2  0     0  0
 10  6  2  0     0  0
 11  5  2  0     0  0
 12  5  1  0     0  0
 13  6  1  0     0  0
 14 18  1  0     0  0
 15  4  1  0     0  0
 16 19  1  0     0  0
 17 14  1  0     0  0
 18 22  1  0     0  0
 19 23  1  0     0  0
 20 16  1  0     0  0
 21 16  1  0     0  0
 22 15  1  0     0  0
 23 17  1  0     0  0
 24 21  1  0     0  0
 25 20  1  0     0  0
  9  2  1  0     0  0
 24 25  1  0     0  0
M  END