
  SciTegic01161211252D

 28 29  0  0  0  0            999 V2000
    3.6917   -5.0542    0.0000 S   0  0
    6.3167   -3.9792    0.0000 S   0  0
    4.9167   -5.9917    0.0000 C   0  0
    4.4875   -5.2917    0.0000 O   0  0
    5.7417   -5.9667    0.0000 C   0  0  1  0  0  0
    5.7125   -4.5417    0.0000 O   0  0
    2.8917   -4.8167    0.0000 O   0  0
    7.0500   -3.6000    0.0000 O   0  0
    3.9250   -4.2542    0.0000 O   0  0
    3.4500   -5.8417    0.0000 O   0  0
    6.1417   -5.2500    0.0000 C   0  0
    6.6917   -4.7167    0.0000 O   0  0
    5.9375   -3.2500    0.0000 O   0  0
    4.5167   -6.7167    0.0000 C   0  0  1  0  0  0
    6.1667   -6.6792    0.0000 O   0  0
    5.7667   -7.4042    0.0000 C   0  0
    4.9500   -7.4167    0.0000 C   0  0
    3.6917   -6.7375    0.0000 O   0  0
    0.9542   -8.8792    0.0000 C   0  0
    2.5042   -7.4792    0.0000 C   0  0
    1.3375   -8.1917    0.0000 O   0  0
    3.3000   -7.4542    0.0000 C   0  0
    2.1292   -8.1667    0.0000 C   0  0
    0.1667   -8.9000    0.0000 C   0  0
    1.3667   -9.5542    0.0000 C   0  0
    0.9917  -10.2500    0.0000 C   0  0
   -0.2125   -9.5917    0.0000 C   0  0
    0.2000  -10.2667    0.0000 C   0  0
  2  6  1  0
  4  3  1  0
  4  1  1  0
  5  3  1  0
  6 11  1  0
  7  1  1  0
  8  2  1  0
  9  1  2  0
 10  1  2  0
  5 11  1  1
 12  2  2  0
 13  2  2  0
 14  3  1  0
 15  5  1  0
 16 17  1  0
 17 14  1  0
 14 18  1  1
 19 21  1  0
 20 22  1  0
 21 23  1  0
 22 18  1  0
 23 20  1  0
 24 19  2  0
 25 19  1  0
 26 25  2  0
 27 24  1  0
 28 26  1  0
 15 16  1  0
 27 28  2  0
M  END