
  SciTegic04091511462D

 59 63  0  0  1  0            999 V2000
   27.1604   -3.4780    0.0000 C   0  0
   26.4243   -3.0898    0.0000 C   0  0  1  0  0  0
   27.8883   -3.0816    0.0000 N   0  0
   25.6802   -3.5023    0.0000 C   0  0  2  0  0  0
   22.7603   -3.5265    0.0000 C   0  0
   24.9523   -3.1140    0.0000 C   0  0  1  0  0  0
   24.2243   -3.5023    0.0000 C   0  0  1  0  0  0
   23.4964   -3.1140    0.0000 N   0  0
   28.6162   -3.4780    0.0000 C   0  0  2  0  0  0
   29.3603   -3.0655    0.0000 C   0  0
   22.0162   -3.1301    0.0000 C   0  0  1  0  0  0
   22.0809   -0.9221    0.0000 N   0  0
   22.4287   -1.6500    0.0000 C   0  0
   21.2883   -3.5265    0.0000 N   0  0
   22.0162   -2.3376    0.0000 C   0  0
   20.5604   -3.1383    0.0000 C   0  0
   23.4397   -0.7765    0.0000 N   0  0
   30.0882   -3.4537    0.0000 N   0  0
   22.6957   -0.3882    0.0000 C   0  0
   27.1604   -4.2787    0.0000 O   0  0
   18.5707   -5.0309    0.0000 C   0  0
   23.2780   -1.5529    0.0000 C   0  0
   24.2404   -4.3030    0.0000 C   0  0
   22.7684   -4.3030    0.0000 O   0  0
   19.4199   -5.0228    0.0000 C   0  0
   19.8324   -4.3273    0.0000 O   0  0
   32.2802   -3.0412    0.0000 N   0  0
   29.3442   -2.2809    0.0000 O   0  0
   20.5604   -2.3376    0.0000 O   0  0
   26.4082   -2.3051    0.0000 C   0  0
   25.7045   -4.2787    0.0000 O   0  0
   19.8324   -3.5508    0.0000 C   0  0
   18.1500   -5.7104    0.0000 C   0  0
   24.9441   -2.3133    0.0000 O   0  0
   28.6405   -4.2545    0.0000 C   0  0  2  0  0  0
   30.8243   -3.0655    0.0000 C   0  0
   31.5523   -3.4537    0.0000 C   0  0
   23.8037   -4.9824    0.0000 C   0  0
   19.4199   -6.3898    0.0000 C   0  0
   33.0082   -3.4295    0.0000 C   0  0
   19.8324   -5.7022    0.0000 C   0  0
   18.1500   -4.3515    0.0000 C   0  0
   18.5707   -6.3898    0.0000 C   0  0
   29.3684   -4.6588    0.0000 C   0  0
   17.3089   -5.7104    0.0000 C   0  0
   25.6802   -1.9169    0.0000 C   0  0
   27.1522   -1.9008    0.0000 C   0  0
   27.9044   -4.6670    0.0000 C   0  0
   31.5523   -4.2302    0.0000 C   0  0
   22.9626   -4.9743    0.0000 C   0  0
   24.2243   -5.6618    0.0000 C   0  0
   29.3684   -5.4434    0.0000 C   0  0
   33.0243   -4.2302    0.0000 C   0  0
   17.3089   -4.3515    0.0000 C   0  0
   16.8964   -5.0309    0.0000 C   0  0
   32.2963   -4.6346    0.0000 C   0  0
   23.7876   -6.3412    0.0000 C   0  0
   22.5258   -5.6537    0.0000 C   0  0
   22.9383   -6.3412    0.0000 C   0  0
  2  1  1  1
  3  1  1  0
  4  2  1  0
  5  8  1  0
  6  4  1  0
  7  6  1  0
  7  8  1  6
  9  3  1  6
 10  9  1  0
 11  5  1  0
 12 13  1  0
 13 15  1  0
 11 14  1  1
 11 15  1  0
 16 14  1  0
 17 22  1  0
 18 10  1  0
 19 12  2  0
 20  1  2  0
 21 25  1  0
 22 13  2  0
  7 23  1  0
 24  5  2  0
 25 26  1  0
 26 32  1  0
 27 37  1  0
 28 10  2  0
 29 16  2  0
  2 30  1  0
  4 31  1  1
 32 16  1  0
 33 21  2  0
  6 34  1  1
  9 35  1  0
 36 18  1  0
 37 36  1  0
 38 23  1  0
 39 41  1  0
 40 27  2  0
 41 25  2  0
 42 21  1  0
 43 39  2  0
 44 35  1  0
 45 33  1  0
 46 30  1  0
 47 30  1  0
 35 48  1  6
 49 37  2  0
 50 38  1  0
 51 38  1  0
 52 44  1  0
 53 56  2  0
 54 42  2  0
 55 54  1  0
 56 49  1  0
 57 51  1  0
 58 50  1  0
 59 57  1  0
 40 53  1  0
 58 59  1  0
 17 19  1  0
 33 43  1  0
 55 45  2  0
M  END