
  SciTegic11201309402D

 68 75  0  0  1  0            999 V2000
    2.5417    0.1458    0.0000 C   0  0
    1.2542   -0.2167    0.0000 C   0  0
    2.0292   -0.5042    0.0000 S   0  0
    3.3625    0.1125    0.0000 C   0  0  2  0  0  0
    4.0167   -0.4042    0.0000 C   0  0
    1.2875    0.6083    0.0000 N   0  0
    5.9667   -1.9417    0.0000 C   0  0
   -0.0708   -1.9542    0.0000 C   0  0
    6.2125   -0.3042    0.0000 C   0  0
    8.2875   -1.0167    0.0000 C   0  0
    4.7875   -0.0917    0.0000 N   0  0
   -0.8583   -0.7667    0.0000 C   0  0
    2.0792    0.8333    0.0000 C   0  0
    0.1250   -3.2875    0.0000 N   0  0
    7.2292   -2.4042    0.0000 N   0  0
   -0.1750   -0.3042    0.0000 N   0  0
    6.8542   -0.8167    0.0000 N   0  0
    9.0542   -0.7125    0.0000 N   0  0
    0.5667   -0.6750    0.0000 C   0  0  2  0  0  0
    0.5125   -2.5542    0.0000 C   0  0
    6.7667   -1.7167    0.0000 C   0  0
    5.4375   -0.6125    0.0000 C   0  0  2  0  0  0
    7.6292   -0.5042    0.0000 C   0  0  1  0  0  0
    9.7042   -1.2292    0.0000 C   0  0  2  0  0  0
   10.4792   -0.9167    0.0000 C   0  0
   -0.7958   -2.3167    0.0000 C   0  0
    5.9375   -2.7750    0.0000 C   0  0
    0.6250   -1.5042    0.0000 C   0  0
    5.3167   -1.4292    0.0000 C   0  0
   -0.6875   -3.1292    0.0000 C   0  0
    6.7167   -3.0625    0.0000 C   0  0
    3.4792    0.9375    0.0000 C   0  0
   -2.0833   -0.9375    0.0000 N   0  0
   -1.5458   -0.4250    0.0000 C   0  0  1  0  0  0
    3.8917   -1.2250    0.0000 O   0  0
    6.3250    0.5208    0.0000 O   0  0
    8.1667   -1.8417    0.0000 O   0  0
   -0.8125   -1.5917    0.0000 O   0  0
    9.5875   -2.0542    0.0000 C   0  0
   10.5917   -0.0917    0.0000 O   0  0
    7.7500    0.3125    0.0000 C   0  0
   11.2542   -1.1792    0.0000 N   0  0
    4.2542    1.2458    0.0000 C   0  0
   10.2417   -2.5625    0.0000 C   0  0
   -1.5583   -2.0042    0.0000 C   0  0
    5.3000   -3.3042    0.0000 C   0  0
   -2.7458   -0.4292    0.0000 C   0  0
    8.5250    0.6208    0.0000 C   0  0
   -1.3333   -3.6292    0.0000 C   0  0
    6.8625   -3.8792    0.0000 C   0  0
   -1.6500    0.3333    0.0000 C   0  0
    4.3667    2.0625    0.0000 C   0  0
   11.0125   -2.2542    0.0000 C   0  0
    4.9042    0.7250    0.0000 C   0  0
   10.1167   -3.3875    0.0000 C   0  0
    8.6417    1.4458    0.0000 C   0  0
    9.1750    0.1083    0.0000 C   0  0
   -2.4708    0.3458    0.0000 C   0  0
   -2.2083   -2.5042    0.0000 C   0  0
    5.4375   -4.1167    0.0000 C   0  0
   -2.0958   -3.3250    0.0000 C   0  0
    6.2167   -4.4125    0.0000 C   0  0
    5.6750    1.0333    0.0000 C   0  0
   11.6625   -2.7667    0.0000 C   0  0
   10.7667   -3.9042    0.0000 C   0  0
    5.1417    2.3708    0.0000 C   0  0
    5.7917    1.8583    0.0000 C   0  0
   11.5417   -3.5917    0.0000 C   0  0
  2  3  1  0
  3  1  1  0
  4  1  1  0
  5  4  1  0
  6 13  1  0
  7 29  1  0
  8 28  1  0
  9 22  1  0
 10 23  1  0
 11  5  1  0
 12 16  1  0
 13  1  2  0
 14 20  1  0
 15 21  1  0
 19 16  1  1
 17  9  1  0
 18 10  1  0
 19  2  1  0
 20  8  2  0
 21  7  2  0
 22 11  1  1
 23 17  1  1
 24 18  1  6
 25 24  1  0
 26  8  1  0
 27  7  1  0
 19 28  1  0
 22 29  1  0
 30 26  2  0
 31 27  2  0
  4 32  1  1
 33 34  1  0
 34 12  1  1
 35  5  2  0
 36  9  2  0
 37 10  2  0
 38 12  2  0
 24 39  1  0
 40 25  2  0
 23 41  1  0
 42 25  1  0
 43 32  1  0
 44 39  1  0
 45 26  1  0
 46 27  1  0
 47 33  1  0
 48 41  1  0
 49 30  1  0
 50 31  1  0
 34 51  1  0
 52 43  1  0
 53 44  1  0
 54 43  2  0
 55 44  2  0
 56 48  1  0
 57 48  1  0
 58 51  1  0
 59 45  2  0
 60 46  2  0
 61 59  1  0
 62 60  1  0
 63 54  1  0
 64 53  2  0
 65 55  1  0
 66 52  2  0
 67 63  2  0
 68 65  2  0
  2  6  2  0
 67 66  1  0
 14 30  1  0
 15 31  1  0
 58 47  1  0
 49 61  2  0
 62 50  2  0
 68 64  1  0
M  END