
  SciTegic12231509382D

 14 15  0  0  0  0            999 V2000
   -1.2905   -1.0437    0.0000 S   0  0
   -0.2286    1.2473    0.0000 O   0  0
   -2.0975   -1.2153    0.0000 O   0  0
   -1.1190   -1.8507    0.0000 O   0  0
   -0.7135    0.5799    0.0000 N   0  0
   -1.4620   -0.2368    0.0000 N   0  0
    0.5560    0.1674    0.0000 C   0  0
   -0.2286   -0.0876    0.0000 C   0  0
    0.5560    0.9924    0.0000 C   0  0
   -0.4835   -0.8722    0.0000 C   0  0
    1.2705   -0.2451    0.0000 C   0  0
    1.2705    1.4049    0.0000 C   0  0
    1.9850    0.1674    0.0000 C   0  0
    1.9850    0.9924    0.0000 C   0  0
  1  3  1  0
  1  4  2  0
  1  6  2  0
  1 10  1  0
  2  5  1  0
  2  9  1  0
  5  8  2  0
  7  8  1  0
  7  9  1  0
  7 11  2  0
  8 10  1  0
  9 12  2  0
 11 13  1  0
 12 14  1  0
 13 14  2  0
M  END