
          11280715472D 1   1.00000     0.00000     0

 22 23  0     0  0            999 V2000
    1.6167    2.2875    0.0000 N   0  0  3  0  0  0           0  0  0
    0.9042    2.7083    0.0000 C   0  0  0  0  0  0           0  0  0
    1.6167    1.4625    0.0000 C   0  0  0  0  0  0           0  0  0
    0.1875    2.2875    0.0000 C   0  0  0  0  0  0           0  0  0
    0.9042    1.0500    0.0000 C   0  0  0  0  0  0           0  0  0
   -0.5208    1.0583    0.0000 O   0  0  0  0  0  0           0  0  0
    2.3292    2.7083    0.0000 C   0  0  3  0  0  0           0  0  0
    0.1917    1.4708    0.0000 C   0  0  3  0  0  0           0  0  0
   -1.2333   -2.6625    0.0000 N   0  0  3  0  0  0           0  0  0
   -0.5208    0.2333    0.0000 C   0  0  0  0  0  0           0  0  0
   -0.5208   -2.2500    0.0000 C   0  0  0  0  0  0           0  0  0
   -0.5208   -1.4250    0.0000 C   0  0  0  0  0  0           0  0  0
   -1.2333   -0.1792    0.0000 C   0  0  0  0  0  0           0  0  0
    0.1917   -0.1792    0.0000 C   0  0  0  0  0  0           0  0  0
    0.1917   -1.0042    0.0000 C   0  0  0  0  0  0           0  0  0
   -1.2333   -1.0042    0.0000 C   0  0  0  0  0  0           0  0  0
   -1.9500   -2.2500    0.0000 C   0  0  0  0  0  0           0  0  0
   -1.2333   -3.4875    0.0000 C   0  0  0  0  0  0           0  0  0
    3.0500    2.2833    0.0000 C   0  0  0  0  0  0           0  0  0
    2.3292    3.5250    0.0000 C   0  0  0  0  0  0           0  0  0
   -2.6625   -2.6625    0.0000 C   0  0  0  0  0  0           0  0  0
   -1.9500   -3.9000    0.0000 C   0  0  0  0  0  0           0  0  0
  2  1  1  0     0  0
  3  1  1  0     0  0
  4  2  1  0     0  0
  5  3  1  0     0  0
  6  8  1  0     0  0
  7  1  1  0     0  0
  8  5  1  0     0  0
  9 11  1  0     0  0
 10  6  1  0     0  0
 11 12  1  0     0  0
 12 15  2  0     0  0
 13 10  1  0     0  0
 14 10  2  0     0  0
 15 14  1  0     0  0
 16 13  2  0     0  0
 17  9  1  0     0  0
 18  9  1  0     0  0
 19  7  1  0     0  0
 20  7  1  0     0  0
 21 17  1  0     0  0
 22 18  1  0     0  0
  8  4  1  0     0  0
 12 16  1  0     0  0
M  END