
  SciTegic09081514162D

 23 25  0  0  0  0            999 V2000
   -0.9982    3.0140    0.0000 C   0  0
    0.2977    3.7689    0.0000 C   0  0
    0.2918    5.2689    0.0000 N   0  0
   -1.0102    6.0138    0.0000 C   0  0
   -2.3063    5.2587    0.0000 C   0  0
   -2.3004    3.7588    0.0000 C   0  0
   -3.6105    6.0014    0.0000 N   0  0
   -4.9062    5.2441    0.0000 C   0  0
   -6.2104    5.9867    0.0000 C   0  0
   -4.8994    4.0441    0.0000 O   0  0
   -7.5062    5.2294    0.0000 C   0  0
   -1.0028    1.5132    0.0000 C   0  0
   -2.3155    0.7475    0.0000 C   0  0
   -2.3155   -0.7475    0.0000 C   0  0
   -1.0028   -1.5132    0.0000 C   0  0
    0.2917    0.7475    0.0000 C   0  0
    0.2917   -0.7475    0.0000 C   0  0
    1.7138   -1.2033    0.0000 N   0  0
    2.5889    0.0182    0.0000 C   0  0
    1.7138    1.2033    0.0000 C   0  0
   -8.8104    5.9720    0.0000 N   0  0
   -9.8464    5.3665    0.0000 C   0  0
   -8.8171    7.1720    0.0000 C   0  0
  1  2  2  0
  2  3  1  0
  3  4  2  0
  4  5  1  0
  5  6  2  0
  6  1  1  0
  5  7  1  0
  7  8  1  0
  8  9  1  0
  8 10  2  0
  9 11  1  0
  1 12  1  0
 12 13  2  0
 13 14  1  0
 14 15  2  0
 15 17  1  0
 16 12  1  0
 16 17  2  0
 17 18  1  0
 18 19  1  0
 19 20  2  0
 20 16  1  0
 11 21  1  0
 21 22  1  0
 21 23  1  0
M  END