
  SciTegic10311316212D

 27 30  0  0  0  0            999 V2000
   22.8648  -13.8217    0.0000 C   0  0
   23.5876  -14.2210    0.0000 O   0  0
   23.5540  -12.5741    0.0000 N   0  0
   22.8444  -12.9963    0.0000 C   0  0
   24.2768  -12.9734    0.0000 C   0  0
   24.2859  -13.7949    0.0000 C   0  0
   24.9978  -14.1954    0.0000 C   0  0
   25.7053  -13.7791    0.0000 C   0  0
   25.6962  -12.9577    0.0000 C   0  0
   24.9796  -12.5526    0.0000 C   0  0
   22.1217  -12.5969    0.0000 O   0  0
   26.4070  -12.5376    0.0000 C   0  0
   27.1262  -12.9432    0.0000 N   0  0
   27.1286  -13.7663    0.0000 C   0  0
   27.8437  -14.1719    0.0000 C   0  0
   28.5570  -13.7554    0.0000 C   0  0
   28.5506  -12.9287    0.0000 C   0  0
   27.8310  -12.5186    0.0000 C   0  0
   29.2747  -14.1637    0.0000 C   0  0
   29.2768  -14.9886    0.0000 C   0  0
   29.9937  -15.3969    0.0000 C   0  0
   30.7071  -14.9795    0.0000 C   0  0
   30.6993  -14.1495    0.0000 C   0  0
   29.9819  -13.7450    0.0000 C   0  0
   22.1590  -14.2500    0.0000 C   0  0
   21.4350  -13.8529    0.0000 C   0  0
   31.4253  -15.3869    0.0000 Cl  0  0
  1  2  1  0
  1  4  1  0
  2  6  1  0
  5  3  1  0
  3  4  1  0
  5  6  1  0
  5 10  2  0
  6  7  2  0
  7  8  1  0
  8  9  2  0
  9 10  1  0
  4 11  2  0
  9 12  1  0
 12 13  1  0
 13 14  1  0
 13 18  1  0
 14 15  1  0
 15 16  2  0
 16 17  1  0
 17 18  1  0
 16 19  1  0
 19 20  2  0
 20 21  1  0
 21 22  2  0
 22 23  1  0
 23 24  2  0
 24 19  1  0
  1 25  1  0
 25 26  1  0
 22 27  1  0
M  END