
  SciTegic10011413212D

 24 25  0  0  0  0            999 V2000
   21.8835   -6.4376    0.0000 C   0  0
   22.5979   -6.0251    0.0000 C   0  0
   23.3124   -6.4376    0.0000 C   0  0
   24.0269   -6.0251    0.0000 C   0  0
   24.7413   -6.4376    0.0000 N   0  0
   25.4558   -6.0251    0.0000 C   0  0
   26.1704   -6.4376    0.0000 N   0  0
   25.4558   -5.2001    0.0000 N   0  0
   26.8848   -6.0251    0.0000 C   0  0
   27.5993   -6.4376    0.0000 C   0  0
   28.3138   -6.0251    0.0000 C   0  0
   29.0282   -6.4376    0.0000 C   0  0
   28.3138   -5.2001    0.0000 C   0  0
   26.8848   -5.2001    0.0000 O   0  0
   21.1694   -6.0221    0.0000 C   0  0
   20.4554   -6.4339    0.0000 C   0  0
   20.4550   -7.2598    0.0000 N   0  0
   21.1746   -7.6722    0.0000 C   0  0
   21.8856   -7.2579    0.0000 C   0  0
   29.0265   -7.2636    0.0000 C   0  0
   29.7402   -7.6760    0.0000 C   0  0
   30.4557   -7.2635    0.0000 C   0  0
   30.4530   -6.4342    0.0000 C   0  0
   29.7388   -6.0256    0.0000 C   0  0
  1  2  1  0
  2  3  1  0
  3  4  1  0
  4  5  1  0
  5  6  1  0
  6  7  2  0
  6  8  1  0
  7  9  1  0
  9 10  1  0
 10 11  1  0
 11 12  1  0
 11 13  1  0
  9 14  2  0
  1 15  2  0
 15 16  1  0
 16 17  2  0
 17 18  1  0
 18 19  2  0
 19  1  1  0
 12 20  2  0
 20 21  1  0
 21 22  2  0
 22 23  1  0
 23 24  2  0
 24 12  1  0
M  END