
          11280715112D 1   1.00000     0.00000     0

 19 20  0     0  0            999 V2000
    2.5542   -1.5500    0.0000 C   0  0  0  0  0  0           0  0  0
    0.1750   -1.1417    0.0000 N   0  0  3  0  0  0           0  0  0
    1.8292   -1.1542    0.0000 C   0  0  3  0  0  0           0  0  0
    1.1125   -1.8417    0.0000 C   0  0  0  0  0  0           0  0  0
    3.2625   -1.1167    0.0000 C   0  0  0  0  0  0           0  0  0
    2.5750   -2.3792    0.0000 C   0  0  0  0  0  0           0  0  0
    0.9750   -1.1792    0.0000 O   0  0  0  0  0  0           0  0  0
   -0.0458   -1.9375    0.0000 C   0  0  3  0  0  0           0  0  0
    3.9875   -1.5167    0.0000 C   0  0  0  0  0  0           0  0  0
    3.3000   -2.7750    0.0000 C   0  0  0  0  0  0           0  0  0
   -0.6333   -1.1792    0.0000 C   0  0  0  0  0  0           0  0  0
    4.0042   -2.3417    0.0000 C   0  0  0  0  0  0           0  0  0
    0.0917   -0.4917    0.0000 C   0  0  0  0  0  0           0  0  0
    3.2375   -0.3000    0.0000 O   0  0  0  0  0  0           0  0  0
    3.3167   -3.6000    0.0000 O   0  0  0  0  0  0           0  0  0
   -0.8458   -2.1417    0.0000 C   0  0  0  0  0  0           0  0  0
    0.5375   -2.5167    0.0000 C   0  0  0  0  0  0           0  0  0
    3.9417    0.1333    0.0000 C   0  0  0  0  0  0           0  0  0
    2.6125   -4.0292    0.0000 C   0  0  0  0  0  0           0  0  0
  2  4  1  0     0  0
  3  1  1  0     0  0
  4  3  1  0     0  0
  5  1  1  0     0  0
  6  1  2  0     0  0
  7  3  1  0     0  0
  8  2  1  0     0  0
  9  5  2  0     0  0
 10  6  1  0     0  0
 11 13  1  0     0  0
 12 10  2  0     0  0
 13  7  1  0     0  0
 14  5  1  0     0  0
 15 10  1  0     0  0
 16  8  1  0     0  0
 17  8  1  0     0  0
 18 14  1  0     0  0
 19 15  1  0     0  0
 12  9  1  0     0  0
  2 11  1  0     0  0
M  END