
  SciTegic12231509382D

 27 28  0  0  0  0            999 V2000
   -2.3556    0.0500    0.0000 C   0  0
   -2.3568   -0.7773    0.0000 C   0  0
   -1.6419   -1.1902    0.0000 C   0  0
   -0.9255   -0.7769    0.0000 C   0  0
   -0.9284    0.0537    0.0000 C   0  0
   -1.6437    0.4628    0.0000 C   0  0
   -0.2154    0.4689    0.0000 C   0  0
    0.5006    0.0591    0.0000 C   0  0
    1.2135    0.4742    0.0000 C   0  0
    1.9295    0.0644    0.0000 C   0  0
    1.2104    1.2992    0.0000 O   0  0
    2.6424    0.4796    0.0000 C   0  0
    3.3584    0.0698    0.0000 C   0  0
    2.6393    1.3046    0.0000 O   0  0
    4.0714    0.4850    0.0000 C   0  0
    4.7874    0.0752    0.0000 C   0  0
    4.7878   -0.7469    0.0000 C   0  0
    5.5030   -1.1566    0.0000 C   0  0
    6.2169   -0.7414    0.0000 C   0  0
    6.2111    0.0879    0.0000 C   0  0
    5.4954    0.4938    0.0000 C   0  0
    6.9226    0.5056    0.0000 O   0  0
    7.6400    0.0983    0.0000 C   0  0
    6.9335   -1.1503    0.0000 O   0  0
   -3.0716   -1.1893    0.0000 O   0  0
   -3.0702    0.4624    0.0000 O   0  0
   -3.0704    1.2874    0.0000 C   0  0
  1  2  2  0
 12 14  2  0
  5  7  1  0
 13 15  2  0
  3  4  2  0
 15 16  1  0
  7  8  2  0
 16 17  2  0
 17 18  1  0
  8  9  1  0
 18 19  2  0
  4  5  1  0
 19 20  1  0
  9 10  1  0
 20 21  2  0
 21 16  1  0
  2  3  1  0
 20 22  1  0
  9 11  2  0
 22 23  1  0
  5  6  2  0
 19 24  1  0
 10 12  1  0
  2 25  1  0
  6  1  1  0
  1 26  1  0
 12 13  1  0
 26 27  1  0
M  END