
  SciTegic02011310442D

 42 47  0  0  0  0            999 V2000
   17.8376  -27.9688    0.0000 N   0  0
   18.5473  -27.5593    0.0000 C   0  0
   18.5444  -26.7367    0.0000 N   0  0
   17.8358  -26.3314    0.0000 C   0  0
   17.1296  -27.5598    0.0000 N   0  0
   17.1308  -26.7387    0.0000 C   0  0
   16.3503  -26.4838    0.0000 C   0  0
   15.8666  -27.1474    0.0000 C   0  0
   16.3483  -27.8123    0.0000 C   0  0
   19.2556  -27.9668    0.0000 S   0  0
   19.9627  -27.5571    0.0000 C   0  0
   17.8340  -25.5142    0.0000 N   0  0
   18.5408  -25.1041    0.0000 C   0  0
   20.6677  -27.9650    0.0000 C   0  0
   21.3743  -27.5560    0.0000 C   0  0
   21.3734  -26.7379    0.0000 C   0  0
   20.6601  -26.3306    0.0000 C   0  0
   19.9565  -26.7420    0.0000 C   0  0
   19.2859  -25.4361    0.0000 C   0  0
   19.8314  -24.8276    0.0000 C   0  0
   19.4212  -24.1207    0.0000 N   0  0
   18.6223  -24.2925    0.0000 N   0  0
   20.6443  -24.9112    0.0000 C   0  0
   22.0800  -26.3273    0.0000 N   0  0
   22.7889  -26.7338    0.0000 C   0  0
   23.4954  -26.3232    0.0000 C   0  0
   24.2043  -26.7297    0.0000 N   0  0
   22.7912  -27.5510    0.0000 O   0  0
   24.2892  -27.5400    0.0000 C   0  0
   25.0891  -27.7076    0.0000 C   0  0  1  0  0  0
   25.4956  -26.9987    0.0000 C   0  0
   24.9470  -26.3931    0.0000 C   0  0
   25.4236  -28.4532    0.0000 C   0  0
   24.9452  -29.1157    0.0000 O   0  0
   26.2366  -28.5363    0.0000 N   0  0
   26.7150  -27.8737    0.0000 C   0  0
   27.5262  -27.9588    0.0000 C   0  0
   28.0045  -27.2971    0.0000 C   0  0
   27.6700  -26.5506    0.0000 C   0  0
   26.8526  -26.4697    0.0000 C   0  0
   26.3779  -27.1324    0.0000 C   0  0
   28.1475  -25.8874    0.0000 F   0  0
  5  1  1  0
  1  2  2  0
  2  3  1  0
  3  4  2  0
  4  6  1  0
  5  6  1  0
  6  7  2  0
  7  8  1  0
  8  9  2  0
  9  5  1  0
  2 10  1  0
 10 11  1  0
  4 12  1  0
 12 13  1  0
 11 14  2  0
 14 15  1  0
 15 16  2  0
 16 17  1  0
 17 18  2  0
 18 11  1  0
 13 19  1  0
 19 20  2  0
 20 21  1  0
 21 22  1  0
 22 13  2  0
 20 23  1  0
 16 24  1  0
 24 25  1  0
 25 26  1  0
 26 27  1  0
 25 28  2  0
 27 29  1  0
 29 30  1  0
 30 31  1  0
 31 32  1  0
 32 27  1  0
 30 33  1  1
 33 34  2  0
 33 35  1  0
 35 36  1  0
 36 37  2  0
 37 38  1  0
 38 39  2  0
 39 40  1  0
 40 41  2  0
 41 36  1  0
 39 42  1  0
M  END