
  SciTegic01161211252D

 52 57  0  0  0  0            999 V2000
   -2.2375    0.7208    0.0000 C   0  0
    3.5292    0.7750    0.0000 C   0  0
    1.0542    0.7500    0.0000 C   0  0
    0.2292    0.7458    0.0000 C   0  0
    2.7042    0.7667    0.0000 C   0  0
   -1.4125    0.7292    0.0000 C   0  0
   -1.0042    1.4417    0.0000 C   0  0
    2.2792    1.4792    0.0000 C   0  0
    1.4583    1.4667    0.0000 C   0  0
   -0.1875    1.4500    0.0000 C   0  0
   -0.1750    0.0250    0.0000 C   0  0
    1.4708    0.0375    0.0000 C   0  0
   -2.6542    1.4292    0.0000 C   0  0
    3.9333    1.5000    0.0000 C   0  0
    2.2958    0.0458    0.0000 C   0  0
   -0.9958    0.0208    0.0000 C   0  0
   -2.6417    0.0042    0.0000 C   0  0
    3.9500    0.0667    0.0000 C   0  0
    2.6833    2.1958    0.0000 C   0  0
   -1.4208    2.1542    0.0000 C   0  0
   -2.2500    2.1458    0.0000 C   0  0
    3.5042    2.2125    0.0000 C   0  0
   -3.4667    0.0000    0.0000 N   0  0
    4.7750    0.0792    0.0000 N   0  0
    3.5458   -0.6500    0.0000 O   0  0
   -2.2250   -0.7042    0.0000 O   0  0
   -3.8750   -0.7167    0.0000 C   0  0
    5.1958   -0.6292    0.0000 C   0  0
    0.2208    2.1667    0.0000 O   0  0
    1.0375    2.1750    0.0000 O   0  0
   -5.1083   -1.4417    0.0000 C   0  0
    6.4458   -1.3292    0.0000 C   0  0
    6.0208   -0.6208    0.0000 C   0  0  1  0  0  0
   -4.7000   -0.7250    0.0000 C   0  0  1  0  0  0
   -3.4792    1.4208    0.0000 O   0  0
    4.7583    1.5125    0.0000 O   0  0
    3.9042    2.9333    0.0000 O   0  0
   -2.6708    2.8583    0.0000 O   0  0
    0.2417   -0.6875    0.0000 C   0  0
    1.0667   -0.6792    0.0000 C   0  0
   -5.9333   -1.4500    0.0000 C   0  0
   -4.6875   -2.1583    0.0000 C   0  0
    6.0375   -2.0458    0.0000 C   0  0
    7.2667   -1.3125    0.0000 C   0  0
   -5.1167   -0.0125    0.0000 C   0  0
    6.4250    0.1000    0.0000 C   0  0
   -6.3417   -2.1625    0.0000 C   0  0
    6.4583   -2.7542    0.0000 C   0  0
    7.6875   -2.0208    0.0000 C   0  0
   -5.1000   -2.8750    0.0000 C   0  0
   -5.9250   -2.8792    0.0000 C   0  0
    7.2875   -2.7458    0.0000 C   0  0
  2  5  1  0
  3  4  1  0
  4 11  1  0
  5  8  1  0
  6  1  2  0
  7  6  1  0
  8  9  2  0
  9  3  1  0
 10  7  1  0
 11 16  2  0
 12  3  2  0
 13  1  1  0
 14 22  1  0
 15 12  1  0
 16  6  1  0
 17  1  1  0
 18  2  1  0
 19  8  1  0
 20 21  1  0
 21 13  2  0
 22 19  2  0
 23 17  1  0
 24 18  1  0
 25 18  2  0
 26 17  2  0
 27 23  1  0
 28 24  1  0
 29 10  1  0
 30  9  1  0
 31 34  1  0
 32 33  1  0
 33 28  1  0
 34 27  1  0
 35 13  1  0
 36 14  1  0
 37 22  1  0
 38 21  1  0
 39 11  1  0
 40 12  1  0
 41 31  2  0
 42 31  1  0
 43 32  2  0
 44 32  1  0
 34 45  1  1
 33 46  1  6
 47 41  1  0
 48 43  1  0
 49 44  2  0
 50 42  2  0
 51 47  2  0
 52 49  1  0
 20  7  2  0
 10  4  2  0
  5 15  2  0
 50 51  1  0
 14  2  2  0
 52 48  2  0
M  END