
          11280715332D 1   1.00000     0.00000     0

 31 35  0     0  0            999 V2000
    3.3875   -3.1167    0.0000 N   0  0  3  0  0  0           0  0  0
    4.8042   -3.1250    0.0000 C   0  0  3  0  0  0           0  0  0
    3.3792   -2.2917    0.0000 C   0  0  0  0  0  0           0  0  0
    7.9500   -2.1042    0.0000 C   0  0  3  0  0  0           0  0  0
    6.9417   -2.6917    0.0000 N   0  0  3  0  0  0           0  0  0
    8.6625   -1.6875    0.0000 N   0  0  3  0  0  0           0  0  0
    4.1000   -3.5292    0.0000 C   0  0  0  0  0  0           0  0  0
    4.8042   -3.9500    0.0000 C   0  0  0  0  0  0           0  0  0
    2.6750   -3.5292    0.0000 C   0  0  0  0  0  0           0  0  0
    7.1542   -1.9000    0.0000 C   0  0  0  0  0  0           0  0  0
    7.7417   -2.9042    0.0000 C   0  0  0  0  0  0           0  0  0
    5.5042   -5.1875    0.0000 C   0  0  0  0  0  0           0  0  0
    5.5042   -4.3625    0.0000 C   0  0  0  0  0  0           0  0  0
    1.9542   -3.1167    0.0000 C   0  0  3  0  0  0           0  0  0
    1.5417   -2.4125    0.0000 C   0  0  0  0  0  0           0  0  0
    1.1292   -3.1292    0.0000 C   0  0  0  0  0  0           0  0  0
    4.7792   -5.5917    0.0000 C   0  0  0  0  0  0           0  0  0
    4.8125   -2.2917    0.0000 C   0  0  0  0  0  0           0  0  0
    4.1000   -1.8792    0.0000 C   0  0  0  0  0  0           0  0  0
   10.2375   -1.2125    0.0000 N   0  0  0  0  0  0           0  0  0
    2.6667   -1.8750    0.0000 O   0  0  0  0  0  0           0  0  0
    5.5167   -2.7042    0.0000 C   0  0  0  0  0  0           0  0  0
    4.0792   -4.3500    0.0000 C   0  0  0  0  0  0           0  0  0
    4.0750   -5.1750    0.0000 C   0  0  0  0  0  0           0  0  0
    6.2375   -3.1125    0.0000 C   0  0  0  0  0  0           0  0  0
    6.2167   -5.6042    0.0000 Cl  0  0  0  0  0  0           0  0  0
    4.7792   -6.4167    0.0000 Cl  0  0  0  0  0  0           0  0  0
    9.2542   -2.2542    0.0000 C   0  0  0  0  0  0           0  0  0
    8.8500   -0.8875    0.0000 C   0  0  0  0  0  0           0  0  0
   10.0500   -2.0167    0.0000 C   0  0  0  0  0  0           0  0  0
    9.6375   -0.6500    0.0000 C   0  0  0  0  0  0           0  0  0
  2  7  1  0     0  0
  3  1  1  0     0  0
  4 11  1  0     0  0
  5 25  1  0     0  0
  6  4  1  0     0  0
  7  1  1  0     0  0
  8  2  1  0     0  0
  9  1  1  0     0  0
 10  5  1  0     0  0
 11  5  1  0     0  0
 12 13  2  0     0  0
 13  8  1  0     0  0
 14  9  1  0     0  0
 15 14  1  0     0  0
 16 14  1  0     0  0
 17 24  2  0     0  0
 18  2  1  0     0  0
 19  3  1  0     0  0
 20 31  1  0     0  0
 21  3  2  0     0  0
 22  2  1  0     0  0
 23  8  2  0     0  0
 24 23  1  0     0  0
 25 22  1  0     0  0
 26 12  1  0     0  0
 27 17  1  0     0  0
 28  6  1  0     0  0
 29  6  1  0     0  0
 30 28  1  0     0  0
 31 29  1  0     0  0
 18 19  1  0     0  0
 16 15  1  0     0  0
 10  4  1  0     0  0
 17 12  1  0     0  0
 30 20  1  0     0  0
M  END