
  SciTegic04201616412D

 32 35  0  0  0  0            999 V2000
    3.6385    3.1449    0.0000 O   0  0
    2.6003    3.7467    0.0000 S   0  0
    2.5984    2.5467    0.0000 O   0  0
   -2.6111    0.7486    0.0000 C   0  0
   -2.6111   -0.7486    0.0000 C   0  0
   -1.2964   -1.4973    0.0000 C   0  0
   -1.2964    1.4973    0.0000 C   0  0
    0.0000    0.7486    0.0000 C   0  0
    0.0000   -0.7486    0.0000 C   0  0
    1.2964   -1.4973    0.0000 C   0  0
    2.5929   -0.7486    0.0000 C   0  0
    2.5929    0.7486    0.0000 C   0  0
    1.2964    1.4973    0.0000 C   0  0
    1.2964   -2.6973    0.0000 O   0  0
    3.8942   -1.4964    0.0000 S   0  0
    5.1929   -0.7441    0.0000 C   0  0
    1.2995    2.9981    0.0000 N   0  0
    2.6034    5.2475    0.0000 C   0  0
    3.9040    5.9949    0.0000 C   0  0
    3.9071    7.4948    0.0000 C   0  0
    2.6096    8.2475    0.0000 C   0  0
    1.3090    7.5002    0.0000 C   0  0
    1.3059    6.0002    0.0000 C   0  0
    2.6096    9.7484    0.0000 C   0  0
    1.3103   10.4996    0.0000 C   0  0
    3.9080   10.5010    0.0000 C   0  0
    3.9067   11.7010    0.0000 C   0  0
    1.3103   11.6996    0.0000 C   0  0
    6.5464   -1.3604    0.0000 N   0  0
    7.5462   -0.2422    0.0000 C   0  0
    6.7917    1.0542    0.0000 N   0  0
    5.3256    0.7372    0.0000 N   0  0
  2  1  2  0
  3  2  2  0
  4  5  2  0
  5  6  1  0
  6  9  2  0
  8  7  2  0
  7  4  1  0
  8  9  1  0
  9 10  1  0
 10 11  2  0
 11 12  1  0
 12 13  2  0
 13  8  1  0
 10 14  1  0
 11 15  1  0
 15 16  1  0
 13 17  1  0
 17  2  1  0
  2 18  1  0
 18 19  2  0
 19 20  1  0
 20 21  2  0
 21 22  1  0
 22 23  2  0
 23 18  1  0
 21 24  1  0
 24 25  1  0
 24 26  1  0
 26 27  1  0
 25 28  1  0
 16 29  1  0
 29 30  2  0
 30 31  1  0
 31 32  1  0
 32 16  2  0
M  END