
  SciTegic11201309402D

 33 36  0  0  0  0            999 V2000
   11.6000  -14.0125    0.0000 C   0  0
   11.6000  -14.8375    0.0000 C   0  0
   12.3120  -15.2458    0.0000 C   0  0  1  0  0  0
   12.3120  -13.5958    0.0000 C   0  0
   13.0240  -14.0125    0.0000 C   0  0  1  0  0  0
   13.0205  -14.8375    0.0000 C   0  0  1  0  0  0
   13.7293  -15.2507    0.0000 C   0  0  2  0  0  0
   14.4461  -14.8435    0.0000 C   0  0
   13.7247  -16.0757    0.0000 O   0  0
   11.8917  -15.9583    0.0000 C   0  0
   12.7167  -15.9583    0.0000 C   0  0
   13.0180  -15.8375    0.0000 H   0  0
   13.7363  -13.6007    0.0000 C   0  0  2  0  0  0
   14.4520  -14.0195    0.0000 C   0  0  2  0  0  0
   15.1658  -11.1122    0.0000 C   0  0
   14.4510  -11.5313    0.0000 C   0  0
   14.4598  -12.3640    0.0000 C   0  0
   13.7371  -12.7739    0.0000 C   0  0
   14.6040  -13.1037    0.0000 H   0  0
   13.7332  -11.1246    0.0000 C   0  0
   13.7209  -10.2957    0.0000 C   0  0
   15.1648  -10.0385    0.0000 O   0  0
   15.6321   -9.3597    0.0000 C   0  0
   15.1364   -8.7027    0.0000 C   0  0
   14.3610   -8.9748    0.0000 C   0  0
   16.4629   -9.3462    0.0000 O   0  0
   13.0167  -13.1875    0.0000 C   0  0
   13.6829   -8.5050    0.0000 C   0  0
   15.1625  -14.4292    0.0000 O   0  0
   14.8583  -13.3000    0.0000 C   0  0
   12.2610  -16.6461    0.0000 O   0  0
   14.3788   -9.7979    0.0000 C   0  0
   14.5922  -15.7561    0.0000 H   0  0
  6  7  1  0
  7  8  1  0
 13 18  1  0
 15 16  1  0
 16 17  1  0
 17 18  1  0
  8 14  1  0
 13 19  1  6
  3  6  1  0
 16 20  2  0
  7  9  1  0
 20 21  1  0
  5  4  1  0
 32 21  2  0
 32 22  1  0
  3 10  1  1
  5  6  1  0
  3 11  1  0
  9 11  1  0
 22 23  1  0
 23 24  1  0
 24 25  2  0
 25 32  1  0
 23 26  2  0
  6 12  1  6
  5 27  1  1
 13 14  1  0
 25 28  1  0
  1  2  1  0
  1  4  1  0
 14 29  1  6
  2  3  1  0
 14 30  1  0
  5 13  1  0
 11 31  2  0
  7 33  1  1
M  END