
  Mrv0541 04051115152D          

 13 14  0  0  0  0            999 V2000
   -0.6339   -1.8209    0.0000 C   0  0  0  0  0  0  0  0  0  0  0  0
    0.0806   -2.2334    0.0000 C   0  0  0  0  0  0  0  0  0  0  0  0
    0.7951   -1.8209    0.0000 N   0  0  0  0  0  0  0  0  0  0  0  0
    0.7951   -0.9959    0.0000 C   0  0  0  0  0  0  0  0  0  0  0  0
    0.0806   -0.5834    0.0000 C   0  0  0  0  0  0  0  0  0  0  0  0
    0.0806    0.2416    0.0000 C   0  0  0  0  0  0  0  0  0  0  0  0
   -0.6339    0.6541    0.0000 N   0  0  0  0  0  0  0  0  0  0  0  0
    0.7951    0.6541    0.0000 C   0  0  0  0  0  0  0  0  0  0  0  0
    0.7951    1.4791    0.0000 C   0  0  0  0  0  0  0  0  0  0  0  0
    0.0806    1.8916    0.0000 N   0  0  0  0  0  0  0  0  0  0  0  0
   -0.6339    1.4791    0.0000 C   0  0  0  0  0  0  0  0  0  0  0  0
   -1.3483    1.8916    0.0000 N   0  0  0  0  0  0  0  0  0  0  0  0
   -0.6339   -0.9959    0.0000 C   0  0  0  0  0  0  0  0  0  0  0  0
  2  1  1  0  0  0  0
  1 13  2  0  0  0  0
  2  3  2  0  0  0  0
  4  3  1  0  0  0  0
  4  5  2  0  0  0  0
  6  5  1  0  0  0  0
  5 13  1  0  0  0  0
  6  7  2  0  0  0  0
  6  8  1  0  0  0  0
 11  7  1  0  0  0  0
  8  9  2  0  0  0  0
  9 10  1  0  0  0  0
 11 10  2  0  0  0  0
 11 12  1  0  0  0  0
M  END