
  SciTegic01161211222D

 20 22  0  0  0  0            999 V2000
   -5.3620  -11.1194    0.0000 C   0  0
   -5.3631  -11.9433    0.0000 C   0  0
   -4.6514  -12.3545    0.0000 C   0  0
   -4.6531  -10.7084    0.0000 C   0  0
   -3.9408  -11.1158    0.0000 C   0  0
   -3.9374  -11.9454    0.0000 C   0  0
   -3.2212  -12.3549    0.0000 C   0  0
   -2.5039  -11.9395    0.0000 C   0  0
   -3.2281  -10.6958    0.0000 C   0  0  1  0  0  0
   -2.5069  -11.1118    0.0000 C   0  0  2  0  0  0
   -1.8882  -10.5545    0.0000 N   0  0
   -2.2271   -9.7939    0.0000 C   0  0
   -3.0552   -9.8813    0.0000 C   0  0
   -4.6556   -9.8869    0.0000 O   0  0
   -1.0661  -10.5480    0.0000 C   0  0
   -0.6602   -9.8339    0.0000 C   0  0
    0.1613   -9.8283    0.0000 C   0  0
   -3.9457  -10.2814    0.0000 H   0  0
   -1.7177  -11.3227    0.0000 H   0  0
   -5.3683   -9.4783    0.0000 C   0  0
  5  4  2  0
  4  1  1  0
  5  6  1  0
  2  3  1  0
 10 11  1  0
 11 12  1  0
 12 13  1  0
 13  9  1  0
  3  6  2  0
  4 14  1  0
  1  2  2  0
 11 15  1  0
  5  9  1  0
 15 16  1  0
  6  7  1  0
 16 17  1  0
  7  8  1  0
  9 18  1  1
  8 10  1  0
 10 19  1  1
  9 10  1  0
 14 20  1  0
M  END