
  SciTegic12231509382D

 21 22  0  0  1  0            999 V2000
    4.9793    1.5125    0.0000 O   0  0
    2.1214   -0.9625    0.0000 O   0  0
   10.6951   -0.9625    0.0000 O   0  0
    6.4083    0.6875    0.0000 N   0  0
    4.2648    0.2750    0.0000 C   0  0
    4.9793    0.6875    0.0000 C   0  0  1  0  0  0
    5.6938    0.2750    0.0000 C   0  0  1  0  0  0
    4.2648   -0.5500    0.0000 C   0  0
    3.5504    0.6875    0.0000 C   0  0
    2.8359   -0.5500    0.0000 C   0  0
    3.5504   -0.9625    0.0000 C   0  0
    2.8359    0.2750    0.0000 C   0  0
    8.5517    0.2750    0.0000 C   0  0
    7.1227    0.2750    0.0000 C   0  0
    7.8372    0.6875    0.0000 C   0  0
    9.2661    0.6875    0.0000 C   0  0
    8.5517   -0.5500    0.0000 C   0  0
    9.9806   -0.5500    0.0000 C   0  0
    5.6938   -0.5500    0.0000 C   0  0
    9.9806    0.2750    0.0000 C   0  0
    9.2661   -0.9625    0.0000 C   0  0
  6  1  1  6
  2 10  1  0
  3 18  1  0
  4  7  1  0
  4 14  1  0
  5  6  1  0
  5  8  2  0
  5  9  1  0
  6  7  1  0
  7 19  1  6
  8 11  1  0
  9 12  2  0
 10 11  2  0
 10 12  1  0
 13 15  1  0
 13 16  2  0
 13 17  1  0
 14 15  1  0
 16 20  1  0
 17 21  2  0
 18 20  2  0
 18 21  1  0
M  END