
  SciTegic01181116592D

 21 23  0  0  0  0            999 V2000
   13.6444   -9.3375    0.0000 C   0  0
   13.6432  -10.1648    0.0000 C   0  0
   14.3581  -10.5777    0.0000 C   0  0
   14.3563   -8.9247    0.0000 C   0  0
   15.0716   -9.3338    0.0000 C   0  0
   15.0724  -10.1607    0.0000 C   0  0
   15.7877  -10.5716    0.0000 N   0  0
   16.5027  -10.1569    0.0000 C   0  0
   16.4980   -9.3269    0.0000 C   0  0
   15.7821   -8.9197    0.0000 N   0  0
   17.2099   -8.9101    0.0000 C   0  0
   17.9269   -9.3182    0.0000 N   0  0
   17.2049   -8.0851    0.0000 O   0  0
   18.6388   -8.9014    0.0000 C   0  0
   19.3571   -9.3150    0.0000 C   0  0
   20.0686   -8.8988    0.0000 C   0  0
   20.0640   -8.0730    0.0000 C   0  0
   19.3420   -7.6650    0.0000 C   0  0
   18.6335   -8.0835    0.0000 C   0  0
   19.3341   -6.8401    0.0000 Cl  0  0
   17.9157   -7.6769    0.0000 C   0  0
 10  5  1  0
  9 11  1  0
  2  3  1  0
 11 12  1  0
  5  6  1  0
 11 13  2  0
  3  6  2  0
 12 14  1  0
  6  7  1  0
 14 15  2  0
  1  2  2  0
 15 16  1  0
  7  8  2  0
 16 17  2  0
  5  4  2  0
 17 18  1  0
  8  9  1  0
 18 19  2  0
 19 14  1  0
  4  1  1  0
 18 20  1  0
  9 10  2  0
 19 21  1  0
M  END