
          11280715382D 1   1.00000     0.00000     0

 16 18  0     0  0            999 V2000
    1.6625   -2.3042    0.0000 C   0  0  3  0  0  0           0  0  0
    0.9417   -1.8875    0.0000 O   0  0  0  0  0  0           0  0  0
    2.3750   -1.8917    0.0000 C   0  0  0  0  0  0           0  0  0
    0.2292   -2.3042    0.0000 C   0  0  0  0  0  0           0  0  0
    2.4625   -1.0750    0.0000 N   0  0  0  0  0  0           0  0  0
    0.9417   -3.5417    0.0000 O   0  0  0  0  0  0           0  0  0
    0.2292   -3.1292    0.0000 C   0  0  0  0  0  0           0  0  0
    3.1292   -2.2292    0.0000 N   0  0  0  0  0  0           0  0  0
    1.6625   -3.1292    0.0000 C   0  0  0  0  0  0           0  0  0
   -0.4833   -3.5417    0.0000 C   0  0  0  0  0  0           0  0  0
   -0.4833   -1.8917    0.0000 C   0  0  0  0  0  0           0  0  0
   -1.1958   -3.1292    0.0000 C   0  0  0  0  0  0           0  0  0
   -1.1958   -2.3042    0.0000 C   0  0  0  0  0  0           0  0  0
    3.2667   -0.9042    0.0000 C   0  0  0  0  0  0           0  0  0
    3.6792   -1.6167    0.0000 C   0  0  0  0  0  0           0  0  0
   -1.9125   -3.5417    0.0000 C   0  0  0  0  0  0           0  0  0
  2  1  1  0     0  0
  3  1  1  0     0  0
  4  2  1  0     0  0
  5  3  2  0     0  0
  6  9  1  0     0  0
  7  6  1  0     0  0
  8  3  1  0     0  0
  9  1  1  0     0  0
 10  7  2  0     0  0
 11  4  2  0     0  0
 12 10  1  0     0  0
 13 11  1  0     0  0
 14  5  1  0     0  0
 15  8  1  0     0  0
 16 12  1  0     0  0
  4  7  1  0     0  0
 15 14  1  0     0  0
 13 12  2  0     0  0
M  END