
          11280715012D 1   1.00000     0.00000     0

 27 29  0     0  0            999 V2000
    4.7042   -6.1167    0.0000 C   0  0  0  0  0  0           0  0  0
    4.2167   -6.7792    0.0000 N   0  0  3  0  0  0           0  0  0
    5.4875   -6.3750    0.0000 C   0  0  0  0  0  0           0  0  0
    7.6292   -5.9500    0.0000 C   0  0  0  0  0  0           0  0  0
    5.4875   -7.1917    0.0000 C   0  0  0  0  0  0           0  0  0
    6.2000   -5.9542    0.0000 C   0  0  0  0  0  0           0  0  0
    4.7042   -7.4500    0.0000 C   0  0  0  0  0  0           0  0  0
    6.9167   -6.3667    0.0000 C   0  0  0  0  0  0           0  0  0
    8.3417   -6.3667    0.0000 N   0  0  0  0  0  0           0  0  0
    9.7750   -6.3667    0.0000 C   0  0  0  0  0  0           0  0  0
   10.4875   -5.9625    0.0000 C   0  0  0  0  0  0           0  0  0
    4.4500   -5.3292    0.0000 O   0  0  0  0  0  0           0  0  0
    3.3917   -6.7792    0.0000 C   0  0  0  0  0  0           0  0  0
    7.6292   -5.1250    0.0000 O   0  0  0  0  0  0           0  0  0
    0.5125   -7.5292    0.0000 N   0  0  0  0  0  0           0  0  0
    6.2042   -7.6125    0.0000 C   0  0  0  0  0  0           0  0  0
    6.9167   -7.1917    0.0000 C   0  0  0  0  0  0           0  0  0
    9.0542   -5.9542    0.0000 C   0  0  3  0  0  0           0  0  0
   10.4917   -5.1375    0.0000 O   0  0  0  0  0  0           0  0  0
   11.2042   -6.3750    0.0000 O   0  0  0  0  0  0           0  0  0
    2.9792   -7.4917    0.0000 C   0  0  0  0  0  0           0  0  0
    2.1542   -7.4917    0.0000 C   0  0  3  0  0  0           0  0  0
    0.9375   -8.2292    0.0000 C   0  0  0  0  0  0           0  0  0
    0.9042   -6.8042    0.0000 C   0  0  0  0  0  0           0  0  0
    9.0542   -5.1292    0.0000 C   0  0  0  0  0  0           0  0  0
    1.7292   -6.7875    0.0000 C   0  0  0  0  0  0           0  0  0
    1.7667   -8.2167    0.0000 C   0  0  0  0  0  0           0  0  0
  2  1  1  0     0  0
  3  1  1  0     0  0
  4  8  1  0     0  0
  5  3  2  0     0  0
  6  3  1  0     0  0
  7  2  1  0     0  0
  8  6  2  0     0  0
  9  4  1  0     0  0
 10 18  1  0     0  0
 11 10  1  0     0  0
 12  1  2  0     0  0
 13  2  1  0     0  0
 14  4  2  0     0  0
 15 23  1  0     0  0
 16  5  1  0     0  0
 17  8  1  0     0  0
 18  9  1  0     0  0
 19 11  2  0     0  0
 20 11  1  0     0  0
 21 13  1  0     0  0
 22 21  1  0     0  0
 23 27  1  0     0  0
 24 26  1  0     0  0
 25 18  1  0     0  0
 26 22  1  0     0  0
 27 22  1  0     0  0
  7  5  1  0     0  0
 16 17  2  0     0  0
 15 24  1  0     0  0
M  END