
  SciTegic09081514192D

 23 25  0  0  0  0            999 V2000
    1.2990   -0.7500    0.0000 C   0  0
    1.2990    0.7500    0.0000 C   0  0
    0.0000    1.5000    0.0000 C   0  0
   -1.2990    0.7500    0.0000 C   0  0
   -1.2990   -0.7500    0.0000 C   0  0
    0.0000   -1.5000    0.0000 C   0  0
    2.5987    1.5004    0.0000 C   0  0
    3.9511    0.8815    0.0000 C   0  0
    4.9530    1.9978    0.0000 C   0  0
    4.2010    3.2957    0.0000 C   0  0
    2.7342    2.9815    0.0000 O   0  0
    4.8053    4.6666    0.0000 C   0  0
    3.9195    5.8781    0.0000 C   0  0
    2.4324    5.8590    0.0000 C   0  0
    1.9674    7.2851    0.0000 N   0  0
    3.1801    8.1680    0.0000 C   0  0
    4.3945    7.2875    0.0000 S   0  0
    1.7338    4.8833    0.0000 O   0  0
    3.1789    9.3680    0.0000 S   0  0
   -2.5988    1.5004    0.0000 C   0  0
   -2.5996    2.7004    0.0000 F   0  0
   -3.6378    0.9001    0.0000 F   0  0
   -3.6383    2.0999    0.0000 F   0  0
  1  2  2  0
  2  3  1  0
  3  4  2  0
  4  5  1  0
  5  6  2  0
  6  1  1  0
  7  8  2  0
  8  9  1  0
  9 10  2  0
 10 11  1  0
 11  7  1  0
  2  7  1  0
 10 12  1  0
 12 13  2  0
 13 14  1  0
 14 15  1  0
 15 16  1  0
 16 17  1  0
 17 13  1  0
 14 18  2  0
 16 19  2  0
  4 20  1  0
 20 21  1  0
 20 22  1  0
 20 23  1  0
M  END