
  SciTegic01161211222D

 19 19  0  0  0  0            999 V2000
   13.7366    2.0579    0.0000 C   0  0
   14.4510    2.4704    0.0000 N   0  0
   13.0221    2.4704    0.0000 C   0  0
   12.3076    2.0579    0.0000 C   0  0
   11.5930    2.4704    0.0000 P   0  0
   10.8786    2.0579    0.0000 O   0  0
   11.5930    3.2955    0.0000 O   0  0
   15.1655    2.0579    0.0000 C   0  0
   14.4510    3.2955    0.0000 O   0  0
   15.8801    2.4704    0.0000 O   0  0
   11.5869    1.6500    0.0000 O   0  0
   12.3064    1.2350    0.0000 C   0  0
   11.5903    0.8231    0.0000 C   0  0
   11.5900   -0.0011    0.0000 C   0  0
   12.3050   -0.4145    0.0000 C   0  0
   13.0219    0.0025    0.0000 C   0  0
   13.0187    0.8253    0.0000 C   0  0
   13.7378   -0.4074    0.0000 Cl  0  0
   12.3061   -1.2395    0.0000 Cl  0  0
  8 10  2  0
  3  4  1  0
  5 11  1  0
  4  5  1  0
 12 13  2  0
 13 14  1  0
  5  6  1  0
 14 15  2  0
  1  2  1  0
 15 16  1  0
  5  7  2  0
 16 17  2  0
 17 12  1  0
  4 12  1  0
 16 18  1  0
  2  8  1  0
 15 19  1  0
  1  3  1  0
  2  9  1  0
M  END