
  CDK    9/16/09,9:46

 23 25  0  0  0  0  0  0  0  0999 V2000
    3.7796   -4.2694    0.0000 C   0  0  0  0  0  0  0  0  0  0  0  0
    3.0117   -4.5479    0.0000 C   0  0  0  0  0  0  0  0  0  0  0  0
    2.8715   -5.3564    0.0000 C   0  0  0  0  0  0  0  0  0  0  0  0
    3.4968   -5.8775    0.0000 C   0  0  0  0  0  0  0  0  0  0  0  0
    2.3665   -4.0076    0.0000 C   0  0  0  0  0  0  0  0  0  0  0  0
    2.5119   -3.1787    0.0000 C   0  0  0  0  0  0  0  0  0  0  0  0
    6.0938   -5.4819    0.0000 C   0  0  0  0  0  0  0  0  0  0  0  0
    4.2557   -5.5990    0.0000 C   0  0  0  0  0  0  0  0  0  0  0  0
    4.4038   -4.7940    0.0000 C   0  0  0  0  0  0  0  0  0  0  0  0
    5.1571   -4.3912    0.0000 C   0  0  0  0  0  0  0  0  0  0  0  0
    5.8786   -4.7040    0.0000 N   0  0  0  0  0  0  0  0  0  0  0  0
    5.1258   -3.6268    0.0000 O   0  0  0  0  0  0  0  0  0  0  0  0
    5.6518   -6.1514    0.0000 C   0  0  0  0  0  0  0  0  0  0  0  0
    4.8079   -6.2180    0.0000 N   0  0  0  0  0  0  0  0  0  0  0  0
    4.6105   -7.0412    0.0000 C   0  0  0  0  0  0  0  0  0  0  0  0
    5.3324   -7.4834    0.0000 N   0  0  0  0  0  0  0  0  0  0  0  0
    5.9759   -6.9334    0.0000 C   0  0  0  0  0  0  0  0  0  0  0  0
    6.4559   -4.2020    0.0000 C   0  0  0  0  0  0  0  0  0  0  0  0
    6.7990   -7.1308    0.0000 C   0  0  0  0  0  0  0  0  0  0  0  0
    7.0397   -7.9423    0.0000 O   0  0  0  0  0  0  0  0  0  0  0  0
    7.3816   -6.5167    0.0000 O   0  0  0  0  0  0  0  0  0  0  0  0
    8.2047   -6.7140    0.0000 C   0  0  0  0  0  0  0  0  0  0  0  0
    8.7872   -6.0998    0.0000 C   0  0  0  0  0  0  0  0  0  0  0  0
 11  7  1  0  0  0  0 
  8  9  2  0  0  0  0 
  4  8  1  0  0  0  0 
 10 12  2  0  0  0  0 
 13 14  1  0  0  0  0 
  2  5  1  0  0  0  0 
  5  6  1  0  0  0  0 
  9  1  1  0  0  0  0 
  1  2  2  0  0  0  0 
 14 15  1  0  0  0  0 
 15 16  1  0  0  0  0 
 16 17  2  0  0  0  0 
 17 13  1  0  0  0  0 
  2  3  1  0  0  0  0 
 11 18  1  0  0  0  0 
  3  4  2  0  0  0  0 
 17 19  1  0  0  0  0 
 13  7  1  0  0  0  0 
 19 20  2  0  0  0  0 
 14  8  1  0  0  0  0 
 19 21  1  0  0  0  0 
  9 10  1  0  0  0  0 
 21 22  1  0  0  0  0 
 10 11  1  0  0  0  0 
 22 23  1  0  0  0  0 
M  END