
  SciTegic12171312552D

 57 64  0  0  0  0            999 V2000
   18.3612  -15.7153    0.0000 F   0  0
   19.1612  -15.5028    0.0000 B   0  5
   18.5772  -14.9162    0.0000 F   0  0
   14.6190  -11.1872    0.0000 C   0  0
   15.3331  -11.6045    0.0000 C   0  0
   16.0480  -11.1884    0.0000 O   0  0
   14.6197  -10.3622    0.0000 O   0  0
   16.7621  -11.6057    0.0000 C   0  0
   16.7578  -12.4289    0.0000 C   0  0
   17.4710  -12.8419    0.0000 C   0  0
   18.1910  -12.4299    0.0000 C   0  0
   18.1891  -11.6007    0.0000 C   0  0
   17.4710  -11.1872    0.0000 C   0  0
   18.9015  -12.8421    0.0000 C   0  0
   18.9019  -13.6671    0.0000 C   0  0
   19.6166  -14.0792    0.0000 C   0  0
   20.9239  -14.3546    0.0000 C   0  0
   20.3715  -13.7418    0.0000 C   0  0
   20.5117  -15.0693    0.0000 C   0  0
   19.7090  -14.8971    0.0000 N   0  3
   20.7670  -15.8472    0.0000 C   0  0
   20.2142  -16.4564    0.0000 C   0  0
   19.4113  -16.2866    0.0000 N   0  0
   19.0059  -16.9978    0.0000 C   0  0
   19.5515  -17.6071    0.0000 C   0  0
   20.3008  -17.2724    0.0000 C   0  0
   18.1855  -17.0849    0.0000 C   0  0
   17.6288  -16.4774    0.0000 S   0  0
   16.8755  -16.8138    0.0000 C   0  0
   16.9626  -17.6343    0.0000 C   0  0
   17.7697  -17.8048    0.0000 C   0  0
   10.3372  -12.8332    0.0000 C   0  0
   10.3372  -13.6589    0.0000 C   0  0
   11.0481  -14.0733    0.0000 N   0  0
   11.7611  -13.6589    0.0000 C   0  0
   11.7611  -12.8332    0.0000 N   0  0
   11.0481  -12.4230    0.0000 C   0  0
    9.5473  -12.5788    0.0000 N   0  0
    9.0660  -13.2487    0.0000 C   0  0
    9.5473  -13.9133    0.0000 N   0  0
   11.0481  -11.5930    0.0000 N   0  0
   11.7611  -11.1828    0.0000 C   0  0
    9.2929  -14.6970    0.0000 C   0  0  2  0  0  0
    8.5071  -14.9567    0.0000 O   0  0
    8.5071  -15.7771    0.0000 C   0  0  1  0  0  0
    9.2929  -16.0347    0.0000 C   0  0  2  0  0  0
    9.7784  -15.3669    0.0000 C   0  0  1  0  0  0
   10.6042  -15.3669    0.0000 O   0  0
    9.5473  -16.8205    0.0000 O   0  0
    7.8393  -16.2617    0.0000 C   0  0
    7.0862  -15.9287    0.0000 N   0  0
    7.9288  -17.0864    0.0000 O   0  0
    6.4226  -16.4195    0.0000 C   0  0
    5.6662  -16.0824    0.0000 C   0  0
   12.4750  -11.5964    0.0000 C   0  0
   13.1901  -11.1850    0.0000 C   0  0
   13.9039  -11.5986    0.0000 N   0  0
  2  1  1  0
  3  2  1  0
  4  5  1  0
  5  6  1  0
  4  7  2  0
  6  8  1  0
  8  9  2  0
  9 10  1  0
 10 11  2  0
 11 12  1  0
 12 13  2  0
 13  8  1  0
 11 14  1  0
 14 15  2  0
 15 16  1  0
 16 20  2  0
 19 17  1  0
 17 18  2  0
 18 16  1  0
 19 20  1  0
 19 21  2  0
 20  2  1  0
  2 23  1  0
 22 21  1  0
 22 23  1  0
 23 24  1  0
 24 25  2  0
 25 26  1  0
 26 22  2  0
 24 27  1  0
 27 28  1  0
 28 29  1  0
 29 30  2  0
 30 31  1  0
 31 27  2  0
 32 33  2  0
 33 34  1  0
 34 35  2  0
 35 36  1  0
 36 37  2  0
 37 32  1  0
 32 38  1  0
 38 39  2  0
 39 40  1  0
 40 33  1  0
 37 41  1  0
 41 42  1  0
 43 40  1  1
 43 44  1  0
 44 45  1  0
 45 46  1  0
 46 47  1  0
 47 43  1  0
 47 48  1  6
 46 49  1  6
 45 50  1  1
 50 51  1  0
 50 52  2  0
 51 53  1  0
 53 54  1  0
 42 55  1  0
 55 56  1  0
 56 57  1  0
 57  4  1  0
M  CHG  2   2  -1  20   1
M  END