
  SciTegic01161211252D

 48 52  0  0  0  0            999 V2000
    5.1238  -15.1953    0.0000 N   0  0
    6.5485  -15.2025    0.0000 C   0  0  1  0  0  0
    5.8381  -14.7813    0.0000 C   0  0
    3.7471  -13.5038    0.0000 C   0  0
    4.4511  -13.9352    0.0000 C   0  0  1  0  0  0
    4.4276  -14.7612    0.0000 C   0  0
    7.2829  -14.8428    0.0000 C   0  0
    7.9828  -15.2784    0.0000 N   0  0
    7.3023  -14.0169    0.0000 O   0  0
    7.9549  -16.1006    0.0000 C   0  0
    8.6467  -16.5318    0.0000 C   0  0
    9.3767  -16.1448    0.0000 N   0  0
    9.4022  -15.3179    0.0000 C   0  0
    8.7020  -14.8779    0.0000 C   0  0
   10.0719  -16.5821    0.0000 C   0  0
   10.0439  -17.4090    0.0000 C   0  0
   10.7456  -17.8430    0.0000 C   0  0
   11.4715  -17.4551    0.0000 C   0  0
   11.4957  -16.6250    0.0000 C   0  0
   10.7976  -16.1905    0.0000 C   0  0
   12.1758  -17.8902    0.0000 N   0  3
   12.9003  -17.5014    0.0000 O   0  0
   12.1502  -18.7161    0.0000 O   0  5
    5.1746  -13.5447    0.0000 C   0  0
    3.0277  -13.8944    0.0000 C   0  0
    2.3272  -13.4608    0.0000 C   0  0
    2.2851  -15.1130    0.0000 C   0  0
    3.0093  -14.7165    0.0000 C   0  0
    1.5801  -14.6775    0.0000 C   0  0
    1.6033  -13.8525    0.0000 C   0  0
    5.1196  -16.0216    0.0000 C   0  0
    6.5438  -14.3732    0.0000 H   0  0
    6.5444  -16.0288    0.0000 C   0  0  2  0  0  0
    5.8269  -16.4355    0.0000 C   0  0  1  0  0  0
    5.8225  -17.2561    0.0000 C   0  0
    6.5338  -17.6764    0.0000 C   0  0
    7.2513  -17.2655    0.0000 C   0  0
    7.2574  -16.4387    0.0000 C   0  0
    5.1071  -16.8437    0.0000 H   0  0
    7.2580  -15.6065    0.0000 H   0  0
    0.9006  -13.4202    0.0000 C   0  0
    0.9236  -12.5955    0.0000 O   0  0
    0.1749  -13.8127    0.0000 O   0  0
   -0.5278  -13.3804    0.0000 C   0  0
    2.2634  -15.9377    0.0000 C   0  0
    1.5384  -16.3313    0.0000 O   0  0
    2.9669  -16.3688    0.0000 O   0  0
    1.5168  -17.1560    0.0000 C   0  0
  5 24  1  6
  5  6  1  0
  4 25  1  0
  6  1  1  0
 25 26  2  0
 26 30  1  0
  8 14  1  0
 29 27  1  0
 10 11  1  0
 27 28  2  0
 28 25  1  0
 29 30  2  0
 11 12  1  0
 12 13  1  0
 13 14  1  0
 33  2  1  0
  2  7  1  0
 34 31  1  0
 15 16  2  0
  2  3  1  0
  2 32  1  6
 33 34  1  0
 16 17  1  0
  7  8  1  0
 17 18  2  0
  1 31  1  0
 18 19  1  0
  7  9  2  0
 33 38  1  0
 34 35  1  0
 35 36  1  0
 36 37  1  0
 37 38  1  0
 19 20  2  0
 34 39  1  6
 20 15  1  0
 33 40  1  6
 30 41  1  0
 12 15  1  0
 41 42  2  0
  8 10  1  0
 41 43  1  0
  4  5  1  0
 43 44  1  0
 21 22  2  0
 27 45  1  0
 21 23  1  0
 45 46  1  0
 18 21  1  0
 45 47  2  0
  1  3  1  0
 46 48  1  0
M  CHG  2  21   1  23  -1
M  END