
  CDK    9/16/09,10:8

 13 14  0  0  0  0  0  0  0  0999 V2000
    1.7061   -7.4699    0.0000 C   0  0  0  0  0  0  0  0  0  0  0  0
    1.7049   -8.2949    0.0000 C   0  0  0  0  0  0  0  0  0  0  0  0
    2.4177   -8.7066    0.0000 C   0  0  0  0  0  0  0  0  0  0  0  0
    2.4159   -7.0584    0.0000 C   0  0  0  0  0  0  0  0  0  0  0  0
    3.1292   -7.4663    0.0000 C   0  0  0  0  0  0  0  0  0  0  0  0
    3.1280   -8.2970    0.0000 C   0  0  0  0  0  0  0  0  0  0  0  0
    3.8428   -8.7109    0.0000 N   0  0  0  0  0  0  0  0  0  0  0  0
    4.5634   -8.2989    0.0000 C   0  0  0  0  0  0  0  0  0  0  0  0
    4.5646   -7.4684    0.0000 C   0  0  0  0  0  0  0  0  0  0  0  0
    3.8452   -7.0497    0.0000 C   0  0  0  0  0  0  0  0  0  0  0  0
    5.2779   -7.0588    0.0000 O   0  0  0  0  0  0  0  0  0  0  0  0
    5.2747   -8.7123    0.0000 O   0  0  0  0  0  0  0  0  0  0  0  0
    2.4135   -6.2358    0.0000 Cl  0  0  0  0  0  0  0  0  0  0  0  0
  3  6  2  0  0  0  0 
  1  2  2  0  0  0  0 
  5  4  2  0  0  0  0 
  4  1  1  0  0  0  0 
  5 10  1  0  0  0  0 
  6  7  1  0  0  0  0 
  7  8  1  0  0  0  0 
  8  9  1  0  0  0  0 
  9 10  2  0  0  0  0 
  5  6  1  0  0  0  0 
  9 11  1  0  0  0  0 
  8 12  2  0  0  0  0 
  2  3  1  0  0  0  0 
  4 13  1  0  0  0  0 
M  END