
          11280715162D 1   1.00000     0.00000     0

 21 23  0     0  0            999 V2000
   -0.3750    0.2333    0.0000 C   0  0  0  0  0  0           0  0  0
    0.4500    0.2833    0.0000 N   0  0  3  0  0  0           0  0  0
   -0.5875   -0.5625    0.0000 C   0  0  3  0  0  0           0  0  0
    1.7167    0.9333    0.0000 C   0  0  0  0  0  0           0  0  0
    2.5417    0.8958    0.0000 C   0  0  0  0  0  0           0  0  0
    0.1042   -1.0125    0.0000 C   0  0  0  0  0  0           0  0  0
    3.8125    1.5458    0.0000 N   0  0  3  0  0  0           0  0  0
   -0.9000    0.8708    0.0000 O   0  0  0  0  0  0           0  0  0
    0.7417   -0.4917    0.0000 C   0  0  0  0  0  0           0  0  0
   -1.3583   -0.8625    0.0000 C   0  0  0  0  0  0           0  0  0
    0.8917    0.9708    0.0000 C   0  0  0  0  0  0           0  0  0
    3.3667    0.8500    0.0000 C   0  0  0  0  0  0           0  0  0
    3.5125    2.3083    0.0000 C   0  0  0  0  0  0           0  0  0
    4.6375    1.5833    0.0000 C   0  0  0  0  0  0           0  0  0
   -1.9958   -0.3417    0.0000 C   0  0  0  0  0  0           0  0  0
   -1.4750   -1.6750    0.0000 C   0  0  0  0  0  0           0  0  0
    4.8500    2.3833    0.0000 C   0  0  0  0  0  0           0  0  0
    4.1542    2.8333    0.0000 C   0  0  0  0  0  0           0  0  0
   -2.2375   -1.9792    0.0000 C   0  0  0  0  0  0           0  0  0
   -2.7625   -0.6417    0.0000 C   0  0  0  0  0  0           0  0  0
   -2.8875   -1.4625    0.0000 C   0  0  0  0  0  0           0  0  0
  2  1  1  0     0  0
  3  1  1  0     0  0
  4 11  1  0     0  0
  5  4  3  0     0  0
  6  3  1  0     0  0
  7 12  1  0     0  0
  8  1  2  0     0  0
  9  2  1  0     0  0
 10  3  1  0     0  0
 11  2  1  0     0  0
 12  5  1  0     0  0
 13  7  1  0     0  0
 14  7  1  0     0  0
 15 10  2  0     0  0
 16 10  1  0     0  0
 17 14  1  0     0  0
 18 13  1  0     0  0
 19 16  2  0     0  0
 20 15  1  0     0  0
 21 19  1  0     0  0
  6  9  1  0     0  0
 20 21  2  0     0  0
 17 18  1  0     0  0
M  END