
  Mrv0541 04051115152D          

 34 38  0  0  0  0            999 V2000
   -1.2256    1.7127    0.0000 C   0  0  0  0  0  0  0  0  0  0  0  0
    0.2610    1.7127    0.0000 C   0  0  0  0  0  0  0  0  0  0  0  0
    0.7830    3.0429    0.0000 C   0  0  0  0  0  0  0  0  0  0  0  0
    2.1960    3.2558    0.0000 C   0  0  0  0  0  0  0  0  0  0  0  0
    2.3190    2.4401    0.0000 C   0  0  0  0  0  0  0  0  0  0  0  0
    1.6740    1.9257    0.0000 C   0  0  0  0  0  0  0  0  0  0  0  0
    0.4446    0.9084    0.0000 C   0  0  0  0  0  0  0  0  0  0  0  0
    1.5617    0.0175    0.0000 C   0  0  0  0  0  0  0  0  0  0  0  0
    1.0474   -0.6276    0.0000 C   0  0  0  0  0  0  0  0  0  0  0  0
    0.5599   -3.8526    0.0000 O   0  0  0  0  0  0  0  0  0  0  0  0
   -0.2559   -3.9756    0.0000 C   0  0  0  0  0  0  0  0  0  0  0  0
   -0.5573   -4.7435    0.0000 O   0  0  0  0  0  0  0  0  0  0  0  0
   -0.7703   -3.3306    0.0000 C   0  0  0  0  0  0  0  0  0  0  0  0
   -1.5861   -3.4535    0.0000 C   0  0  0  0  0  0  0  0  0  0  0  0
   -2.1004   -2.8085    0.0000 C   0  0  0  0  0  0  0  0  0  0  0  0
   -1.7990   -2.0405    0.0000 C   0  0  0  0  0  0  0  0  0  0  0  0
   -2.3134   -1.3955    0.0000 N   0  0  0  0  0  0  0  0  0  0  0  0
   -2.0120   -0.6276    0.0000 C   0  0  0  0  0  0  0  0  0  0  0  0
   -2.5264    0.0175    0.0000 N   0  0  0  0  0  0  0  0  0  0  0  0
   -2.2250    0.7854    0.0000 C   0  0  0  0  0  0  0  0  0  0  0  0
   -1.4092    0.9084    0.0000 C   0  0  0  0  0  0  0  0  0  0  0  0
   -0.4823    2.0707    0.0000 N   0  0  0  0  0  0  0  0  0  0  0  0
    0.9060    2.2271    0.0000 C   0  0  0  0  0  0  0  0  0  0  0  0
    0.0151    3.3443    0.0000 F   0  0  0  0  0  0  0  0  0  0  0  0
    1.4280    3.5572    0.0000 C   0  0  0  0  0  0  0  0  0  0  0  0
    1.7969    1.1099    0.0000 F   0  0  0  0  0  0  0  0  0  0  0  0
    1.2603    0.7854    0.0000 C   0  0  0  0  0  0  0  0  0  0  0  0
    2.3775   -0.1055    0.0000 Cl  0  0  0  0  0  0  0  0  0  0  0  0
    0.2316   -0.5046    0.0000 C   0  0  0  0  0  0  0  0  0  0  0  0
   -0.0698    0.2634    0.0000 C   0  0  0  0  0  0  0  0  0  0  0  0
   -0.8948    0.2634    0.0000 C   0  0  0  0  0  0  0  0  0  0  0  0
   -1.1962   -0.5046    0.0000 N   0  0  0  0  0  0  0  0  0  0  0  0
   -0.9833   -1.9176    0.0000 C   0  0  0  0  0  0  0  0  0  0  0  0
   -0.4689   -2.5626    0.0000 C   0  0  0  0  0  0  0  0  0  0  0  0
 21  1  1  0  0  0  0
  1 22  1  0  0  0  0
  2  7  1  0  0  0  0
  2 22  2  0  0  0  0
  2 23  1  0  0  0  0
 23  3  1  0  0  0  0
  3 24  1  0  0  0  0
  3 25  2  0  0  0  0
  4  5  2  0  0  0  0
 25  4  1  0  0  0  0
  5  6  1  0  0  0  0
 23  6  2  0  0  0  0
  6 26  1  0  0  0  0
  7 27  1  0  0  0  0
  7 30  2  0  0  0  0
  8  9  1  0  0  0  0
 27  8  2  0  0  0  0
  8 28  1  0  0  0  0
  9 29  2  0  0  0  0
 11 10  2  0  0  0  0
 11 12  1  0  0  0  0
 11 13  1  0  0  0  0
 13 14  1  0  0  0  0
 13 34  2  0  0  0  0
 14 15  2  0  0  0  0
 15 16  1  0  0  0  0
 16 17  1  0  0  0  0
 16 33  2  0  0  0  0
 18 17  1  0  0  0  0
 18 19  2  0  0  0  0
 18 32  1  0  0  0  0
 20 19  1  0  0  0  0
 20 21  2  0  0  0  0
 21 31  1  0  0  0  0
 29 30  1  0  0  0  0
 30 31  1  0  0  0  0
 31 32  2  0  0  0  0
 33 34  1  0  0  0  0
M  END