
  SciTegic12211613382D

 20 22  0  0  0  0            999 V2000
    4.7933   -5.0599    0.0000 C   0  0
    3.7662   -4.4393    0.0000 C   0  0  2  0  0  0
    2.3840   -5.0218    0.0000 C   0  0  1  0  0  0
    2.1111   -6.1904    0.0000 O   0  0
    1.4028   -3.8873    0.0000 C   0  0  1  0  0  0
    0.2065   -3.9814    0.0000 O   0  0
    2.1852   -2.6281    0.0000 C   0  0  1  0  0  0
    3.6393   -2.9446    0.0000 O   0  0
    1.7138   -1.2033    0.0000 N   0  0
    2.5889    0.0182    0.0000 C   0  0
    1.7138    1.2033    0.0000 N   0  0
    0.2917    0.7475    0.0000 C   0  0
   -1.0028    1.5132    0.0000 C   0  0
   -0.9991    2.7132    0.0000 N   0  0
   -2.3155    0.7475    0.0000 N   0  0
   -2.3155   -0.7475    0.0000 C   0  0
   -1.0028   -1.5132    0.0000 N   0  0
    0.2917   -0.7475    0.0000 C   0  0
    4.0872    0.0382    0.0000 N   0  0
    4.6738    1.0851    0.0000 C   0  0
  2  1  1  6
  2  3  1  0
  3  4  1  1
  3  5  1  0
  5  6  1  1
  5  7  1  0
  7  8  1  0
  2  8  1  0
  7  9  1  6
  9 10  1  0
 10 11  2  0
 11 12  1  0
 12 13  1  0
 13 14  1  0
 13 15  2  0
 15 16  1  0
 16 17  2  0
 17 18  1  0
 12 18  2  0
  9 18  1  0
 10 19  1  0
 19 20  1  0
M  END