
          11280715342D 1   1.00000     0.00000     0

 40 45  0     0  0            999 V2000
    2.1792   -3.9292    0.0000 C   0  0  3  0  0  0           0  0  0
    1.5542   -3.7042    0.0000 C   0  0  3  0  0  0           0  0  0
    3.4167   -4.6417    0.0000 C   0  0  3  0  0  0           0  0  0
    0.1667   -0.0917    0.0000 C   0  0  0  0  0  0           0  0  0
    0.6292   -4.0375    0.0000 C   0  0  3  0  0  0           0  0  0
    3.8292   -5.3667    0.0000 C   0  0  3  0  0  0           0  0  0
    0.3917    0.6958    0.0000 C   0  0  0  0  0  0           0  0  0
    1.7792   -3.2042    0.0000 O   0  0  0  0  0  0           0  0  0
    3.0042   -3.9292    0.0000 O   0  0  0  0  0  0           0  0  0
    0.2167   -3.3167    0.0000 C   0  0  3  0  0  0           0  0  0
    0.9042   -3.5417    0.0000 C   0  0  3  0  0  0           0  0  0
    4.7542   -5.0375    0.0000 C   0  0  3  0  0  0           0  0  0
    0.7417   -0.6875    0.0000 C   0  0  0  0  0  0           0  0  0
    4.1042   -4.8667    0.0000 C   0  0  3  0  0  0           0  0  0
    0.4042   -1.4417    0.0000 C   0  0  0  0  0  0           0  0  0
    5.3792   -5.2625    0.0000 C   0  0  3  0  0  0           0  0  0
   -0.1833    1.2833    0.0000 C   0  0  0  0  0  0           0  0  0
    4.9792   -4.5375    0.0000 C   0  0  0  0  0  0           0  0  0
   -0.6333   -0.3042    0.0000 C   0  0  0  0  0  0           0  0  0
    0.8917   -2.1042    0.0000 N   0  0  0  0  0  0           0  0  0
    1.5292   -0.4875    0.0000 C   0  0  0  0  0  0           0  0  0
    1.1917    0.8958    0.0000 C   0  0  0  0  0  0           0  0  0
    0.4792   -2.8250    0.0000 C   0  0  0  0  0  0           0  0  0
   -0.4208   -1.5292    0.0000 O   0  0  0  0  0  0           0  0  0
    1.9542   -4.4167    0.0000 N   0  0  0  0  0  0           0  0  0
   -0.9833    1.0833    0.0000 C   0  0  0  0  0  0           0  0  0
    0.0542    2.0833    0.0000 C   0  0  0  0  0  0           0  0  0
    1.7542    0.3083    0.0000 C   0  0  0  0  0  0           0  0  0
   -1.2083    0.2958    0.0000 C   0  0  0  0  0  0           0  0  0
    1.4292    1.6875    0.0000 C   0  0  0  0  0  0           0  0  0
    0.8542    2.2833    0.0000 C   0  0  0  0  0  0           0  0  0
    0.3417   -4.8042    0.0000 O   0  0  0  0  0  0           0  0  0
    3.2417   -5.9500    0.0000 O   0  0  0  0  0  0           0  0  0
    4.0917   -4.0417    0.0000 N   0  0  0  0  0  0           0  0  0
    6.0917   -4.8417    0.0000 N   0  0  0  0  0  0           0  0  0
   -0.5833   -3.1000    0.0000 O   0  0  0  0  0  0           0  0  0
    5.1542   -5.7500    0.0000 O   0  0  0  0  0  0           0  0  0
   -1.3208    2.4708    0.0000 C   0  0  0  0  0  0           0  0  0
   -0.5208    2.6708    0.0000 C   0  0  0  0  0  0           0  0  0
   -1.5458    1.6833    0.0000 C   0  0  0  0  0  0           0  0  0
  2  1  1  0     0  0
  3  9  1  0     0  0
  4 13  1  0     0  0
  5  2  1  0     0  0
  6  3  1  0     0  0
  7  4  2  0     0  0
  8  1  1  0     0  0
  9  1  1  0     0  0
 10 11  1  0     0  0
 11  8  1  0     0  0
 12  6  1  0     0  0
 13 15  1  0     0  0
 14  3  1  0     0  0
 15 20  1  0     0  0
 16 18  1  0     0  0
 17  7  1  0     0  0
 18 14  1  0     0  0
 19  4  1  0     0  0
 20 23  1  0     0  0
 21 13  2  0     0  0
 22 28  2  0     0  0
 23 11  1  0     0  0
 24 15  2  0     0  0
 25  2  1  0     0  0
 26 29  1  0     0  0
 27 17  1  0     0  0
 28 21  1  0     0  0
 29 19  2  0     0  0
 30 22  1  0     0  0
 31 30  2  0     0  0
 32  5  1  0     0  0
 33  6  1  0     0  0
 34 14  1  0     0  0
 35 16  1  0     0  0
 36 10  1  0     0  0
 37 12  1  0     0  0
 38 40  2  0     0  0
 39 27  2  0     0  0
 40 26  1  0     0  0
  5 10  1  0     0  0
 16 12  1  0     0  0
  7 22  1  0     0  0
 26 17  2  0     0  0
 27 31  1  0     0  0
 38 39  1  0     0  0
M  END