
  SciTegic12231509382D

 32 35  0  0  1  0            999 V2000
    2.7564    3.2352    0.0000 O   0  0
    2.1441    2.6822    0.0000 C   0  0
    1.3591    2.9360    0.0000 N   0  0
    1.1864    3.7428    0.0000 C   0  0
    0.4014    3.9966    0.0000 C   0  0
    0.2287    4.8033    0.0000 C   0  0
   -0.5563    5.0571    0.0000 C   0  0
   -0.7290    5.8638    0.0000 C   0  0
    2.3168    1.8755    0.0000 C   0  0
    3.0709    1.5411    0.0000 N   0  0
    2.9859    0.7205    0.0000 C   0  0
    2.1792    0.5478    0.0000 O   0  0
    1.7656    1.2616    0.0000 C   0  0
    3.5998    0.1693    0.0000 C   0  0  2  0  0  0
    4.2401    0.6195    0.0000 C   0  0  2  0  0  0
    4.0801    1.4349    0.0000 O   0  0
    4.0100   -0.1009    0.0000 C   0  0  1  0  0  0
    4.7405   -0.4712    0.0000 C   0  0
    5.0356    0.1542    0.0000 C   0  0
    3.2345   -0.4912    0.0000 C   0  0  2  0  0  0
    2.6399   -1.0631    0.0000 C   0  0
    2.8379   -1.8640    0.0000 C   0  0
    3.6304   -2.0930    0.0000 C   0  0
    3.8284   -2.8939    0.0000 C   0  0
    3.2338   -3.4658    0.0000 C   0  0
    2.4412   -3.2368    0.0000 C   0  0
    2.2433   -2.4359    0.0000 C   0  0
    1.4507   -2.2069    0.0000 C   0  0
    0.8561   -2.7788    0.0000 C   0  0
    1.0540   -3.5797    0.0000 C   0  0
    1.8466   -3.8087    0.0000 O   0  0
    0.4594   -4.1516    0.0000 O   0  0
  1  2  2  0
  2  3  1  0
  3  4  1  0
  4  5  1  0
  5  6  1  0
  6  7  1  0
  7  8  1  0
  2  9  1  0
  9 10  1  0
 10 11  2  0
 11 12  1  0
 12 13  1  0
  9 13  2  0
 14 11  1  6
 14 15  1  0
 15 16  1  6
 17 16  1  1
 17 18  1  0
 18 19  1  0
 15 19  1  0
 17 20  1  0
 14 20  1  0
 20 21  1  6
 21 22  1  0
 22 23  2  0
 23 24  1  0
 24 25  2  0
 25 26  1  0
 26 27  2  0
 22 27  1  0
 27 28  1  0
 28 29  1  0
 29 30  1  0
 30 31  2  0
 30 32  1  0
M  END