
  SciTegic01161211242D

 21 21  0  0  0  0            999 V2000
    1.2990   -0.7500    0.0000 C   0  0
    2.5973   -1.5031    0.0000 C   0  0  1  0  0  0
    1.2990    0.7500    0.0000 C   0  0
    0.0000   -1.5000    0.0000 C   0  0
    2.5951   -3.0039    0.0000 C   0  0  2  0  0  0
   -1.2990   -0.7500    0.0000 C   0  0
    0.0000    1.5000    0.0000 C   0  0
    3.8933   -3.7570    0.0000 C   0  0
   -1.2990    0.7500    0.0000 C   0  0
    3.6375   -0.9049    0.0000 O   0  0
    1.2925   -3.7494    0.0000 C   0  0
    8.9915   -2.2533    0.0000 Cl  0  0
    0.2552   -3.1461    0.0000 N   0  0
    0.0000   -2.7000    0.0000 C   0  0
    2.3383    1.3500    0.0000 C   0  0
    3.8934   -5.2570    0.0000 C   0  0
    5.1925   -3.0070    0.0000 C   0  0
   -2.3383    1.3500    0.0000 C   0  0
    5.1924   -6.0070    0.0000 C   0  0
    6.4915   -3.7571    0.0000 C   0  0
    6.4915   -5.2571    0.0000 C   0  0
  1  2  1  0
  1  3  2  0
  1  4  1  0
  2  5  1  0
  4  6  2  0
  3  7  1  0
  5  8  1  6
  6  9  1  0
  7  9  2  0
  2 10  1  6
  5 11  1  0
 11 13  1  0
  4 14  1  0
  3 15  1  0
  8 16  1  0
  8 17  2  0
  9 18  1  0
 16 19  2  0
 17 20  1  0
 19 21  1  0
 20 21  2  0
M  END