
  SciTegic11261311332D

 32 33  0  0  0  0            999 V2000
    1.2462    4.7897    0.0000 O   0  0
    1.2462    3.9647    0.0000 N   0  3
    1.9607    3.5522    0.0000 O   0  5
    0.5318    3.5522    0.0000 C   0  0
   -0.1827    3.9647    0.0000 C   0  0
   -0.1827    4.7897    0.0000 N   0  0
   -0.8972    3.5522    0.0000 N   0  0
   -0.8972    2.7272    0.0000 C   0  0
   -1.6117    2.3147    0.0000 O   0  0
    0.5318    2.7272    0.0000 C   0  0
   -0.1827    2.3147    0.0000 N   0  0
   -0.1827    1.4897    0.0000 C   0  0  2  0  0  0
    0.4847    1.0048    0.0000 O   0  0
   -0.8502    1.0048    0.0000 C   0  0  2  0  0  0
   -1.6348    1.2597    0.0000 O   0  0
   -0.5952    0.2201    0.0000 C   0  0  2  0  0  0
   -1.0801   -0.4473    0.0000 O   0  0
    0.2298    0.2201    0.0000 C   0  0  1  0  0  0
    0.7147   -0.4473    0.0000 C   0  0
    0.3791   -1.2010    0.0000 O   0  0
    0.8641   -1.8684    0.0000 P   0  0
    0.1966   -2.3533    0.0000 O   0  0
    1.5315   -1.3835    0.0000 O   0  0
    1.3490   -2.5359    0.0000 O   0  0
    1.0134   -3.2895    0.0000 P   0  0
    0.2598   -2.9540    0.0000 O   0  0
    1.7671   -3.6251    0.0000 O   0  0
    0.6779   -4.0432    0.0000 O   0  0
    1.1628   -4.7107    0.0000 P   0  0
    1.6477   -5.3781    0.0000 O   0  0
    0.4954   -5.1956    0.0000 O   0  0
    1.8302   -4.2257    0.0000 O   0  0
  2  1  2  0
  2  3  1  0
  4  2  1  0
  5  4  1  0
  4 10  2  0
  5  6  1  0
  5  7  2  0
  8  7  1  0
  8  9  2  0
  8 11  1  0
 10 11  1  0
 12 11  1  6
 12 13  1  0
 12 14  1  0
 18 13  1  0
 14 15  1  1
 14 16  1  0
 16 17  1  1
 16 18  1  0
 18 19  1  6
 19 20  1  0
 21 20  1  0
 21 22  1  0
 23 21  2  0
 24 21  1  0
 25 24  1  0
 26 25  2  0
 25 27  1  0
 28 25  1  0
 28 29  1  0
 30 29  2  0
 31 29  1  0
 32 29  1  0
M  CHG  2   2   1   3  -1
M  END