
          11280715492D 1   1.00000     0.00000     0

 25 28  0     0  0            999 V2000
   -4.4393   -1.9418    0.0000 N   0  0  0  0  0  0           0  0  0
   -4.4405   -2.7692    0.0000 C   0  0  0  0  0  0           0  0  0
   -3.7256   -3.1822    0.0000 C   0  0  0  0  0  0           0  0  0
   -3.0090   -2.7687    0.0000 C   0  0  0  0  0  0           0  0  0
   -3.0119   -1.9382    0.0000 C   0  0  0  0  0  0           0  0  0
   -3.7274   -1.5290    0.0000 C   0  0  0  0  0  0           0  0  0
   -2.2939   -3.1802    0.0000 C   0  0  0  0  0  0           0  0  0
   -1.4024   -4.1760    0.0000 N   0  0  0  0  0  0           0  0  0
   -0.9907   -3.4645    0.0000 C   0  0  0  0  0  0           0  0  0
   -1.5514   -2.8419    0.0000 N   0  0  0  0  0  0           0  0  0
   -2.2096   -3.9977    0.0000 C   0  0  0  0  0  0           0  0  0
   -2.8252   -4.5458    0.0000 C   0  0  0  0  0  0           0  0  0
   -3.5468   -4.1432    0.0000 C   0  0  0  0  0  0           0  0  0
   -4.2539   -4.5668    0.0000 C   0  0  0  0  0  0           0  0  0
   -4.2408   -5.3926    0.0000 C   0  0  0  0  0  0           0  0  0
   -3.5147   -5.7932    0.0000 C   0  0  0  0  0  0           0  0  0
   -2.8104   -5.3673    0.0000 C   0  0  0  0  0  0           0  0  0
   -0.1659   -3.4449    0.0000 C   0  0  0  0  0  0           0  0  0
    0.2593   -4.1495    0.0000 C   0  0  0  0  0  0           0  0  0
    1.0834   -4.1303    0.0000 C   0  0  0  0  0  0           0  0  0
    1.4797   -3.4056    0.0000 C   0  0  0  0  0  0           0  0  0
    1.0458   -2.6988    0.0000 C   0  0  0  0  0  0           0  0  0
    0.2232   -2.7215    0.0000 C   0  0  0  0  0  0           0  0  0
   -4.9480   -5.8177    0.0000 C   0  0  0  0  0  0           0  0  0
   -5.6697   -5.4179    0.0000 O   0  0  0  0  0  0           0  0  0
  6  1  2  0     0  0
 12 13  2  0     0  0
  1  2  1  0     0  0
 13 14  1  0     0  0
  4  7  1  0     0  0
 14 15  2  0     0  0
  3  4  1  0     0  0
 15 16  1  0     0  0
 16 17  2  0     0  0
 17 12  1  0     0  0
 11 12  1  0     0  0
  4  5  2  0     0  0
  9 18  1  0     0  0
  2  3  2  0     0  0
 18 19  2  0     0  0
  8  9  1  0     0  0
 19 20  1  0     0  0
  9 10  2  0     0  0
 20 21  2  0     0  0
 10  7  1  0     0  0
 21 22  1  0     0  0
  7 11  2  0     0  0
 22 23  2  0     0  0
 23 18  1  0     0  0
 11  8  1  0     0  0
 15 24  1  0     0  0
  5  6  1  0     0  0
 24 25  1  0     0  0
M  END