
          02060813472D 1   1.00000     0.00000     0

 37 41  0     1  0            999 V2000
   -3.3973  -11.7333    0.0000 C   0  0  0  0  0  0           0  0  0
   -3.3984  -12.5607    0.0000 C   0  0  0  0  0  0           0  0  0
   -2.6836  -12.9735    0.0000 C   0  0  0  0  0  0           0  0  0
   -2.6854  -11.3205    0.0000 C   0  0  0  0  0  0           0  0  0
   -1.9700  -11.7297    0.0000 C   0  0  0  0  0  0           0  0  0
   -1.9693  -12.5565    0.0000 C   0  0  0  0  0  0           0  0  0
   -1.2540  -12.9675    0.0000 N   0  0  0  0  0  0           0  0  0
   -0.5389  -12.5527    0.0000 C   0  0  0  0  0  0           0  0  0
   -0.5437  -11.7227    0.0000 N   0  0  0  0  0  0           0  0  0
   -1.2596  -11.3155    0.0000 C   0  0  0  0  0  0           0  0  0
    0.1748  -12.9625    0.0000 N   0  0  3  0  0  0           0  0  0
    1.6033  -13.7863    0.0000 N   0  0  3  0  0  0           0  0  0
    1.6021  -12.9604    0.0000 C   0  0  0  0  0  0           0  0  0
    0.8855  -12.5462    0.0000 C   0  0  0  0  0  0           0  0  0
    0.8880  -14.1981    0.0000 C   0  0  2  0  0  0           0  0  0
    0.1736  -13.7858    0.0000 C   0  0  1  0  0  0           0  0  0
   -0.5368  -14.1960    0.0000 C   0  0  0  0  0  0           0  0  0
   -0.5390  -15.0203    0.0000 C   0  0  0  0  0  0           0  0  0
    0.1754  -15.4326    0.0000 C   0  0  0  0  0  0           0  0  0
    0.8920  -15.0207    0.0000 C   0  0  0  0  0  0           0  0  0
    1.6000  -14.6083    0.0000 H   0  0  0  0  0  0           0  0  0
   -0.5458  -13.3708    0.0000 H   0  0  0  0  0  0           0  0  0
    2.3178  -14.1988    0.0000 C   0  0  0  0  0  0           0  0  0
    2.3179  -15.0238    0.0000 O   0  0  0  0  0  0           0  0  0
    3.0326  -13.7858    0.0000 C   0  0  0  0  0  0           0  0  0
    3.8202  -14.0196    0.0000 C   0  0  0  0  0  0           0  0  0
    4.2867  -13.3391    0.0000 C   0  0  0  0  0  0           0  0  0
    3.7837  -12.6851    0.0000 C   0  0  0  0  0  0           0  0  0
    3.0064  -12.9615    0.0000 O   0  0  0  0  0  0           0  0  0
   -4.1118  -11.3210    0.0000 O   0  0  0  0  0  0           0  0  0
   -4.1132  -12.9726    0.0000 O   0  0  0  0  0  0           0  0  0
   -4.1120  -10.4960    0.0000 C   0  0  0  0  0  0           0  0  0
   -4.1139  -13.7976    0.0000 C   0  0  0  0  0  0           0  0  0
   -1.2640  -10.4905    0.0000 N   0  0  0  0  0  0           0  0  0
    4.0172  -11.8921    0.0000 C   0  0  0  0  0  0           0  0  0
    4.8192  -11.6985    0.0000 O   0  0  0  0  0  0           0  0  0
    3.4486  -11.2944    0.0000 C   0  0  0  0  0  0           0  0  0
  8  9  1  0     0  0
  4  1  1  0     0  0
 15 20  1  0     0  0
 16 17  1  0     0  0
 17 18  1  0     0  0
 18 19  1  0     0  0
 19 20  1  0     0  0
  9 10  2  0     0  0
 15 21  1  6     0  0
 10  5  1  0     0  0
 16 22  1  6     0  0
 11 16  1  0     0  0
 12 23  1  0     0  0
 23 24  2  0     0  0
  2  3  1  0     0  0
 23 25  1  0     0  0
 25 26  2  0     0  0
  5  6  1  0     0  0
  3  6  2  0     0  0
 11 14  1  0     0  0
 15 12  1  0     0  0
 26 27  1  0     0  0
 27 28  2  0     0  0
 28 29  1  0     0  0
 29 25  1  0     0  0
 12 13  1  0     0  0
  1 30  1  0     0  0
 13 14  1  0     0  0
  2 31  1  0     0  0
  8 11  1  0     0  0
 30 32  1  0     0  0
 15 16  1  0     0  0
 31 33  1  0     0  0
  6  7  1  0     0  0
 10 34  1  0     0  0
  1  2  2  0     0  0
  7  8  2  0     0  0
  5  4  2  0     0  0
 35 36  2  0     0  0
 35 37  1  0     0  0
 28 35  1  0     0  0
M  END