
  SciTegic12231509382D

 19 21  0  0  0  0            999 V2000
    1.0069   -1.4791    0.0000 C   0  0
    1.0057   -2.3065    0.0000 C   0  0
    1.7206   -2.7193    0.0000 C   0  0
    1.7187   -1.0664    0.0000 C   0  0
    2.4341   -1.4754    0.0000 C   0  0
    2.4344   -2.3065    0.0000 C   0  0
    3.2248   -2.5631    0.0000 N   0  0
    3.7131   -1.8906    0.0000 C   0  0
    3.2244   -1.2185    0.0000 N   0  0
    0.2910   -2.7184    0.0000 I   0  0
    4.5381   -1.8903    0.0000 C   0  0
    4.9504   -1.1757    0.0000 C   0  0
    5.7754   -1.1754    0.0000 C   0  0
    6.1857   -1.8919    0.0000 C   0  0
    7.0099   -1.8920    0.0000 C   0  0
    7.4230   -1.1768    0.0000 C   0  0
    7.0057   -0.4602    0.0000 C   0  0
    6.1830   -0.4636    0.0000 C   0  0
    8.2480   -1.1754    0.0000 N   0  0
  1  2  2  0
  2  3  1  0
  3  6  2  0
  5  4  2  0
  4  1  1  0
  5  6  1  0
  6  7  1  0
  7  8  1  0
  8  9  2  0
  9  5  1  0
  2 10  1  0
  8 11  1  0
 11 12  2  0
 12 13  1  0
 13 14  2  0
 14 15  1  0
 15 16  2  0
 16 17  1  0
 17 18  2  0
 18 13  1  0
 16 19  1  0
M  END