
  SciTegic01161211252D

 40 46  0  0  0  0            999 V2000
   -1.4306   -5.6851    0.0000 N   0  0
   -0.0039   -5.6922    0.0000 C   0  0
   -0.7154   -5.2747    0.0000 C   0  0
   -2.8049   -3.9915    0.0000 C   0  0
   -2.1039   -4.4275    0.0000 C   0  0
   -2.1277   -5.2545    0.0000 C   0  0
    0.7312   -5.3362    0.0000 C   0  0
    1.4321   -5.7682    0.0000 N   0  0
    0.7506   -4.5093    0.0000 O   0  0
    1.4041   -6.5916    0.0000 C   0  0
    2.1009   -7.0273    0.0000 C   0  0
    2.8277   -6.6358    0.0000 N   0  0
    2.8574   -5.8078    0.0000 C   0  0
    2.1522   -5.3715    0.0000 C   0  0
    3.5240   -7.0737    0.0000 C   0  0
   -1.3795   -4.0324    0.0000 C   0  0
   -3.5293   -4.3866    0.0000 C   0  0
   -4.2308   -3.9483    0.0000 C   0  0
   -4.2729   -5.6026    0.0000 C   0  0
   -3.5477   -5.2099    0.0000 C   0  0
   -1.4348   -6.5124    0.0000 C   0  0
   -0.0081   -6.5196    0.0000 C   0  0
   -0.7264   -6.9309    0.0000 C   0  0
   -0.7309   -7.7527    0.0000 C   0  0
   -0.0188   -8.1692    0.0000 C   0  0
    0.6997   -7.7622    0.0000 C   0  0
    0.7058   -6.9342    0.0000 C   0  0
   -4.9759   -5.1768    0.0000 C   0  0
   -4.9555   -4.3447    0.0000 C   0  0
   -5.7407   -4.0680    0.0000 O   0  0
   -6.2527   -4.7293    0.0000 C   0  0
   -5.7736   -5.4145    0.0000 O   0  0
    3.4892   -7.8938    0.0000 C   0  0
    4.1847   -8.3315    0.0000 C   0  0
    4.9130   -7.9474    0.0000 C   0  0
    4.2453   -6.6870    0.0000 C   0  0
    4.9405   -7.1202    0.0000 C   0  0
    5.5675   -6.5930    0.0000 N   0  0
    5.2597   -5.8337    0.0000 S   0  0
    4.4426   -5.8920    0.0000 N   0  0
  6  1  1  0
  8 14  1  0
 23 21  1  0
 10 11  1  0
 11 12  1  0
 22 23  1  0
 12 13  1  0
 13 14  1  0
 22  2  1  0
  2  7  1  0
  2  3  1  0
 22 27  1  0
 23 24  1  0
 24 25  1  0
 25 26  1  0
 26 27  1  0
  7  8  1  0
  1 21  1  0
  7  9  2  0
 28 29  2  0
 12 15  1  0
  8 10  1  0
  5 16  1  0
  4 17  1  0
 29 30  1  0
 30 31  1  0
 31 32  1  0
 32 28  1  0
  4  5  1  0
 15 33  2  0
 17 18  2  0
 33 34  1  0
 18 29  1  0
 34 35  2  0
 35 37  1  0
 36 15  1  0
 36 37  1  0
  1  3  1  0
 28 19  1  0
  5  6  1  0
 19 20  2  0
 20 17  1  0
 37 38  2  0
 38 39  1  0
 39 40  1  0
 40 36  2  0
M  END