
          11280714442D 1   1.00000     0.00000     0

 18 18  0     0  0            999 V2000
    5.0417   -2.5542    0.0000 C   0  0  0  0  0  0           0  0  0
    5.7750   -2.9375    0.0000 O   0  0  0  0  0  0           0  0  0
    8.6292   -2.8042    0.0000 N   0  0  0  0  0  0           0  0  0
    5.0042   -1.7292    0.0000 O   0  0  0  0  0  0           0  0  0
    2.9625   -3.8875    0.0000 N   0  0  0  0  0  0           0  0  0
    4.3500   -3.0000    0.0000 C   0  0  0  0  0  0           0  0  0
    9.3250   -2.3625    0.0000 C   0  0  3  0  0  0           0  0  0
    7.2042   -2.8667    0.0000 C   0  0  3  0  0  0           0  0  0
    6.4667   -2.4917    0.0000 C   0  0  0  0  0  0           0  0  0
    7.9000   -2.4250    0.0000 C   0  0  0  0  0  0           0  0  0
    7.2417   -3.6917    0.0000 O   0  0  0  0  0  0           0  0  0
    2.9250   -3.0625    0.0000 C   0  0  0  0  0  0           0  0  0
    3.7000   -4.2667    0.0000 C   0  0  0  0  0  0           0  0  0
    3.6167   -2.6167    0.0000 C   0  0  0  0  0  0           0  0  0
    4.3917   -3.8167    0.0000 C   0  0  0  0  0  0           0  0  0
    9.5750   -3.1500    0.0000 C   0  0  0  0  0  0           0  0  0
   10.0542   -2.7417    0.0000 C   0  0  0  0  0  0           0  0  0
    9.2917   -1.5375    0.0000 C   0  0  0  0  0  0           0  0  0
  2  1  1  0     0  0
  3 10  1  0     0  0
  4  1  2  0     0  0
  5 13  1  0     0  0
  6  1  1  0     0  0
  7  3  1  0     0  0
  8  9  1  0     0  0
  9  2  1  0     0  0
 10  8  1  0     0  0
 11  8  1  0     0  0
 12 14  1  0     0  0
 13 15  2  0     0  0
 14  6  2  0     0  0
 15  6  1  0     0  0
 16  7  1  0     0  0
 17  7  1  0     0  0
 18  7  1  0     0  0
  5 12  2  0     0  0
M  END