
          11280715062D 1   1.00000     0.00000     0

 15 15  0     0  0            999 V2000
    1.1542   -3.9667    0.0000 N   0  0  0  0  0  0           0  0  0
    5.4167   -3.1500    0.0000 C   0  0  0  0  0  0           0  0  0
   -0.1250   -3.6000    0.0000 N   0  0  0  0  0  0           0  0  0
    0.3792   -4.2500    0.0000 C   0  0  0  0  0  0           0  0  0
    1.1292   -3.1500    0.0000 C   0  0  0  0  0  0           0  0  0
    5.4167   -3.9750    0.0000 S   0  0  0  0  0  0           0  0  0
    0.3375   -2.9167    0.0000 C   0  0  0  0  0  0           0  0  0
    6.1292   -2.7375    0.0000 N   0  0  0  0  0  0           0  0  0
    4.7042   -2.7375    0.0000 N   0  0  0  0  0  0           0  0  0
    1.8417   -2.7375    0.0000 C   0  0  0  0  0  0           0  0  0
    6.8417   -3.1500    0.0000 C   0  0  0  0  0  0           0  0  0
    3.9875   -3.1500    0.0000 C   0  0  0  0  0  0           0  0  0
    2.5625   -3.1500    0.0000 C   0  0  0  0  0  0           0  0  0
    3.2750   -2.7375    0.0000 C   0  0  0  0  0  0           0  0  0
    7.5625   -2.7375    0.0000 C   0  0  0  0  0  0           0  0  0
  2  9  1  0     0  0
  3  4  1  0     0  0
  4  1  2  0     0  0
  5  1  1  0     0  0
  6  2  1  0     0  0
  7  5  2  0     0  0
  8  2  2  0     0  0
  9 12  1  0     0  0
 10  5  1  0     0  0
 11  8  1  0     0  0
 12 14  1  0     0  0
 13 10  1  0     0  0
 14 13  1  0     0  0
 15 11  1  0     0  0
  7  3  1  0     0  0
M  END