
          11280715202D 1   1.00000     0.00000     0

 32 34  0     0  0            999 V2000
    3.1125   -5.8125    0.0000 C   0  0  0  0  0  0           0  0  0
    2.4000   -3.7500    0.0000 C   0  0  0  0  0  0           0  0  0
    3.1125   -4.9875    0.0000 C   0  0  0  0  0  0           0  0  0
    2.4000   -4.5750    0.0000 C   0  0  0  0  0  0           0  0  0
    5.2542   -3.7375    0.0000 C   0  0  0  0  0  0           0  0  0
    3.1125   -6.6375    0.0000 C   0  0  0  0  0  0           0  0  0
    5.2542   -4.5625    0.0000 C   0  0  0  0  0  0           0  0  0
    5.9625   -3.3167    0.0000 C   0  0  0  0  0  0           0  0  0
    3.8292   -3.7417    0.0000 C   0  0  0  0  0  0           0  0  0
    3.1125   -3.3292    0.0000 C   0  0  0  0  0  0           0  0  0
    4.5417   -3.3292    0.0000 C   0  0  0  0  0  0           0  0  0
    3.8292   -4.5750    0.0000 C   0  0  0  0  0  0           0  0  0
    8.8292   -4.9542    0.0000 C   0  0  0  0  0  0           0  0  0
    5.9667   -4.9667    0.0000 C   0  0  0  0  0  0           0  0  0
    6.6792   -3.7250    0.0000 C   0  0  0  0  0  0           0  0  0
    6.6875   -4.5542    0.0000 C   0  0  0  0  0  0           0  0  0
    8.8292   -5.7792    0.0000 O   0  0  0  0  0  0           0  0  0
    1.6875   -3.3375    0.0000 C   0  0  3  0  0  0           0  0  0
    7.4042   -4.9667    0.0000 O   0  0  0  0  0  0           0  0  0
    3.1125   -7.4625    0.0000 C   0  0  0  0  0  0           0  0  0
    8.1167   -4.5500    0.0000 C   0  0  0  0  0  0           0  0  0
    1.6792   -4.9875    0.0000 O   0  0  0  0  0  0           0  0  0
    9.5417   -4.5417    0.0000 O   0  0  0  0  0  0           0  0  0
    5.9542   -2.4917    0.0000 C   0  0  0  0  0  0           0  0  0
    4.5417   -4.9750    0.0000 C   0  0  0  0  0  0           0  0  0
    0.9667   -3.7500    0.0000 C   0  0  0  0  0  0           0  0  0
    1.6875   -2.5125    0.0000 C   0  0  0  0  0  0           0  0  0
    2.4000   -7.8750    0.0000 C   0  0  0  0  0  0           0  0  0
    3.8292   -7.8667    0.0000 C   0  0  0  0  0  0           0  0  0
    3.8292   -8.6917    0.0000 C   0  0  0  0  0  0           0  0  0
    2.4000   -8.6917    0.0000 C   0  0  0  0  0  0           0  0  0
    3.1125   -9.1125    0.0000 C   0  0  0  0  0  0           0  0  0
  2  4  2  0     0  0
  3  1  1  0     0  0
  4  3  1  0     0  0
  5 11  1  0     0  0
  6  1  3  0     0  0
  7  5  2  0     0  0
  8  5  1  0     0  0
  9 12  1  0     0  0
 10  9  2  0     0  0
 11  9  1  0     0  0
 12  3  2  0     0  0
 13 21  1  0     0  0
 14  7  1  0     0  0
 15  8  2  0     0  0
 16 15  1  0     0  0
 17 13  2  0     0  0
 18  2  1  0     0  0
 19 16  1  0     0  0
 20  6  1  0     0  0
 21 19  1  0     0  0
 22  4  1  0     0  0
 23 13  1  0     0  0
 24  8  1  0     0  0
 25  7  1  0     0  0
 26 18  1  0     0  0
 27 18  1  0     0  0
 28 20  2  0     0  0
 29 20  1  0     0  0
 30 29  2  0     0  0
 31 28  1  0     0  0
 32 30  1  0     0  0
  2 10  1  0     0  0
 32 31  2  0     0  0
 16 14  2  0     0  0
M  END