
  SciTegic12171313022D

  8  8  0  0  0  0            999 V2000
    7.7702  -12.1918    0.0000 C   0  0
    7.7690  -13.0113    0.0000 C   0  0
    8.4771  -13.4203    0.0000 C   0  0
    9.1867  -13.0109    0.0000 C   0  0
    9.1839  -12.1882    0.0000 C   0  0
    8.4753  -11.7829    0.0000 N   0  0
    7.0623  -11.7834    0.0000 N   0  0
    9.8900  -11.7769    0.0000 Br  0  0
  1  2  2  0
  2  3  1  0
  3  4  2  0
  4  5  1  0
  5  6  2  0
  6  1  1  0
  1  7  1  0
  5  8  1  0
M  END