
  SciTegic12171312592D

 46 48  0  0  0  0            999 V2000
   11.0451  -30.2626    0.0000 O   0  0
   18.6789  -25.8432    0.0000 C   0  0
    9.4387  -27.0982    0.0000 C   0  0
   13.7035  -26.2603    0.0000 N   0  0
   10.8654  -26.2724    0.0000 C   0  0
   12.9937  -25.8560    0.0000 C   0  0
   12.9890  -25.0354    0.0000 O   0  0
   20.8040  -26.2479    0.0000 C   0  0
   11.5985  -28.5650    0.0000 O   0  0
   17.9728  -26.2503    0.0000 C   0  0
   20.8060  -24.6056    0.0000 C   0  0
    9.4404  -26.2737    0.0000 C   0  0
   10.1509  -27.5111    0.0000 N   0  3
    9.4871  -28.8163    0.0000 O   0  0
   10.1482  -25.8651    0.0000 C   0  0
   15.8319  -25.8439    0.0000 C   0  0
   11.5705  -25.8600    0.0000 C   0  0
   18.6806  -25.0220    0.0000 N   0  0
    9.5920  -31.0123    0.0000 O   0  0
   21.5173  -25.0123    0.0000 C   0  0
   20.0978  -25.8396    0.0000 C   0  0
   19.3924  -23.7887    0.0000 O   0  0
   12.2845  -26.2642    0.0000 C   0  0
   16.5500  -26.2523    0.0000 C   0  0
    9.2631  -30.2620    0.0000 C   0  0
   10.5648  -29.5971    0.0000 C   0  0  2  0  0  0
   10.1506  -28.3318    0.0000 C   0  0  2  0  0  0
   14.4129  -25.8521    0.0000 C   0  0
    9.7439  -29.5968    0.0000 C   0  0  2  0  0  0
   15.1268  -26.2563    0.0000 C   0  0
   17.9670  -24.6103    0.0000 C   0  0
   21.5213  -25.8394    0.0000 C   0  0
   19.3923  -24.6095    0.0000 C   0  0
   10.8177  -28.8167    0.0000 C   0  0  2  0  0  0
   10.8655  -27.0975    0.0000 C   0  0
   17.2593  -25.8398    0.0000 C   0  0
   17.2556  -25.0240    0.0000 C   0  0
   20.0998  -25.0220    0.0000 C   0  0
    7.2364  -28.3610    0.0000 C   0  0
    8.0573  -27.5402    0.0000 O   0  0
    7.9502  -28.7698    0.0000 F   0  0
    7.6448  -26.8285    0.0000 O   0  0
    7.2063  -29.1630    0.0000 F   0  0
    6.5227  -27.1312    0.0000 O   0  5
    7.2364  -27.5402    0.0000 S   0  0
    6.5311  -28.7771    0.0000 F   0  0
 15 12  1  0
 32 20  1  0
 36 10  1  0
 16 24  1  0
 11 38  1  0
  4 28  1  0
 17 23  2  0
 13 35  2  0
 18 33  1  0
 31 37  1  0
 12  3  2  0
 26  1  1  6
 18 31  1  0
 34  9  1  6
 23  6  1  0
 28 30  1  0
 29 25  1  1
  6  7  2  0
 34 27  1  0
 29 26  1  0
 21  8  1  0
 14 29  1  0
 33 38  1  0
  6  4  1  0
 27 13  1  1
 30 16  1  0
 20 11  2  0
  2 18  1  0
 25 19  1  0
 35  5  1  0
 38 21  2  0
  3 13  1  0
 36 37  1  0
 27 14  1  0
 24 36  1  0
  5 15  2  0
 10  2  1  0
 26 34  1  0
  8 32  2  0
  5 17  1  0
 33 22  2  0
 39 46  1  0
 45 44  1  0
 40 45  2  0
 45 39  1  0
 39 43  1  0
 39 41  1  0
 45 42  2  0
M  CHG  2  13   1  44  -1
M  END