
  CDK    9/16/09,9:59

 19 20  0  0  0  0  0  0  0  0999 V2000
   -3.0971  -18.0276    0.0000 C   0  0  0  0  0  0  0  0  0  0  0  0
   -2.2715  -18.0243    0.0000 C   0  0  0  0  0  0  0  0  0  0  0  0
   -3.5034  -15.8879    0.0000 C   0  0  0  0  0  0  0  0  0  0  0  0
   -3.0915  -16.6027    0.0000 N   0  0  0  0  0  0  0  0  0  0  0  0
   -3.5064  -17.3120    0.0000 C   0  0  0  0  0  0  0  0  0  0  0  0
   -3.5111  -18.7392    0.0000 O   0  0  0  0  0  0  0  0  0  0  0  0
   -1.8612  -17.3130    0.0000 O   0  0  0  0  0  0  0  0  0  0  0  0
   -4.3319  -17.3161    0.0000 C   0  0  0  0  0  0  0  0  0  0  0  0
   -4.7396  -16.5990    0.0000 O   0  0  0  0  0  0  0  0  0  0  0  0
   -3.0864  -15.1695    0.0000 C   0  0  0  0  0  0  0  0  0  0  0  0
   -3.0852  -13.8361    0.0000 N   0  0  0  0  0  0  0  0  0  0  0  0
   -3.5668  -14.5080    0.0000 C   0  0  0  0  0  0  0  0  0  0  0  0
   -2.3000  -14.0920    0.0000 C   0  0  0  0  0  0  0  0  0  0  0  0
   -2.3021  -14.9158    0.0000 C   0  0  0  0  0  0  0  0  0  0  0  0
   -1.5867  -15.3319    0.0000 N   0  0  0  0  0  0  0  0  0  0  0  0
   -0.8687  -14.9170    0.0000 C   0  0  0  0  0  0  0  0  0  0  0  0
   -0.8706  -14.0900    0.0000 N   0  0  0  0  0  0  0  0  0  0  0  0
   -1.5866  -13.6777    0.0000 C   0  0  0  0  0  0  0  0  0  0  0  0
   -1.5882  -12.8518    0.0000 O   0  0  0  0  0  0  0  0  0  0  0  0
  3 10  1  0  0  0  0 
 10 14  1  0  0  0  0 
  1  2  1  0  0  0  0 
  1  6  1  6  0  0  0 
 13 11  1  0  0  0  0 
 11 12  1  0  0  0  0 
 12 10  2  0  0  0  0 
  2  7  1  0  0  0  0 
 13 14  2  0  0  0  0 
  3  4  1  0  0  0  0 
 14 15  1  0  0  0  0 
  5  8  1  6  0  0  0 
 15 16  2  0  0  0  0 
  4  5  1  0  0  0  0 
 16 17  1  0  0  0  0 
  8  9  1  0  0  0  0 
 17 18  1  0  0  0  0 
 18 13  1  0  0  0  0 
  5  1  1  0  0  0  0 
 18 19  2  0  0  0  0 
M  END