
          05270816392D 1   1.00000     0.00000     0

 34 39  0     1  0            999 V2000
    7.3773    2.2549    0.0000 C   0  0  0  0  0  0           0  0  0
    7.3760    1.4319    0.0000 C   0  0  0  0  0  0           0  0  0
    8.8006    2.2590    0.0000 C   0  0  0  0  0  0           0  0  0
    8.0916    2.6677    0.0000 C   0  0  0  0  0  0           0  0  0
    8.8038    1.4325    0.0000 C   0  0  0  0  0  0           0  0  0
    8.0923    1.0180    0.0000 C   0  0  0  0  0  0           0  0  0
    8.0910    0.1959    0.0000 C   0  0  0  0  0  0           0  0  0
    8.8040   -0.2180    0.0000 C   0  0  0  0  0  0           0  0  0
    6.7601    0.8800    0.0000 N   0  0  0  0  0  0           0  0  0
    7.3066   -0.0586    0.0000 C   0  0  0  0  0  0           0  0  0
    9.5184    1.0203    0.0000 C   0  0  2  0  0  0           0  0  0
    9.5193    0.1925    0.0000 C   0  0  2  0  0  0           0  0  0
   10.2326   -0.2183    0.0000 N   0  0  3  0  0  0           0  0  0
   10.9497    0.1940    0.0000 C   0  0  0  0  0  0           0  0  0
   10.9488    1.0218    0.0000 C   0  0  1  0  0  0           0  0  0
   10.2308    1.4372    0.0000 C   0  0  0  0  0  0           0  0  0
    9.5100   -0.6279    0.0000 H   0  0  0  0  0  0           0  0  0
    9.5100    1.8471    0.0000 H   0  0  0  0  0  0           0  0  0
   10.2323   -1.0433    0.0000 C   0  0  0  0  0  0           0  0  0
   11.6632    1.4343    0.0000 C   0  0  0  0  0  0           0  0  0
   11.6632    2.2593    0.0000 O   0  0  0  0  0  0           0  0  0
   12.3778    1.0219    0.0000 N   0  0  3  0  0  0           0  0  0
   12.3726    0.1916    0.0000 C   0  0  0  0  0  0           0  0  0
   13.0829   -0.2208    0.0000 C   0  0  0  0  0  0           0  0  0
   13.7998    0.1882    0.0000 N   0  0  3  0  0  0           0  0  0
   13.8018    1.0141    0.0000 C   0  0  0  0  0  0           0  0  0
   13.0869    1.4310    0.0000 C   0  0  0  0  0  0           0  0  0
   14.5127   -0.2270    0.0000 C   0  0  0  0  0  0           0  0  0
   14.5046   -1.0508    0.0000 C   0  0  0  0  0  0           0  0  0
   15.2168   -1.4659    0.0000 C   0  0  0  0  0  0           0  0  0
   15.9337   -1.0561    0.0000 C   0  0  0  0  0  0           0  0  0
   15.9341   -0.2268    0.0000 C   0  0  0  0  0  0           0  0  0
   15.2215    0.1846    0.0000 N   0  0  0  0  0  0           0  0  0
    7.0121   -0.8293    0.0000 Cl  0  0  0  0  0  0           0  0  0
 14 15  1  0     0  0
 15 16  1  0     0  0
  6  7  1  0     0  0
 12 17  1  1     0  0
  7  8  1  0     0  0
 11 18  1  6     0  0
  8 12  1  0     0  0
 13 19  1  0     0  0
  3  4  2  0     0  0
 15 20  1  1     0  0
  2  9  1  0     0  0
 20 21  2  0     0  0
  4  1  1  0     0  0
 20 22  1  0     0  0
 22 23  1  0     0  0
  7 10  2  0     0  0
  9 10  1  0     0  0
 11 12  1  0     0  0
  5  6  2  0     0  0
  2  6  1  0     0  0
 22 27  1  0     0  0
 23 24  1  0     0  0
 24 25  1  0     0  0
 25 26  1  0     0  0
 26 27  1  0     0  0
 25 28  1  0     0  0
  5  3  1  0     0  0
 28 29  2  0     0  0
  1  2  2  0     0  0
 29 30  1  0     0  0
  5 11  1  0     0  0
 30 31  2  0     0  0
 11 16  1  0     0  0
 31 32  1  0     0  0
 12 13  1  0     0  0
 32 33  2  0     0  0
 33 28  1  0     0  0
 13 14  1  0     0  0
 10 34  1  0     0  0
M  END