
          11280715222D 1   1.00000     0.00000     0

 34 37  0     0  0            999 V2000
    6.6167    0.2500    0.0000 N   0  0  3  0  0  0           0  0  0
    6.5292   -0.5667    0.0000 C   0  0  0  0  0  0           0  0  0
    5.8625    0.5833    0.0000 C   0  0  0  0  0  0           0  0  0
    5.3167   -0.0292    0.0000 C   0  0  0  0  0  0           0  0  0
    5.7250   -0.7417    0.0000 S   0  0  0  0  0  0           0  0  0
    3.6042   -1.8875    0.0000 C   0  0  0  0  0  0           0  0  0
    4.4917    0.0500    0.0000 C   0  0  0  0  0  0           0  0  0
    4.2667   -1.4000    0.0000 O   0  0  0  0  0  0           0  0  0
    3.6042   -2.7042    0.0000 C   0  0  0  0  0  0           0  0  0
    4.0125   -0.6167    0.0000 C   0  0  0  0  0  0           0  0  0
    4.3250   -3.1167    0.0000 C   0  0  0  0  0  0           0  0  0
    7.3292    0.6625    0.0000 C   0  0  0  0  0  0           0  0  0
    2.9292   -1.4042    0.0000 C   0  0  0  0  0  0           0  0  0
    8.0417    0.2583    0.0000 C   0  0  0  0  0  0           0  0  0
    4.3250   -3.9500    0.0000 C   0  0  0  0  0  0           0  0  0
    5.0417   -4.3625    0.0000 C   0  0  0  0  0  0           0  0  0
    3.1875   -0.6167    0.0000 C   0  0  0  0  0  0           0  0  0
    7.1417   -1.1250    0.0000 O   0  0  0  0  0  0           0  0  0
    8.7542    0.6708    0.0000 N   0  0  0  0  0  0           0  0  0
    5.6875    1.3875    0.0000 O   0  0  0  0  0  0           0  0  0
    2.8917   -3.1250    0.0000 C   0  0  0  0  0  0           0  0  0
    5.7542   -3.9417    0.0000 O   0  0  0  0  0  0           0  0  0
    8.0417   -0.5667    0.0000 O   0  0  0  0  0  0           0  0  0
    3.6042   -4.3625    0.0000 C   0  0  0  0  0  0           0  0  0
    2.8917   -3.9500    0.0000 C   0  0  0  0  0  0           0  0  0
    9.4750    0.2583    0.0000 C   0  0  0  0  0  0           0  0  0
    5.0417   -5.1875    0.0000 O   0  0  0  0  0  0           0  0  0
   10.8917   -0.5625    0.0000 C   0  0  0  0  0  0           0  0  0
    9.4667   -0.5667    0.0000 C   0  0  0  0  0  0           0  0  0
   10.1792    0.6750    0.0000 C   0  0  0  0  0  0           0  0  0
   10.8917    0.2708    0.0000 C   0  0  0  0  0  0           0  0  0
   10.1875   -0.9750    0.0000 C   0  0  0  0  0  0           0  0  0
    2.1792   -2.7125    0.0000 C   0  0  0  0  0  0           0  0  0
   11.6167   -0.9667    0.0000 C   0  0  0  0  0  0           0  0  0
  2  1  1  0     0  0
  3  1  1  0     0  0
  4  3  1  0     0  0
  5  2  1  0     0  0
  6  8  1  0     0  0
  7  4  2  0     0  0
  8 10  1  0     0  0
  9  6  1  0     0  0
 10  7  1  0     0  0
 11  9  2  0     0  0
 12  1  1  0     0  0
 13 17  1  0     0  0
 14 12  1  0     0  0
 15 11  1  0     0  0
 16 15  1  0     0  0
 17 10  2  0     0  0
 18  2  2  0     0  0
 19 14  1  0     0  0
 20  3  2  0     0  0
 21  9  1  0     0  0
 22 16  2  0     0  0
 23 14  2  0     0  0
 24 25  1  0     0  0
 25 21  2  0     0  0
 26 19  1  0     0  0
 27 16  1  0     0  0
 28 31  1  0     0  0
 29 26  2  0     0  0
 30 26  1  0     0  0
 31 30  2  0     0  0
 32 29  1  0     0  0
 33 21  1  0     0  0
 34 28  1  0     0  0
  5  4  1  0     0  0
 28 32  2  0     0  0
  6 13  2  0     0  0
 15 24  2  0     0  0
M  END