
  SciTegic01181116592D

 20 22  0  0  0  0            999 V2000
   -5.0193   -9.3361    0.0000 C   0  0
   -5.0204  -10.1630    0.0000 C   0  0
   -4.3061  -10.5757    0.0000 C   0  0
   -4.3079   -8.9237    0.0000 C   0  0
   -3.5929   -9.3325    0.0000 C   0  0
   -3.5922  -10.1588    0.0000 C   0  0
   -2.8773  -10.5696    0.0000 N   0  0
   -2.1626  -10.1550    0.0000 C   0  0
   -2.1674   -9.3256    0.0000 C   0  0
   -2.8829   -8.9186    0.0000 N   0  0
   -1.4559   -8.9090    0.0000 C   0  0
   -0.7394   -9.3169    0.0000 N   0  0
   -1.4609   -8.0844    0.0000 O   0  0
   -0.0278   -8.9003    0.0000 C   0  0
    0.6901   -9.3137    0.0000 C   0  0
    1.4011   -8.8978    0.0000 C   0  0
    1.3966   -8.0724    0.0000 C   0  0
    0.6750   -7.6647    0.0000 C   0  0
   -0.0331   -8.0829    0.0000 C   0  0
    0.6670   -6.8402    0.0000 Cl  0  0
  9 10  2  0
 10  5  1  0
  9 11  1  0
  2  3  1  0
 11 12  1  0
  5  6  1  0
 11 13  2  0
  3  6  2  0
 12 14  1  0
  6  7  1  0
 14 15  2  0
  1  2  2  0
 15 16  1  0
  7  8  2  0
 16 17  2  0
  5  4  2  0
 17 18  1  0
  8  9  1  0
 18 19  2  0
 19 14  1  0
  4  1  1  0
 18 20  1  0
M  END