
  SciTegic05161214222D

 62 64  0  0  0  0            999 V2000
   30.3169  -12.8837    0.0000 C   0  0
   31.0316  -12.4717    0.0000 C   0  0
   26.0375  -12.0667    0.0000 C   0  0
   26.0375  -12.8917    0.0000 C   0  0
   26.7495  -13.3000    0.0000 O   0  0
   27.4615  -12.8917    0.0000 C   0  0
   27.4615  -12.0667    0.0000 C   0  0
   26.7495  -11.6500    0.0000 C   0  0
   25.3198  -11.6614    0.0000 S   0  0
   24.9115  -12.3783    0.0000 O   0  0
   25.7365  -12.3735    0.0000 O   0  0
   22.4527   -6.7250    0.0000 C   0  0
   22.4516   -7.5523    0.0000 C   0  0
   23.1664   -7.9652    0.0000 C   0  0
   23.1646   -6.3122    0.0000 C   0  0
   23.8800   -6.7213    0.0000 C   0  0
   23.8807   -7.5482    0.0000 C   0  0
   24.5960   -7.9591    0.0000 N   0  0
   25.3111   -7.5444    0.0000 C   0  0
   25.3063   -6.7144    0.0000 C   0  0
   24.5904   -6.3072    0.0000 C   0  0
   26.0271   -7.9541    0.0000 C   0  0
   24.5860   -5.4822    0.0000 C   0  0
   23.1683   -8.7902    0.0000 O   0  0
   23.8837   -9.2010    0.0000 C   0  0
   23.8856  -10.0260    0.0000 C   0  0
   23.1695  -10.4358    0.0000 C   0  0
   23.1711  -11.2601    0.0000 C   0  0
   23.8871  -11.6717    0.0000 C   0  0
   24.6029  -11.2531    0.0000 C   0  0
   24.5979  -10.4303    0.0000 C   0  0
   22.4555  -10.0226    0.0000 Cl  0  0
   25.3095  -10.0129    0.0000 Cl  0  0
   26.0319  -11.2448    0.0000 N   0  0
   27.4608  -11.2364    0.0000 C   0  0
   28.1765  -11.6467    0.0000 N   0  0
   27.4582  -10.4114    0.0000 O   0  0
   28.1754  -12.4717    0.0000 C   0  0
   28.8871  -12.8819    0.0000 C   0  0
   29.6027  -12.4707    0.0000 N   0  3
   29.6021  -11.6448    0.0000 C   0  0
   28.8859  -11.2300    0.0000 C   0  0
   30.1833  -11.8792    0.0000 C   0  0
   31.7458  -12.8847    0.0000 C   0  0
   32.4606  -12.4727    0.0000 N   0  3
   33.1748  -12.8857    0.0000 C   0  0
   32.4611  -11.6477    0.0000 C   0  0
   32.4542  -13.2958    0.0000 C   0  0
   28.5659   -9.7426    0.0000 F   0  0
   29.2803   -9.3301    0.0000 C   0  0
   29.9948   -9.7426    0.0000 F   0  0
   29.2742  -10.1509    0.0000 F   0  0
   29.2834   -8.5051    0.0000 C   0  0
   29.9994   -8.0953    0.0000 O   0  5
   28.5705   -8.0899    0.0000 O   0  0
   31.2222   -9.9301    0.0000 F   0  0
   31.9366   -9.5176    0.0000 C   0  0
   32.6511   -9.9301    0.0000 F   0  0
   31.9305  -10.3384    0.0000 F   0  0
   31.9397   -8.6926    0.0000 C   0  0
   32.6557   -8.2828    0.0000 O   0  5
   31.2268   -8.2774    0.0000 O   0  0
  5  6  1  0
 24 25  1  0
 13 14  1  0
 25 26  1  0
 14 17  2  0
 26 27  2  0
  6  7  1  0
 27 28  1  0
 16 15  2  0
 28 29  2  0
 15 12  1  0
 29 30  1  0
  7  8  1  0
 30 31  2  0
 31 26  1  0
 10  9  2  0
 27 32  1  0
 16 17  1  0
 31 33  1  0
 30  9  1  0
  9 11  2  0
  9 34  1  0
 34  8  1  0
 17 18  1  0
  8 35  1  0
 35 36  1  0
 18 19  2  0
 35 37  2  0
 36 38  1  0
  1  2  1  0
 19 20  1  0
  3  4  1  0
 20 21  2  0
 21 16  1  0
 36 42  1  0
 38 39  1  0
 39 40  1  0
 40 41  1  0
 41 42  1  0
 40  1  1  0
  3  8  1  0
 40 43  1  0
 19 22  1  0
  2 44  1  0
  4  5  1  0
 44 45  1  0
 21 23  1  0
 45 46  1  0
 12 13  2  0
 45 47  1  0
 14 24  1  0
 45 48  1  0
 49 50  1  0
 50 52  1  0
 50 53  1  0
 50 51  1  0
 53 54  1  0
 53 55  2  0
 56 57  1  0
 57 59  1  0
 57 60  1  0
 57 58  1  0
 60 61  1  0
 60 62  2  0
M  CHG  4  40   1  45   1  54  -1  61  -1
M  END