
  SciTegic06051313522D

 48 51  0  0  0  0            999 V2000
   12.6296   -3.4780    0.0000 N   0  0
   13.3388   -3.0721    0.0000 C   0  0
   13.3395   -2.2565    0.0000 C   0  0
   14.0479   -1.8507    0.0000 C   0  0
   14.7551   -2.2620    0.0000 C   0  0
   14.7493   -3.0834    0.0000 C   0  0
   14.0404   -3.4855    0.0000 C   0  0
   14.0506   -1.0335    0.0000 F   0  0
   15.4501   -3.4958    0.0000 C   0  0
   16.1611   -3.0907    0.0000 N   0  0
   16.8653   -3.5037    0.0000 C   0  0
   16.8598   -4.3218    0.0000 C   0  0
   16.1441   -4.7250    0.0000 C   0  0
   15.4428   -4.3096    0.0000 C   0  0
    5.5538   -3.4999    0.0000 C   0  0
    5.5527   -4.3194    0.0000 C   0  0
    6.2607   -4.7284    0.0000 C   0  0
    6.9704   -4.3189    0.0000 C   0  0
    6.9676   -3.4963    0.0000 C   0  0
    6.2589   -3.0910    0.0000 C   0  0
    7.6787   -4.7264    0.0000 Cl  0  0
    4.8460   -3.0914    0.0000 O   0  0
    4.8458   -2.2742    0.0000 C   0  0
    4.8447   -4.7274    0.0000 N   0  0
    4.8440   -5.5446    0.0000 C   0  0
    4.1360   -5.9527    0.0000 C   0  0
    5.5514   -5.9538    0.0000 O   0  0
    4.1353   -6.7698    0.0000 S   0  0
    3.4273   -7.1779    0.0000 C   0  0
    2.7218   -6.7646    0.0000 N   0  0
    2.0142   -7.1720    0.0000 C   0  0
    2.0131   -7.9901    0.0000 C   0  0
    2.7255   -8.3991    0.0000 C   0  0
    3.4301   -7.9894    0.0000 C   0  0
    7.6737   -3.0850    0.0000 O   0  0
    8.3830   -3.4909    0.0000 C   0  0
    9.0891   -3.0797    0.0000 C   0  0  2  0  0  0
    9.7984   -3.4856    0.0000 C   0  0  2  0  0  0
   10.5045   -3.0743    0.0000 C   0  0  1  0  0  0
   11.2138   -3.4803    0.0000 C   0  0  1  0  0  0
   11.9199   -3.0690    0.0000 C   0  0
    9.0861   -2.2625    0.0000 O   0  0
    9.8015   -4.3028    0.0000 O   0  0
   10.5015   -2.2571    0.0000 O   0  0
   11.2169   -4.2974    0.0000 O   0  0
    1.3055   -8.3962    0.0000 C   0  0
    0.5976   -7.9880    0.0000 O   0  0
    1.3060   -9.2148    0.0000 O   0  0
  1  2  1  0
  2  3  2  0
  3  4  1  0
  4  5  2  0
  5  6  1  0
  6  7  2  0
  7  2  1  0
  4  8  1  0
  9 10  2  0
 10 11  1  0
 11 12  2  0
 12 13  1  0
 13 14  2  0
 14  9  1  0
  6  9  1  0
 15 16  2  0
 16 17  1  0
 17 18  2  0
 18 19  1  0
 19 20  2  0
 20 15  1  0
 18 21  1  0
 15 22  1  0
 22 23  1  0
 16 24  1  0
 24 25  1  0
 25 26  1  0
 25 27  2  0
 26 28  1  0
 28 29  1  0
 29 30  2  0
 30 31  1  0
 31 32  2  0
 32 33  1  0
 33 34  2  0
 34 29  1  0
 19 35  1  0
 35 36  1  0
 36 37  1  0
 37 38  1  0
 38 39  1  0
 39 40  1  0
 40 41  1  0
 41  1  1  0
 37 42  1  1
 38 43  1  6
 39 44  1  6
 40 45  1  1
 46 47  1  0
 46 48  2  0
 32 46  1  0
M  END