
          11280715492D 1   1.00000     0.00000     0

 19 21  0     0  0            999 V2000
   -5.6348   -3.8041    0.0000 C   0  0  0  0  0  0           0  0  0
   -5.6359   -4.6315    0.0000 C   0  0  0  0  0  0           0  0  0
   -4.9211   -5.0444    0.0000 C   0  0  0  0  0  0           0  0  0
   -4.9229   -3.3914    0.0000 C   0  0  0  0  0  0           0  0  0
   -4.2075   -3.8005    0.0000 C   0  0  0  0  0  0           0  0  0
   -4.2068   -4.6273    0.0000 C   0  0  0  0  0  0           0  0  0
   -3.4915   -5.0383    0.0000 N   0  0  0  0  0  0           0  0  0
   -2.7764   -4.6235    0.0000 C   0  0  0  0  0  0           0  0  0
   -2.7812   -3.7936    0.0000 C   0  0  0  0  0  0           0  0  0
   -3.4971   -3.3863    0.0000 C   0  0  0  0  0  0           0  0  0
   -2.0604   -5.0333    0.0000 N   0  0  0  0  0  0           0  0  0
   -1.3475   -4.6180    0.0000 C   0  0  0  0  0  0           0  0  0
   -1.3507   -3.7930    0.0000 C   0  0  0  0  0  0           0  0  0
   -0.6370   -3.3796    0.0000 C   0  0  0  0  0  0           0  0  0
   -0.6399   -2.5554    0.0000 C   0  0  0  0  0  0           0  0  0
   -1.3565   -2.1449    0.0000 C   0  0  0  0  0  0           0  0  0
   -2.0717   -2.5646    0.0000 C   0  0  0  0  0  0           0  0  0
   -2.0653   -3.3874    0.0000 C   0  0  0  0  0  0           0  0  0
    0.0732   -2.1405    0.0000 F   0  0  0  0  0  0           0  0  0
  4  1  2  0     0  0
  9 10  1  0     0  0
 10  5  2  0     0  0
  8 11  1  0     0  0
  2  3  2  0     0  0
 11 12  1  0     0  0
  5  6  1  0     0  0
 12 13  1  0     0  0
  3  6  1  0     0  0
 13 14  2  0     0  0
  6  7  2  0     0  0
 14 15  1  0     0  0
  1  2  1  0     0  0
 15 16  2  0     0  0
  7  8  1  0     0  0
 16 17  1  0     0  0
  5  4  1  0     0  0
 17 18  2  0     0  0
 18 13  1  0     0  0
  8  9  2  0     0  0
 15 19  1  0     0  0
M  END