
  Mrv0541 05211314572D          

 33 36  0  0  0  0            999 V2000
    5.0471   -0.8656    0.0000 C   0  0  0  0  0  0  0  0  0  0  0  0
    5.7616   -0.4531    0.0000 C   0  0  0  0  0  0  0  0  0  0  0  0
    6.4761   -0.8656    0.0000 C   0  0  0  0  0  0  0  0  0  0  0  0
    7.1905   -0.4531    0.0000 N   0  0  0  0  0  0  0  0  0  0  0  0
    6.4761   -1.6906    0.0000 O   0  0  0  0  0  0  0  0  0  0  0  0
    7.9050   -0.8656    0.0000 C   0  0  0  0  0  0  0  0  0  0  0  0
    8.6195   -0.4531    0.0000 C   0  0  0  0  0  0  0  0  0  0  0  0
    8.6195    0.3719    0.0000 N   0  0  0  0  0  0  0  0  0  0  0  0
    7.9050    0.7844    0.0000 C   0  0  0  0  0  0  0  0  0  0  0  0
    7.1905    0.3719    0.0000 C   0  0  0  0  0  0  0  0  0  0  0  0
    9.3339    0.7844    0.0000 C   0  0  0  0  0  0  0  0  0  0  0  0
    9.3339    1.6094    0.0000 C   0  0  0  0  0  0  0  0  0  0  0  0
   10.0484    2.0219    0.0000 C   0  0  0  0  0  0  0  0  0  0  0  0
   10.7629    1.6094    0.0000 C   0  0  0  0  0  0  0  0  0  0  0  0
   10.7629    0.7844    0.0000 C   0  0  0  0  0  0  0  0  0  0  0  0
   10.0484    0.3719    0.0000 C   0  0  0  0  0  0  0  0  0  0  0  0
   11.4774    2.0219    0.0000 N   0  3  0  0  0  0  0  0  0  0  0  0
   12.1918    1.6094    0.0000 O   0  0  0  0  0  0  0  0  0  0  0  0
   11.4774    2.8469    0.0000 O   0  5  0  0  0  0  0  0  0  0  0  0
    4.3326   -0.4531    0.0000 N   0  0  0  0  0  0  0  0  0  0  0  0
    4.3326    0.3719    0.0000 C   0  0  0  0  0  0  0  0  0  0  0  0
    3.6182   -0.8656    0.0000 C   0  0  0  0  0  0  0  0  0  0  0  0
    2.9037   -0.4531    0.0000 C   0  0  0  0  0  0  0  0  0  0  0  0
    2.1892   -0.8656    0.0000 C   0  0  0  0  0  0  0  0  0  0  0  0
    2.1892   -1.6906    0.0000 C   0  0  0  0  0  0  0  0  0  0  0  0
    1.4748   -2.1031    0.0000 C   0  0  0  0  0  0  0  0  0  0  0  0
    0.7603   -1.6906    0.0000 C   0  0  0  0  0  0  0  0  0  0  0  0
    1.4748   -0.4531    0.0000 C   0  0  0  0  0  0  0  0  0  0  0  0
    0.7603   -0.8656    0.0000 C   0  0  0  0  0  0  0  0  0  0  0  0
    0.0458   -0.4531    0.0000 C   0  0  0  0  0  0  0  0  0  0  0  0
    0.0458    0.3719    0.0000 C   0  0  0  0  0  0  0  0  0  0  0  0
    0.7603    0.7844    0.0000 C   0  0  0  0  0  0  0  0  0  0  0  0
    1.4748    0.3719    0.0000 C   0  0  0  0  0  0  0  0  0  0  0  0
 16 11  1  0  0  0  0
  4 10  1  0  0  0  0
  6  7  1  0  0  0  0
  7  8  1  0  0  0  0
 17 18  2  0  0  0  0
 17 19  1  0  0  0  0
 14 17  1  0  0  0  0
  8  9  1  0  0  0  0
  1 20  1  0  0  0  0
  9 10  1  0  0  0  0
 20 21  1  0  0  0  0
  4  6  1  0  0  0  0
 20 22  1  0  0  0  0
  8 11  1  0  0  0  0
 22 23  1  0  0  0  0
  2  3  1  0  0  0  0
 23 24  1  0  0  0  0
 11 12  2  0  0  0  0
 24 25  2  0  0  0  0
  1  2  1  0  0  0  0
 25 26  1  0  0  0  0
 12 13  1  0  0  0  0
 26 27  2  0  0  0  0
 27 29  1  0  0  0  0
 28 24  1  0  0  0  0
  3  4  1  0  0  0  0
 13 14  2  0  0  0  0
 28 29  1  0  0  0  0
 29 30  2  0  0  0  0
 14 15  1  0  0  0  0
 30 31  1  0  0  0  0
  3  5  2  0  0  0  0
 31 32  2  0  0  0  0
 15 16  2  0  0  0  0
 32 33  1  0  0  0  0
 33 28  2  0  0  0  0
M  CHG  2  17   1  19  -1
M  END