
  SciTegic04091414152D

 35 40  0  0  0  0            999 V2000
   17.4741  -13.5916    0.0000 C   0  0
   17.6185  -14.4000    0.0000 O   0  0
   18.2046  -13.2086    0.0000 C   0  0
   18.7955  -13.7773    0.0000 C   0  0
   18.4296  -14.5135    0.0000 N   0  0
   19.6049  -13.6383    0.0000 C   0  0
   20.1250  -14.2730    0.0000 C   0  0
   20.9337  -14.1344    0.0000 C   0  0
   21.2208  -13.3627    0.0000 C   0  0
   20.6889  -12.7291    0.0000 C   0  0
   19.8821  -12.8709    0.0000 C   0  0
   16.3603  -10.8291    0.0000 C   0  0
   15.7375  -11.3610    0.0000 C   0  0  2  0  0  0
   15.8913  -12.1641    0.0000 C   0  0
   16.6809  -12.4125    0.0000 N   0  3
   17.2898  -11.8982    0.0000 C   0  0
   17.1365  -11.0888    0.0000 C   0  0
   15.9643  -11.5480    0.0000 C   0  0
   16.7643  -11.7322    0.0000 C   0  0
   14.9617  -11.0921    0.0000 O   0  0
   13.5459  -10.9215    0.0000 C   0  0
   13.0057  -11.5435    0.0000 C   0  0
   14.2091  -11.4145    0.0000 C   0  0
   12.7882  -10.5960    0.0000 C   0  0
   12.5616   -9.8054    0.0000 C   0  0
   13.0430   -9.1387    0.0000 C   0  0
   13.8611   -9.1047    0.0000 C   0  0
   14.4035   -9.7159    0.0000 C   0  0
   14.2643  -10.5277    0.0000 C   0  0
   12.1879  -11.4694    0.0000 C   0  0
   11.8612  -12.2279    0.0000 C   0  0
   12.4831  -12.7721    0.0000 C   0  0
   13.1916  -12.3513    0.0000 C   0  0
   14.1122  -12.2301    0.0000 O   0  0
   16.7362  -13.2320    0.0000 C   0  0
  1  2  1  0
  2  5  1  0
  4  3  1  0
  3  1  2  0
  4  5  2  0
  4  6  1  0
  6  7  2  0
  7  8  1  0
  8  9  2  0
  9 10  1  0
 10 11  2  0
 11  6  1  0
 12 13  1  0
 12 17  1  0
 13 14  1  0
 14 15  1  0
 15 16  1  0
 16 17  1  0
 12 18  1  0
 15 19  1  0
 18 19  1  0
 13 20  1  6
 22 21  1  0
 21 23  1  0
 24 25  1  0
 25 26  1  0
 26 27  1  0
 24 21  1  0
 27 28  1  0
 21 29  1  0
 28 29  1  0
 22 30  2  0
 30 31  1  0
 31 32  2  0
 32 33  1  0
 33 22  1  0
 23 34  2  0
 23 20  1  0
 15 35  1  0
 35  1  1  0
M  CHG  1  15   1
M  END