
  SciTegic06051313522D

 17 19  0  0  0  0            999 V2000
   22.5060  -58.7415    0.0000 N   0  0
   21.7219  -57.6598    0.0000 C   0  0
   21.0057  -57.2473    0.0000 C   0  0
   21.0057  -58.9014    0.0000 C   0  0
   20.2937  -58.4889    0.0000 C   0  0
   20.2937  -57.6598    0.0000 C   0  0
   21.7219  -58.4889    0.0000 C   0  0
   19.5789  -57.2478    0.0000 Cl  0  0
   22.5060  -57.4071    0.0000 C   0  0
   22.9899  -58.0742    0.0000 C   0  0
   23.8050  -57.9892    0.0000 C   0  0  1  0  0  0
   24.1426  -57.2380    0.0000 C   0  0
   23.6587  -56.5709    0.0000 C   0  0
   22.8372  -56.6550    0.0000 C   0  0
   24.2885  -58.6577    0.0000 C   0  0
   23.9513  -59.4106    0.0000 O   0  0
   25.1092  -58.5732    0.0000 N   0  0
  6  3  1  0
  3  2  2  0
  7  4  2  0
  4  5  1  0
  5  6  2  0
  2  7  1  0
  7  1  1  0
  1 10  1  0
  9  2  1  0
  6  8  1  0
  9 10  2  0
  9 14  1  0
 10 11  1  0
 11 12  1  0
 12 13  1  0
 13 14  1  0
 11 15  1  1
 15 16  2  0
 15 17  1  0
M  END