
          11280714442D 1   1.00000     0.00000     0

 23 23  0     0  0            999 V2000
    4.6792   -2.2792    0.0000 C   0  0  0  0  0  0           0  0  0
    5.5042   -2.2625    0.0000 C   0  0  0  0  0  0           0  0  0
   10.8917   -2.8792    0.0000 C   0  0  0  0  0  0           0  0  0
    5.9292   -2.9667    0.0000 O   0  0  0  0  0  0           0  0  0
    4.2542   -1.5750    0.0000 C   0  0  0  0  0  0           0  0  0
    5.9042   -1.5375    0.0000 O   0  0  0  0  0  0           0  0  0
   10.4792   -2.1667    0.0000 O   0  0  0  0  0  0           0  0  0
   10.4875   -3.5917    0.0000 N   0  0  0  0  0  0           0  0  0
   11.7167   -2.8667    0.0000 C   0  0  3  0  0  0           0  0  0
    6.7542   -2.9500    0.0000 C   0  0  0  0  0  0           0  0  0
    7.1875   -3.6542    0.0000 C   0  0  3  0  0  0           0  0  0
    4.6542   -0.8542    0.0000 F   0  0  0  0  0  0           0  0  0
    8.4042   -2.9125    0.0000 N   0  0  0  0  0  0           0  0  0
    4.2875   -3.0042    0.0000 C   0  0  0  0  0  0           0  0  0
    6.7917   -4.3792    0.0000 O   0  0  0  0  0  0           0  0  0
    8.0125   -3.6375    0.0000 C   0  0  0  0  0  0           0  0  0
    3.4292   -1.5917    0.0000 C   0  0  0  0  0  0           0  0  0
    9.6625   -3.6000    0.0000 C   0  0  0  0  0  0           0  0  0
    9.2292   -2.8917    0.0000 C   0  0  0  0  0  0           0  0  0
   12.1375   -3.5792    0.0000 C   0  0  0  0  0  0           0  0  0
   12.1292   -2.1542    0.0000 C   0  0  0  0  0  0           0  0  0
    3.4542   -3.0167    0.0000 C   0  0  0  0  0  0           0  0  0
    3.0292   -2.3125    0.0000 C   0  0  0  0  0  0           0  0  0
  2  1  1  0     0  0
  3  8  1  0     0  0
  4  2  1  0     0  0
  5  1  1  0     0  0
  6  2  2  0     0  0
  7  3  2  0     0  0
  8 18  1  0     0  0
  9  3  1  0     0  0
 10  4  1  0     0  0
 11 10  1  0     0  0
 12  5  1  0     0  0
 13 16  1  0     0  0
 14  1  2  0     0  0
 15 11  1  0     0  0
 16 11  1  0     0  0
 17  5  2  0     0  0
 18 19  1  0     0  0
 19 13  1  0     0  0
 20  9  1  0     0  0
 21  9  1  0     0  0
 22 14  1  0     0  0
 23 22  2  0     0  0
 23 17  1  0     0  0
M  END