
  SciTegic09141214152D

 32 34  0  0  0  0            999 V2000
   -0.1083   -3.0917    0.0000 C   0  0
   -0.8583   -2.7625    0.0000 N   0  0
   -0.1958   -3.9167    0.0000 N   0  0
   -1.0000   -4.0875    0.0000 C   0  0
   -1.4083   -3.3750    0.0000 C   0  0
    0.6125   -2.6792    0.0000 C   0  0
    8.4667   -3.0625    0.0000 C   0  0
    9.1875   -2.6417    0.0000 C   0  0
    7.7542   -2.6542    0.0000 C   0  0
    0.6125   -1.8542    0.0000 C   0  0
    1.3250   -3.0917    0.0000 C   0  0
    9.1792   -1.8167    0.0000 C   0  0
    2.7542   -1.4375    0.0000 O   0  0
    2.0417   -1.8542    0.0000 C   0  0
    7.7542   -1.8292    0.0000 C   0  0
    4.1792   -1.4292    0.0000 C   0  0  1  0  0  0
    3.4667   -1.8417    0.0000 C   0  0
    1.3250   -1.4417    0.0000 C   0  0
    2.0417   -2.6792    0.0000 C   0  0
    8.4625   -1.4125    0.0000 C   0  0
    8.4750   -3.8875    0.0000 O   0  0
    5.6125   -1.4250    0.0000 N   0  0
    9.9042   -3.0542    0.0000 O   0  0
   -1.3333   -4.8417    0.0000 C   0  0
    4.1792   -0.6042    0.0000 O   0  0
   -2.1583   -4.9292    0.0000 O   0  0
    4.9000   -1.8417    0.0000 C   0  0
    6.3292   -1.8375    0.0000 C   0  0
    7.0417   -1.4167    0.0000 C   0  0
    7.7625   -4.3042    0.0000 C   0  0
    9.9042   -3.8792    0.0000 C   0  0
   -2.4958   -5.6792    0.0000 C   0  0
  2  1  1  0
  3  1  2  0
  4  3  1  0
  5  2  1  0
  6  1  1  0
  7  9  1  0
  8 12  1  0
  9 15  2  0
 10  6  2  0
 11  6  1  0
 12 20  2  0
 13 14  1  0
 14 19  1  0
 15 29  1  0
 16 17  1  0
 17 13  1  0
 18 10  1  0
 19 11  2  0
 20 15  1  0
 21  7  1  0
 22 27  1  0
 23  8  1  0
 24  4  1  0
 16 25  1  1
 26 24  1  0
 27 16  1  0
 28 22  1  0
 29 28  1  0
 30 21  1  0
 31 23  1  0
 32 26  1  0
  5  4  2  0
 18 14  2  0
  7  8  2  0
M  END