
  SciTegic12231509382D

 17 18  0  0  0  0            999 V2000
   -5.4693  -20.3123    0.0000 N   0  0
   -5.4705  -21.1400    0.0000 C   0  0
   -4.7576  -21.5529    0.0000 C   0  0
   -4.0382  -21.1394    0.0000 C   0  0
   -4.0414  -20.3084    0.0000 C   0  0
   -4.7596  -19.8996    0.0000 C   0  0
   -4.7634  -19.0747    0.0000 N   0  0
   -3.3290  -19.8924    0.0000 C   0  0
   -2.6126  -20.3013    0.0000 N   0  3
   -2.5201  -21.1166    0.0000 C   0  0
   -1.7124  -21.2842    0.0000 C   0  0
   -1.3034  -20.5676    0.0000 S   0  0
   -1.8585  -19.9574    0.0000 C   0  0
   -3.1296  -21.6727    0.0000 C   0  0
   -1.3731  -22.0361    0.0000 C   0  0
   -1.8546  -22.7060    0.0000 C   0  0
   -1.5154  -23.4579    0.0000 O   0  0
  3  4  2  0
  8  9  1  0
  9 10  1  0
  1  2  2  0
  4  5  1  0
  5  6  2  0
 10 11  2  0
 11 12  1  0
 12 13  1  0
 13  9  2  0
  6  1  1  0
 10 14  1  0
  2  3  1  0
 11 15  1  0
  6  7  1  0
 15 16  1  0
 16 17  1  0
  5  8  1  0
M  CHG  1   9   1
M  END