
          11280715132D 1   1.00000     0.00000     0

 48 52  0     0  0            999 V2000
    1.9667   -1.7167    0.0000 C   0  0  0  0  0  0           0  0  0
    1.9667   -1.1167    0.0000 C   0  0  0  0  0  0           0  0  0
    1.4417   -2.0167    0.0000 N   0  0  3  0  0  0           0  0  0
    0.9292   -1.1167    0.0000 N   0  0  3  0  0  0           0  0  0
    0.9292   -1.7167    0.0000 C   0  0  0  0  0  0           0  0  0
    2.5375   -1.9000    0.0000 N   0  0  0  0  0  0           0  0  0
    1.4417   -0.8167    0.0000 C   0  0  0  0  0  0           0  0  0
    2.5375   -0.9292    0.0000 N   0  0  0  0  0  0           0  0  0
    2.8917   -1.4167    0.0000 C   0  0  0  0  0  0           0  0  0
   -3.2250   -2.9042    0.0000 S   0  0  3  0  0  0           0  0  0
   -1.1583   -4.7042    0.0000 S   0  0  3  0  0  0           0  0  0
   -2.7083   -2.6042    0.0000 C   0  0  0  0  0  0           0  0  0
   -0.6333   -4.4042    0.0000 C   0  0  0  0  0  0           0  0  0
    0.9250   -3.5125    0.0000 C   0  0  0  0  0  0           0  0  0
   -1.1500   -1.7125    0.0000 C   0  0  0  0  0  0           0  0  0
    0.4125   -2.0125    0.0000 O   0  0  0  0  0  0           0  0  0
   -0.6375   -5.3417    0.0000 O   0  0  0  0  0  0           0  0  0
   -1.5625   -4.0667    0.0000 O   0  0  0  0  0  0           0  0  0
   -3.6375   -2.2667    0.0000 O   0  0  0  0  0  0           0  0  0
   -2.7125   -3.5417    0.0000 O   0  0  0  0  0  0           0  0  0
    1.4417   -0.2167    0.0000 O   0  0  0  0  0  0           0  0  0
    0.4042   -3.8125    0.0000 C   0  0  0  0  0  0           0  0  0
   -1.6708   -2.0125    0.0000 C   0  0  0  0  0  0           0  0  0
   -1.6375   -5.1917    0.0000 F   0  0  0  0  0  0           0  0  0
   -3.7125   -3.3917    0.0000 F   0  0  0  0  0  0           0  0  0
    3.4917   -1.4167    0.0000 C   0  0  3  0  0  0           0  0  0
    1.4417   -2.6167    0.0000 C   0  0  0  0  0  0           0  0  0
    0.4125   -0.8167    0.0000 C   0  0  0  0  0  0           0  0  0
   -1.1500   -1.1125    0.0000 O   0  0  0  0  0  0           0  0  0
    0.9250   -2.9125    0.0000 O   0  0  0  0  0  0           0  0  0
   -0.1125   -4.7042    0.0000 C   0  0  0  0  0  0           0  0  0
   -2.1833   -2.9042    0.0000 C   0  0  0  0  0  0           0  0  0
   -0.6333   -3.8042    0.0000 C   0  0  0  0  0  0           0  0  0
   -2.7083   -2.0042    0.0000 C   0  0  0  0  0  0           0  0  0
   -2.1875   -1.7042    0.0000 C   0  0  0  0  0  0           0  0  0
   -1.6708   -2.6042    0.0000 C   0  0  0  0  0  0           0  0  0
    0.4042   -4.4042    0.0000 C   0  0  0  0  0  0           0  0  0
   -0.1125   -3.5042    0.0000 C   0  0  0  0  0  0           0  0  0
    1.4417   -3.8167    0.0000 O   0  0  0  0  0  0           0  0  0
   -0.6333   -2.0125    0.0000 O   0  0  0  0  0  0           0  0  0
   -0.1083   -1.1125    0.0000 C   0  0  0  0  0  0           0  0  0
    1.9667   -2.9167    0.0000 C   0  0  0  0  0  0           0  0  0
   -0.1125   -1.7125    0.0000 C   0  0  0  0  0  0           0  0  0
    1.9625   -3.5167    0.0000 C   0  0  0  0  0  0           0  0  0
    3.8417   -0.9292    0.0000 C   0  0  0  0  0  0           0  0  0
    3.8417   -1.9000    0.0000 C   0  0  0  0  0  0           0  0  0
    4.4125   -1.7167    0.0000 C   0  0  0  0  0  0           0  0  0
    4.4125   -1.1167    0.0000 C   0  0  0  0  0  0           0  0  0
  2  1  2  0     0  0
  3  1  1  0     0  0
  4  5  1  0     0  0
  5  3  1  0     0  0
  6  1  1  0     0  0
  7  2  1  0     0  0
  8  2  1  0     0  0
  9  6  1  0     0  0
 10 12  1  0     0  0
 11 13  1  0     0  0
 12 32  1  0     0  0
 13 33  2  0     0  0
 14 39  1  0     0  0
 15 40  1  0     0  0
 16  5  2  0     0  0
 17 11  2  0     0  0
 18 11  2  0     0  0
 19 10  2  0     0  0
 20 10  2  0     0  0
 21  7  2  0     0  0
 22 14  1  0     0  0
 23 15  1  0     0  0
 24 11  1  0     0  0
 25 10  1  0     0  0
 26  9  1  0     0  0
 27  3  1  0     0  0
 28  4  1  0     0  0
 29 15  2  0     0  0
 30 14  2  0     0  0
 31 37  2  0     0  0
 32 36  2  0     0  0
 33 38  1  0     0  0
 34 35  1  0     0  0
 35 23  2  0     0  0
 36 23  1  0     0  0
 37 22  1  0     0  0
 38 22  2  0     0  0
 39 44  1  0     0  0
 40 43  1  0     0  0
 41 28  1  0     0  0
 42 27  1  0     0  0
 43 41  1  0     0  0
 44 42  1  0     0  0
 45 26  1  0     0  0
 46 26  1  0     0  0
 47 46  1  0     0  0
 48 45  1  0     0  0
  8  9  2  0     0  0
  4  7  1  0     0  0
 48 47  1  0     0  0
 31 13  1  0     0  0
 12 34  2  0     0  0
M  END