
  SciTegic12211612492D

 37 40  0  0  0  0            999 V2000
    8.5033    2.5246    0.0000 C   0  0
    7.1993    3.2675    0.0000 C   0  0
    7.1910    4.7682    0.0000 C   0  0
   -4.1792   -0.4015    0.0000 C   0  0
   -4.1792   -1.8432    0.0000 C   0  0  1  0  0  0
   -2.9382   -2.5732    0.0000 C   0  0
   -2.9565    0.3102    0.0000 C   0  0
   -1.6790   -0.3832    0.0000 C   0  0  1  0  0  0
   -1.6790   -1.8250    0.0000 C   0  0
   -0.4197   -2.5550    0.0000 C   0  0
    0.8212   -1.8067    0.0000 C   0  0
   -0.4380    0.3285    0.0000 C   0  0  2  0  0  0
    0.8030   -0.3650    0.0000 C   0  0  2  0  0  0
    0.8030    2.5185    0.0000 C   0  0
   -0.4562    1.7885    0.0000 C   0  0
    2.0440    1.7885    0.0000 C   0  0  1  0  0  0
    2.0440    0.3467    0.0000 C   0  0  1  0  0  0
    4.5625    0.3285    0.0000 C   0  0
    4.5625    1.8067    0.0000 C   0  0
    3.3032    2.5367    0.0000 C   0  0  2  0  0  0
   -1.6930    0.8167    0.0000 C   0  0
   -5.2209   -2.4390    0.0000 O   0  0
    2.0413    2.9885    0.0000 C   0  0
    4.5993    3.2532    0.0000 C   0  0  2  0  0  0
    5.9034    2.5103    0.0000 C   0  0
    4.5927    4.4532    0.0000 O   0  0
    7.2059    2.0675    0.0000 O   0  0
    8.2265    5.3746    0.0000 F   0  0
    7.1838    5.9682    0.0000 F   0  0
    6.1483    5.3621    0.0000 F   0  0
    9.5395    3.1300    0.0000 F   0  0
    9.5458    1.9302    0.0000 F   0  0
    8.5099    1.3246    0.0000 F   0  0
    1.6715   -0.8608    0.0000 H   0  0
   -0.4332   -0.6715    0.0000 H   0  0
    2.2979   -0.6205    0.0000 H   0  0
    3.3325    1.5372    0.0000 H   0  0
  2  1  1  0
  3  2  1  0
  4  5  1  0
  4  7  1  0
  5  6  1  0
  6  9  1  0
  8  7  1  0
  8  9  1  0
  8 12  1  0
  9 10  2  0
 10 11  1  0
 11 13  1  0
 12 13  1  0
 12 15  1  0
 13 17  1  0
 16 14  1  0
 14 15  1  0
 16 17  1  0
 17 18  1  0
 18 19  1  0
 19 20  1  0
 20 16  1  0
  8 21  1  1
  5 22  1  1
 16 23  1  1
 20 24  1  0
 24 25  1  0
 24 26  1  1
 25  2  1  0
  2 27  1  0
  3 28  1  0
  3 29  1  0
  3 30  1  0
  1 31  1  0
  1 32  1  0
  1 33  1  0
 13 34  1  1
 12 35  1  6
 17 36  1  6
 20 37  1  6
M  END