
  SciTegic12121611282D

 43 44  0  0  0  0            999 V2000
   -2.3155    0.7475    0.0000 C   0  0
   -2.3155   -0.7475    0.0000 C   0  0
   -1.0028   -1.5132    0.0000 C   0  0
   -1.0028    1.5132    0.0000 C   0  0
    0.2917    0.7475    0.0000 C   0  0
    0.2917   -0.7475    0.0000 C   0  0
    1.7138   -1.2033    0.0000 C   0  0
    2.5889    0.0182    0.0000 N   0  0
    1.7138    1.2033    0.0000 C   0  0
    2.0907   -2.3426    0.0000 O   0  0
    2.0825    2.3453    0.0000 O   0  0
    4.0872    0.0382    0.0000 C   0  0
    4.8208    1.3475    0.0000 C   0  0
    4.2072    2.3788    0.0000 O   0  0
    6.3215    1.3677    0.0000 N   0  0
    7.0552    2.6770    0.0000 C   0  0
    8.5559    2.6972    0.0000 C   0  0
    5.8553    2.6614    0.0000 C   0  0
    6.4416    3.7083    0.0000 C   0  0
    9.2896    4.0065    0.0000 N   0  0
    9.1695    1.6660    0.0000 O   0  0
   10.7903    4.0267    0.0000 C   0  0
   11.5239    5.3360    0.0000 C   0  0
   13.0246    5.3562    0.0000 C   0  0
   13.7583    6.6655    0.0000 C   0  0
   15.2590    6.6857    0.0000 C   0  0  2  0  0  0
   15.9927    7.9949    0.0000 N   0  0
   17.4933    8.0151    0.0000 C   0  0
   18.2270    9.3244    0.0000 C   0  0
   18.1070    6.9839    0.0000 O   0  0
   19.7277    9.3446    0.0000 C   0  0
   19.1141   10.3759    0.0000 O   0  0
   20.4614   10.6539    0.0000 C   0  0
   20.4951    8.0549    0.0000 C   0  0
   21.6950    8.0699    0.0000 F   0  0
   21.1082    7.0234    0.0000 F   0  0
   19.9085    7.0081    0.0000 F   0  0
   21.6613   10.6701    0.0000 F   0  0
   21.0475   11.7010    0.0000 F   0  0
   19.8478   11.6852    0.0000 F   0  0
   16.0291    5.3975    0.0000 C   0  0
   17.2290    5.4149    0.0000 O   0  0
   15.4446    4.3494    0.0000 O   0  0
  1  2  2  0
  2  3  1  0
  3  6  2  0
  5  4  2  0
  4  1  1  0
  5  6  1  0
  6  7  1  0
  7  8  1  0
  8  9  1  0
  9  5  1  0
  7 10  2  0
  9 11  2  0
  8 12  1  0
 12 13  1  0
 13 14  2  0
 13 15  1  0
 15 16  1  0
 16 17  1  0
 16 18  1  0
 16 19  1  0
 17 20  1  0
 17 21  2  0
 20 22  1  0
 22 23  1  0
 23 24  1  0
 24 25  1  0
 25 26  1  0
 26 27  1  0
 27 28  1  0
 28 29  1  0
 28 30  2  0
 29 31  1  0
 31 32  1  0
 31 33  1  0
 31 34  1  0
 34 35  1  0
 34 36  1  0
 34 37  1  0
 33 38  1  0
 33 39  1  0
 33 40  1  0
 26 41  1  6
 41 42  2  0
 41 43  1  0
M  END