
  SciTegic01161211252D

 43 48  0  0  0  0            999 V2000
   15.2136   -0.6139    0.0000 N   0  0
   16.6383   -0.6211    0.0000 C   0  0  2  0  0  0
   15.9279   -0.2018    0.0000 C   0  0
   13.8374    1.0788    0.0000 C   0  0
   14.5414    0.6451    0.0000 C   0  0
   14.5177   -0.1815    0.0000 C   0  0
   17.3725   -0.2636    0.0000 C   0  0
   18.0723   -0.6974    0.0000 N   0  0
   17.3921    0.5630    0.0000 O   0  0
   18.0443   -1.5202    0.0000 C   0  0
   18.7399   -1.9538    0.0000 C   0  0
   19.4699   -1.5646    0.0000 N   0  0
   19.4956   -0.7372    0.0000 C   0  0
   18.7913   -0.2989    0.0000 C   0  0
   20.1651   -2.0002    0.0000 C   0  0
   20.1369   -2.8277    0.0000 C   0  0
   20.8383   -3.2641    0.0000 C   0  0
   21.5643   -2.8741    0.0000 C   0  0
   21.5886   -2.0433    0.0000 C   0  0
   20.8906   -1.6106    0.0000 C   0  0
   22.2683   -3.3116    0.0000 N   0  3
   22.9928   -2.9206    0.0000 O   0  0
   22.2426   -4.1381    0.0000 O   0  5
   15.2649    1.0377    0.0000 C   0  0
   13.1140    0.6862    0.0000 C   0  0
   12.4136    1.1221    0.0000 C   0  0
   12.3713   -0.5311    0.0000 C   0  0
   13.0956   -0.1366    0.0000 C   0  0
   11.6664   -0.0973    0.0000 C   0  0
   11.6898    0.7282    0.0000 C   0  0
   10.9119    1.0056    0.0000 O   0  0
   10.4119    0.3514    0.0000 C   0  0
   10.8741   -0.3301    0.0000 O   0  0
   15.2094   -1.4408    0.0000 C   0  0
   16.6335    0.2088    0.0000 H   0  0
   16.6341   -1.4480    0.0000 C   0  0  1  0  0  0
   15.9167   -1.8569    0.0000 C   0  0  2  0  0  0
   15.9122   -2.6782    0.0000 C   0  0
   16.6234   -3.0966    0.0000 C   0  0
   17.3408   -2.6876    0.0000 C   0  0
   17.3470   -1.8602    0.0000 C   0  0
   15.1969   -2.2634    0.0000 H   0  0
   17.3476   -1.0273    0.0000 H   0  0
 12 15  1  0
  8 10  1  0
  4  5  1  0
 21 22  2  0
 21 23  1  0
 18 21  1  0
  1  3  1  0
  5 24  1  0
  5  6  1  0
  4 25  1  0
  6  1  1  0
 25 26  2  0
 26 30  1  0
  8 14  1  0
 29 27  1  0
 10 11  1  0
 27 28  2  0
 28 25  1  0
 29 30  2  0
 11 12  1  0
 12 13  1  0
 13 14  1  0
 36  2  1  0
  2  7  1  0
 30 31  1  0
 31 32  1  0
 32 33  1  0
 33 29  1  0
 37 34  1  0
 15 16  2  0
  2  3  1  0
  2 35  1  1
 36 37  1  0
 16 17  1  0
  7  8  1  0
 17 18  2  0
  1 34  1  0
 18 19  1  0
  7  9  2  0
 36 41  1  0
 37 38  1  0
 38 39  1  0
 39 40  1  0
 40 41  1  0
 19 20  2  0
 37 42  1  1
 20 15  1  0
 36 43  1  1
M  CHG  2  21   1  23  -1
M  END