
  SciTegic10311316212D

 27 30  0  0  0  0            999 V2000
   10.7005   -7.5858    0.0000 C   0  0
   10.6993   -8.4053    0.0000 C   0  0
   11.4074   -8.8143    0.0000 C   0  0
   11.4056   -7.1769    0.0000 C   0  0
   12.1142   -7.5822    0.0000 C   0  0
   12.1145   -8.4008    0.0000 C   0  0
   12.8931   -8.6536    0.0000 S   0  0
   13.3742   -7.9911    0.0000 C   0  0
   12.8927   -7.3291    0.0000 C   0  0
    9.9959   -8.8125    0.0000 N   0  0
    9.2496   -8.4796    0.0000 C   0  0
    8.7023   -9.0864    0.0000 N   0  0
    9.1104   -9.7945    0.0000 N   0  0
    9.9098   -9.6251    0.0000 C   0  0
   10.5154  -10.1691    0.0000 C   0  0
   10.3434  -10.9691    0.0000 C   0  0
   10.9495  -11.5161    0.0000 C   0  0
   11.7278  -11.2643    0.0000 C   0  0
   11.8966  -10.4604    0.0000 C   0  0
   11.2892   -9.9169    0.0000 C   0  0
    9.0803   -7.6801    0.0000 S   0  0
   14.1893   -7.9887    0.0000 C   0  0
   14.5981   -8.6963    0.0000 O   0  0
   14.5976   -7.2808    0.0000 O   0  0
   13.1450   -6.5518    0.0000 Cl  0  0
   12.6731  -10.2057    0.0000 Cl  0  0
   10.7786  -12.3153    0.0000 Cl  0  0
  1  2  2  0
  2  3  1  0
  3  6  2  0
  5  4  2  0
  4  1  1  0
  5  6  1  0
  6  7  1  0
  7  8  1  0
  8  9  2  0
  9  5  1  0
 10 11  1  0
 11 12  2  0
 12 13  1  0
 13 14  2  0
 14 10  1  0
  2 10  1  0
 15 16  2  0
 16 17  1  0
 17 18  2  0
 18 19  1  0
 19 20  2  0
 20 15  1  0
 14 15  1  0
 11 21  1  0
 22 23  1  0
 22 24  2  0
  8 22  1  0
  9 25  1  0
 19 26  1  0
 17 27  1  0
M  END