
  SciTegic02131210002D

 30 32  0  0  0  0            999 V2000
    9.2083  -21.9125    0.0000 O   0  0
    9.6250  -21.2000    0.0000 S   0  0
    8.7996  -21.1954    0.0000 O   0  0
    6.7833  -17.9000    0.0000 C   0  0
    6.7833  -18.7250    0.0000 C   0  0
    7.4954  -19.1333    0.0000 N   0  0
    8.2074  -18.7250    0.0000 C   0  0
    8.2074  -17.9000    0.0000 N   0  0
    7.4954  -17.4833    0.0000 C   0  0
    8.9194  -19.1375    0.0000 C   0  0
    8.9169  -19.9636    0.0000 C   0  0
    9.6299  -20.3770    0.0000 C   0  0
   10.3459  -19.9655    0.0000 C   0  0
   10.3445  -19.1362    0.0000 C   0  0
    9.6309  -18.7265    0.0000 C   0  0
   10.3420  -21.6159    0.0000 N   0  0
   10.3381  -22.4381    0.0000 C   0  0
   11.0476  -22.8519    0.0000 C   0  0
   11.7653  -22.4443    0.0000 N   0  0
   11.7689  -21.6184    0.0000 C   0  0
   11.0548  -21.2000    0.0000 C   0  0
    7.4954  -16.6583    0.0000 O   0  0
    6.0695  -19.1385    0.0000 C   0  0
    6.0707  -19.9635    0.0000 C   0  0
    9.6298  -17.9015    0.0000 O   0  0
   10.3437  -17.4881    0.0000 C   0  0
   11.0587  -17.8997    0.0000 C   0  0
   11.7727  -17.4862    0.0000 C   0  0
   12.4774  -22.8609    0.0000 C   0  0
    6.0677  -17.4896    0.0000 Br  0  0
  7 10  1  0
 12  2  1  0
  6  7  2  0
  2 16  1  0
 16 17  1  0
  7  8  1  0
  8  9  1  0
  3  2  2  0
  4  5  2  0
 10 11  2  0
 16 21  1  0
 17 18  1  0
 18 19  1  0
 19 20  1  0
 20 21  1  0
  9 22  2  0
 11 12  1  0
  5 23  1  0
  2  1  2  0
 23 24  1  0
 12 13  2  0
 15 25  1  0
  4  9  1  0
 25 26  1  0
 13 14  1  0
 26 27  1  0
  5  6  1  0
 27 28  1  0
 14 15  2  0
 19 29  1  0
 15 10  1  0
  4 30  1  0
M  END