
  SciTegic12201610062D

 32 34  0  0  0  0            999 V2000
    1.2941   -0.7500    0.0000 C   0  0
   -0.0046   -1.5023    0.0000 C   0  0
   -0.0035   -3.0031    0.0000 N   0  0
   -1.3021   -3.7554    0.0000 C   0  0
   -1.3009   -5.2562    0.0000 C   0  0
   -2.5996   -6.0084    0.0000 N   0  0
   -2.5984   -7.5093    0.0000 C   0  0
   -3.8971   -8.2615    0.0000 C   0  0
   -3.9018   -5.2621    0.0000 C   0  0
   -5.1996   -6.0158    0.0000 C   0  0
   -6.5017   -5.2696    0.0000 N   0  0
   -7.5394   -5.8722    0.0000 C   0  0
   -6.5051   -4.0696    0.0000 C   0  0
    1.2956   -3.7547    0.0000 C   0  0
    1.2951   -5.2556    0.0000 C   0  0
    1.2950    0.7500    0.0000 C   0  0
    2.5945    1.4992    0.0000 C   0  0
    3.8931    0.7484    0.0000 C   0  0
    3.8921   -0.7516    0.0000 C   0  0
    2.5926   -1.5008    0.0000 C   0  0
   -0.0026   -6.0079    0.0000 C   0  0
    0.0000   -7.5079    0.0000 C   0  0
    1.3003   -8.2557    0.0000 C   0  0
    2.5980   -7.5034    0.0000 C   0  0
    2.5955   -6.0034    0.0000 C   0  0
    3.9006   -8.2489    0.0000 O   0  0
    4.9380   -7.6457    0.0000 C   0  0
   -3.8981   -9.7616    0.0000 C   0  0
   -5.1976  -10.5108    0.0000 C   0  0
   -6.4962   -9.7600    0.0000 C   0  0
   -6.4953   -8.2600    0.0000 C   0  0
   -5.1958   -7.5108    0.0000 C   0  0
  1  2  1  0
  2  3  1  0
  3  4  1  0
  4  5  1  0
  5  6  1  0
  6  7  1  0
  7  8  1  0
  6  9  1  0
  9 10  1  0
 10 11  1  0
 11 12  1  0
 11 13  1  0
  3 14  1  0
 14 15  1  0
  1 16  2  0
 16 17  1  0
 17 18  2  0
 18 19  1  0
 19 20  2  0
 20  1  1  0
 15 21  2  0
 21 22  1  0
 22 23  2  0
 23 24  1  0
 24 25  2  0
 25 15  1  0
 24 26  1  0
 26 27  1  0
  8 28  2  0
 28 29  1  0
 29 30  2  0
 30 31  1  0
 31 32  2  0
 32  8  1  0
M  END