
  Mrv0541 04051115152D          

 39 43  0  0  0  0            999 V2000
   -0.1975   -0.7918    0.0000 C   0  0  0  0  0  0  0  0  0  0  0  0
   -0.9120   -0.3793    0.0000 O   0  0  0  0  0  0  0  0  0  0  0  0
    0.5169   -0.3793    0.0000 N   0  0  0  0  0  0  0  0  0  0  0  0
    0.5169    0.4457    0.0000 C   0  0  0  0  0  0  0  0  0  0  0  0
    1.2314    0.8582    0.0000 C   0  0  0  0  0  0  0  0  0  0  0  0
    1.2314    1.6832    0.0000 C   0  0  0  0  0  0  0  0  0  0  0  0
    0.5169    2.0957    0.0000 C   0  0  0  0  0  0  0  0  0  0  0  0
    1.9459    0.4457    0.0000 C   0  0  0  0  0  0  0  0  0  0  0  0
    2.6603    0.8582    0.0000 C   0  0  0  0  0  0  0  0  0  0  0  0
    2.6603    1.6832    0.0000 C   0  0  0  0  0  0  0  0  0  0  0  0
    1.9459    2.0957    0.0000 C   0  0  0  0  0  0  0  0  0  0  0  0
   -0.1975    1.6832    0.0000 C   0  0  0  0  0  0  0  0  0  0  0  0
   -0.1975    0.8582    0.0000 C   0  0  0  0  0  0  0  0  0  0  0  0
   -0.1975   -1.6168    0.0000 N   0  0  0  0  0  0  0  0  0  0  0  0
   -0.9120   -2.0293    0.0000 C   0  0  0  0  0  0  0  0  0  0  0  0
   -1.6657   -1.6937    0.0000 C   0  0  0  0  0  0  0  0  0  0  0  0
   -2.2177   -2.3068    0.0000 C   0  0  0  0  0  0  0  0  0  0  0  0
   -1.8052   -3.0213    0.0000 N   0  0  0  0  0  0  0  0  0  0  0  0
   -0.9983   -2.8497    0.0000 N   0  0  0  0  0  0  0  0  0  0  0  0
   -0.3852   -3.4018    0.0000 C   0  0  0  0  0  0  0  0  0  0  0  0
   -3.8587   -2.1343    0.0000 C   0  0  0  0  0  0  0  0  0  0  0  0
   -3.1244   -3.0410    0.0000 C   0  0  0  0  0  0  0  0  0  0  0  0
   -2.9520   -1.4001    0.0000 C   0  0  0  0  0  0  0  0  0  0  0  0
   -3.0382   -2.2206    0.0000 C   0  0  0  0  0  0  0  0  0  0  0  0
    0.3995   -3.1468    0.0000 C   0  0  0  0  0  0  0  0  0  0  0  0
    1.0126   -3.6989    0.0000 C   0  0  0  0  0  0  0  0  0  0  0  0
    0.8410   -4.5058    0.0000 C   0  0  0  0  0  0  0  0  0  0  0  0
    0.0564   -4.7608    0.0000 C   0  0  0  0  0  0  0  0  0  0  0  0
   -0.5567   -4.2087    0.0000 C   0  0  0  0  0  0  0  0  0  0  0  0
    1.4541   -5.0579    0.0000 C   0  0  0  0  0  0  0  0  0  0  0  0
    0.5169    2.9207    0.0000 O   0  0  0  0  0  0  0  0  0  0  0  0
   -0.1975    3.3332    0.0000 C   0  0  0  0  0  0  0  0  0  0  0  0
   -0.1975    4.1582    0.0000 C   0  0  0  0  0  0  0  0  0  0  0  0
    0.5169    4.5707    0.0000 N   0  0  0  0  0  0  0  0  0  0  0  0
    1.2314    4.1582    0.0000 C   0  0  0  0  0  0  0  0  0  0  0  0
    1.9459    4.5707    0.0000 C   0  0  0  0  0  0  0  0  0  0  0  0
    1.9459    5.3957    0.0000 O   0  0  0  0  0  0  0  0  0  0  0  0
    1.2314    5.8082    0.0000 C   0  0  0  0  0  0  0  0  0  0  0  0
    0.5169    5.3957    0.0000 C   0  0  0  0  0  0  0  0  0  0  0  0
  1  2  2  0  0  0  0
  1  3  1  0  0  0  0
  1 14  1  0  0  0  0
  4  3  1  0  0  0  0
  4  5  2  0  0  0  0
  4 13  1  0  0  0  0
  5  6  1  0  0  0  0
  8  5  1  0  0  0  0
  6  7  2  0  0  0  0
 11  6  1  0  0  0  0
  7 12  1  0  0  0  0
  7 31  1  0  0  0  0
  8  9  2  0  0  0  0
  9 10  1  0  0  0  0
 10 11  2  0  0  0  0
 12 13  2  0  0  0  0
 15 14  1  0  0  0  0
 15 16  2  0  0  0  0
 15 19  1  0  0  0  0
 17 16  1  0  0  0  0
 17 18  2  0  0  0  0
 17 24  1  0  0  0  0
 19 18  1  0  0  0  0
 20 19  1  0  0  0  0
 20 25  2  0  0  0  0
 20 29  1  0  0  0  0
 24 21  1  0  0  0  0
 24 22  1  0  0  0  0
 24 23  1  0  0  0  0
 25 26  1  0  0  0  0
 26 27  2  0  0  0  0
 27 28  1  0  0  0  0
 27 30  1  0  0  0  0
 28 29  2  0  0  0  0
 32 31  1  0  0  0  0
 32 33  1  0  0  0  0
 33 34  1  0  0  0  0
 35 34  1  0  0  0  0
 39 34  1  0  0  0  0
 35 36  1  0  0  0  0
 36 37  1  0  0  0  0
 38 37  1  0  0  0  0
 38 39  1  0  0  0  0
M  END