
  SciTegic12231509382D

 14 15  0  0  0  0            999 V2000
    4.5589  -20.2334    0.0000 C   0  0
    3.1324  -20.2334    0.0000 C   0  0
    3.8457  -19.8205    0.0000 N   0  0
    5.3097  -19.8956    0.0000 N   0  0
    4.6465  -21.0510    0.0000 N   0  0
    3.1324  -21.0593    0.0000 C   0  0
    2.4108  -19.8205    0.0000 C   0  0
    2.4108  -18.9946    0.0000 Cl  0  0
    3.8457  -21.4722    0.0000 Cl  0  0
    5.8644  -20.5087    0.0000 C   0  0
    5.4514  -21.2219    0.0000 C   0  0
    1.6976  -21.0593    0.0000 C   0  0
    1.6976  -20.2334    0.0000 C   0  0
    2.4108  -21.4722    0.0000 C   0  0
  2  3  1  0
  3  1  1  0
  4  1  2  0
  5  1  1  0
  6  2  1  0
  7  2  2  0
  8  7  1  0
  9  6  1  0
 10  4  1  0
 11  5  1  0
 12 13  2  0
 13  7  1  0
 14  6  2  0
 10 11  1  0
 14 12  1  0
M  END