
          11280714522D 1   1.00000     0.00000     0

 24 25  0     0  0            999 V2000
    3.0125   -3.6042    0.0000 N   0  0  0  0  0  0           0  0  0
   -0.1250   -3.0292    0.0000 C   0  0  0  0  0  0           0  0  0
    2.5000   -3.9167    0.0000 C   0  0  0  0  0  0           0  0  0
    0.0542   -3.6042    0.0000 N   0  0  0  0  0  0           0  0  0
    2.9917   -3.0042    0.0000 C   0  0  0  0  0  0           0  0  0
    6.1667   -2.8500    0.0000 N   0  0  0  0  0  0           0  0  0
   -0.7250   -3.0250    0.0000 C   0  0  0  0  0  0           0  0  0
    1.9917   -4.2375    0.0000 N   0  0  0  0  0  0           0  0  0
   -0.4333   -3.9542    0.0000 C   0  0  0  0  0  0           0  0  0
   -0.9208   -3.5917    0.0000 N   0  0  0  0  0  0           0  0  0
    6.1167   -1.8792    0.0000 N   0  0  0  0  0  0           0  0  0
    6.4917   -2.3417    0.0000 C   0  0  0  0  0  0           0  0  0
    5.5917   -2.6917    0.0000 C   0  0  0  0  0  0           0  0  0
    5.5625   -2.0917    0.0000 C   0  0  0  0  0  0           0  0  0
    3.5125   -2.7042    0.0000 N   0  0  0  0  0  0           0  0  0
    2.4667   -2.7042    0.0000 N   0  0  0  0  0  0           0  0  0
    0.3917   -2.7250    0.0000 C   0  0  0  0  0  0           0  0  0
    0.9167   -3.0167    0.0000 S   0  0  0  0  0  0           0  0  0
   -1.0750   -2.5375    0.0000 C   0  0  0  0  0  0           0  0  0
    5.0750   -2.9917    0.0000 C   0  0  0  0  0  0           0  0  0
    1.9542   -3.0125    0.0000 C   0  0  0  0  0  0           0  0  0
    4.0292   -3.0042    0.0000 C   0  0  0  0  0  0           0  0  0
    1.4292   -2.7167    0.0000 C   0  0  0  0  0  0           0  0  0
    4.5542   -2.7000    0.0000 C   0  0  0  0  0  0           0  0  0
  2 17  1  0     0  0
  3  1  1  0     0  0
  4  2  1  0     0  0
  5  1  1  0     0  0
  6 13  1  0     0  0
  7  2  2  0     0  0
  8  3  3  0     0  0
  9  4  2  0     0  0
 10  7  1  0     0  0
 11 14  1  0     0  0
 12  6  2  0     0  0
 13 20  1  0     0  0
 14 13  2  0     0  0
 15  5  1  0     0  0
 16  5  2  0     0  0
 17 18  1  0     0  0
 18 23  1  0     0  0
 19  7  1  0     0  0
 20 24  1  0     0  0
 21 16  1  0     0  0
 22 15  1  0     0  0
 23 21  1  0     0  0
 24 22  1  0     0  0
 12 11  1  0     0  0
 10  9  1  0     0  0
M  END