
  SciTegic03291108542D

 24 26  0  0  0  0            999 V2000
   -0.9602    1.5484    0.0000 S   0  0
   -1.3727    0.8339    0.0000 O   0  0
   -0.5477    2.2628    0.0000 O   0  0
    1.1833    0.3109    0.0000 O   0  0
   -5.2470    3.1984    0.0000 O   0  0
   -0.2457    1.1359    0.0000 N   0  0
   -3.8180    3.1984    0.0000 N   0  0
   -1.6746    1.9609    0.0000 C   0  0
   -3.1036    1.9609    0.0000 C   0  0
   -3.1036    2.7859    0.0000 C   0  0
   -2.3891    1.5484    0.0000 C   0  0
   -0.2457    0.3109    0.0000 C   0  0
   -1.6746    2.7859    0.0000 C   0  0
   -2.3891    3.1984    0.0000 C   0  0
    0.4688   -0.1016    0.0000 C   0  0
   -3.8180    1.5484    0.0000 C   0  0
   -4.5325    2.7859    0.0000 C   0  0
   -0.9602   -0.1016    0.0000 C   0  0
   -4.5325    1.9609    0.0000 C   0  0
    0.4688   -0.9266    0.0000 C   0  0
   -0.9602   -0.9266    0.0000 C   0  0
   -0.2457   -1.3391    0.0000 C   0  0
    1.8977   -0.1016    0.0000 C   0  0
    2.6122    0.3109    0.0000 C   0  0
  1  2  2  0
  1  3  2  0
  1  6  1  0
  1  8  1  0
  4 15  1  0
  4 23  1  0
  5 17  1  0
  6 12  1  0
  7 10  1  0
  7 17  2  0
  8 11  1  0
  8 13  2  0
  9 10  1  0
  9 11  2  0
  9 16  1  0
 10 14  2  0
 12 15  1  0
 12 18  2  0
 13 14  1  0
 15 20  2  0
 16 19  2  0
 17 19  1  0
 18 21  1  0
 20 22  1  0
 21 22  2  0
 23 24  1  0
M  END