
  SciTegic10301317112D

 33 33  0  0  0  0            999 V2000
   -2.1250    1.7708    0.0000 S   0  0
    1.1667    1.7833    0.0000 C   0  0
   -1.3083    1.7708    0.0000 C   0  0
    8.7792   -2.2250    0.0000 C   0  0
    7.5042   -1.5750    0.0000 N   0  0
    6.6792   -1.5792    0.0000 C   0  0
    1.5792    1.0708    0.0000 N   0  0
   -2.1333    0.9458    0.0000 O   0  0
   -2.1250    2.5958    0.0000 O   0  0
    7.9542   -2.2667    0.0000 C   0  0  2  0  0  0
    2.8250    0.3708    0.0000 C   0  0
    4.9542   -0.2042    0.0000 C   0  0
    0.3417    1.7833    0.0000 C   0  0
   -2.9583    1.7750    0.0000 N   0  0
    5.4417   -0.8750    0.0000 N   0  0
    3.6500    0.3708    0.0000 N   0  0
    1.5750    2.5000    0.0000 O   0  0
    9.1542   -1.4917    0.0000 O   0  0
    6.2792   -2.3000    0.0000 O   0  0
    2.4167   -0.3500    0.0000 O   0  0
    5.2917    0.5458    0.0000 O   0  0
   -0.9000    2.4833    0.0000 C   0  0
   -0.8875    1.0583    0.0000 C   0  0
   -0.0708    1.0625    0.0000 C   0  0
   -0.0833    2.4958    0.0000 C   0  0
    2.4042    1.0833    0.0000 C   0  0
    6.2667   -0.8667    0.0000 C   0  0
    4.1375   -0.2917    0.0000 C   0  0
    9.2292   -2.9167    0.0000 O   0  0
    7.5792   -3.0042    0.0000 C   0  0
    7.6542   -4.4292    0.0000 S   0  0
    8.0292   -3.6917    0.0000 C   0  0
    8.1042   -5.1167    0.0000 C   0  0
  2 13  1  0
  3  1  1  0
  4 10  1  0
  5  6  1  0
  6 27  1  0
  7  2  1  0
  8  1  2  0
  9  1  2  0
 10  5  1  0
 11 26  1  0
 12 28  1  0
 13 24  2  0
 14  1  1  0
 15 12  1  0
 16 11  1  0
 17  2  2  0
 18  4  2  0
 19  6  2  0
 20 11  2  0
 21 12  2  0
 22  3  1  0
 23  3  2  0
 24 23  1  0
 25 22  2  0
 26  7  1  0
 27 15  1  0
 28 16  1  0
 29  4  1  0
 10 30  1  1
 31 32  1  0
 32 30  1  0
 33 31  1  0
 13 25  1  0
M  END