
  CDK    9/16/09,10:6

 41 44  0  0  0  0  0  0  0  0999 V2000
    1.1611  -13.7625    0.0000 C   0  0  0  0  0  0  0  0  0  0  0  0
    1.1599  -14.5898    0.0000 C   0  0  0  0  0  0  0  0  0  0  0  0
    1.8747  -15.0027    0.0000 C   0  0  0  0  0  0  0  0  0  0  0  0
    1.8729  -13.3497    0.0000 C   0  0  0  0  0  0  0  0  0  0  0  0
    2.5883  -13.7588    0.0000 C   0  0  0  0  0  0  0  0  0  0  0  0
    2.5891  -14.5857    0.0000 C   0  0  0  0  0  0  0  0  0  0  0  0
    3.3044  -14.9966    0.0000 N   0  0  0  0  0  0  0  0  0  0  0  0
    4.0194  -14.5819    0.0000 C   0  0  0  0  0  0  0  0  0  0  0  0
    4.0146  -13.7519    0.0000 N   0  0  0  0  0  0  0  0  0  0  0  0
    3.2987  -13.3447    0.0000 C   0  0  0  0  0  0  0  0  0  0  0  0
    3.2944  -12.5197    0.0000 N   0  0  0  0  0  0  0  0  0  0  0  0
    4.0066  -12.1034    0.0000 C   0  0  0  0  0  0  0  0  0  0  0  0
    4.7611  -12.4304    0.0000 C   0  0  0  0  0  0  0  0  0  0  0  0
    5.3098  -11.8144    0.0000 C   0  0  0  0  0  0  0  0  0  0  0  0
    4.8935  -11.1021    0.0000 N   0  0  0  0  0  0  0  0  0  0  0  0
    4.0875  -11.2780    0.0000 N   0  0  0  0  0  0  0  0  0  0  0  0
    6.1308  -11.8963    0.0000 C   0  0  0  0  0  0  0  0  0  0  0  0
    6.4703  -12.6482    0.0000 C   0  0  0  0  0  0  0  0  0  0  0  0
    7.2912  -12.7300    0.0000 N   0  0  0  0  0  0  0  0  0  0  0  0
    5.9889  -13.3182    0.0000 O   0  0  0  0  0  0  0  0  0  0  0  0
    7.6308  -13.4819    0.0000 C   0  0  0  0  0  0  0  0  0  0  0  0
    7.1468  -14.1480    0.0000 C   0  0  0  0  0  0  0  0  0  0  0  0
    7.4857  -14.8993    0.0000 C   0  0  0  0  0  0  0  0  0  0  0  0
    8.3075  -14.9817    0.0000 C   0  0  0  0  0  0  0  0  0  0  0  0
    8.7892  -14.3067    0.0000 C   0  0  0  0  0  0  0  0  0  0  0  0
    8.4476  -13.5581    0.0000 C   0  0  0  0  0  0  0  0  0  0  0  0
    9.6104  -14.3857    0.0000 F   0  0  0  0  0  0  0  0  0  0  0  0
    0.4451  -15.0018    0.0000 O   0  0  0  0  0  0  0  0  0  0  0  0
   -0.2690  -14.5887    0.0000 C   0  0  0  0  0  0  0  0  0  0  0  0
   -0.9838  -15.0006    0.0000 C   0  0  0  0  0  0  0  0  0  0  0  0
   -1.6980  -14.5876    0.0000 C   0  0  0  0  0  0  0  0  0  0  0  0
   -2.4128  -14.9995    0.0000 N   0  0  0  0  0  0  0  0  0  0  0  0
   -3.1269  -14.5864    0.0000 C   0  0  0  0  0  0  0  0  0  0  0  0
   -2.4134  -15.8245    0.0000 C   0  0  0  0  0  0  0  0  0  0  0  0
   -3.1282  -16.2364    0.0000 C   0  0  0  0  0  0  0  0  0  0  0  0
   -3.1263  -13.7614    0.0000 C   0  0  0  0  0  0  0  0  0  0  0  0
   -3.8404  -13.3484    0.0000 O   0  0  0  0  0  0  0  0  0  0  0  0
   -3.8398  -12.5234    0.0000 P   0  0  0  0  0  0  0  0  0  0  0  0
   -3.8458  -11.6958    0.0000 O   0  0  0  0  0  0  0  0  0  0  0  0
   -3.0148  -12.5207    0.0000 O   0  0  0  0  0  0  0  0  0  0  0  0
   -4.6647  -12.5287    0.0000 O   0  0  0  0  0  0  0  0  0  0  0  0
  4  1  1  0  0  0  0 
 18 20  2  0  0  0  0 
  9 10  2  0  0  0  0 
 19 21  1  0  0  0  0 
 10  5  1  0  0  0  0 
 21 22  2  0  0  0  0 
 22 23  1  0  0  0  0 
 10 11  1  0  0  0  0 
 23 24  2  0  0  0  0 
  2  3  1  0  0  0  0 
 24 25  1  0  0  0  0 
 11 12  1  0  0  0  0 
 25 26  2  0  0  0  0 
 26 21  1  0  0  0  0 
 12 13  1  0  0  0  0 
 25 27  1  0  0  0  0 
  5  6  1  0  0  0  0 
  2 28  1  0  0  0  0 
  3  6  2  0  0  0  0 
 28 29  1  0  0  0  0 
  6  7  1  0  0  0  0 
 29 30  1  0  0  0  0 
  1  2  2  0  0  0  0 
 30 31  1  0  0  0  0 
 13 14  2  0  0  0  0 
 31 32  1  0  0  0  0 
 14 15  1  0  0  0  0 
 32 33  1  0  0  0  0 
 15 16  1  0  0  0  0 
 32 34  1  0  0  0  0 
 16 12  2  0  0  0  0 
 34 35  1  0  0  0  0 
  7  8  2  0  0  0  0 
 33 36  1  0  0  0  0 
 14 17  1  0  0  0  0 
 36 37  1  0  0  0  0 
  5  4  2  0  0  0  0 
 37 38  1  0  0  0  0 
 17 18  1  0  0  0  0 
 38 39  2  0  0  0  0 
  8  9  1  0  0  0  0 
 38 40  1  0  0  0  0 
 18 19  1  0  0  0  0 
 38 41  1  0  0  0  0 
M  END