
  SciTegic06051315212D

 23 24  0  0  0  0            999 V2000
   17.2875   -2.5630    0.0000 C   0  0
   17.2864   -3.3825    0.0000 C   0  0
   17.9944   -3.7915    0.0000 C   0  0
   18.7041   -3.3820    0.0000 C   0  0
   18.7013   -2.5594    0.0000 C   0  0
   17.9927   -2.1541    0.0000 C   0  0
   17.9902   -1.3369    0.0000 S   0  0
   18.6967   -0.9262    0.0000 N   0  0
   17.1940   -1.5436    0.0000 O   0  0
   17.5737   -0.6232    0.0000 O   0  0
   19.4074   -2.1481    0.0000 F   0  0
   16.5797   -2.1545    0.0000 F   0  0
   16.5784   -3.7905    0.0000 F   0  0
   19.4125   -3.7895    0.0000 F   0  0
   17.9942   -4.6087    0.0000 N   0  0
   17.2864   -5.0171    0.0000 N   0  0
   17.2862   -5.8343    0.0000 C   0  0
   16.5784   -6.2427    0.0000 C   0  0
   15.8730   -5.8327    0.0000 C   0  0
   15.1656   -6.2405    0.0000 C   0  0
   15.1650   -7.0585    0.0000 C   0  0
   15.8776   -7.4672    0.0000 C   0  0
   16.5820   -7.0571    0.0000 C   0  0
  1  2  2  0
  2  3  1  0
  3  4  2  0
  4  5  1  0
  5  6  2  0
  6  1  1  0
  6  7  1  0
  7  8  1  0
  7  9  2  0
  7 10  2  0
  5 11  1  0
  1 12  1  0
  2 13  1  0
  4 14  1  0
  3 15  1  0
 15 16  1  0
 16 17  2  0
 17 18  1  0
 18 19  2  0
 19 20  1  0
 20 21  2  0
 21 22  1  0
 22 23  2  0
 23 18  1  0
M  END