
          11280715202D 1   1.00000     0.00000     0

 26 26  0     0  0            999 V2000
    1.5667   -2.2500    0.0000 N   0  0  0  0  0  0           0  0  0
    1.1542   -3.5250    0.0000 N   0  0  0  0  0  0           0  0  0
    0.9042   -2.7375    0.0000 C   0  0  0  0  0  0           0  0  0
    2.2375   -2.7375    0.0000 C   0  0  0  0  0  0           0  0  0
   12.8917   -1.8042    0.0000 C   0  0  0  0  0  0           0  0  0
   12.8792   -3.4542    0.0000 C   0  0  0  0  0  0           0  0  0
   12.1792   -2.2167    0.0000 C   0  0  0  0  0  0           0  0  0
   12.1750   -3.0417    0.0000 C   0  0  0  0  0  0           0  0  0
    1.9792   -3.5250    0.0000 C   0  0  0  0  0  0           0  0  0
    7.3875   -2.5750    0.0000 C   0  0  0  0  0  0           0  0  0
   12.8917   -0.9792    0.0000 O   0  0  0  0  0  0           0  0  0
   12.8792   -4.2792    0.0000 O   0  0  0  0  0  0           0  0  0
    7.2125   -3.3792    0.0000 C   0  0  0  0  0  0           0  0  0
    6.7667   -2.0167    0.0000 C   0  0  0  0  0  0           0  0  0
    8.1667   -2.3167    0.0000 C   0  0  3  0  0  0           0  0  0
    5.8167   -3.0792    0.0000 C   0  0  0  0  0  0           0  0  0
   13.6042   -2.2167    0.0000 O   0  0  0  0  0  0           0  0  0
   13.6000   -3.0417    0.0000 O   0  0  0  0  0  0           0  0  0
    5.9875   -2.2792    0.0000 C   0  0  0  0  0  0           0  0  0
    6.4292   -3.6375    0.0000 C   0  0  0  0  0  0           0  0  0
    8.7792   -2.8750    0.0000 O   0  0  0  0  0  0           0  0  0
    5.0292   -3.3375    0.0000 O   0  0  0  0  0  0           0  0  0
    3.0250   -2.4792    0.0000 C   0  0  0  0  0  0           0  0  0
    8.3417   -1.5125    0.0000 C   0  0  0  0  0  0           0  0  0
    4.4167   -2.7792    0.0000 C   0  0  0  0  0  0           0  0  0
    3.6292   -3.0375    0.0000 C   0  0  0  0  0  0           0  0  0
  2  3  1  0     0  0
  3  1  2  0     0  0
  4  1  1  0     0  0
  6  8  1  0     0  0
  7  5  1  0     0  0
  8  7  2  0     0  0
  9  4  2  0     0  0
 10 13  2  0     0  0
 11  5  2  0     0  0
 12  6  2  0     0  0
 13 20  1  0     0  0
 14 19  2  0     0  0
 15 10  1  0     0  0
 16 22  1  0     0  0
 17  5  1  0     0  0
 18  6  1  0     0  0
 19 16  1  0     0  0
 20 16  2  0     0  0
 21 15  1  0     0  0
 22 25  1  0     0  0
 23  4  1  0     0  0
 24 15  1  0     0  0
 25 26  1  0     0  0
 26 23  1  0     0  0
  9  2  1  0     0  0
 10 14  1  0     0  0
M  END