
  SciTegic12231509382D

 31 34  0  0  0  0            999 V2000
   -5.7284   -0.3624    0.0000 C   0  0
   -5.7296   -1.1894    0.0000 C   0  0
   -5.0150   -1.6021    0.0000 C   0  0
   -4.2989   -1.1890    0.0000 C   0  0
   -4.3018   -0.3587    0.0000 C   0  0
   -5.0168    0.0503    0.0000 C   0  0
   -3.5854    0.0580    0.0000 N   0  0
   -2.8698   -0.3539    0.0000 C   0  0
   -2.1593    0.0576    0.0000 C   0  0
   -2.1581    0.8827    0.0000 N   0  0
   -2.8737    1.2945    0.0000 C   0  0
   -3.5904    0.8813    0.0000 C   0  0
   -1.4440    1.2950    0.0000 C   0  0
   -0.7297    0.8827    0.0000 C   0  0
   -0.0155    1.2950    0.0000 N   0  0
    0.6986    0.8826    0.0000 C   0  0
   -0.0155    2.1197    0.0000 C   0  0
    0.6969    0.0573    0.0000 N   0  0
    1.4103   -0.3551    0.0000 C   0  0
    2.1255    0.0574    0.0000 C   0  0
    2.1229    0.8863    0.0000 C   0  0
    1.4089    1.2948    0.0000 C   0  0
    0.6987    2.5319    0.0000 C   0  0
   -0.7297    2.5320    0.0000 O   0  0
    1.4146    2.1124    0.0000 C   0  0
    2.1267    2.5213    0.0000 C   0  0
    2.1309    3.3462    0.0000 C   0  0
    1.4169    3.7608    0.0000 C   0  0
    0.6986    3.3503    0.0000 C   0  0
   -5.0193    0.8750    0.0000 O   0  0
   -5.7347    1.2852    0.0000 C   0  0
 14 15  1  0
  3  4  2  0
 15 16  1  0
 15 17  1  0
  4  5  1  0
 16 18  2  0
  2  3  1  0
 18 19  1  0
  5  6  2  0
 19 20  2  0
  7 12  1  0
 20 21  1  0
  8  9  1  0
 21 22  2  0
 22 16  1  0
  9 10  1  0
 17 23  1  0
 10 11  1  0
 17 24  2  0
 23 25  1  0
 11 12  1  0
  5  7  1  0
  6  1  1  0
 10 13  1  0
  7  8  1  0
 23 29  1  0
 25 26  1  0
 26 27  1  0
 27 28  1  0
 28 29  1  0
 13 14  1  0
  6 30  1  0
  1  2  2  0
 30 31  1  0
M  END