
  SciTegic01161211252D

 22 23  0  0  0  0            999 V2000
    2.2708  -22.2458    0.0000 C   0  0
    2.2708  -23.0708    0.0000 C   0  0
    2.9829  -23.4792    0.0000 C   0  0
    3.6949  -23.0708    0.0000 C   0  0
    3.6949  -22.2458    0.0000 C   0  0
    2.9829  -21.8292    0.0000 C   0  0
    4.4105  -21.8354    0.0000 N   0  0
    5.1222  -22.2527    0.0000 O   0  0
    1.5552  -21.8354    0.0000 C   0  0
    0.8375  -21.4208    0.0000 C   0  0
    0.1231  -21.0081    0.0000 C   0  0
    0.1284  -20.1860    0.0000 C   0  0
   -0.5851  -19.7734    0.0000 C   0  0
   -1.3006  -20.1858    0.0000 C   0  0
   -1.2982  -21.0151    0.0000 C   0  0
   -0.5841  -21.4239    0.0000 N   0  0
    5.8395  -21.8450    0.0000 C   0  0
    6.5511  -22.2623    0.0000 C   0  0
    7.2684  -21.8546    0.0000 O   0  0
    7.9801  -22.2719    0.0000 C   0  0
    8.6973  -21.8641    0.0000 C   0  0
    9.4090  -22.2814    0.0000 F   0  0
 10 11  1  0
  4  5  1  0
 11 12  2  0
  5  6  1  0
 12 13  1  0
 13 14  2  0
  5  7  2  0
 14 15  1  0
  1  2  1  0
 15 16  2  0
 16 11  1  0
  7  8  1  0
  8 17  1  0
  1  6  2  0
 17 18  1  0
  1  9  1  0
 18 19  1  0
  2  3  1  0
 19 20  1  0
  9 10  3  0
 20 21  1  0
  3  4  1  0
 21 22  1  0
M  ISO  1  22  18
M  END