
  SciTegic04181614082D

 32 35  0  0  0  0            999 V2000
   -3.7006    0.8244    0.0000 C   0  0
   -3.7006   -0.6045    0.0000 C   0  0
   -2.4915   -1.3190    0.0000 C   0  0
   -2.4915    1.5389    0.0000 C   0  0
   -1.2274    0.8244    0.0000 C   0  0
   -1.2274   -0.6045    0.0000 C   0  0
    0.0000   -1.3190    0.0000 N   0  0
    1.2274    0.8244    0.0000 C   0  0
    1.2274   -0.6045    0.0000 C   0  0
    2.4732   -1.3190    0.0000 C   0  0
    3.7372   -0.6045    0.0000 C   0  0  1  0  0  0
    3.7372    0.8244    0.0000 C   0  0
    2.4732    1.5389    0.0000 C   0  0
    5.0387   -1.3529    0.0000 C   0  0
    5.0406   -2.5529    0.0000 O   0  0
    6.0772   -0.7516    0.0000 O   0  0
   -4.7428    1.4191    0.0000 Br  0  0
    0.0031   -2.8205    0.0000 C   0  0
    1.3039   -3.5691    0.0000 C   0  0
    1.3070   -5.0699    0.0000 N   0  0
    2.3421   -2.9673    0.0000 O   0  0
    2.6078   -5.8185    0.0000 C   0  0  2  0  0  0
    2.6109   -7.3193    0.0000 C   0  0
    3.9078   -5.0685    0.0000 C   0  0
    3.9078   -3.8685    0.0000 O   0  0
    4.9472   -5.6681    0.0000 O   0  0
    3.9117   -8.0679    0.0000 C   0  0
    3.9170   -9.5679    0.0000 C   0  0
    5.2186  -10.3134    0.0000 C   0  0
    6.5151   -9.5589    0.0000 C   0  0
    6.5099   -8.0589    0.0000 C   0  0
    5.2083   -7.3134    0.0000 C   0  0
  1  2  2  0
  2  3  1  0
  3  6  2  0
  5  4  2  0
  4  1  1  0
  5  6  1  0
  6  7  1  0
  7  9  1  0
  8  5  1  0
  8  9  2  0
  8 13  1  0
  9 10  1  0
 10 11  1  0
 11 12  1  0
 12 13  1  0
 14 15  1  0
 14 16  2  0
 11 14  1  1
  1 17  1  0
  7 18  1  0
 18 19  1  0
 19 20  1  0
 19 21  2  0
 20 22  1  0
 22 23  1  1
 22 24  1  0
 24 25  1  0
 24 26  2  0
 23 27  1  0
 27 28  2  0
 28 29  1  0
 29 30  2  0
 30 31  1  0
 31 32  2  0
 32 27  1  0
M  END