
  Mrv0541 04051115152D          

  9 10  0  0  0  0            999 V2000
   14.2026    2.3397    0.0000 C   0  0  0  0  0  0  0  0  0  0  0  0
   14.2026    3.1647    0.0000 C   0  0  0  0  0  0  0  0  0  0  0  0
   14.9170    3.5772    0.0000 C   0  0  0  0  0  0  0  0  0  0  0  0
   15.6315    3.1647    0.0000 C   0  0  0  0  0  0  0  0  0  0  0  0
   15.6315    2.3397    0.0000 C   0  0  0  0  0  0  0  0  0  0  0  0
   14.9170    1.9272    0.0000 C   0  0  0  0  0  0  0  0  0  0  0  0
   13.4179    2.0848    0.0000 N   0  0  0  0  0  0  0  0  0  0  0  0
   13.4179    3.4196    0.0000 C   0  0  0  0  0  0  0  0  0  0  0  0
   12.9330    2.7522    0.0000 N   0  0  0  0  0  0  0  0  0  0  0  0
  1  2  1  0  0  0  0
  1  6  2  0  0  0  0
  1  7  1  0  0  0  0
  2  3  2  0  0  0  0
  2  8  1  0  0  0  0
  3  4  1  0  0  0  0
  4  5  2  0  0  0  0
  5  6  1  0  0  0  0
  7  9  1  0  0  0  0
  8  9  2  0  0  0  0
M  END