
  SciTegic05061116452D

 32 35  0  0  0  0            999 V2000
   -2.3471  -17.0453    0.0000 N   0  0
   -1.6354  -16.6367    0.0000 C   0  0
   -1.6354  -15.8117    0.0000 N   0  0
   -2.3471  -15.3952    0.0000 C   0  0
   -3.0588  -16.6367    0.0000 C   0  0
   -3.0588  -15.8071    0.0000 C   0  0
   -3.8477  -15.5506    0.0000 N   0  0
   -4.3355  -16.2218    0.0000 C   0  0
   -3.8478  -16.8929    0.0000 N   0  0
   -4.1028  -17.6776    0.0000 C   0  0
   -4.9098  -17.8491    0.0000 C   0  0
   -5.1648  -18.6337    0.0000 O   0  0
   -5.4618  -17.2359    0.0000 O   0  0
   -2.3451  -14.5702    0.0000 N   0  0
   -0.9214  -17.0500    0.0000 N   0  0
   -0.2064  -16.6383    0.0000 C   0  0
    0.5076  -17.0517    0.0000 C   0  0
   -1.6296  -14.1594    0.0000 C   0  0
    0.5020  -17.8751    0.0000 C   0  0
    1.2152  -18.2884    0.0000 C   0  0
    1.9311  -17.8767    0.0000 C   0  0
    1.9295  -17.0474    0.0000 C   0  0
    1.2158  -16.6378    0.0000 C   0  0
    2.6419  -18.2863    0.0000 C   0  0
    2.6400  -19.1123    0.0000 C   0  0
    3.3504  -19.5245    0.0000 C   0  0
    4.0672  -19.1156    0.0000 C   0  0
    4.0691  -18.2895    0.0000 C   0  0
    3.3541  -17.8726    0.0000 C   0  0
   -0.9161  -14.5737    0.0000 C   0  0
   -0.2007  -14.1628    0.0000 C   0  0
   -0.9181  -15.3987    0.0000 C   0  0
  2  3  1  0
 15 16  1  0
  6  7  1  0
 16 17  1  0
  7  8  2  0
 14 18  1  0
  8  9  1  0
 17 19  2  0
  9  5  1  0
 19 20  1  0
  3  4  2  0
 20 21  2  0
  9 10  1  0
 21 22  1  0
  5  6  2  0
 22 23  2  0
 23 17  1  0
 24 25  1  0
 10 11  1  0
 11 12  1  0
  6  4  1  0
 11 13  2  0
  5  1  1  0
 24 29  1  0
 25 26  1  0
 26 27  1  0
 27 28  1  0
 28 29  1  0
 21 24  1  0
  4 14  1  0
 18 30  1  0
  1  2  2  0
 30 31  1  0
  2 15  1  0
 30 32  1  0
M  END