
  SciTegic09291413392D

 36 39  0  0  0  0            999 V2000
   23.8965  -21.2380    0.0000 C   0  0
   23.8965  -22.0631    0.0000 C   0  0
   24.6084  -22.4713    0.0000 N   0  0
   25.3205  -22.0631    0.0000 C   0  0
   25.3205  -21.2380    0.0000 C   0  0  1  0  0  0
   24.6084  -20.8214    0.0000 C   0  0  2  0  0  0
   24.6089  -19.9972    0.0000 C   0  0
   25.3250  -19.5852    0.0000 C   0  0
   25.3254  -18.7610    0.0000 C   0  0
   24.6103  -18.3477    0.0000 C   0  0
   23.8935  -18.7647    0.0000 C   0  0
   23.8967  -19.5875    0.0000 C   0  0
   26.0401  -18.3488    0.0000 O   0  0
   26.0362  -20.8276    0.0000 C   0  0
   25.1881  -20.2338    0.0000 C   0  0
   24.6084  -23.2964    0.0000 C   0  0
   25.3229  -23.7089    0.0000 C   0  0
   26.0375  -23.2964    0.0000 O   0  0
   26.7519  -23.7089    0.0000 C   0  0
   27.4664  -23.2964    0.0000 C   0  0  1  0  0  0
   26.7519  -24.5339    0.0000 O   0  0
   28.1750  -23.7119    0.0000 C   0  0
   28.1773  -22.0628    0.0000 C   0  0
   27.4587  -22.4735    0.0000 N   0  0
   28.8917  -22.4775    0.0000 C   0  0
   28.8857  -23.2988    0.0000 C   0  0
   29.5928  -23.7127    0.0000 C   0  0
   30.3063  -23.3067    0.0000 C   0  0
   30.3083  -22.4822    0.0000 C   0  0
   29.6006  -22.0719    0.0000 C   0  0
   31.0237  -22.0712    0.0000 O   0  0
   25.3229  -24.5339    0.0000 C   0  0
   24.6084  -24.9464    0.0000 O   0  0
   26.0375  -24.9464    0.0000 O   0  0
   23.8939  -24.5339    0.0000 C   0  0
   23.1794  -24.9464    0.0000 C   0  0
  1  2  1  0
  1  6  1  0
  2  3  1  0
  3  4  1  0
  4  5  1  0
  5  6  1  0
  7  8  2  0
  8  9  1  0
  9 10  2  0
 10 11  1  0
 11 12  2  0
 12  7  1  0
  6  7  1  1
  9 13  1  0
  5 14  1  1
  6 15  1  0
  3 16  1  0
 16 17  1  0
 17 18  1  0
 18 19  1  0
 20 19  1  6
 19 21  2  0
 20 22  1  0
 20 24  1  0
 22 26  1  0
 25 23  1  0
 23 24  1  0
 25 26  2  0
 26 27  1  0
 27 28  2  0
 28 29  1  0
 29 30  2  0
 30 25  1  0
 29 31  1  0
 17 32  1  0
 32 33  1  0
 32 34  2  0
 33 35  1  0
 35 36  1  0
M  END