
  SciTegic12231509382D

 35 38  0  0  0  0            999 V2000
    9.5242  -15.2872    0.0000 C   0  0
    9.5231  -16.1068    0.0000 C   0  0
   10.2311  -16.5157    0.0000 N   0  0
   10.9408  -16.1063    0.0000 C   0  0
   10.9380  -15.2836    0.0000 N   0  0
   10.2293  -14.8784    0.0000 C   0  0
   11.6491  -16.5138    0.0000 N   0  0
   12.3562  -16.1041    0.0000 C   0  0
   13.0612  -16.5120    0.0000 C   0  0
   13.7678  -16.1030    0.0000 C   0  0
   13.7670  -15.2849    0.0000 C   0  0
   13.0536  -14.8776    0.0000 C   0  0
   12.3500  -15.2889    0.0000 C   0  0
    8.8150  -16.5148    0.0000 C   0  0
    8.1093  -16.1042    0.0000 C   0  0
    7.4017  -16.5116    0.0000 C   0  0
    7.4006  -17.3296    0.0000 C   0  0
    8.1130  -17.7386    0.0000 C   0  0
    8.8176  -17.3289    0.0000 C   0  0
    6.6932  -17.7386    0.0000 Cl  0  0
   10.2269  -14.0612    0.0000 C   0  0
   10.9322  -13.6539    0.0000 C   0  0
   10.9301  -12.8375    0.0000 C   0  0
   10.2206  -12.4302    0.0000 C   0  0
    9.5118  -12.8453    0.0000 C   0  0
    9.5174  -13.6603    0.0000 C   0  0
   10.2171  -11.6130    0.0000 Cl  0  0
   14.4760  -16.5108    0.0000 O   0  0
   15.1832  -16.1014    0.0000 C   0  0
   15.8914  -16.5092    0.0000 C   0  0
   16.5986  -16.0999    0.0000 N   0  0
   17.3068  -16.5077    0.0000 C   0  0
   16.5978  -15.2827    0.0000 C   0  0
   17.3050  -14.8733    0.0000 C   0  0
   18.0141  -16.0983    0.0000 C   0  0
  1  2  2  0
  2  3  1  0
  3  4  2  0
  4  5  1  0
  5  6  2  0
  6  1  1  0
  4  7  1  0
  7  8  1  0
  8  9  2  0
  9 10  1  0
 10 11  2  0
 11 12  1  0
 12 13  2  0
 13  8  1  0
  2 14  1  0
 14 15  2  0
 15 16  1  0
 16 17  2  0
 17 18  1  0
 18 19  2  0
 19 14  1  0
 17 20  1  0
  6 21  1  0
 21 22  2  0
 22 23  1  0
 23 24  2  0
 24 25  1  0
 25 26  2  0
 26 21  1  0
 24 27  1  0
 10 28  1  0
 28 29  1  0
 29 30  1  0
 30 31  1  0
 31 32  1  0
 31 33  1  0
 33 34  1  0
 32 35  1  0
M  END