
  SciTegic04071410272D

 27 30  0  0  0  0            999 V2000
   11.9919    1.8032    0.0000 C   0  0  1  0  0  0
   13.0589    1.0013    0.0000 C   0  0  2  0  0  0
   12.5427    1.4300    0.0000 C   0  0
   11.5710    1.4300    0.0000 C   0  0  1  0  0  0
   11.4313    2.2431    0.0000 N   0  0
   12.9207    1.8187    0.0000 C   0  0
   11.0511    0.7177    0.0000 C   0  0
   11.6714    1.0946    0.0000 C   0  0
   11.0087    2.9516    0.0000 C   0  0
   13.4707    0.2864    0.0000 C   0  0
   13.0575   -0.4276    0.0000 C   0  0
   12.6443   -1.1417    0.0000 C   0  0
   13.7715   -0.8409    0.0000 C   0  0
   14.4864   -0.4291    0.0000 C   0  0
   15.2005   -0.8423    0.0000 C   0  0
   15.1997   -1.6673    0.0000 C   0  0
   14.4848   -2.0791    0.0000 C   0  0
   13.7707   -1.6659    0.0000 C   0  0
   13.0561   -1.8566    0.0000 C   0  0
   12.6429   -2.5707    0.0000 C   0  0
   11.8179   -2.5698    0.0000 C   0  0
   11.4061   -1.8550    0.0000 C   0  0
   11.8193   -1.1409    0.0000 C   0  0
   11.8020    2.6060    0.0000 H   0  0
   10.9682    1.9933    0.0000 H   0  0
   12.3434   -0.0144    0.0000 C   0  0
   11.6293    0.3988    0.0000 N   0  0
  3  4  1  0
  4  5  1  0
  1  5  1  0
  1  6  1  0
  6  2  1  0
  4  7  1  0
  1  8  1  0
  7  8  1  0
  5  9  1  0
  2 10  1  6
 10 11  1  0
 11 12  1  0
 11 13  1  0
 13 14  2  0
 14 15  1  0
 15 16  2  0
 16 17  1  0
 17 18  2  0
 18 13  1  0
 12 19  2  0
 19 20  1  0
 20 21  2  0
 21 22  1  0
 22 23  2  0
 23 12  1  0
  1 24  1  6
  4 25  1  1
  2  3  1  0
 26 27  3  0
 11 26  1  0
M  END