
  SciTegic06051313522D

 31 34  0  0  0  0            999 V2000
    9.7735   -3.5742    0.0000 C   0  0
    9.7723   -4.4016    0.0000 C   0  0
   10.4871   -4.8145    0.0000 N   0  0
   11.2036   -4.4011    0.0000 C   0  0
   11.2007   -3.5706    0.0000 C   0  0
   10.4853   -3.1615    0.0000 C   0  0
   10.4800   -2.3393    0.0000 C   0  0
   11.1949   -1.9253    0.0000 C   0  0
   11.1928   -1.1011    0.0000 C   0  0
   10.4766   -0.6836    0.0000 C   0  0
    9.7610   -1.1090    0.0000 C   0  0
    9.7666   -1.9318    0.0000 C   0  0
   11.9187   -4.8125    0.0000 N   0  0
   12.6325   -4.3989    0.0000 C   0  0
   13.3443   -4.8107    0.0000 C   0  0
   14.0576   -4.3978    0.0000 C   0  0
   14.0568   -3.5719    0.0000 C   0  0
   13.3366   -3.1607    0.0000 C   0  0
   12.6262   -3.5760    0.0000 C   0  0
   14.7684   -3.1607    0.0000 N   0  0
   15.4839   -3.5734    0.0000 C   0  0
   16.1951   -3.1623    0.0000 C   0  0
   16.1969   -2.3370    0.0000 N   0  0
   15.4814   -1.9243    0.0000 C   0  0
   14.7641   -2.3371    0.0000 C   0  0
   11.9062   -0.6867    0.0000 C   0  0
   12.6217   -1.0975    0.0000 C   0  0
   13.3393   -1.5116    0.0000 N   0  0
   14.7725   -4.8095    0.0000 O   0  0
   14.7734   -5.6345    0.0000 C   0  0
   16.9118   -1.9251    0.0000 C   0  0
  1  2  2  0
  2  3  1  0
  3  4  2  0
  4  5  1  0
  5  6  2  0
  6  1  1  0
  7  8  2  0
  8  9  1  0
  9 10  2  0
 10 11  1  0
 11 12  2  0
 12  7  1  0
  6  7  1  0
  4 13  1  0
 13 14  1  0
 14 15  2  0
 15 16  1  0
 16 17  2  0
 17 18  1  0
 18 19  2  0
 19 14  1  0
 20 21  1  0
 20 25  1  0
 21 22  1  0
 22 23  1  0
 23 24  1  0
 24 25  1  0
 17 20  1  0
  9 26  1  0
 26 27  1  0
 27 28  3  0
 16 29  1  0
 29 30  1  0
 23 31  1  0
M  END