
  SciTegic01091216402D

 32 36  0  0  0  0            999 V2000
    7.7236   -5.6403    0.0000 C   0  0
    8.3946   -5.1591    0.0000 C   0  0
    7.0581   -5.1508    0.0000 N   0  0
    7.3179   -4.3665    0.0000 C   0  0
    8.1400   -4.3715    0.0000 C   0  0
    8.5536   -3.6632    0.0000 N   0  0
    6.9111   -3.6573    0.0000 N   0  0
    7.3208   -2.9483    0.0000 C   0  0
    8.1461   -2.9514    0.0000 C   0  0
    8.5596   -2.2394    0.0000 C   0  0
    8.1490   -1.5238    0.0000 C   0  0
    7.3206   -1.5246    0.0000 C   0  0
    6.9109   -2.2373    0.0000 C   0  0
    6.3419   -5.5612    0.0000 C   0  0
    7.7187   -6.4661    0.0000 N   0  0
    9.1105   -5.5705    0.0000 C   0  0
    9.1122   -6.3963    0.0000 N   0  0
    9.8248   -5.1561    0.0000 O   0  0
    9.8283   -6.8077    0.0000 C   0  0
    9.8300   -7.6334    0.0000 C   0  0
    9.1163   -8.0458    0.0000 C   0  0
    9.1177   -8.8708    0.0000 C   0  0
    9.8343   -9.2830    0.0000 C   0  0
   10.5509   -8.8642    0.0000 C   0  0
   10.5460   -8.0405    0.0000 C   0  0
    5.6312   -5.1426    0.0000 C   0  0
    4.9152   -5.5523    0.0000 C   0  0
    4.9118   -6.3789    0.0000 C   0  0
    5.6305   -6.7942    0.0000 C   0  0
    6.3436   -6.3822    0.0000 C   0  0
    4.2016   -5.1366    0.0000 O   0  0
    9.8372  -10.1080    0.0000 C   0  0
  4  3  1  0
  1 15  1  0
  8  7  2  0
  2 16  1  0
  7  4  1  0
 16 17  1  0
  3  1  1  0
 16 18  2  0
  1  2  2  0
 17 19  1  0
  8  9  1  0
 19 20  1  0
 20 21  2  0
  9 10  1  0
 21 22  1  0
  4  5  2  0
 22 23  2  0
 10 11  2  0
 23 24  1  0
  2  5  1  0
 24 25  2  0
 25 20  1  0
 11 12  1  0
 14 26  2  0
  5  6  1  0
 26 27  1  0
 12 13  2  0
 27 28  2  0
 13  8  1  0
 28 29  1  0
  6  9  2  0
 29 30  2  0
 30 14  1  0
  3 14  1  0
 27 31  1  0
 23 32  1  0
M  END