
          11280715052D 1   1.00000     0.00000     0

 44 49  0     0  0            999 V2000
    4.3792   -3.6667    0.0000 N   0  0  3  0  0  0           0  0  0
    4.9917   -3.2292    0.0000 C   0  0  0  0  0  0           0  0  0
    4.7542   -2.5042    0.0000 N   0  0  3  0  0  0           0  0  0
    4.0042   -2.5042    0.0000 N   0  0  0  0  0  0           0  0  0
    3.7750   -3.2292    0.0000 C   0  0  0  0  0  0           0  0  0
    7.6250   -4.7917    0.0000 C   0  0  0  0  0  0           0  0  0
    7.0167   -4.3542    0.0000 N   0  0  0  0  0  0           0  0  0
    7.2500   -3.6417    0.0000 N   0  0  0  0  0  0           0  0  0
    8.2375   -4.3542    0.0000 N   0  0  0  0  0  0           0  0  0
    8.0042   -3.6375    0.0000 N   0  0  0  0  0  0           0  0  0
    5.2000   -1.9000    0.0000 C   0  0  0  0  0  0           0  0  0
    7.6375   -5.5417    0.0000 C   0  0  0  0  0  0           0  0  0
    6.9792   -5.9250    0.0000 C   0  0  0  0  0  0           0  0  0
    4.3792   -4.4167    0.0000 C   0  0  0  0  0  0           0  0  0
    5.7000   -3.4542    0.0000 O   0  0  0  0  0  0           0  0  0
    4.8875   -1.2250    0.0000 C   0  0  3  0  0  0           0  0  0
    6.3375   -5.5417    0.0000 C   0  0  0  0  0  0           0  0  0
    5.3250   -0.6042    0.0000 O   0  0  0  0  0  0           0  0  0
    4.1375   -1.1500    0.0000 C   0  0  0  0  0  0           0  0  0
    6.3417   -4.7917    0.0000 C   0  0  0  0  0  0           0  0  0
    5.6917   -5.9250    0.0000 C   0  0  0  0  0  0           0  0  0
    5.0375   -4.7917    0.0000 C   0  0  0  0  0  0           0  0  0
    6.0750   -0.6792    0.0000 C   0  0  0  0  0  0           0  0  0
    3.0667   -3.4625    0.0000 C   0  0  0  0  0  0           0  0  0
    5.0417   -5.5417    0.0000 C   0  0  0  0  0  0           0  0  0
    5.6792   -4.4167    0.0000 C   0  0  0  0  0  0           0  0  0
    6.5125   -0.0667    0.0000 C   0  0  0  0  0  0           0  0  0
    8.2792   -5.9250    0.0000 C   0  0  0  0  0  0           0  0  0
    6.9792   -6.6750    0.0000 C   0  0  0  0  0  0           0  0  0
    3.8292   -0.4667    0.0000 C   0  0  0  0  0  0           0  0  0
    3.7042   -1.7542    0.0000 C   0  0  0  0  0  0           0  0  0
    7.2625   -0.1417    0.0000 C   0  0  0  0  0  0           0  0  0
    6.2000    0.6083    0.0000 C   0  0  0  0  0  0           0  0  0
    2.5000   -2.9625    0.0000 C   0  0  0  0  0  0           0  0  0
    1.7875   -3.2000    0.0000 C   0  0  0  0  0  0           0  0  0
    8.2792   -6.6750    0.0000 C   0  0  0  0  0  0           0  0  0
    7.6375   -7.0500    0.0000 C   0  0  0  0  0  0           0  0  0
    1.2167   -2.7000    0.0000 C   0  0  0  0  0  0           0  0  0
    2.9542   -1.6917    0.0000 C   0  0  0  0  0  0           0  0  0
    3.0792   -0.3917    0.0000 C   0  0  0  0  0  0           0  0  0
    6.6292    1.2208    0.0000 C   0  0  0  0  0  0           0  0  0
    7.6917    0.4625    0.0000 C   0  0  0  0  0  0           0  0  0
    2.6417   -1.0042    0.0000 C   0  0  0  0  0  0           0  0  0
    7.3792    1.1583    0.0000 C   0  0  0  0  0  0           0  0  0
  2  1  1  0     0  0
  3  2  1  0     0  0
  4  5  2  0     0  0
  5  1  1  0     0  0
  6 12  1  0     0  0
  7  6  1  0     0  0
  8  7  2  0     0  0
  9  6  2  0     0  0
 10  9  1  0     0  0
 11  3  1  0     0  0
 12 13  1  0     0  0
 13 17  1  0     0  0
 14  1  1  0     0  0
 15  2  2  0     0  0
 16 11  1  0     0  0
 17 20  2  0     0  0
 18 16  1  0     0  0
 19 16  1  0     0  0
 20 26  1  0     0  0
 21 25  2  0     0  0
 22 14  1  0     0  0
 23 18  1  0     0  0
 24  5  1  0     0  0
 25 22  1  0     0  0
 26 22  2  0     0  0
 27 23  1  0     0  0
 28 12  2  0     0  0
 29 13  2  0     0  0
 30 19  2  0     0  0
 31 19  1  0     0  0
 32 27  2  0     0  0
 33 27  1  0     0  0
 34 24  1  0     0  0
 35 34  1  0     0  0
 36 37  2  0     0  0
 37 29  1  0     0  0
 38 35  1  0     0  0
 39 31  2  0     0  0
 40 30  1  0     0  0
 41 33  2  0     0  0
 42 32  1  0     0  0
 43 39  1  0     0  0
 44 41  1  0     0  0
  3  4  1  0     0  0
 21 17  1  0     0  0
 40 43  2  0     0  0
 36 28  1  0     0  0
 10  8  1  0     0  0
 42 44  2  0     0  0
M  END