
  SciTegic01161211252D

 26 29  0  0  0  0            999 V2000
   10.9532   -7.9583    0.0000 N   0  0
   11.6671   -8.3719    0.0000 C   0  0
   11.6659   -9.1969    0.0000 O   0  0
   12.3821   -7.9604    0.0000 C   0  0
   13.0944   -8.3748    0.0000 C   0  0
   13.8089   -7.9640    0.0000 N   0  0
   13.8106   -7.1382    0.0000 C   0  0
   13.0917   -6.7248    0.0000 C   0  0
   12.3800   -7.1379    0.0000 C   0  0
   14.5251   -6.7258    0.0000 S   0  0
   15.2395   -7.1383    0.0000 C   0  0
   15.2346   -7.9636    0.0000 C   0  0
   15.9482   -8.3761    0.0000 C   0  0
   16.6637   -7.9636    0.0000 C   0  0
   16.6612   -7.1343    0.0000 C   0  0
   15.9470   -6.7256    0.0000 C   0  0
   10.2703   -8.4212    0.0000 C   0  0
    9.4799   -8.1780    0.0000 C   0  0
   11.0120   -7.1358    0.0000 C   0  0
    9.1755   -7.4125    0.0000 N   0  0
   10.4057   -6.5742    0.0000 C   0  0
    9.5894   -6.7003    0.0000 C   0  0
    8.3508   -7.4127    0.0000 C   0  0
    7.7690   -6.8278    0.0000 C   0  0
    7.1841   -7.4096    0.0000 C   0  0
    7.7659   -7.9945    0.0000 C   0  0
 12 13  1  0
  6  7  2  0
 13 14  2  0
  2  4  1  0
 14 15  1  0
  7  8  1  0
 15 16  2  0
 16 11  1  0
  1 17  1  0
  8  9  2  0
 17 18  1  0
  9  4  1  0
  1 19  1  0
  4  5  2  0
 18 20  1  0
  7 10  1  0
 19 21  1  0
  2  3  2  0
 20 22  1  0
 21 22  1  0
 23 24  1  0
 10 11  1  0
  5  6  1  0
 11 12  2  0
  1  2  1  0
 24 25  1  0
 25 26  1  0
 26 23  1  0
 20 23  1  0
M  END