
  CDK    9/16/09,9:50

 36 39  0  0  0  0  0  0  0  0999 V2000
   10.2361   -5.9708    0.0000 C   0  0  0  0  0  0  0  0  0  0  0  0
   10.2349   -6.7982    0.0000 C   0  0  0  0  0  0  0  0  0  0  0  0
   10.9497   -7.2110    0.0000 C   0  0  0  0  0  0  0  0  0  0  0  0
   10.9479   -5.5580    0.0000 C   0  0  0  0  0  0  0  0  0  0  0  0
   11.6633   -5.9672    0.0000 C   0  0  0  0  0  0  0  0  0  0  0  0
   11.6636   -6.7982    0.0000 C   0  0  0  0  0  0  0  0  0  0  0  0
   12.4540   -7.0548    0.0000 N   0  0  0  0  0  0  0  0  0  0  0  0
   12.9424   -6.3823    0.0000 C   0  0  0  0  0  0  0  0  0  0  0  0
   12.4536   -5.7102    0.0000 N   0  0  0  0  0  0  0  0  0  0  0  0
   13.7674   -6.3820    0.0000 C   0  0  0  0  0  0  0  0  0  0  0  0
   14.1796   -5.6674    0.0000 C   0  0  0  0  0  0  0  0  0  0  0  0
   15.0046   -5.6671    0.0000 C   0  0  0  0  0  0  0  0  0  0  0  0
   15.4169   -4.9525    0.0000 C   0  0  0  0  0  0  0  0  0  0  0  0
   12.8583   -7.7667    0.0000 C   0  0  0  0  0  0  0  0  0  0  0  0
   13.6833   -7.7725    0.0000 C   0  0  0  0  0  0  0  0  0  0  0  0
   14.0881   -8.4907    0.0000 C   0  0  0  0  0  0  0  0  0  0  0  0
   14.9123   -8.4969    0.0000 C   0  0  0  0  0  0  0  0  0  0  0  0
   15.3306   -7.7848    0.0000 C   0  0  0  0  0  0  0  0  0  0  0  0
   14.9188   -7.0651    0.0000 C   0  0  0  0  0  0  0  0  0  0  0  0
   14.0959   -7.0624    0.0000 C   0  0  0  0  0  0  0  0  0  0  0  0
   16.1521   -7.7892    0.0000 C   0  0  0  0  0  0  0  0  0  0  0  0
   16.5599   -8.5076    0.0000 C   0  0  0  0  0  0  0  0  0  0  0  0
   17.3841   -8.5127    0.0000 C   0  0  0  0  0  0  0  0  0  0  0  0
   17.8015   -7.8001    0.0000 C   0  0  0  0  0  0  0  0  0  0  0  0
   17.3887   -7.0809    0.0000 C   0  0  0  0  0  0  0  0  0  0  0  0
   16.5658   -7.0793    0.0000 C   0  0  0  0  0  0  0  0  0  0  0  0
   16.1423   -9.2231    0.0000 C   0  0  0  0  0  0  0  0  0  0  0  0
   15.3174   -9.2176    0.0000 O   0  0  0  0  0  0  0  0  0  0  0  0
   16.5500   -9.9404    0.0000 O   0  0  0  0  0  0  0  0  0  0  0  0
    9.5215   -5.5585    0.0000 N   0  0  0  0  0  0  0  0  0  0  0  0
    8.8071   -5.9711    0.0000 C   0  0  0  0  0  0  0  0  0  0  0  0
    8.0926   -5.5588    0.0000 C   0  0  0  0  0  0  0  0  0  0  0  0
    8.8073   -6.7961    0.0000 O   0  0  0  0  0  0  0  0  0  0  0  0
    8.0924   -4.7338    0.0000 C   0  0  0  0  0  0  0  0  0  0  0  0
    7.3778   -4.3215    0.0000 C   0  0  0  0  0  0  0  0  0  0  0  0
    7.3776   -3.4965    0.0000 C   0  0  0  0  0  0  0  0  0  0  0  0
  7  8  1  0  0  0  0 
 17 18  2  0  0  0  0 
  8  9  2  0  0  0  0 
 18 19  1  0  0  0  0 
  9  5  1  0  0  0  0 
 19 20  2  0  0  0  0 
 20 15  1  0  0  0  0 
  4  1  1  0  0  0  0 
  8 10  1  0  0  0  0 
 21 22  2  0  0  0  0 
  5  6  1  0  0  0  0 
 22 23  1  0  0  0  0 
 10 11  1  0  0  0  0 
 23 24  2  0  0  0  0 
 24 25  1  0  0  0  0 
 11 12  1  0  0  0  0 
 25 26  2  0  0  0  0 
 26 21  1  0  0  0  0 
 18 21  1  0  0  0  0 
  2  3  1  0  0  0  0 
 12 13  1  0  0  0  0 
  3  6  2  0  0  0  0 
 27 28  1  0  0  0  0 
 27 29  2  0  0  0  0 
 22 27  1  0  0  0  0 
  7 14  1  0  0  0  0 
  1 30  1  0  0  0  0 
  1  2  2  0  0  0  0 
 30 31  1  0  0  0  0 
 14 15  1  0  0  0  0 
 31 32  1  0  0  0  0 
  5  4  2  0  0  0  0 
 31 33  2  0  0  0  0 
 15 16  2  0  0  0  0 
 32 34  1  0  0  0  0 
  6  7  1  0  0  0  0 
 34 35  1  0  0  0  0 
 16 17  1  0  0  0  0 
 35 36  1  0  0  0  0 
M  END