
  CDK    9/16/09,10:7

 25 27  0  0  0  0  0  0  0  0999 V2000
   18.2884   -1.7175    0.0000 C   0  0  0  0  0  0  0  0  0  0  0  0
   17.5807   -1.2990    0.0000 N   0  0  0  0  0  0  0  0  0  0  0  0
   17.5860   -0.4733    0.0000 C   0  0  0  0  0  0  0  0  0  0  0  0
   16.8623   -1.7046    0.0000 C   0  0  0  0  0  0  0  0  0  0  0  0
   16.8551   -2.5267    0.0000 C   0  0  0  0  0  0  0  0  0  0  0  0
   16.1365   -2.9323    0.0000 C   0  0  0  0  0  0  0  0  0  0  0  0
   15.4290   -2.5138    0.0000 C   0  0  0  0  0  0  0  0  0  0  0  0
   15.4341   -1.6881    0.0000 C   0  0  0  0  0  0  0  0  0  0  0  0
   16.1526   -1.2825    0.0000 C   0  0  0  0  0  0  0  0  0  0  0  0
   14.7104   -2.9194    0.0000 C   0  0  0  0  0  0  0  0  0  0  0  0
   14.7032   -3.7415    0.0000 C   0  0  0  0  0  0  0  0  0  0  0  0
   13.9847   -4.1470    0.0000 C   0  0  0  0  0  0  0  0  0  0  0  0
   13.9775   -4.9692    0.0000 N   0  0  0  0  0  0  0  0  0  0  0  0
   13.2590   -5.3747    0.0000 C   0  0  0  0  0  0  0  0  0  0  0  0
   12.5514   -4.9562    0.0000 C   0  0  0  0  0  0  0  0  0  0  0  0
   12.5587   -4.1342    0.0000 C   0  0  0  0  0  0  0  0  0  0  0  0
   13.2772   -3.7285    0.0000 C   0  0  0  0  0  0  0  0  0  0  0  0
   13.2823   -2.9028    0.0000 C   0  0  0  0  0  0  0  0  0  0  0  0
   12.5748   -2.4843    0.0000 N   0  0  0  0  0  0  0  0  0  0  0  0
   11.8562   -2.8900    0.0000 C   0  0  0  0  0  0  0  0  0  0  0  0
   11.1487   -2.4715    0.0000 C   0  0  0  0  0  0  0  0  0  0  0  0
   10.4302   -2.8771    0.0000 C   0  0  0  0  0  0  0  0  0  0  0  0
    9.7226   -2.4586    0.0000 C   0  0  0  0  0  0  0  0  0  0  0  0
    9.0041   -2.8641    0.0000 N   0  0  0  0  0  0  0  0  0  0  0  0
   14.0009   -2.4973    0.0000 N   0  0  0  0  0  0  0  0  0  0  0  0
  1  2  1  0  0  0  0 
  2  3  1  0  0  0  0 
  2  4  1  0  0  0  0 
  4  5  2  0  0  0  0 
  5  6  1  0  0  0  0 
  6  7  2  0  0  0  0 
  7  8  1  0  0  0  0 
  8  9  2  0  0  0  0 
  4  9  1  0  0  0  0 
  7 10  1  0  0  0  0 
 10 11  2  0  0  0  0 
 11 12  1  0  0  0  0 
 12 13  1  0  0  0  0 
 13 14  2  0  0  0  0 
 14 15  1  0  0  0  0 
 15 16  2  0  0  0  0 
 16 17  1  0  0  0  0 
 12 17  2  0  0  0  0 
 17 18  1  0  0  0  0 
 18 19  1  0  0  0  0 
 19 20  1  0  0  0  0 
 20 21  1  0  0  0  0 
 21 22  1  0  0  0  0 
 22 23  1  0  0  0  0 
 23 24  1  0  0  0  0 
 18 25  2  0  0  0  0 
 10 25  1  0  0  0  0 
M  END