
  SciTegic10011413212D

 32 34  0  0  0  0            999 V2000
   23.0706   -5.3333    0.0000 C   0  0
   23.7851   -4.9208    0.0000 C   0  0
   23.0706   -6.1582    0.0000 O   0  0
   22.3562   -6.5707    0.0000 N   0  0
   22.3562   -7.3957    0.0000 C   0  0
   23.0622   -7.8150    0.0000 C   0  0
   23.0419   -8.6408    0.0000 C   0  0
   23.7468   -9.0680    0.0000 C   0  0
   24.4706   -8.6706    0.0000 C   0  0
   24.4854   -7.8414    0.0000 C   0  0
   23.7798   -7.4179    0.0000 C   0  0
   25.2069   -7.4415    0.0000 O   0  0
   25.1769   -9.0970    0.0000 O   0  0
   24.4981   -5.3380    0.0000 C   0  0
   25.2121   -4.9261    0.0000 C   0  0
   25.2125   -4.1003    0.0000 C   0  0
   24.4930   -3.6879    0.0000 C   0  0
   23.7819   -4.1021    0.0000 C   0  0
   21.6416   -6.1582    0.0000 C   0  0
   21.6439   -5.3323    0.0000 O   0  0
   20.9335   -4.9199    0.0000 C   0  0  1  0  0  0
   20.2166   -5.3289    0.0000 C   0  0  2  0  0  0
   20.2146   -6.1549    0.0000 C   0  0  1  0  0  0
   20.9296   -6.5718    0.0000 C   0  0  1  0  0  0
   19.4987   -6.5649    0.0000 O   0  0
   19.5037   -4.9137    0.0000 O   0  0
   20.9366   -4.0949    0.0000 C   0  0
   21.6527   -3.6851    0.0000 O   0  0
   20.9288   -7.3968    0.0000 N   0  0
   20.2139   -7.8086    0.0000 C   0  0
   20.2132   -8.6336    0.0000 C   0  0
   19.4999   -7.3955    0.0000 O   0  0
  1  2  1  0
  1  3  1  0
  3  4  1  0
  4  5  1  0
  5  6  1  0
  6  7  2  0
  7  8  1  0
  8  9  2  0
  9 10  1  0
 10 11  2  0
 11  6  1  0
 10 12  1  0
  9 13  1  0
  2 14  2  0
 14 15  1  0
 15 16  2  0
 16 17  1  0
 17 18  2  0
 18  2  1  0
 19  4  1  0
 19 20  1  0
 19 24  1  0
 20 21  1  0
 21 22  1  0
 22 23  1  0
 23 24  1  0
 23 25  1  1
 22 26  1  6
 21 27  1  1
 27 28  1  0
 24 29  1  6
 29 30  1  0
 30 31  1  0
 30 32  2  0
M  END