
          11280715202D 1   1.00000     0.00000     0

 19 20  0     0  0            999 V2000
    0.9417   -1.3792    0.0000 N   0  0  0  0  0  0           0  0  0
    7.5417   -1.4500    0.0000 C   0  0  0  0  0  0           0  0  0
    0.5292   -2.6542    0.0000 N   0  0  0  0  0  0           0  0  0
    0.2792   -1.8667    0.0000 C   0  0  0  0  0  0           0  0  0
    1.6125   -1.8667    0.0000 C   0  0  0  0  0  0           0  0  0
    6.7625   -1.7042    0.0000 C   0  0  0  0  0  0           0  0  0
    1.3542   -2.6542    0.0000 C   0  0  0  0  0  0           0  0  0
    7.7042   -0.6250    0.0000 O   0  0  0  0  0  0           0  0  0
    6.5875   -2.5125    0.0000 C   0  0  0  0  0  0           0  0  0
    6.1417   -1.1500    0.0000 C   0  0  0  0  0  0           0  0  0
    8.1417   -2.0000    0.0000 O   0  0  0  0  0  0           0  0  0
    5.1917   -2.2125    0.0000 C   0  0  0  0  0  0           0  0  0
    5.3625   -1.4042    0.0000 C   0  0  0  0  0  0           0  0  0
    5.8042   -2.7667    0.0000 C   0  0  0  0  0  0           0  0  0
    4.4042   -2.4667    0.0000 O   0  0  0  0  0  0           0  0  0
    2.4000   -1.6125    0.0000 C   0  0  0  0  0  0           0  0  0
    3.7917   -1.9125    0.0000 C   0  0  0  0  0  0           0  0  0
    8.9292   -1.7542    0.0000 C   0  0  0  0  0  0           0  0  0
    3.0042   -2.1667    0.0000 C   0  0  0  0  0  0           0  0  0
  2  6  1  0     0  0
  3  4  1  0     0  0
  4  1  2  0     0  0
  5  1  1  0     0  0
  6  9  2  0     0  0
  7  5  2  0     0  0
  8  2  2  0     0  0
  9 14  1  0     0  0
 10 13  2  0     0  0
 11  2  1  0     0  0
 12 15  1  0     0  0
 13 12  1  0     0  0
 14 12  2  0     0  0
 15 17  1  0     0  0
 16  5  1  0     0  0
 17 19  1  0     0  0
 18 11  1  0     0  0
 19 16  1  0     0  0
  7  3  1  0     0  0
  6 10  1  0     0  0
M  END