
          11280715182D 1   1.00000     0.00000     0

 16 17  0     0  0            999 V2000
    6.9042   -6.7500    0.0000 C   0  0  0  0  0  0           0  0  0
    6.3875   -6.4500    0.0000 C   0  0  0  0  0  0           0  0  0
    6.9125   -7.3500    0.0000 O   0  0  0  0  0  0           0  0  0
    4.8292   -5.5500    0.0000 O   0  0  0  0  0  0           0  0  0
    6.3875   -5.8417    0.0000 C   0  0  0  0  0  0           0  0  0
    5.8667   -6.7500    0.0000 C   0  0  0  0  0  0           0  0  0
    5.3500   -5.8500    0.0000 C   0  0  0  0  0  0           0  0  0
    7.4250   -6.4417    0.0000 O   0  0  0  0  0  0           0  0  0
    5.3500   -6.4500    0.0000 C   0  0  0  0  0  0           0  0  0
    5.8667   -5.5417    0.0000 C   0  0  0  0  0  0           0  0  0
    4.3125   -5.8500    0.0000 C   0  0  0  0  0  0           0  0  0
    3.7917   -5.5500    0.0000 C   0  0  0  0  0  0           0  0  0
    4.3125   -6.4417    0.0000 C   0  0  0  0  0  0           0  0  0
    3.7917   -6.7500    0.0000 C   0  0  0  0  0  0           0  0  0
    3.2667   -5.8417    0.0000 C   0  0  0  0  0  0           0  0  0
    3.2667   -6.4500    0.0000 C   0  0  0  0  0  0           0  0  0
  2  1  1  0     0  0
  3  1  2  0     0  0
  4  7  1  0     0  0
  5  2  1  0     0  0
  6  2  2  0     0  0
  7  9  2  0     0  0
  8  1  1  0     0  0
  9  6  1  0     0  0
 10  5  2  0     0  0
 11  4  1  0     0  0
 12 11  1  0     0  0
 13 11  2  0     0  0
 14 13  1  0     0  0
 15 12  2  0     0  0
 16 14  2  0     0  0
 10  7  1  0     0  0
 15 16  1  0     0  0
M  END