
  SciTegic11041415542D

 14 15  0  0  0  0            999 V2000
    9.6361  -21.7750    0.0000 C   0  0
    9.6349  -22.6023    0.0000 C   0  0
   10.3497  -23.0152    0.0000 C   0  0
   10.3479  -21.3622    0.0000 C   0  0
   11.0633  -21.7713    0.0000 C   0  0
   11.0621  -22.5998    0.0000 C   0  0
   11.7751  -23.0128    0.0000 S   0  0
   12.4938  -22.6018    0.0000 N   0  0
   12.4949  -21.7733    0.0000 C   0  0
   11.7774  -21.3558    0.0000 N   0  0
   11.1875  -23.5958    0.0000 O   0  0
   12.3583  -23.5958    0.0000 O   0  0
   13.2104  -21.3626    0.0000 C   0  0
    8.9201  -23.0143    0.0000 Cl  0  0
  1  2  2  0
  5  4  2  0
  4  1  1  0
  5 10  1  0
  6  7  1  0
  7  8  1  0
  8  9  2  0
  9 10  1  0
  5  6  1  0
  7 11  2  0
  7 12  2  0
  2  3  1  0
  9 13  1  0
  3  6  2  0
  2 14  1  0
M  END