
  SciTegic06051313522D

 32 36  0  0  0  0            999 V2000
   21.7729  -26.9122    0.0000 C   0  0
   22.1110  -26.1610    0.0000 N   0  0
   22.9280  -26.2475    0.0000 C   0  0
   23.1003  -27.0528    0.0000 C   0  0
   23.8179  -27.4653    0.0000 C   0  0
   23.8179  -28.2903    0.0000 C   0  0
   23.1003  -28.7029    0.0000 C   0  0
   22.3868  -28.2903    0.0000 C   0  0
   22.3868  -27.4653    0.0000 C   0  0
   20.9676  -27.0844    0.0000 O   0  0
   21.6985  -25.4475    0.0000 C   0  0
   21.6734  -28.7029    0.0000 N   0  0
   22.3868  -30.7654    0.0000 C   0  0
   22.3868  -29.9404    0.0000 C   0  0
   21.6734  -29.5279    0.0000 C   0  0
   20.9599  -29.9404    0.0000 C   0  0
   20.9599  -30.7654    0.0000 C   0  0
   21.6734  -31.1779    0.0000 N   0  0
   23.1730  -31.0217    0.0000 N   0  0
   23.1730  -29.6881    0.0000 C   0  0
   23.6561  -30.3529    0.0000 C   0  0
   24.4811  -30.3529    0.0000 C   0  0
   24.8935  -31.0663    0.0000 C   0  0
   25.7185  -31.0663    0.0000 C   0  0
   26.1310  -30.3529    0.0000 C   0  0
   25.7185  -29.6394    0.0000 C   0  0
   24.8935  -29.6394    0.0000 C   0  0
   26.9560  -30.3529    0.0000 F   0  0
   20.2453  -29.5281    0.0000 C   0  0
   20.2450  -28.7031    0.0000 F   0  0
   19.5310  -29.9408    0.0000 F   0  0
   19.5251  -29.1126    0.0000 F   0  0
  1  2  1  0
  2  3  1  0
  3  4  1  0
  4  5  1  0
  5  6  2  0
  6  7  1  0
  7  8  2  0
  8  9  1  0
  1  9  1  0
  4  9  2  0
  1 10  2  0
  2 11  1  0
 13 14  1  0
 14 15  2  0
 15 16  1  0
 16 17  2  0
 17 18  1  0
 13 18  2  0
 20 21  2  0
 19 21  1  0
 13 19  1  0
 14 20  1  0
 22 23  1  0
 23 24  2  0
 24 25  1  0
 25 26  2  0
 26 27  1  0
 22 27  2  0
 25 28  1  0
 21 22  1  0
 12 15  1  0
  8 12  1  0
 16 29  1  0
 29 30  1  0
 29 31  1  0
 29 32  1  0
M  END