
  SciTegic04091414352D

 51 55  0  0  0  0            999 V2000
   16.8831  -16.5378    0.0000 C   0  0
   16.8819  -17.3573    0.0000 C   0  0
   17.5900  -17.7663    0.0000 C   0  0
   17.5882  -16.1289    0.0000 C   0  0
   18.2968  -16.5342    0.0000 C   0  0
   18.2971  -17.3573    0.0000 C   0  0
   19.0800  -17.6115    0.0000 S   0  0
   19.5637  -16.9454    0.0000 C   0  0
   19.0796  -16.2796    0.0000 N   0  0
   20.3793  -16.9453    0.0000 C   0  0
   20.8599  -17.6062    0.0000 C   0  0
   21.6370  -17.3535    0.0000 N   0  0
   21.6367  -16.5362    0.0000 C   0  0
   20.8594  -16.2841    0.0000 S   0  0
   22.2976  -16.0556    0.0000 C   0  0
   22.2118  -15.2429    0.0000 C   0  0
   20.6076  -18.3835    0.0000 O   0  0
   19.3319  -15.5023    0.0000 C   0  0
   22.2983  -17.8336    0.0000 C   0  0
   22.2131  -18.6463    0.0000 C   0  0
   22.8738  -14.7638    0.0000 N   0  3
   22.7885  -13.9518    0.0000 C   0  0
   22.0412  -13.6190    0.0000 C   0  0
   21.3784  -14.1042    0.0000 C   0  0
   21.4671  -14.9145    0.0000 C   0  0
   23.6201  -15.0968    0.0000 C   0  0
   24.2816  -14.6171    0.0000 C   0  0
   25.0279  -14.9502    0.0000 C   0  0
   25.6894  -14.4704    0.0000 C   0  0
   26.4357  -14.8035    0.0000 C   0  0
   27.0972  -14.3238    0.0000 C   0  0
   27.8435  -14.6568    0.0000 N   0  0
   28.5050  -14.1771    0.0000 C   0  0
   29.2513  -14.5102    0.0000 C   0  0
   28.4204  -13.3643    0.0000 O   0  0
   29.9128  -14.0304    0.0000 C   0  0
   30.6591  -14.3635    0.0000 C   0  0
   31.3206  -13.8838    0.0000 C   0  0
   32.0669  -14.2168    0.0000 C   0  0  2  0  0  0
   32.2339  -15.0140    0.0000 S   0  0
   33.0465  -15.1002    0.0000 C   0  0
   32.7728  -13.8066    0.0000 C   0  0  2  0  0  0
   33.3769  -14.3524    0.0000 C   0  0  1  0  0  0
   34.0827  -13.9465    0.0000 N   0  0
   33.9147  -13.1498    0.0000 C   0  0
   33.1052  -13.0635    0.0000 N   0  0
   34.4625  -12.5434    0.0000 O   0  0
   32.1883  -13.2236    0.0000 H   0  0
   33.9506  -14.9282    0.0000 H   0  0
   17.5857  -15.3117    0.0000 Cl  0  0
   25.6590  -16.6245    0.0000 Cl  0  5
  1  2  2  0
  2  3  1  0
  3  6  2  0
  5  4  2  0
  4  1  1  0
  5  6  1  0
  6  7  1  0
  7  8  1  0
  8  9  1  0
  9  5  1  0
 10 11  1  0
 11 12  1  0
 12 13  1  0
 13 14  1  0
 14 10  1  0
  8 10  2  0
 13 15  2  0
 15 16  1  0
 11 17  2  0
  9 18  1  0
 12 19  1  0
 19 20  1  0
 16 21  2  0
 21 22  1  0
 22 23  2  0
 23 24  1  0
 24 25  2  0
 25 16  1  0
 21 26  1  0
 26 27  1  0
 27 28  1  0
 28 29  1  0
 29 30  1  0
 30 31  1  0
 31 32  1  0
 32 33  1  0
 33 34  1  0
 33 35  2  0
 34 36  1  0
 36 37  1  0
 37 38  1  0
 39 38  1  1
 39 40  1  0
 40 41  1  0
 41 43  1  0
 42 39  1  0
 42 43  1  0
 43 44  1  0
 44 45  1  0
 45 46  1  0
 46 42  1  0
 45 47  2  0
 42 48  1  6
 43 49  1  6
  4 50  1  0
M  CHG  2  21   1  51  -1
M  END