
  SciTegic04181615532D

 27 28  0  0  0  0            999 V2000
    1.2990   -0.7500    0.0000 C   0  0
    1.2990    0.7500    0.0000 C   0  0
    0.0000    1.5000    0.0000 C   0  0
   -1.2990    0.7500    0.0000 C   0  0
   -1.2990   -0.7500    0.0000 C   0  0
    0.0000   -1.5000    0.0000 C   0  0
   -2.5988    1.5004    0.0000 S   0  0
   -2.5998    3.0012    0.0000 N   0  0
   -3.6378    0.9001    0.0000 O   0  0
   -3.6383    2.0999    0.0000 O   0  0
   -3.8995    3.7516    0.0000 C   0  0
   -3.9005    5.2525    0.0000 C   0  0
   -4.9385    3.1513    0.0000 C   0  0
   -5.2002    6.0029    0.0000 N   0  0
   -2.8614    5.8528    0.0000 O   0  0
   -5.2012    7.5037    0.0000 N   0  0
   -6.5009    8.2541    0.0000 C   0  0
   -6.5019    9.7549    0.0000 C   0  0
   -7.5400    7.6538    0.0000 O   0  0
   -7.7999   10.5068    0.0000 C   0  0
   -7.7978   12.0068    0.0000 C   0  0
   -6.4977   12.7550    0.0000 C   0  0
   -5.1997   12.0032    0.0000 C   0  0
   -5.2018   10.5032    0.0000 C   0  0
   -8.8400    9.9083    0.0000 O   0  0
    2.3383    1.3500    0.0000 Cl  0  0
    2.3383   -1.3500    0.0000 Cl  0  0
  1  2  2  0
  2  3  1  0
  3  4  2  0
  4  5  1  0
  5  6  2  0
  6  1  1  0
  4  7  1  0
  7  8  1  0
  7  9  2  0
  7 10  2  0
  8 11  1  0
 11 12  1  0
 11 13  1  0
 12 14  1  0
 12 15  2  0
 14 16  1  0
 16 17  1  0
 17 18  1  0
 17 19  2  0
 18 20  2  0
 20 21  1  0
 21 22  2  0
 22 23  1  0
 23 24  2  0
 24 18  1  0
 20 25  1  0
  2 26  1  0
  1 27  1  0
M  END