
  SciTegic04091415222D

 22 24  0  0  0  0            999 V2000
   16.6570  -14.7879    0.0000 C   0  0
   17.3623  -14.3834    0.0000 C   0  0
   17.3623  -13.5662    0.0000 C   0  0
   16.6570  -13.1535    0.0000 C   0  0
   16.6570  -15.6051    0.0000 O   0  0
   16.6570  -12.3363    0.0000 O   0  0
   15.9517  -14.3834    0.0000 C   0  0
   15.9543  -13.5680    0.0000 C   0  0
   15.2505  -13.1599    0.0000 C   0  0
   14.5438  -13.5661    0.0000 C   0  0
   14.5452  -14.3845    0.0000 C   0  0
   15.2495  -14.7890    0.0000 N   0  0
   18.0694  -14.7930    0.0000 N   0  0
   18.7777  -14.3854    0.0000 C   0  0
   19.4848  -14.7951    0.0000 C   0  0
   20.1931  -14.3875    0.0000 C   0  0
   20.9005  -14.7988    0.0000 C   0  0
   21.6083  -14.3920    0.0000 C   0  0
   21.6099  -13.5739    0.0000 C   0  0
   20.8979  -13.1644    0.0000 C   0  0
   20.1930  -13.5737    0.0000 C   0  0
   20.8962  -12.3472    0.0000 Br  0  0
  8  4  1  0
  7  1  1  0
  1  2  1  0
  2  3  2  0
  3  4  1  0
  1  5  2  0
  4  6  2  0
  7  8  2  0
  8  9  1  0
  9 10  2  0
 10 11  1  0
 11 12  2  0
 12  7  1  0
  2 13  1  0
 13 14  1  0
 14 15  1  0
 15 16  1  0
 16 17  2  0
 17 18  1  0
 18 19  2  0
 19 20  1  0
 20 21  2  0
 21 16  1  0
 20 22  1  0
M  END