
          08180812482D 1   1.00000     0.00000     0

 18 19  0     0  0            999 V2000
   -2.5681  -10.5541    0.0000 N   0  0  0  0  0  0           0  0  0
   -2.5693  -11.3815    0.0000 C   0  0  0  0  0  0           0  0  0
   -1.8544  -11.7944    0.0000 C   0  0  0  0  0  0           0  0  0
   -1.8562  -10.1414    0.0000 C   0  0  0  0  0  0           0  0  0
   -1.1409  -10.5505    0.0000 C   0  0  0  0  0  0           0  0  0
   -1.1406  -11.3815    0.0000 C   0  0  0  0  0  0           0  0  0
   -0.3846  -10.2211    0.0000 C   0  0  0  0  0  0           0  0  0
    0.2789  -10.7114    0.0000 N   0  3  0  0  0  0           0  0  0
    0.2694  -11.5357    0.0000 C   0  0  0  0  0  0           0  0  0
    1.0519  -11.7970    0.0000 S   0  0  0  0  0  0           0  0  0
    1.5422  -11.1334    0.0000 C   0  0  0  0  0  0           0  0  0
    1.0626  -10.4622    0.0000 C   0  0  0  0  0  0           0  0  0
    1.3231   -9.6794    0.0000 C   0  0  0  0  0  0           0  0  0
    2.3672  -11.1400    0.0000 C   0  0  0  0  0  0           0  0  0
    2.7740  -11.8578    0.0000 C   0  0  0  0  0  0           0  0  0
    3.5989  -11.8644    0.0000 O   0  0  0  0  0  0           0  0  0
   -1.8587   -9.3164    0.0000 N   0  0  0  0  0  0           0  0  0
   -1.8542  -12.6194    0.0000 I   0  0  0  0  0  0           0  0  0
  5  4  2  0     0  0
  4  1  1  0     0  0
  5  6  1  0     0  0
  9 10  1  0     0  0
 10 11  1  0     0  0
 11 12  2  0     0  0
 12  8  1  0     0  0
  2  3  1  0     0  0
 12 13  1  0     0  0
  3  6  2  0     0  0
 11 14  1  0     0  0
  5  7  1  0     0  0
 14 15  1  0     0  0
  1  2  2  0     0  0
 15 16  1  0     0  0
  7  8  1  0     0  0
  4 17  1  0     0  0
  8  9  2  0     0  0
  3 18  1  0     0  0
M  CHG  1   8   1
M  END