
  SciTegic01061111512D

 45 48  0  0  0  0            999 V2000
    7.2185  -20.0066    0.0000 S   0  0
    6.5045  -20.4181    0.0000 C   0  0  1  0  0  0
    6.5045  -21.2451    0.0000 C   0  0  2  0  0  0
    7.2185  -21.6566    0.0000 O   0  0
    5.7862  -21.6566    0.0000 C   0  0  2  0  0  0
    5.0722  -21.2451    0.0000 C   0  0  1  0  0  0
    4.3581  -21.6566    0.0000 O   0  0
    5.0722  -20.4181    0.0000 C   0  0  2  0  0  0
    5.7862  -20.0066    0.0000 O   0  0
    4.3581  -20.0066    0.0000 C   0  0
    4.3581  -19.1795    0.0000 O   0  0
    5.7862  -22.4837    0.0000 N   0  0
    6.4583  -22.9672    0.0000 N   0  0
    6.2019  -23.7541    0.0000 N   0  0
    5.3747  -23.7541    0.0000 C   0  0
    5.1183  -22.9672    0.0000 C   0  0
    4.8912  -24.4220    0.0000 C   0  0
    4.0668  -24.3333    0.0000 O   0  0
    5.2238  -25.1746    0.0000 N   0  0
    4.7403  -25.8425    0.0000 C   0  0
    5.0771  -26.5992    0.0000 C   0  0
    5.8973  -26.6838    0.0000 C   0  0
    4.5894  -27.2671    0.0000 O   0  0
    7.2185  -19.1795    0.0000 C   0  0  1  0  0  0
    6.5045  -18.7681    0.0000 C   0  0  2  0  0  0
    5.7862  -19.1795    0.0000 O   0  0
    6.5045  -17.9409    0.0000 C   0  0  2  0  0  0
    7.2185  -17.5295    0.0000 C   0  0  1  0  0  0
    7.2185  -16.7024    0.0000 O   0  0
    7.9326  -17.9409    0.0000 C   0  0  2  0  0  0
    7.9326  -18.7681    0.0000 O   0  0
    8.6467  -17.5295    0.0000 C   0  0
    8.6467  -16.7024    0.0000 O   0  0
    5.7862  -17.5295    0.0000 N   0  0
    5.0337  -17.8662    0.0000 N   0  0
    4.4820  -17.2514    0.0000 N   0  0
    4.8934  -16.5372    0.0000 C   0  0
    5.7016  -16.7050    0.0000 C   0  0
    4.5567  -15.7805    0.0000 C   0  0
    5.0444  -15.1126    0.0000 O   0  0
    3.7364  -15.6960    0.0000 N   0  0
    3.3997  -14.9393    0.0000 C   0  0
    2.5794  -14.8547    0.0000 C   0  0
    2.0959  -15.5226    0.0000 C   0  0
    2.2427  -14.0981    0.0000 O   0  0
  2  3  1  0
  3  4  1  6
  3  5  1  0
  5  6  1  0
  6  7  1  1
  6  8  1  0
  8  9  1  0
  8 10  1  1
 10 11  1  0
  2  9  1  0
 12 13  1  0
 13 14  2  0
 14 15  1  0
 15 16  2  0
 12 16  1  0
 17 18  2  0
 20 21  1  0
 21 22  1  0
 21 23  1  0
 19 20  1  0
 17 19  1  0
 15 17  1  0
  5 12  1  1
  2  1  1  1
 24 25  1  0
 25 26  1  6
 25 27  1  0
 27 28  1  0
 28 29  1  1
 28 30  1  0
 30 31  1  0
 30 32  1  1
 32 33  1  0
 24 31  1  0
 34 35  1  0
 35 36  2  0
 36 37  1  0
 37 38  2  0
 34 38  1  0
 39 40  2  0
 42 43  1  0
 43 44  1  0
 43 45  1  0
 41 42  1  0
 39 41  1  0
 37 39  1  0
 27 34  1  1
 24  1  1  1
M  END