
  SciTegic01161211252D

 30 29  0  0  0  0            999 V2000
    1.1917    0.3333    0.0000 C   0  0  1  0  0  0
    1.9125   -0.0792    0.0000 C   0  0
   -1.6833    0.3333    0.0000 C   0  0
   -0.9625   -0.0792    0.0000 C   0  0  1  0  0  0
   -2.3958   -0.0792    0.0000 N   0  0
    2.6292    0.3333    0.0000 N   0  0
    0.4750   -0.0792    0.0000 C   0  0  1  0  0  0
   -0.2458    0.3333    0.0000 C   0  0  1  0  0  0
   -3.1125    0.3333    0.0000 C   0  0
    3.3500   -0.0792    0.0000 C   0  0
   -3.8333   -0.0792    0.0000 C   0  0  2  0  0  0
    4.0667    0.3333    0.0000 C   0  0  2  0  0  0
    1.1917    1.1625    0.0000 O   0  0
   -1.6833    1.1625    0.0000 O   0  0
    1.9125   -0.9125    0.0000 O   0  0
   -3.1125    1.1625    0.0000 O   0  0
    3.3500   -0.9125    0.0000 O   0  0
   -0.2458    1.1625    0.0000 O   0  0
    0.4750   -0.9125    0.0000 O   0  0
   -0.9625   -0.9125    0.0000 O   0  0
   -3.8333   -0.9125    0.0000 C   0  0
    4.0667    1.1625    0.0000 C   0  0
   -4.5500    0.3333    0.0000 C   0  0
    4.7875   -0.0792    0.0000 C   0  0
   -1.6833   -1.3250    0.0000 C   0  0
   -3.1125   -1.3292    0.0000 C   0  0
   -4.5500   -1.3292    0.0000 C   0  0
    4.7875    1.5833    0.0000 C   0  0
    3.3500    1.5833    0.0000 C   0  0
   -1.6833   -2.1500    0.0000 C   0  0
  2  1  1  0
  3  4  1  0
  4  8  1  0
  5  3  1  0
  6  2  1  0
  7  1  1  0
  8  7  1  0
  9  5  1  0
 10  6  1  0
 11  9  1  0
 12 10  1  0
  1 13  1  1
 14  3  2  0
 15  2  2  0
 16  9  2  0
 17 10  2  0
  8 18  1  6
  7 19  1  6
  4 20  1  1
 11 21  1  6
 12 22  1  6
 23 11  1  0
 24 12  1  0
 25 20  1  0
 26 21  1  0
 27 21  1  0
 28 22  1  0
 29 22  1  0
 30 25  1  0
M  END