
  SciTegic07221113202D

 30 31  0  0  0  0            999 V2000
    1.4143  -18.1205    0.0000 C   0  0
    2.2393  -18.1205    0.0000 C   0  0
    1.0018  -18.8350    0.0000 C   0  0
    2.6518  -18.8350    0.0000 C   0  0
    3.4768  -18.8350    0.0000 O   0  0
    2.2393  -19.5495    0.0000 O   0  0
    0.1768  -18.8350    0.0000 O   0  0
    1.4143  -19.5495    0.0000 O   0  0
    4.3714  -22.5554    0.0000 C   0  0
    6.5428  -22.2174    0.0000 N   0  0
    3.6553  -22.1429    0.0000 N   0  0
    5.7980  -22.5554    0.0000 C   0  0
    5.0819  -22.1429    0.0000 C   0  0
    2.9335  -22.5612    0.0000 C   0  0
    6.6746  -23.5523    0.0000 N   0  0
    7.0871  -22.8362    0.0000 C   0  0
    5.8725  -23.3862    0.0000 C   0  0
    4.3714  -23.3804    0.0000 O   0  0
    2.2230  -22.1487    0.0000 C   0  0
    2.9335  -23.3862    0.0000 C   0  0
    2.2230  -21.3237    0.0000 C   0  0
    1.5069  -22.5612    0.0000 C   0  0
    2.2288  -23.7987    0.0000 C   0  0
    3.6553  -23.7987    0.0000 C   0  0
    0.8022  -22.1487    0.0000 C   0  0
    1.5069  -20.9112    0.0000 C   0  0
    3.6553  -24.6237    0.0000 C   0  0
    2.2288  -24.6237    0.0000 C   0  0
    2.9335  -25.0362    0.0000 C   0  0
    0.7964  -21.3237    0.0000 C   0  0
  1  2  2  0
  1  3  1  0
  2  4  1  0
  4  5  2  0
  4  6  1  0
  3  7  1  0
  3  8  2  0
 10 12  1  0
 11  9  1  0
 12 13  1  0
 13  9  1  0
 14 11  1  0
 15 17  1  0
 16 10  2  0
 17 12  2  0
 18  9  2  0
 19 14  1  0
 20 14  1  0
 21 19  2  0
 22 19  1  0
 23 20  1  0
 24 20  1  0
 25 22  2  0
 26 21  1  0
 27 24  1  0
 28 23  1  0
 29 27  1  0
 30 25  1  0
 16 15  1  0
 29 28  1  0
 30 26  2  0
M  END