
          11280714522D 1   1.00000     0.00000     0

 31 35  0     0  0            999 V2000
    5.0875   -5.2500    0.0000 C   0  0  0  0  0  0           0  0  0
    5.0875   -6.0750    0.0000 C   0  0  0  0  0  0           0  0  0
    6.5167   -6.0667    0.0000 C   0  0  0  0  0  0           0  0  0
    5.8000   -6.4875    0.0000 C   0  0  0  0  0  0           0  0  0
    5.8000   -4.8292    0.0000 O   0  0  0  0  0  0           0  0  0
    6.5167   -5.2417    0.0000 C   0  0  0  0  0  0           0  0  0
    2.2125   -1.1375    0.0000 N   0  0  0  0  0  0           0  0  0
    9.3792   -6.8917    0.0000 N   0  0  0  0  0  0           0  0  0
    4.3750   -4.8375    0.0000 C   0  0  0  0  0  0           0  0  0
    8.6625   -6.4750    0.0000 C   0  0  0  0  0  0           0  0  0
    2.2042   -0.3167    0.0000 C   0  0  0  0  0  0           0  0  0
    2.9417   -2.3667    0.0000 C   0  0  0  0  0  0           0  0  0
    7.2292   -6.4792    0.0000 C   0  0  0  0  0  0           0  0  0
    3.6542   -2.7667    0.0000 C   0  0  0  0  0  0           0  0  0
    5.8042   -7.3125    0.0000 O   0  0  0  0  0  0           0  0  0
    2.9375   -1.5417    0.0000 C   0  0  0  0  0  0           0  0  0
    4.3750   -4.0042    0.0000 C   0  0  0  0  0  0           0  0  0
    7.2250   -4.8292    0.0000 C   0  0  0  0  0  0           0  0  0
    7.9417   -6.0667    0.0000 C   0  0  0  0  0  0           0  0  0
    2.9167    0.1083    0.0000 C   0  0  0  0  0  0           0  0  0
    3.6667   -3.5917    0.0000 C   0  0  0  0  0  0           0  0  0
    3.6292   -0.3000    0.0000 C   0  0  0  0  0  0           0  0  0
    3.6417   -1.1250    0.0000 C   0  0  0  0  0  0           0  0  0
    7.9417   -5.2375    0.0000 C   0  0  0  0  0  0           0  0  0
    3.6625   -5.2500    0.0000 C   0  0  0  0  0  0           0  0  0
    2.9417   -4.8292    0.0000 C   0  0  0  0  0  0           0  0  0
    1.4875    0.0875    0.0000 C   0  0  0  0  0  0           0  0  0
    2.9500   -4.0042    0.0000 C   0  0  0  0  0  0           0  0  0
    2.9167    0.9250    0.0000 C   0  0  0  0  0  0           0  0  0
    1.4792    0.9208    0.0000 C   0  0  0  0  0  0           0  0  0
    2.1917    1.3333    0.0000 C   0  0  0  0  0  0           0  0  0
  2  1  2  0     0  0
  3  6  2  0     0  0
  4  2  1  0     0  0
  5  1  1  0     0  0
  6  5  1  0     0  0
  7 16  2  0     0  0
  8 10  3  0     0  0
  9  1  1  0     0  0
 10 19  1  0     0  0
 11  7  1  0     0  0
 12 14  2  0     0  0
 13  3  1  0     0  0
 14 21  1  0     0  0
 15  4  2  0     0  0
 16 12  1  0     0  0
 17  9  1  0     0  0
 18  6  1  0     0  0
 19 24  1  0     0  0
 20 22  1  0     0  0
 21 17  2  0     0  0
 22 23  2  0     0  0
 23 16  1  0     0  0
 24 18  2  0     0  0
 25  9  2  0     0  0
 26 25  1  0     0  0
 27 11  1  0     0  0
 28 26  2  0     0  0
 29 20  1  0     0  0
 30 27  2  0     0  0
 31 29  2  0     0  0
  4  3  1  0     0  0
 21 28  1  0     0  0
 19 13  2  0     0  0
 20 11  2  0     0  0
 31 30  1  0     0  0
M  END