
          11280714512D 1   1.00000     0.00000     0

 38 43  0     0  0            999 V2000
    3.0417   -3.2500    0.0000 C   0  0  0  0  0  0           0  0  0
    2.5500   -2.5792    0.0000 N   0  0  3  0  0  0           0  0  0
    2.5500   -3.9250    0.0000 C   0  0  0  0  0  0           0  0  0
    1.7625   -3.6667    0.0000 C   0  0  0  0  0  0           0  0  0
    1.7625   -2.8375    0.0000 C   0  0  0  0  0  0           0  0  0
    1.0417   -2.4250    0.0000 C   0  0  0  0  0  0           0  0  0
    1.0417   -4.0792    0.0000 C   0  0  0  0  0  0           0  0  0
    3.8667   -3.2500    0.0000 C   0  0  0  0  0  0           0  0  0
    2.8042   -4.7042    0.0000 S   0  0  0  0  0  0           0  0  0
    5.2250   -5.2167    0.0000 C   0  0  0  0  0  0           0  0  0
    0.3292   -2.8375    0.0000 C   0  0  0  0  0  0           0  0  0
    4.9667   -4.4292    0.0000 C   0  0  0  0  0  0           0  0  0
    4.6792   -5.8292    0.0000 C   0  0  0  0  0  0           0  0  0
    3.6125   -4.8792    0.0000 C   0  0  0  0  0  0           0  0  0
    0.3292   -3.6667    0.0000 C   0  0  0  0  0  0           0  0  0
    2.8042   -1.7917    0.0000 C   0  0  0  0  0  0           0  0  0
    3.8667   -5.6625    0.0000 C   0  0  0  0  0  0           0  0  0
    4.1625   -4.2667    0.0000 C   0  0  0  0  0  0           0  0  0
    4.6625   -0.6667    0.0000 C   0  0  0  0  0  0           0  0  0
    5.2167   -1.2792    0.0000 C   0  0  0  0  0  0           0  0  0
   -0.4583   -2.5792    0.0000 O   0  0  0  0  0  0           0  0  0
   -0.4583   -3.9250    0.0000 O   0  0  0  0  0  0           0  0  0
    5.0750    0.0500    0.0000 O   0  0  0  0  0  0           0  0  0
    5.9750   -0.9417    0.0000 O   0  0  0  0  0  0           0  0  0
   -1.0708   -3.1375    0.0000 C   0  0  0  0  0  0           0  0  0
    5.8792   -0.1167    0.0000 C   0  0  0  0  0  0           0  0  0
    3.8542   -0.8417    0.0000 C   0  0  0  0  0  0           0  0  0
    3.6125   -1.6167    0.0000 C   0  0  0  0  0  0           0  0  0
    4.1417   -2.7750    0.0000 O   0  0  0  0  0  0           0  0  0
    4.9667   -2.0667    0.0000 C   0  0  0  0  0  0           0  0  0
    4.1750   -3.7417    0.0000 O   0  0  0  0  0  0           0  0  0
    5.9792   -5.5500    0.0000 O   0  0  0  0  0  0           0  0  0
    5.0917   -6.5417    0.0000 O   0  0  0  0  0  0           0  0  0
    5.5167   -3.8167    0.0000 O   0  0  0  0  0  0           0  0  0
    4.1542   -2.2375    0.0000 C   0  0  0  0  0  0           0  0  0
    6.6417   -5.0625    0.0000 C   0  0  0  0  0  0           0  0  0
    4.6792   -7.2542    0.0000 C   0  0  0  0  0  0           0  0  0
    6.3250   -3.9875    0.0000 C   0  0  0  0  0  0           0  0  0
  2  1  1  0     0  0
  3  1  2  0     0  0
  4  3  1  0     0  0
  5  2  1  0     0  0
  6  5  2  0     0  0
  7  4  2  0     0  0
  8  1  1  0     0  0
  9  3  1  0     0  0
 10 12  1  0     0  0
 11  6  1  0     0  0
 12 18  2  0     0  0
 13 17  1  0     0  0
 14  9  1  0     0  0
 15  7  1  0     0  0
 16  2  1  0     0  0
 17 14  2  0     0  0
 18 14  1  0     0  0
 19 27  2  0     0  0
 20 30  2  0     0  0
 21 11  1  0     0  0
 22 15  1  0     0  0
 23 19  1  0     0  0
 24 20  1  0     0  0
 25 22  1  0     0  0
 26 23  1  0     0  0
 27 28  1  0     0  0
 28 16  1  0     0  0
 29  8  2  0     0  0
 30 35  1  0     0  0
 31  8  1  0     0  0
 32 10  1  0     0  0
 33 13  1  0     0  0
 34 12  1  0     0  0
 35 28  2  0     0  0
 36 32  1  0     0  0
 37 33  1  0     0  0
 38 34  1  0     0  0
  5  4  1  0     0  0
 15 11  2  0     0  0
 10 13  2  0     0  0
 21 25  1  0     0  0
 19 20  1  0     0  0
 24 26  1  0     0  0
M  END