
          11280714512D 1   1.00000     0.00000     0

 19 19  0     0  0            999 V2000
    6.6167   -4.9292    0.0000 C   0  0  0  0  0  0           0  0  0
    5.9042   -4.5167    0.0000 C   0  0  0  0  0  0           0  0  0
    6.6250   -5.7542    0.0000 O   0  0  0  0  0  0           0  0  0
    2.3292   -3.2917    0.0000 O   0  0  0  0  0  0           0  0  0
    3.7542   -3.2917    0.0000 C   0  0  3  0  0  0           0  0  0
    3.0417   -3.7042    0.0000 C   0  0  0  0  0  0           0  0  0
    5.1875   -3.2792    0.0000 N   0  0  0  0  0  0           0  0  0
    7.3292   -4.5042    0.0000 O   0  0  0  0  0  0           0  0  0
    1.6167   -3.7125    0.0000 C   0  0  0  0  0  0           0  0  0
    3.7542   -2.4667    0.0000 O   0  0  0  0  0  0           0  0  0
    5.9042   -3.6917    0.0000 C   0  0  0  0  0  0           0  0  0
    4.4750   -3.7000    0.0000 C   0  0  0  0  0  0           0  0  0
    8.0500   -4.9250    0.0000 C   0  0  0  0  0  0           0  0  0
    1.6167   -4.5417    0.0000 C   0  0  0  0  0  0           0  0  0
    0.9000   -3.3000    0.0000 C   0  0  0  0  0  0           0  0  0
    8.7625   -4.5042    0.0000 C   0  0  0  0  0  0           0  0  0
    0.1875   -3.7125    0.0000 C   0  0  0  0  0  0           0  0  0
    0.9000   -4.9542    0.0000 C   0  0  0  0  0  0           0  0  0
    0.1875   -4.5417    0.0000 C   0  0  0  0  0  0           0  0  0
  2  1  1  0     0  0
  3  1  2  0     0  0
  4  6  1  0     0  0
  5 12  1  0     0  0
  6  5  1  0     0  0
  7 11  1  0     0  0
  8  1  1  0     0  0
  9  4  1  0     0  0
 10  5  1  0     0  0
 11  2  1  0     0  0
 12  7  1  0     0  0
 13  8  1  0     0  0
 14  9  1  0     0  0
 15  9  2  0     0  0
 16 13  1  0     0  0
 17 15  1  0     0  0
 18 14  2  0     0  0
 19 17  2  0     0  0
 18 19  1  0     0  0
M  END