
  SciTegic12231509382D

 15 16  0  0  0  0            999 V2000
    2.3555   -1.5622    0.0000 O   0  0
    0.9035   -1.3322    0.0000 N   0  0
   -1.2400    1.5553    0.0000 N   0  0
    1.5709   -1.8171    0.0000 C   0  0
    0.2360   -1.8171    0.0000 C   0  0
    1.3160   -2.6017    0.0000 C   0  0
    0.9035   -0.5072    0.0000 C   0  0
    0.4910   -2.6017    0.0000 C   0  0
    0.1890   -0.0947    0.0000 C   0  0
   -0.5255    0.3178    0.0000 C   0  0
   -1.2400    0.7303    0.0000 C   0  0
   -1.9074    2.0403    0.0000 C   0  0
   -0.5725    2.0403    0.0000 C   0  0
   -1.6525    2.8249    0.0000 C   0  0
   -0.8275    2.8249    0.0000 C   0  0
  1  4  2  0
  2  4  1  0
  2  5  1  0
  2  7  1  0
  3 11  1  0
  3 12  1  0
  3 13  1  0
  4  6  1  0
  5  8  1  0
  6  8  1  0
  7  9  1  0
  9 10  3  0
 10 11  1  0
 12 14  1  0
 13 15  1  0
 14 15  1  0
M  END