
          11280715182D 1   1.00000     0.00000     0

 19 20  0     0  0            999 V2000
    8.2917   -5.4917    0.0000 C   0  0  0  0  0  0           0  0  0
    8.2917   -4.8917    0.0000 O   0  0  0  0  0  0           0  0  0
    4.6625   -4.6042    0.0000 O   0  0  0  0  0  0           0  0  0
    5.1792   -4.9042    0.0000 C   0  0  0  0  0  0           0  0  0
    8.8125   -5.7917    0.0000 O   0  0  0  0  0  0           0  0  0
    4.1417   -4.9042    0.0000 C   0  0  0  0  0  0           0  0  0
    6.2167   -5.5042    0.0000 C   0  0  0  0  0  0           0  0  0
    5.1792   -5.5042    0.0000 C   0  0  0  0  0  0           0  0  0
    5.7000   -4.6042    0.0000 C   0  0  0  0  0  0           0  0  0
    6.2167   -4.9042    0.0000 C   0  0  0  0  0  0           0  0  0
    5.7000   -5.8042    0.0000 C   0  0  0  0  0  0           0  0  0
    7.7792   -5.7917    0.0000 C   0  0  0  0  0  0           0  0  0
    7.2542   -5.5042    0.0000 C   0  0  0  0  0  0           0  0  0
    6.7417   -5.8042    0.0000 C   0  0  0  0  0  0           0  0  0
    4.1417   -5.5042    0.0000 C   0  0  0  0  0  0           0  0  0
    3.6250   -4.6042    0.0000 C   0  0  0  0  0  0           0  0  0
    3.1042   -4.9042    0.0000 C   0  0  0  0  0  0           0  0  0
    3.6250   -5.8042    0.0000 C   0  0  0  0  0  0           0  0  0
    3.1042   -5.5042    0.0000 C   0  0  0  0  0  0           0  0  0
  2  1  2  0     0  0
  3  4  1  0     0  0
  4  8  2  0     0  0
  5  1  1  0     0  0
  6  3  1  0     0  0
  7 14  1  0     0  0
  8 11  1  0     0  0
  9 10  2  0     0  0
 10  7  1  0     0  0
 11  7  2  0     0  0
 12  1  1  0     0  0
 13 12  1  0     0  0
 14 13  1  0     0  0
 15  6  2  0     0  0
 16  6  1  0     0  0
 17 16  2  0     0  0
 18 15  1  0     0  0
 19 17  1  0     0  0
  9  4  1  0     0  0
 18 19  2  0     0  0
M  END