
  SciTegic11201309402D

 57 60  0  0  1  0            999 V2000
    2.7042   -4.9792    0.0000 C   0  0
    1.6250   -1.5917    0.0000 N   0  0
    1.6250   -2.4167    0.0000 C   0  0
    1.8917   -4.8375    0.0000 C   0  0
    2.9667   -5.7625    0.0000 C   0  0
    1.6167   -3.2417    0.0000 C   0  0
    1.6167   -4.0667    0.0000 O   0  0
    6.0667   -6.9917    0.0000 O   0  0
    3.7792   -5.9250    0.0000 C   0  0  2  0  0  0
    3.0542   -1.6000    0.0000 C   0  0
    5.3292   -7.3792    0.0000 C   0  0
    4.5792   -6.1250    0.0000 O   0  0
    3.7667   -1.1875    0.0000 O   0  0
    6.8917   -5.2500    0.0000 C   0  0
    2.3375   -1.1875    0.0000 C   0  0  2  0  0  0
    4.6375   -6.9417    0.0000 C   0  0
    6.8667   -1.3250    0.0000 C   0  0
    3.7625   -0.3625    0.0000 C   0  0  1  0  0  0
    6.9917    0.1000    0.0000 C   0  0
    7.3417   -0.6500    0.0000 C   0  0
    3.2500   -4.3625    0.0000 O   0  0
    6.6167   -4.1750    0.0000 O   0  0
    2.4417   -2.4167    0.0000 O   0  0
    2.4167   -6.3792    0.0000 O   0  0
    1.3667   -5.4750    0.0000 O   0  0
    0.7917   -3.2375    0.0000 O   0  0
    3.3417   -6.6250    0.0000 C   0  0
    7.2167   -2.0750    0.0000 C   0  0
    3.0500   -2.4250    0.0000 O   0  0
    5.3042   -8.2042    0.0000 O   0  0
    7.6667   -5.2500    0.0000 O   0  0
    3.8750   -7.2542    0.0000 C   0  0
    0.8917    1.2708    0.0000 N   0  0
    6.1750    0.1750    0.0000 C   0  0
    7.4667    0.7750    0.0000 O   0  0
    4.8625    0.0000    0.0000 C   0  0  1  0  0  0
    3.0417    0.0500    0.0000 C   0  0
    5.6417   -0.4042    0.0000 C   0  0
    8.6417   -0.0500    0.0000 C   0  0
    9.4625   -0.1167    0.0000 C   0  0
    0.9167   -1.1875    0.0000 C   0  0
    3.0292    0.8750    0.0000 C   0  0
    4.0917   -5.1625    0.0000 C   0  0
    7.0917   -3.5000    0.0000 C   0  0
    2.3167    1.2750    0.0000 C   0  0
    8.1667   -0.7250    0.0000 C   0  0
    2.3375   -0.3625    0.0000 C   0  0
    1.6042    0.8625    0.0000 C   0  0
    6.7417   -2.7500    0.0000 C   0  0
    0.8792    2.0958    0.0000 C   0  0
    8.0417   -2.1500    0.0000 C   0  0
    4.8625    0.7833    0.0000 C   0  0
    2.3125    2.1000    0.0000 C   0  0
    0.9167   -0.3625    0.0000 C   0  0
    1.5917    2.5208    0.0000 C   0  0
    1.6250    0.0583    0.0000 C   0  0
    3.2032   -0.6869    0.0000 H   0  0
  2  3  1  0
  3  6  1  0
  4  1  1  0
  5  1  1  0
  6  7  1  0
  7  4  1  0
  8 11  1  0
  9  5  1  0
 15 10  1  0
 11 16  1  0
 12  9  1  0
 13 10  1  0
 14  8  1  0
 15  2  1  0
 16 12  1  0
 17 28  2  0
 18 13  1  0
 19 34  1  0
 20 17  1  0
 21  1  2  0
 22 14  1  0
 23  3  2  0
 24  5  2  0
 25  4  2  0
 26  6  2  0
 27  9  1  0
 28 49  1  0
 29 10  2  0
 30 11  2  0
 31 14  2  0
 32 27  1  0
 33 48  2  0
 34 38  1  0
 35 19  2  0
 36 18  1  0
 18 37  1  6
 38 36  1  0
 39 46  1  0
 40 39  2  0
 41  2  1  0
 42 37  1  0
  9 43  1  1
 44 22  1  0
 45 42  1  0
 46 20  1  0
 47 15  1  0
 48 45  1  0
 49 44  1  0
 50 55  2  0
 51 28  1  0
 36 52  1  6
 53 45  2  0
 54 41  1  0
 55 53  1  0
 56 54  1  0
 16 32  1  0
 56 47  1  0
 19 20  1  0
 50 33  1  0
 15 57  1  6
M  END