
          11280714532D 1   1.00000     0.00000     0

 33 36  0     0  0            999 V2000
    9.2375   -2.5292    0.0000 C   0  0  0  0  0  0           0  0  0
    8.5167   -2.1042    0.0000 C   0  0  0  0  0  0           0  0  0
    9.2375   -3.3542    0.0000 C   0  0  0  0  0  0           0  0  0
    9.9542   -2.1167    0.0000 N   0  3  0  0  0  0           0  0  0
    7.8000   -2.5292    0.0000 C   0  0  0  0  0  0           0  0  0
    8.5042   -3.7667    0.0000 O   0  0  0  0  0  0           0  0  0
    7.7917   -3.3542    0.0000 C   0  0  0  0  0  0           0  0  0
    1.3667   -4.5792    0.0000 N   0  0  3  0  0  0           0  0  0
    7.0792   -3.7667    0.0000 C   0  0  0  0  0  0           0  0  0
    7.0792   -2.1167    0.0000 C   0  0  0  0  0  0           0  0  0
    2.7917   -3.7667    0.0000 N   0  0  3  0  0  0           0  0  0
   10.6667   -2.5292    0.0000 O   0  5  0  0  0  0           0  0  0
    9.9500   -3.7792    0.0000 O   0  0  0  0  0  0           0  0  0
    9.9542   -1.2917    0.0000 O   0  0  0  0  0  0           0  0  0
    8.5167   -1.2792    0.0000 O   0  0  0  0  0  0           0  0  0
    0.6542   -4.9917    0.0000 C   0  0  0  0  0  0           0  0  0
    6.3667   -3.3542    0.0000 C   0  0  0  0  0  0           0  0  0
    2.0875   -4.9917    0.0000 C   0  0  0  0  0  0           0  0  0
    1.3750   -3.7542    0.0000 C   0  0  0  0  0  0           0  0  0
    2.0875   -3.3417    0.0000 C   0  0  0  0  0  0           0  0  0
    2.8042   -4.5917    0.0000 C   0  0  0  0  0  0           0  0  0
    6.3667   -2.5292    0.0000 C   0  0  0  0  0  0           0  0  0
   -0.0583   -4.5792    0.0000 C   0  0  0  0  0  0           0  0  0
   -1.4833   -3.7417    0.0000 C   0  0  0  0  0  0           0  0  0
   -2.1958   -3.3292    0.0000 Cl  0  0  0  0  0  0           0  0  0
   -1.4833   -4.5667    0.0000 C   0  0  0  0  0  0           0  0  0
   -0.7625   -3.3292    0.0000 C   0  0  0  0  0  0           0  0  0
   -0.7708   -4.9792    0.0000 C   0  0  0  0  0  0           0  0  0
   -0.0500   -3.7542    0.0000 C   0  0  0  0  0  0           0  0  0
    3.5125   -3.3542    0.0000 C   0  0  0  0  0  0           0  0  0
    4.2250   -3.7667    0.0000 C   0  0  0  0  0  0           0  0  0
    5.6542   -3.7667    0.0000 O   0  0  0  0  0  0           0  0  0
    4.9417   -3.3542    0.0000 C   0  0  0  0  0  0           0  0  0
  2  1  2  0     0  0
  3  1  1  0     0  0
  4  1  1  0     0  0
  5  2  1  0     0  0
  6  3  1  0     0  0
  7  6  1  0     0  0
  8 18  1  0     0  0
  9  7  2  0     0  0
 10  5  2  0     0  0
 11 30  1  0     0  0
 12  4  1  0     0  0
 13  3  2  0     0  0
 14  4  2  0     0  0
 15  2  1  0     0  0
 16  8  1  0     0  0
 17  9  1  0     0  0
 18 21  1  0     0  0
 19 20  1  0     0  0
 20 11  1  0     0  0
 21 11  1  0     0  0
 22 10  1  0     0  0
 23 16  1  0     0  0
 24 27  2  0     0  0
 25 24  1  0     0  0
 26 28  2  0     0  0
 27 29  1  0     0  0
 28 23  1  0     0  0
 29 23  2  0     0  0
 30 31  1  0     0  0
 31 33  1  0     0  0
 32 17  1  0     0  0
 33 32  1  0     0  0
  5  7  1  0     0  0
 22 17  2  0     0  0
 19  8  1  0     0  0
 26 24  1  0     0  0
M  CHG  2   4   1  12  -1
M  END