
  SciTegic01161211232D

 50 55  0  0  0  0            999 V2000
   -1.0740   -6.6154    0.0000 C   0  0
   -0.2454   -6.6156    0.0000 C   0  0
   -0.6578   -8.4238    0.0000 O   0  0
   -1.4044   -8.0662    0.0000 C   0  0  1  0  0  0
   -1.5835   -7.2581    0.0000 C   0  0  1  0  0  0
   -2.3690   -7.0126    0.0000 O   0  0
   -2.0108   -8.6288    0.0000 C   0  0
    0.2722   -7.2572    0.0000 C   0  0  2  0  0  0
    0.0875   -8.0644    0.0000 C   0  0  2  0  0  0
    0.6914   -8.6270    0.0000 C   0  0
    1.0610   -7.0125    0.0000 O   0  0
    1.6683   -7.5764    0.0000 C   0  0  2  0  0  0
    1.4757   -8.3825    0.0000 C   0  0  2  0  0  0
    2.0767   -8.9477    0.0000 O   0  0
    2.8696   -8.7124    0.0000 C   0  0  2  0  0  0
    3.0582   -7.9064    0.0000 C   0  0  1  0  0  0
    2.4579   -7.3356    0.0000 C   0  0
   -2.8019   -8.3757    0.0000 C   0  0  1  0  0  0
   -2.9761   -7.5705    0.0000 C   0  0  1  0  0  0
   -3.7568   -7.3222    0.0000 C   0  0
   -4.3687   -7.8758    0.0000 O   0  0
   -3.4042   -8.9326    0.0000 O   0  0
    3.4723   -9.2767    0.0000 C   0  0
    4.2645   -9.0403    0.0000 C   0  0
    4.8673   -9.6088    0.0000 O   0  0
    3.8502   -7.6698    0.0000 O   0  0
   -3.2067   -6.7703    0.0000 H   0  0
   -1.8159   -6.4592    0.0000 H   0  0
    0.4695   -6.4481    0.0000 C   0  0
    1.8630   -6.7685    0.0000 H   0  0
    3.4534   -7.1769    0.0000 H   0  0
    2.6675   -9.5137    0.0000 H   0  0
    1.2696   -9.1808    0.0000 H   0  0
   -0.1156   -8.8644    0.0000 H   0  0
   -1.1795   -8.8582    0.0000 H   0  0
   -2.5745   -9.1694    0.0000 H   0  0
    4.4482   -8.2347    0.0000 C   0  0
    5.2365   -7.9993    0.0000 C   0  0
    5.6554   -9.3727    0.0000 C   0  0
    6.2539   -9.9371    0.0000 C   0  0
    5.8315   -8.5672    0.0000 C   0  0
    6.6191   -8.3323    0.0000 C   0  0
    6.8100   -7.5311    0.0000 C   0  0
    6.2070   -6.9653    0.0000 C   0  0
    5.4218   -7.2031    0.0000 C   0  0
    6.0612  -10.7350    0.0000 C   0  0
    6.6589  -11.2991    0.0000 C   0  0
    7.4480  -11.0632    0.0000 C   0  0
    7.6358  -10.2579    0.0000 C   0  0
    7.0367   -9.6973    0.0000 C   0  0
  8 11  1  0
 23 24  1  0
  9 10  1  0
 24 25  1  0
 10 13  1  0
 16 26  1  0
 12 11  1  0
 19 27  1  6
 12 13  1  0
  5 28  1  6
  1  2  1  0
  8 29  1  6
  2  8  1  0
 12 30  1  6
  5  1  1  0
 16 31  1  6
  4  7  1  0
 15 32  1  1
  5  6  1  0
 13 33  1  1
  6 19  1  0
  9 34  1  1
 12 17  1  0
  4 35  1  1
 13 14  1  0
 18 36  1  1
 14 15  1  0
 26 37  1  0
 15 16  1  0
 37 38  1  0
 16 17  1  0
 25 39  1  0
 18 19  1  0
 39 40  1  0
 18  7  1  0
 38 41  2  0
  8  9  1  0
 41 42  1  0
  4  3  1  0
 42 43  2  0
  3  9  1  0
 43 44  1  0
  4  5  1  0
 44 45  2  0
 45 38  1  0
 18 22  1  0
 40 46  2  0
 19 20  1  0
 46 47  1  0
 20 21  1  0
 47 48  2  0
 48 49  1  0
 15 23  1  0
 49 50  2  0
 50 40  1  0
M  END