
  SciTegic03291108572D

 24 26  0  0  0  0            999 V2000
    2.0357   -0.3603    0.0000 S   0  0
    2.0288   -2.7685    0.0000 O   0  0
    0.3857    1.0686    0.0000 O   0  0
    0.3857   -0.3603    0.0000 O   0  0
    3.3456   -1.0277    0.0000 N   0  0
    3.3456    0.3071    0.0000 N   0  0
    4.1302   -0.7728    0.0000 C   0  0
    4.1302    0.0522    0.0000 C   0  0
    2.8607   -0.3603    0.0000 C   0  0
    4.8447   -1.1853    0.0000 C   0  0
    3.0907   -1.8124    0.0000 C   0  0
    4.8447    0.4647    0.0000 C   0  0
    5.5592   -0.7728    0.0000 C   0  0
    5.5592    0.0522    0.0000 C   0  0
    2.2837   -1.9839    0.0000 C   0  0
    1.6232    0.3542    0.0000 C   0  0
    2.5808   -3.3816    0.0000 C   0  0
    0.7982    0.3542    0.0000 C   0  0
    3.3878   -3.2101    0.0000 C   0  0
    3.9398   -3.8232    0.0000 C   0  0
    2.3259   -4.1662    0.0000 C   0  0
    3.6849   -4.6078    0.0000 C   0  0
    2.8779   -4.7793    0.0000 C   0  0
    4.7468   -3.6516    0.0000 C   0  0
  1  9  1  0
  1 16  1  0
  2 15  1  0
  2 17  1  0
  3 18  2  0
  4 18  1  0
  5  7  1  0
  5  9  1  0
  5 11  1  0
  6  8  1  0
  6  9  2  0
  7  8  2  0
  7 10  1  0
  8 12  1  0
 10 13  2  0
 11 15  1  0
 12 14  2  0
 13 14  1  0
 16 18  1  0
 17 19  2  0
 17 21  1  0
 19 20  1  0
 20 22  2  0
 20 24  1  0
 21 23  2  0
 22 23  1  0
M  END