
  SciTegic01161211252D

 39 42  0  0  0  0            999 V2000
   -1.3341   -3.0096    0.0000 C   0  0
   -1.3341   -3.8383    0.0000 C   0  0
   -0.6204   -4.2503    0.0000 C   0  0
   -0.6204   -2.5929    0.0000 C   0  0
    0.0978   -3.0096    0.0000 C   0  0  1  0  0  0
    0.0988   -3.8383    0.0000 C   0  0  1  0  0  0
    0.8130   -4.2493    0.0000 C   0  0
    1.5308   -3.8364    0.0000 C   0  0  2  0  0  0
    0.8110   -2.5920    0.0000 C   0  0
    1.5301   -3.0108    0.0000 C   0  0
    1.5346   -1.3494    0.0000 C   0  0
    0.8101   -1.7621    0.0000 C   0  0
   -2.0479   -4.2503    0.0000 O   0  0
    0.0897   -2.1855    0.0000 C   0  0
    2.2370   -3.4216    0.0000 C   0  0
    2.2575   -1.7697    0.0000 C   0  0  2  0  0  0
    2.2461   -2.6021    0.0000 C   0  0  1  0  0  0
    3.0341   -2.8704    0.0000 C   0  0  2  0  0  0
    3.5329   -2.2036    0.0000 C   0  0
    3.0525   -1.5236    0.0000 C   0  0  1  0  0  0
    3.4635   -0.8095    0.0000 C   0  0  2  0  0  0
    4.2876   -0.8084    0.0000 C   0  0
    4.7007   -1.5216    0.0000 C   0  0
    5.5248   -1.5206    0.0000 C   0  0
    3.0506   -0.0962    0.0000 C   0  0
    2.2507   -0.9447    0.0000 C   0  0
    3.8759   -1.5216    0.0000 H   0  0
   -1.0412   -4.9599    0.0000 C   0  0
   -0.2171   -4.9599    0.0000 C   0  0
    0.0943   -4.6578    0.0000 H   0  0
    2.2443   -4.2487    0.0000 O   0  0
    0.0973   -1.3484    0.0000 O   0  0
    3.2780   -3.6575    0.0000 O   0  0
    4.2895   -2.2358    0.0000 O   0  0
    5.9377   -2.2337    0.0000 C   0  0  2  0  0  0
    6.7618   -2.2327    0.0000 C   0  0
    5.5265   -2.9479    0.0000 C   0  0
    7.1747   -2.9458    0.0000 O   0  0
    7.1730   -1.5185    0.0000 O   0  0
  9 10  2  0
 17 18  1  0
 18 19  1  0
 19 20  1  0
 20 16  1  0
  3  6  1  0
 20 21  1  0
  5  4  1  0
 21 22  1  0
  5  6  1  0
 22 23  1  0
 23 24  1  0
  9 12  1  0
 21 25  1  6
 10 17  1  0
 16 26  1  1
 16 11  1  0
 20 27  1  6
 11 12  1  0
  3 28  1  0
  1  2  1  0
  3 29  1  0
  2 13  2  0
  6 30  1  6
  1  4  1  0
  8 31  1  1
  5 14  1  1
 12 32  2  0
  2  3  1  0
 18 33  1  6
 17 15  1  6
 23 34  2  0
 16 17  1  0
 24 35  1  0
  5  9  1  0
 35 36  1  0
  6  7  1  0
 35 37  1  6
  7  8  1  0
 36 38  1  0
  8 10  1  0
 36 39  2  0
M  END