
  SciTegic09081514192D

 42 47  0  0  0  0            999 V2000
  -10.4558   -0.9043    0.0000 N   0  0
  -11.4540   -2.0239    0.0000 N   0  0
  -10.6977   -3.3193    0.0000 C   0  0
   -9.2320   -3.0003    0.0000 C   0  0
   -9.1014   -1.5188    0.0000 C   0  0
  -11.2976   -4.6922    0.0000 C   0  0
  -10.5861   -5.6586    0.0000 O   0  0
  -12.4901   -4.8256    0.0000 O   0  0
  -10.7662    0.5640    0.0000 C   0  0
   -9.7365    1.6475    0.0000 C   0  0
  -10.1624    3.0857    0.0000 C   0  0
  -11.6209    3.4361    0.0000 C   0  0
  -12.6536    2.3481    0.0000 C   0  0
  -12.2277    0.9099    0.0000 C   0  0
  -11.9616    4.5867    0.0000 Cl  0  0
   -9.3363    3.9561    0.0000 Cl  0  0
   -7.8042   -0.7641    0.0000 C   0  0
   -7.8091    0.7359    0.0000 C   0  0
   -6.5125    1.4901    0.0000 C   0  0
   -5.2109    0.7445    0.0000 C   0  0
   -5.2061   -0.7556    0.0000 C   0  0
   -6.5027   -1.5098    0.0000 C   0  0
   -3.9122    1.4966    0.0000 C   0  0
   -1.2964    1.4973    0.0000 C   0  0
   -2.6111    0.7486    0.0000 N   0  0
   -2.6111   -0.7486    0.0000 C   0  0
   -1.2964   -1.4973    0.0000 C   0  0
    0.0000   -0.7486    0.0000 C   0  0
    1.2964   -1.4973    0.0000 C   0  0
    2.5929   -0.7486    0.0000 C   0  0
    2.5929    0.7486    0.0000 C   0  0
    1.2964    1.4973    0.0000 C   0  0
    0.0000    0.7486    0.0000 C   0  0
   -1.2928    2.6973    0.0000 S   0  0
    5.2449   -0.8800    0.0000 O   0  0
    3.8926   -1.4990    0.0000 C   0  0
    4.0282   -2.9800    0.0000 C   0  0
    5.4950   -3.2941    0.0000 C   0  0
    6.2469   -1.9962    0.0000 C   0  0
    7.7369   -1.8388    0.0000 C   0  0
    8.2251   -0.7425    0.0000 O   0  0
    8.4425   -2.8094    0.0000 O   0  0
  1  2  1  0
  2  3  2  0
  3  4  1  0
  4  5  2  0
  1  5  1  0
  6  7  2  0
  6  8  1  0
  3  6  1  0
  9 10  1  0
 10 11  2  0
 11 12  1  0
 12 13  2  0
 13 14  1  0
  9 14  2  0
 12 15  1  0
 11 16  1  0
  1  9  1  0
 17 18  1  0
 18 19  2  0
 19 20  1  0
 20 21  2  0
 21 22  1  0
 17 22  2  0
 24 25  1  0
 25 26  1  0
 26 27  1  0
 27 28  1  0
 28 29  1  0
 29 30  2  0
 30 31  1  0
 31 32  2  0
 32 33  1  0
 24 33  1  0
 28 33  2  0
 24 34  2  0
 35 36  1  0
 36 37  2  0
 37 38  1  0
 38 39  2  0
 35 39  1  0
 40 41  2  0
 40 42  1  0
 39 40  1  0
 30 36  1  0
 23 25  1  0
 20 23  1  0
  5 17  1  0
M  END