
          11280715502D 1   1.00000     0.00000     0

 30 33  0     0  0            999 V2000
    1.9928   -7.4549    0.0000 C   0  0  0  0  0  0           0  0  0
   -0.1507   -8.6924    0.0000 C   0  0  3  0  0  0           0  0  0
    0.5652   -9.1049    0.0000 C   0  0  0  0  0  0           0  0  0
    1.2769   -8.6924    0.0000 C   0  0  0  0  0  0           0  0  0
    1.2769   -7.8674    0.0000 N   0  0  3  0  0  0           0  0  0
    0.5652   -7.4549    0.0000 C   0  0  0  0  0  0           0  0  0
   -0.1507   -7.8674    0.0000 C   0  0  0  0  0  0           0  0  0
   -0.8665   -9.1049    0.0000 C   0  0  0  0  0  0           0  0  0
   -1.5782   -8.6924    0.0000 C   0  0  0  0  0  0           0  0  0
   -1.6672   -7.8743    0.0000 C   0  0  0  0  0  0           0  0  0
   -2.4732   -7.7019    0.0000 N   0  0  0  0  0  0           0  0  0
   -2.8857   -8.4136    0.0000 C   0  0  0  0  0  0           0  0  0
   -2.3327   -9.0300    0.0000 N   0  0  0  0  0  0           0  0  0
    2.7069   -7.8680    0.0000 C   0  0  0  0  0  0           0  0  0
    3.4167   -7.4500    0.0000 C   0  0  0  0  0  0           0  0  0
    4.1347   -7.8563    0.0000 O   0  0  0  0  0  0           0  0  0
    4.8456   -7.4376    0.0000 C   0  0  0  0  0  0           0  0  0
    5.5668   -7.8486    0.0000 C   0  0  0  0  0  0           0  0  0
    6.2772   -7.4306    0.0000 C   0  0  0  0  0  0           0  0  0
    4.8400   -6.6190    0.0000 C   0  0  0  0  0  0           0  0  0
    5.5474   -6.1987    0.0000 C   0  0  0  0  0  0           0  0  0
    6.2672   -6.6055    0.0000 C   0  0  0  0  0  0           0  0  0
    6.9773   -6.1855    0.0000 C   0  0  0  0  0  0           0  0  0
    7.6961   -6.5904    0.0000 N   0  0  3  0  0  0           0  0  0
    7.7026   -7.4177    0.0000 C   0  0  0  0  0  0           0  0  0
    8.4173   -7.8226    0.0000 C   0  0  0  0  0  0           0  0  0
    9.1298   -7.4060    0.0000 N   0  0  0  0  0  0           0  0  0
    9.1230   -6.5801    0.0000 C   0  0  0  0  0  0           0  0  0
    8.4037   -6.1707    0.0000 C   0  0  0  0  0  0           0  0  0
    6.9685   -5.3605    0.0000 O   0  0  0  0  0  0           0  0  0
  4  5  1  0     0  0
 14 15  1  0     0  0
  5  6  1  0     0  0
 15 16  1  0     0  0
  6  7  1  0     0  0
 16 17  1  0     0  0
  2  8  1  0     0  0
 17 18  2  0     0  0
  8  9  1  0     0  0
 18 19  1  0     0  0
 19 22  2  0     0  0
  9 10  2  0     0  0
 21 20  2  0     0  0
 20 17  1  0     0  0
  2  3  1  0     0  0
 10 11  1  0     0  0
 21 22  1  0     0  0
 11 12  1  0     0  0
 22 23  1  0     0  0
 12 13  2  0     0  0
 23 24  1  0     0  0
 24 25  1  0     0  0
 13  9  1  0     0  0
  5  1  1  0     0  0
  2  7  1  0     0  0
  3  4  1  0     0  0
 24 29  1  0     0  0
 25 26  1  0     0  0
 26 27  1  0     0  0
 27 28  1  0     0  0
 28 29  1  0     0  0
  1 14  1  0     0  0
 23 30  2  0     0  0
M  END