
          11280714442D 1   1.00000     0.00000     0

 22 22  0     0  0            999 V2000
    3.7792   -3.8250    0.0000 N   0  3  0  0  0  0           0  0  0
    4.4750   -3.3792    0.0000 C   0  0  0  0  0  0           0  0  0
    5.8625   -2.4917    0.0000 C   0  0  0  0  0  0           0  0  0
    6.5542   -2.0417    0.0000 C   0  0  0  0  0  0           0  0  0
    5.1292   -2.1042    0.0000 C   0  0  0  0  0  0           0  0  0
    4.4375   -2.5542    0.0000 C   0  0  0  0  0  0           0  0  0
    5.9042   -3.3125    0.0000 C   0  0  0  0  0  0           0  0  0
    3.0417   -3.4417    0.0000 O   0  5  0  0  0  0           0  0  0
    3.8167   -4.6417    0.0000 O   0  0  0  0  0  0           0  0  0
    7.2875   -2.4250    0.0000 O   0  0  0  0  0  0           0  0  0
    5.2125   -3.7542    0.0000 C   0  0  0  0  0  0           0  0  0
   10.1417   -2.2917    0.0000 N   0  0  0  0  0  0           0  0  0
    6.5167   -1.2250    0.0000 O   0  0  0  0  0  0           0  0  0
   10.8292   -1.8542    0.0000 C   0  0  3  0  0  0           0  0  0
    8.7167   -2.3625    0.0000 C   0  0  3  0  0  0           0  0  0
    7.9792   -1.9792    0.0000 C   0  0  0  0  0  0           0  0  0
    9.4125   -1.9167    0.0000 C   0  0  0  0  0  0           0  0  0
    8.7542   -3.1875    0.0000 O   0  0  0  0  0  0           0  0  0
    5.0917   -1.2792    0.0000 C   0  0  0  0  0  0           0  0  0
   10.8042   -1.0292    0.0000 C   0  0  0  0  0  0           0  0  0
   11.3917   -1.2417    0.0000 C   0  0  0  0  0  0           0  0  0
   11.5667   -2.2292    0.0000 C   0  0  0  0  0  0           0  0  0
  2  1  1  0     0  0
  3  7  1  0     0  0
  4  3  1  0     0  0
  5  6  1  0     0  0
  6  2  2  0     0  0
  7 11  2  0     0  0
  8  1  1  0     0  0
  9  1  2  0     0  0
 10  4  1  0     0  0
 11  2  1  0     0  0
 12 17  1  0     0  0
 13  4  2  0     0  0
 14 12  1  0     0  0
 15 16  1  0     0  0
 16 10  1  0     0  0
 17 15  1  0     0  0
 18 15  1  0     0  0
 19  5  1  0     0  0
 20 14  1  0     0  0
 21 14  1  0     0  0
 22 14  1  0     0  0
  5  3  2  0     0  0
M  CHG  2   1   1   8  -1
M  END