
  SciTegic11201309402D

 68 75  0  0  1  0            999 V2000
    2.8000   -1.0292    0.0000 C   0  0
    3.6167   -1.0625    0.0000 C   0  0  2  0  0  0
    1.5125   -1.3917    0.0000 C   0  0
    4.2750   -1.5792    0.0000 C   0  0
    1.5417   -0.5667    0.0000 N   0  0
    2.2875   -1.6792    0.0000 O   0  0
    6.2292   -3.1167    0.0000 C   0  0
    0.1917   -3.1292    0.0000 C   0  0
    6.4667   -1.4792    0.0000 C   0  0
    8.5417   -2.1917    0.0000 C   0  0
    5.0417   -1.2667    0.0000 N   0  0
   -0.6000   -1.9417    0.0000 C   0  0
    2.3375   -0.3417    0.0000 C   0  0
    0.3792   -4.4625    0.0000 N   0  0
    7.4917   -3.5792    0.0000 N   0  0
    0.0792   -1.4792    0.0000 N   0  0
    7.1167   -1.9917    0.0000 N   0  0
    9.3167   -1.8875    0.0000 N   0  0
    0.8292   -1.8500    0.0000 C   0  0  2  0  0  0
    0.7667   -3.7292    0.0000 C   0  0
    7.0292   -2.8917    0.0000 C   0  0
    5.6917   -1.7875    0.0000 C   0  0  2  0  0  0
    7.8917   -1.6792    0.0000 C   0  0  1  0  0  0
    9.9667   -2.4042    0.0000 C   0  0  2  0  0  0
   10.7375   -2.0917    0.0000 C   0  0
   -0.5375   -3.4917    0.0000 C   0  0
    6.1917   -3.9500    0.0000 C   0  0
    0.8792   -2.6792    0.0000 C   0  0
    5.5792   -2.6042    0.0000 C   0  0
   -0.4333   -4.3042    0.0000 C   0  0
    6.9792   -4.2375    0.0000 C   0  0
    3.7417   -0.2375    0.0000 C   0  0
   -1.8208   -2.1125    0.0000 N   0  0
   -1.2875   -1.6000    0.0000 C   0  0  1  0  0  0
    4.1542   -2.4000    0.0000 O   0  0
    6.5792   -0.6542    0.0000 O   0  0
    8.4250   -3.0167    0.0000 O   0  0
   -0.5583   -2.7667    0.0000 O   0  0
    9.8417   -3.2292    0.0000 C   0  0
   10.8542   -1.2750    0.0000 O   0  0
    8.0042   -0.8625    0.0000 C   0  0
   11.5167   -2.3542    0.0000 N   0  0
    4.5125    0.0708    0.0000 C   0  0
   10.5000   -3.7375    0.0000 C   0  0
   -1.3000   -3.1792    0.0000 C   0  0
    5.5542   -4.4792    0.0000 C   0  0
   -2.4833   -1.6042    0.0000 C   0  0
    8.7792   -0.5542    0.0000 C   0  0
   -1.0750   -4.8042    0.0000 C   0  0
    7.1167   -5.0542    0.0000 C   0  0
   -1.3958   -0.8417    0.0000 C   0  0
    4.6292    0.8875    0.0000 C   0  0
   11.2667   -3.4292    0.0000 C   0  0
    5.1625   -0.4500    0.0000 C   0  0
   10.3792   -4.5625    0.0000 C   0  0
    8.9000    0.2708    0.0000 C   0  0
    9.4292   -1.0667    0.0000 C   0  0
   -2.2125   -0.8292    0.0000 C   0  0
   -1.9500   -3.6792    0.0000 C   0  0
    5.6917   -5.2917    0.0000 C   0  0
   -1.8458   -4.5000    0.0000 C   0  0
    6.4792   -5.5875    0.0000 C   0  0
    5.9292   -0.1417    0.0000 C   0  0
   11.9167   -3.9417    0.0000 C   0  0
   11.0292   -5.0792    0.0000 C   0  0
    5.4000    1.1958    0.0000 C   0  0
    6.0542    0.6833    0.0000 C   0  0
   11.8042   -4.7667    0.0000 C   0  0
  2  1  1  0
  3  6  1  0
  4  2  1  0
  5 13  1  0
  6  1  1  0
  7 29  1  0
  8 28  1  0
  9 22  1  0
 10 23  1  0
 11  4  1  0
 12 16  1  0
 13  1  2  0
 14 20  1  0
 15 21  1  0
 19 16  1  1
 17  9  1  0
 18 10  1  0
 19  3  1  0
 20  8  2  0
 21  7  2  0
 22 11  1  1
 23 17  1  1
 24 18  1  6
 25 24  1  0
 26  8  1  0
 27  7  1  0
 19 28  1  0
 22 29  1  0
 30 26  2  0
 31 27  2  0
  2 32  1  1
 33 34  1  0
 34 12  1  1
 35  4  2  0
 36  9  2  0
 37 10  2  0
 38 12  2  0
 24 39  1  0
 40 25  2  0
 23 41  1  0
 42 25  1  0
 43 32  1  0
 44 39  1  0
 45 26  1  0
 46 27  1  0
 47 33  1  0
 48 41  1  0
 49 30  1  0
 50 31  1  0
 34 51  1  0
 52 43  1  0
 53 44  1  0
 54 43  2  0
 55 44  2  0
 56 48  1  0
 57 48  1  0
 58 51  1  0
 59 45  2  0
 60 46  2  0
 61 59  1  0
 62 60  1  0
 63 54  1  0
 64 53  2  0
 65 55  1  0
 66 52  2  0
 67 63  2  0
 68 65  2  0
  3  5  2  0
 67 66  1  0
 14 30  1  0
 58 47  1  0
 15 31  1  0
 49 61  2  0
 62 50  2  0
 68 64  1  0
M  END