
          11280714442D 1   1.00000     0.00000     0

 27 28  0     0  0            999 V2000
    2.8417   -4.2917    0.0000 C   0  0  0  0  0  0           0  0  0
    2.1417   -4.7375    0.0000 C   0  0  0  0  0  0           0  0  0
    9.2000   -2.7667    0.0000 C   0  0  0  0  0  0           0  0  0
    3.5750   -4.6750    0.0000 O   0  0  0  0  0  0           0  0  0
    9.9375   -3.1500    0.0000 C   0  0  0  0  0  0           0  0  0
    1.4125   -4.3542    0.0000 C   0  0  0  0  0  0           0  0  0
    2.8042   -3.4667    0.0000 O   0  0  0  0  0  0           0  0  0
    8.5042   -3.2167    0.0000 C   0  0  0  0  0  0           0  0  0
    9.9750   -3.9750    0.0000 C   0  0  0  0  0  0           0  0  0
    0.7167   -4.8042    0.0000 C   0  0  0  0  0  0           0  0  0
    4.2667   -4.2292    0.0000 C   0  0  0  0  0  0           0  0  0
    8.5500   -4.0292    0.0000 C   0  0  0  0  0  0           0  0  0
    5.0000   -4.6042    0.0000 C   0  0  3  0  0  0           0  0  0
    9.2792   -4.4167    0.0000 C   0  0  0  0  0  0           0  0  0
    9.1542   -1.9417    0.0000 O   0  0  0  0  0  0           0  0  0
    6.4292   -4.5417    0.0000 N   0  0  0  0  0  0           0  0  0
   -0.0125   -4.4250    0.0000 F   0  0  0  0  0  0           0  0  0
   10.6292   -2.7042    0.0000 O   0  0  0  0  0  0           0  0  0
    5.0375   -5.4292    0.0000 O   0  0  0  0  0  0           0  0  0
    2.1875   -5.5542    0.0000 C   0  0  0  0  0  0           0  0  0
    1.4917   -6.0042    0.0000 C   0  0  0  0  0  0           0  0  0
    5.6917   -4.1625    0.0000 C   0  0  0  0  0  0           0  0  0
    0.7542   -5.6250    0.0000 C   0  0  0  0  0  0           0  0  0
    7.1167   -4.1000    0.0000 C   0  0  0  0  0  0           0  0  0
    7.8542   -4.4792    0.0000 C   0  0  0  0  0  0           0  0  0
    9.8500   -1.5000    0.0000 C   0  0  0  0  0  0           0  0  0
   11.3625   -3.0792    0.0000 C   0  0  0  0  0  0           0  0  0
  2  1  1  0     0  0
  3  8  2  0     0  0
  4  1  1  0     0  0
  5  9  2  0     0  0
  6  2  2  0     0  0
  7  1  2  0     0  0
  8 12  1  0     0  0
  9 14  1  0     0  0
 10  6  1  0     0  0
 11  4  1  0     0  0
 12 25  1  0     0  0
 13 11  1  0     0  0
 14 12  2  0     0  0
 15  3  1  0     0  0
 16 22  1  0     0  0
 17 10  1  0     0  0
 18  5  1  0     0  0
 19 13  1  0     0  0
 20  2  1  0     0  0
 21 20  2  0     0  0
 22 13  1  0     0  0
 23 21  1  0     0  0
 24 16  1  0     0  0
 25 24  1  0     0  0
 26 15  1  0     0  0
 27 18  1  0     0  0
 23 10  2  0     0  0
  5  3  1  0     0  0
M  END