
  SciTegic01161211242D

 28 30  0  0  0  0            999 V2000
   -2.9884    1.2787    0.0000 C   0  0
   -2.9884    0.4491    0.0000 C   0  0
   -2.2738    0.0366    0.0000 C   0  0
   -1.5548    0.4491    0.0000 C   0  0
   -1.5548    1.2787    0.0000 C   0  0
   -2.2738    1.6959    0.0000 C   0  0
   -3.7038    1.6895    0.0000 O   0  0
   -0.8400    1.6905    0.0000 C   0  0
   -2.2750   -0.7884    0.0000 C   0  0
   -0.8409    0.0356    0.0000 C   0  0
   -0.8420   -0.7894    0.0000 C   0  0  1  0  0  0
   -0.1281   -1.2028    0.0000 C   0  0
   -1.5570   -1.2009    0.0000 N   0  0
   -0.1292   -2.0278    0.0000 O   0  0
    0.5868   -0.7913    0.0000 N   0  0
    1.2980   -1.2057    0.0000 C   0  0  1  0  0  0
    2.0109   -0.7977    0.0000 C   0  0
    0.5834    0.0337    0.0000 C   0  0
    1.3025    0.4433    0.0000 C   0  0
    2.0137    0.0266    0.0000 C   0  0
    2.7281    0.4341    0.0000 C   0  0
    2.7325    1.2581    0.0000 C   0  0
    2.0166    1.6730    0.0000 C   0  0
    1.3051    1.2631    0.0000 C   0  0
    1.2947   -2.0307    0.0000 C   0  0
    0.5787   -2.4403    0.0000 O   0  0
    2.0076   -2.4460    0.0000 O   0  0
    2.0075   -1.6179    0.0000 H   0  0
 12 14  2  0
  1  7  1  0
 12 15  1  0
 15 16  1  0
  1  2  1  0
  5  8  1  0
  1  6  2  0
 15 18  1  0
 16 17  1  0
 17 20  1  0
 19 18  1  0
  3  9  1  0
  2  3  2  0
 19 20  2  0
  4 10  1  0
 20 21  1  0
  3  4  1  0
 21 22  2  0
 11 10  1  1
 22 23  1  0
  4  5  2  0
 23 24  2  0
 24 19  1  0
 11 12  1  0
 16 25  1  0
  5  6  1  0
 25 26  2  0
 11 13  1  0
 25 27  1  0
 16 28  1  6
M  END