
          08180812492D 1   1.00000     0.00000     0

 21 22  0     0  0            999 V2000
    9.8319  -12.8291    0.0000 N   0  0  0  0  0  0           0  0  0
    9.8307  -13.6565    0.0000 C   0  0  0  0  0  0           0  0  0
   10.5456  -14.0694    0.0000 N   0  0  0  0  0  0           0  0  0
   11.2620  -13.6560    0.0000 C   0  0  0  0  0  0           0  0  0
   11.2591  -12.8255    0.0000 C   0  0  0  0  0  0           0  0  0
   10.5438  -12.4164    0.0000 C   0  0  0  0  0  0           0  0  0
   11.9721  -12.4103    0.0000 C   0  0  0  0  0  0           0  0  0
   12.6881  -12.8201    0.0000 C   0  0  0  0  0  0           0  0  0
   12.7811  -13.6392    0.0000 C   0  0  0  0  0  0           0  0  0
   13.5887  -13.8077    0.0000 C   0  0  0  0  0  0           0  0  0
   13.9985  -13.0916    0.0000 S   0  0  0  0  0  0           0  0  0
   13.4441  -12.4807    0.0000 C   0  0  0  0  0  0           0  0  0
   12.1714  -14.1949    0.0000 C   0  0  0  0  0  0           0  0  0
   13.9271  -14.5601    0.0000 C   0  0  0  0  0  0           0  0  0
   14.7479  -14.6432    0.0000 C   0  0  0  0  0  0           0  0  0
   15.0863  -15.3956    0.0000 O   0  0  0  0  0  0           0  0  0
   10.5413  -11.5914    0.0000 N   0  0  0  0  0  0           0  0  0
    9.1159  -14.0684    0.0000 N   0  0  0  0  0  0           0  0  0
    8.4018  -13.6554    0.0000 C   0  0  0  0  0  0           0  0  0
    7.6870  -14.0673    0.0000 C   0  0  0  0  0  0           0  0  0
    8.4025  -12.8304    0.0000 O   0  0  0  0  0  0           0  0  0
  5  6  2  0     0  0
  9 10  2  0     0  0
 10 11  1  0     0  0
 11 12  1  0     0  0
 12  8  2  0     0  0
  6  1  1  0     0  0
  9 13  1  0     0  0
  1  2  2  0     0  0
 10 14  1  0     0  0
  5  7  1  0     0  0
 14 15  1  0     0  0
  3  4  2  0     0  0
 15 16  1  0     0  0
  7  8  1  0     0  0
  6 17  1  0     0  0
  8  9  1  0     0  0
  2 18  1  0     0  0
 18 19  1  0     0  0
  4  5  1  0     0  0
 19 20  1  0     0  0
  2  3  1  0     0  0
 19 21  2  0     0  0
M  END