
  Mrv0541 04051115152D          

 23 24  0  0  0  0            999 V2000
    1.3979    2.0088    0.0000 S   0  0  0  0  0  0  0  0  0  0  0  0
   -0.0311   -0.4662    0.0000 N   0  0  0  0  0  0  0  0  0  0  0  0
   -0.7455   -0.0537    0.0000 N   0  0  0  0  0  0  0  0  0  0  0  0
   -1.4600   -0.4662    0.0000 C   0  0  0  0  0  0  0  0  0  0  0  0
    0.6834   -0.0537    0.0000 C   0  0  0  0  0  0  0  0  0  0  0  0
   -3.6034   -1.7037    0.0000 O   0  0  0  0  0  0  0  0  0  0  0  0
    2.1123    0.7713    0.0000 C   0  0  0  0  0  0  0  0  0  0  0  0
   -2.1745    0.7713    0.0000 N   0  0  0  0  0  0  0  0  0  0  0  0
   -2.1745   -2.5287    0.0000 C   0  0  0  0  0  0  0  0  0  0  0  0
    2.8268    1.1838    0.0000 C   0  0  0  0  0  0  0  0  0  0  0  0
    1.3979   -1.2912    0.0000 C   0  0  0  0  0  0  0  0  0  0  0  0
    1.3979    2.8338    0.0000 O   0  0  0  0  0  0  0  0  0  0  0  0
   -2.8890   -1.2912    0.0000 C   0  0  0  0  0  0  0  0  0  0  0  0
    0.5729    2.0088    0.0000 O   0  0  0  0  0  0  0  0  0  0  0  0
    2.2229    2.0088    0.0000 O   0  0  0  0  0  0  0  0  0  0  0  0
   -2.1745   -0.0537    0.0000 C   0  0  0  0  0  0  0  0  0  0  0  0
   -1.4600   -1.2912    0.0000 C   0  0  0  0  0  0  0  0  0  0  0  0
   -2.8890   -0.4662    0.0000 C   0  0  0  0  0  0  0  0  0  0  0  0
   -2.1745   -1.7037    0.0000 C   0  0  0  0  0  0  0  0  0  0  0  0
    0.6834    0.7713    0.0000 C   0  0  0  0  0  0  0  0  0  0  0  0
    1.3979   -0.4662    0.0000 C   0  0  0  0  0  0  0  0  0  0  0  0
    1.3979    1.1838    0.0000 C   0  0  0  0  0  0  0  0  0  0  0  0
    2.1123   -0.0537    0.0000 C   0  0  0  0  0  0  0  0  0  0  0  0
 12  1  1  0  0  0  0
 14  1  2  0  0  0  0
 15  1  2  0  0  0  0
 22  1  1  0  0  0  0
  2  3  2  0  0  0  0
  5  2  1  0  0  0  0
  4  3  1  0  0  0  0
 16  4  2  0  0  0  0
 17  4  1  0  0  0  0
  5 20  2  0  0  0  0
  5 21  1  0  0  0  0
 13  6  1  0  0  0  0
  7 10  1  0  0  0  0
 22  7  2  0  0  0  0
 23  7  1  0  0  0  0
 16  8  1  0  0  0  0
 19  9  1  0  0  0  0
 21 11  1  0  0  0  0
 18 13  2  0  0  0  0
 19 13  1  0  0  0  0
 16 18  1  0  0  0  0
 17 19  2  0  0  0  0
 20 22  1  0  0  0  0
 21 23  2  0  0  0  0
M  END