
  SciTegic05071317012D

 27 28  0  0  0  0            999 V2000
   14.7070  -28.5366    0.0000 C   0  0  1  0  0  0
   15.3634  -29.0363    0.0000 O   0  0
   16.0415  -28.5665    0.0000 C   0  0  2  0  0  0
   15.8042  -27.7763    0.0000 C   0  0
   14.9795  -27.7579    0.0000 O   0  0
   16.8202  -28.8390    0.0000 C   0  0
   16.9736  -29.6495    0.0000 S   0  3
   17.7523  -29.9220    0.0000 C   0  0
   16.3483  -30.1877    0.0000 C   0  0
   13.9169  -28.7738    0.0000 C   0  0
   13.3163  -28.2083    0.0000 C   0  0
   13.7273  -29.5768    0.0000 C   0  0
   13.5086  -27.4051    0.0000 C   0  0
   12.9088  -26.8398    0.0000 C   0  0
   12.1178  -27.0768    0.0000 C   0  0
   11.9298  -27.8845    0.0000 C   0  0
   12.5310  -28.4463    0.0000 C   0  0
   12.9367  -29.8087    0.0000 C   0  0
   12.7469  -30.6109    0.0000 C   0  0
   13.3478  -31.1775    0.0000 C   0  0
   14.1413  -30.9364    0.0000 C   0  0
   14.3273  -30.1348    0.0000 C   0  0
   18.7473  -28.2051    0.0000 Cl  0  0
   18.7473  -29.0301    0.0000 O   0  0
   17.9223  -28.2051    0.0000 O   0  0
   18.7473  -27.3801    0.0000 O   0  5
   19.5723  -28.2051    0.0000 O   0  0
  1  2  1  0
  3  2  1  0
  3  4  1  0
  4  5  1  0
  1  5  1  0
  3  6  1  6
  6  7  1  0
  7  8  1  0
  7  9  1  0
  1 10  1  6
 10 11  1  0
 10 12  1  0
 11 13  2  0
 13 14  1  0
 14 15  2  0
 15 16  1  0
 16 17  2  0
 17 11  1  0
 12 18  2  0
 18 19  1  0
 19 20  2  0
 20 21  1  0
 21 22  2  0
 22 12  1  0
 23 24  2  0
 23 25  2  0
 23 26  1  0
 23 27  2  0
M  CHG  2   7   1  26  -1
M  END