
          11280715102D 1   1.00000     0.00000     0

 30 33  0     0  0            999 V2000
    3.7542   -4.8125    0.0000 C   0  0  0  0  0  0           0  0  0
    3.7542   -3.9875    0.0000 N   0  0  3  0  0  0           0  0  0
    5.8917   -2.7417    0.0000 N   0  0  3  0  0  0           0  0  0
    3.0417   -5.2250    0.0000 C   0  0  0  0  0  0           0  0  0
    4.4750   -3.5667    0.0000 C   0  0  3  0  0  0           0  0  0
    3.0417   -3.5750    0.0000 C   0  0  0  0  0  0           0  0  0
    4.4750   -5.2167    0.0000 O   0  0  0  0  0  0           0  0  0
    4.4750   -2.7417    0.0000 C   0  0  0  0  0  0           0  0  0
    5.1792   -3.9792    0.0000 C   0  0  0  0  0  0           0  0  0
    5.1792   -2.3292    0.0000 C   0  0  0  0  0  0           0  0  0
    5.8917   -3.5667    0.0000 C   0  0  0  0  0  0           0  0  0
    6.6125   -2.3375    0.0000 C   0  0  0  0  0  0           0  0  0
    2.3292   -4.8042    0.0000 C   0  0  0  0  0  0           0  0  0
    3.0542   -6.0417    0.0000 C   0  0  0  0  0  0           0  0  0
    3.0417   -2.7500    0.0000 C   0  0  0  0  0  0           0  0  0
    2.3292   -3.9917    0.0000 C   0  0  0  0  0  0           0  0  0
    1.6167   -6.0500    0.0000 C   0  0  0  0  0  0           0  0  0
    1.6167   -2.7542    0.0000 C   0  0  0  0  0  0           0  0  0
    1.6167   -5.2167    0.0000 C   0  0  0  0  0  0           0  0  0
    2.3292   -2.3375    0.0000 C   0  0  0  0  0  0           0  0  0
    2.3417   -6.4542    0.0000 C   0  0  0  0  0  0           0  0  0
    1.6167   -3.5792    0.0000 C   0  0  0  0  0  0           0  0  0
    0.9042   -6.4625    0.0000 Cl  0  0  0  0  0  0           0  0  0
    0.9000   -2.3417    0.0000 Br  0  0  0  0  0  0           0  0  0
    7.3250   -2.7500    0.0000 C   0  0  0  0  0  0           0  0  0
    8.0375   -2.3417    0.0000 C   0  0  0  0  0  0           0  0  0
    7.3167   -3.5792    0.0000 C   0  0  0  0  0  0           0  0  0
    8.0292   -3.9917    0.0000 C   0  0  0  0  0  0           0  0  0
    8.7500   -2.7542    0.0000 C   0  0  0  0  0  0           0  0  0
    8.7500   -3.5792    0.0000 C   0  0  0  0  0  0           0  0  0
  2  1  1  0     0  0
  3 11  1  0     0  0
  4  1  1  0     0  0
  5  2  1  0     0  0
  6  2  1  0     0  0
  7  1  2  0     0  0
  8  5  1  0     0  0
  9  5  1  0     0  0
 10  8  1  0     0  0
 11  9  1  0     0  0
 12  3  1  0     0  0
 13  4  2  0     0  0
 14  4  1  0     0  0
 15  6  2  0     0  0
 16  6  1  0     0  0
 17 21  1  0     0  0
 18 22  1  0     0  0
 19 13  1  0     0  0
 20 15  1  0     0  0
 21 14  2  0     0  0
 22 16  2  0     0  0
 23 17  1  0     0  0
 24 18  1  0     0  0
 25 12  1  0     0  0
 26 25  1  0     0  0
 27 25  2  0     0  0
 28 27  1  0     0  0
 29 26  2  0     0  0
 30 28  2  0     0  0
 17 19  2  0     0  0
 18 20  2  0     0  0
 10  3  1  0     0  0
 29 30  1  0     0  0
M  END