
  CDK    5/12/10,14:52

 33 36  0  0  0  0  0  0  0  0999 V2000
    2.8448    3.6026    0.0000 C   0  0  0  0  0  0  0  0  0  0  0  0
    2.8435    2.7751    0.0000 C   0  0  0  0  0  0  0  0  0  0  0  0
    3.5565    2.3621    0.0000 C   0  0  0  0  0  0  0  0  0  0  0  0
    4.2758    2.7755    0.0000 C   0  0  0  0  0  0  0  0  0  0  0  0
    4.2726    3.6067    0.0000 C   0  0  0  0  0  0  0  0  0  0  0  0
    3.5545    4.0155    0.0000 C   0  0  0  0  0  0  0  0  0  0  0  0
    3.5562    1.5410    0.0000 C   0  0  0  0  0  0  0  0  0  0  0  0
    2.8392    1.1309    0.0000 C   0  0  0  0  0  0  0  0  0  0  0  0
    2.8359    0.3095    0.0000 N   0  0  0  0  0  0  0  0  0  0  0  0
    3.5478   -0.1080    0.0000 N   0  0  0  0  0  0  0  0  0  0  0  0
    4.2648    0.3021    0.0000 C   0  0  0  0  0  0  0  0  0  0  0  0
    4.2699    1.1297    0.0000 C   0  0  0  0  0  0  0  0  0  0  0  0
    2.1276    1.5438    0.0000 C   0  0  0  0  0  0  0  0  0  0  0  0
    2.1323    2.3699    0.0000 C   0  0  0  0  0  0  0  0  0  0  0  0
    1.4203    2.7852    0.0000 C   0  0  0  0  0  0  0  0  0  0  0  0
    0.7031    2.3755    0.0000 C   0  0  0  0  0  0  0  0  0  0  0  0
    0.7025    1.5462    0.0000 C   0  0  0  0  0  0  0  0  0  0  0  0
    1.4150    1.1347    0.0000 C   0  0  0  0  0  0  0  0  0  0  0  0
   -0.0102    2.7900    0.0000 Cl  0  0  0  0  0  0  0  0  0  0  0  0
    3.5434   -0.9330    0.0000 C   0  0  0  0  0  0  0  0  0  0  0  0
    2.8266   -1.3416    0.0000 N   0  0  0  0  0  0  0  0  0  0  0  0
    4.2556   -1.3494    0.0000 N   0  0  0  0  0  0  0  0  0  0  0  0
    4.9724   -0.9407    0.0000 C   0  0  0  0  0  0  0  0  0  0  0  0
    2.8221   -2.1666    0.0000 S   0  0  0  0  0  0  0  0  0  0  0  0
    2.1055   -2.5753    0.0000 C   0  0  0  0  0  0  0  0  0  0  0  0
    3.5292   -1.7463    0.0000 O   0  0  0  0  0  0  0  0  0  0  0  0
    3.2267   -2.8738    0.0000 O   0  0  0  0  0  0  0  0  0  0  0  0
    1.3976   -2.1564    0.0000 C   0  0  0  0  0  0  0  0  0  0  0  0
    0.6814   -2.5644    0.0000 C   0  0  0  0  0  0  0  0  0  0  0  0
    0.6764   -3.3903    0.0000 C   0  0  0  0  0  0  0  0  0  0  0  0
    1.3936   -3.8066    0.0000 C   0  0  0  0  0  0  0  0  0  0  0  0
    2.1069   -3.3962    0.0000 C   0  0  0  0  0  0  0  0  0  0  0  0
   -0.0398   -3.7998    0.0000 Cl  0  0  0  0  0  0  0  0  0  0  0  0
 16 17  1  0  0  0  0 
  4  5  1  0  0  0  0 
 17 18  2  0  0  0  0 
 18 13  1  0  0  0  0 
  8 13  1  0  0  0  0 
  2  3  1  0  0  0  0 
 16 19  1  0  0  0  0 
  5  6  2  0  0  0  0 
 10 20  1  0  0  0  0 
  7 12  1  0  0  0  0 
 20 21  2  0  0  0  0 
  8  9  2  0  0  0  0 
 20 22  1  0  0  0  0 
  9 10  1  0  0  0  0 
 22 23  1  0  0  0  0 
 10 11  1  0  0  0  0 
 21 24  1  0  0  0  0 
 11 12  1  0  0  0  0 
 24 25  1  0  0  0  0 
  3  7  1  0  0  0  0 
 24 26  2  0  0  0  0 
  6  1  1  0  0  0  0 
 24 27  2  0  0  0  0 
  7  8  1  0  0  0  0 
 25 28  2  0  0  0  0 
 13 14  2  0  0  0  0 
 28 29  1  0  0  0  0 
  1  2  2  0  0  0  0 
 29 30  2  0  0  0  0 
 14 15  1  0  0  0  0 
 30 31  1  0  0  0  0 
  3  4  2  0  0  0  0 
 31 32  2  0  0  0  0 
 32 25  1  0  0  0  0 
 15 16  2  0  0  0  0 
 30 33  1  0  0  0  0 
M  END