
  SciTegic01161211252D

 62 67  0  0  0  0            999 V2000
   11.8028   -6.1063    0.0000 C   0  0
   11.7994   -5.2782    0.0000 C   0  0
   11.0837   -4.8687    0.0000 C   0  0
   10.3682   -5.2842    0.0000 C   0  0
   10.3670   -6.1121    0.0000 C   0  0
   11.0859   -6.5293    0.0000 C   0  0
   12.5157   -6.5176    0.0000 O   0  0
    9.6539   -6.5264    0.0000 C   0  0
   11.0821   -4.0437    0.0000 C   0  0
    9.6533   -4.8729    0.0000 C   0  0
    9.6518   -4.0479    0.0000 C   0  0  1  0  0  0
    8.9370   -3.6321    0.0000 C   0  0
   10.3652   -3.6342    0.0000 N   0  0
    8.9355   -2.8071    0.0000 O   0  0
    8.2236   -4.0459    0.0000 N   0  0
    7.5089   -3.6332    0.0000 C   0  0  1  0  0  0
    6.7991   -4.0457    0.0000 C   0  0
    8.2282   -4.8708    0.0000 C   0  0
    7.5080   -5.2815    0.0000 C   0  0
    6.7977   -4.8695    0.0000 C   0  0
    6.0809   -5.2811    0.0000 C   0  0
    6.0814   -6.1044    0.0000 C   0  0
    6.7950   -6.5179    0.0000 C   0  0
    7.5070   -6.1024    0.0000 C   0  0
    7.5109   -2.8082    0.0000 C   0  0
    8.2260   -2.3974    0.0000 O   0  0
    6.7977   -2.3939    0.0000 N   0  0
    6.0760   -2.8064    0.0000 C   0  0
    8.2887   -3.1864    0.0000 H   0  0
    1.7872   -2.8006    0.0000 N   0  0
    2.5044   -2.3881    0.0000 C   0  0
   -3.2566    0.8599    0.0000 C   0  0
   -3.2440    0.0319    0.0000 C   0  0
   -2.5259   -0.3749    0.0000 C   0  0
   -1.8129    0.0480    0.0000 C   0  0
   -1.8210    0.8759    0.0000 C   0  0
   -2.5467    1.2857    0.0000 C   0  0
   -3.9763    1.2591    0.0000 O   0  0
   -1.1102    1.2974    0.0000 C   0  0
   -2.5152   -1.1998    0.0000 C   0  0
   -1.0912   -0.3558    0.0000 C   0  0
   -1.0850   -1.1807    0.0000 C   0  0  1  0  0  0
   -0.3634   -1.5892    0.0000 C   0  0
   -1.7961   -1.6018    0.0000 N   0  0
   -0.3573   -2.4140    0.0000 O   0  0
    0.3476   -1.1680    0.0000 N   0  0
    1.0600   -1.5733    0.0000 C   0  0  1  0  0  0
    1.7675   -1.1536    0.0000 C   0  0
    0.3337   -0.3432    0.0000 C   0  0
    1.0470    0.0749    0.0000 C   0  0
    1.7642   -0.3299    0.0000 C   0  0
    2.4696    0.0845    0.0000 C   0  0
    2.4643    0.9078    0.0000 C   0  0
    1.7439    1.3139    0.0000 C   0  0
    1.0389    0.8957    0.0000 C   0  0
    1.0672   -2.3983    0.0000 C   0  0
    0.3590   -2.8164    0.0000 O   0  0
    1.8214   -2.0107    0.0000 H   0  0
    3.2181   -2.8018    0.0000 C   0  0
    3.9332   -2.3904    0.0000 C   0  0
    4.6470   -2.8041    0.0000 C   0  0
    5.3623   -2.3927    0.0000 C   0  0
  1  2  1  0
  1  6  2  0
  2  3  2  0
  3  4  1  0
  4  5  2  0
  5  6  1  0
  1  7  1  0
  5  8  1  0
  3  9  1  0
  4 10  1  0
 11 10  1  1
 11 12  1  0
 11 13  1  0
 12 14  2  0
 12 15  1  0
 15 16  1  0
 15 18  1  0
 16 17  1  0
 17 20  1  0
 19 18  1  0
 19 20  2  0
 20 21  1  0
 21 22  2  0
 22 23  1  0
 23 24  2  0
 24 19  1  0
 16 25  1  0
 25 26  2  0
 30 31  1  0
 32 33  1  0
 32 37  2  0
 33 34  2  0
 34 35  1  0
 35 36  2  0
 36 37  1  0
 32 38  1  0
 36 39  1  0
 34 40  1  0
 35 41  1  0
 42 41  1  1
 42 43  1  0
 42 44  1  0
 43 45  2  0
 43 46  1  0
 46 47  1  0
 46 49  1  0
 47 48  1  0
 48 51  1  0
 50 49  1  0
 50 51  2  0
 51 52  1  0
 52 53  2  0
 53 54  1  0
 54 55  2  0
 55 50  1  0
 47 56  1  0
 56 57  2  0
 56 30  1  0
 47 58  1  6
 25 27  1  0
 31 59  1  0
 28 27  1  0
 59 60  1  0
 16 29  1  6
 60 61  2  0
 61 62  1  0
 62 28  1  0
M  END