
  Mrv0541 04051115152D          

 14 16  0  0  0  0            999 V2000
    1.1235   -0.4329    0.0000 C   0  0  0  0  0  0  0  0  0  0  0  0
    0.3389   -0.6878    0.0000 N   0  0  0  0  0  0  0  0  0  0  0  0
   -0.1460   -0.0204    0.0000 C   0  0  0  0  0  0  0  0  0  0  0  0
   -0.9710   -0.0204    0.0000 C   0  0  0  0  0  0  0  0  0  0  0  0
   -1.4560   -0.6878    0.0000 C   0  0  0  0  0  0  0  0  0  0  0  0
   -2.2406   -0.4329    0.0000 S   0  0  0  0  0  0  0  0  0  0  0  0
   -2.2406    0.3921    0.0000 C   0  0  0  0  0  0  0  0  0  0  0  0
   -1.4560    0.6470    0.0000 N   0  0  0  0  0  0  0  0  0  0  0  0
    0.3389    0.6470    0.0000 N   0  0  0  0  0  0  0  0  0  0  0  0
    1.1235    0.3921    0.0000 C   0  0  0  0  0  0  0  0  0  0  0  0
    1.8380    0.8046    0.0000 C   0  0  0  0  0  0  0  0  0  0  0  0
    2.5525    0.3921    0.0000 C   0  0  0  0  0  0  0  0  0  0  0  0
    2.5525   -0.4329    0.0000 C   0  0  0  0  0  0  0  0  0  0  0  0
    1.8380   -0.8454    0.0000 C   0  0  0  0  0  0  0  0  0  0  0  0
  1  2  1  0  0  0  0
  1 10  2  0  0  0  0
 14  1  1  0  0  0  0
  3  2  2  0  0  0  0
  4  3  1  0  0  0  0
  3  9  1  0  0  0  0
  4  5  2  0  0  0  0
  4  8  1  0  0  0  0
  5  6  1  0  0  0  0
  7  6  1  0  0  0  0
  7  8  2  0  0  0  0
 10  9  1  0  0  0  0
 11 10  1  0  0  0  0
 12 11  2  0  0  0  0
 13 12  1  0  0  0  0
 14 13  2  0  0  0  0
M  END