
  SciTegic10011413212D

 35 38  0  0  0  0            999 V2000
    6.2985   -3.3708    0.0000 C   0  0
    6.2973   -4.1981    0.0000 C   0  0
    7.0122   -4.6110    0.0000 C   0  0
    7.7286   -4.1977    0.0000 C   0  0
    7.7257   -3.3671    0.0000 C   0  0
    7.0104   -2.9580    0.0000 C   0  0
    8.4386   -2.9519    0.0000 C   0  0
    9.1547   -3.3618    0.0000 N   0  0
    8.4356   -2.1269    0.0000 O   0  0
    9.8676   -2.9466    0.0000 C   0  0
    5.5839   -2.9585    0.0000 O   0  0
    4.8695   -3.3711    0.0000 C   0  0  2  0  0  0
    4.1550   -2.9588    0.0000 C   0  0
    4.8697   -4.1961    0.0000 C   0  0
    3.4406   -3.3715    0.0000 O   0  0
    7.0120   -5.4360    0.0000 O   0  0
    6.2973   -5.8483    0.0000 C   0  0
    5.5865   -5.4326    0.0000 N   0  0
    4.8724   -5.8442    0.0000 C   0  0
    4.8718   -6.6701    0.0000 C   0  0
    5.5912   -7.0826    0.0000 N   0  0
    6.3023   -6.6685    0.0000 C   0  0
    4.1577   -7.0834    0.0000 C   0  0
    3.4429   -6.6716    0.0000 N   0  0
    4.1586   -7.9083    0.0000 O   0  0
    3.2256   -5.8768    0.0000 C   0  0
    2.4289   -6.0911    0.0000 C   0  0
    2.6433   -6.8877    0.0000 C   0  0
   10.5819   -3.3598    0.0000 N   0  0
   11.2944   -2.9452    0.0000 C   0  0
   11.2918   -2.1194    0.0000 C   0  0
   10.5706   -1.7098    0.0000 N   0  0
    9.8612   -2.1267    0.0000 C   0  0
   12.0041   -1.7033    0.0000 C   0  0
    2.7261   -2.9591    0.0000 C   0  0
  1  2  2  0
  2  3  1  0
  3  4  2  0
  4  5  1  0
  5  6  2  0
  6  1  1  0
  5  7  1  0
  7  8  1  0
  7  9  2  0
  8 10  1  0
  1 11  1  0
 11 12  1  0
 12 13  1  0
 12 14  1  1
 13 15  1  0
  3 16  1  0
 16 17  1  0
 17 18  2  0
 18 19  1  0
 19 20  2  0
 20 21  1  0
 21 22  2  0
 22 17  1  0
 20 23  1  0
 23 24  1  0
 23 25  2  0
 24 26  1  0
 26 27  1  0
 27 28  1  0
 28 24  1  0
 10 29  2  0
 29 30  1  0
 30 31  2  0
 31 32  1  0
 32 33  2  0
 33 10  1  0
 31 34  1  0
 15 35  1  0
M  END