
  SciTegic01161211222D

 19 20  0  0  0  0            999 V2000
    2.8375   -3.1250    0.0000 N   0  0
    2.0000   -2.6375    0.0000 N   0  0
    2.2417   -3.1875    0.0000 C   0  0
    2.9667   -2.5375    0.0000 C   0  0
    2.4417   -2.2375    0.0000 C   0  0
    6.0250   -2.5917    0.0000 N   0  0
    8.2125   -3.1500    0.0000 C   0  0
    7.1750   -2.5417    0.0000 C   0  0
    8.7375   -3.4625    0.0000 Cl  0  0
    7.6875   -3.4500    0.0000 C   0  0
    8.2125   -2.5500    0.0000 C   0  0
    7.1750   -3.1500    0.0000 C   0  0
    7.6875   -2.2417    0.0000 C   0  0
    6.6417   -2.2375    0.0000 C   0  0
    5.5917   -2.2375    0.0000 C   0  0
    3.4917   -2.2375    0.0000 C   0  0
    5.0667   -2.5375    0.0000 C   0  0
    4.0167   -2.5375    0.0000 C   0  0
    4.5417   -2.2375    0.0000 C   0  0
  2  3  1  0
  3  1  2  0
  4  1  1  0
  5  4  2  0
  6 15  1  0
  7 11  1  0
  8 14  1  0
  9  7  1  0
 10 12  1  0
 11 13  2  0
 12  8  2  0
 13  8  1  0
 14  6  1  0
 15 17  1  0
 16  4  1  0
 17 19  1  0
 18 16  1  0
 19 18  1  0
  5  2  1  0
 10  7  2  0
M  END