
          11280715462D 1   1.00000     0.00000     0

 29 32  0     0  0            999 V2000
   11.1667   -0.9625    0.0000 C   0  0  0  0  0  0           0  0  0
   11.9167   -1.2792    0.0000 O   0  0  0  0  0  0           0  0  0
   11.2375   -0.1417    0.0000 C   0  0  0  0  0  0           0  0  0
    6.1542   -2.2792    0.0000 N   0  0  3  0  0  0           0  0  0
    5.4417   -2.6917    0.0000 C   0  0  0  0  0  0           0  0  0
   10.4542   -1.3792    0.0000 C   0  0  0  0  0  0           0  0  0
   12.4542   -0.6667    0.0000 C   0  0  0  0  0  0           0  0  0
   12.0292    0.0375    0.0000 C   0  0  0  0  0  0           0  0  0
    4.7250   -2.2792    0.0000 C   0  0  0  0  0  0           0  0  0
    7.5875   -1.4375    0.0000 N   0  0  3  0  0  0           0  0  0
    5.4500   -3.5167    0.0000 C   0  0  0  0  0  0           0  0  0
    6.1542   -1.4375    0.0000 C   0  0  0  0  0  0           0  0  0
    6.8667   -2.6750    0.0000 C   0  0  0  0  0  0           0  0  0
   10.4792   -2.2125    0.0000 O   0  0  0  0  0  0           0  0  0
    9.7375   -0.9792    0.0000 N   0  0  0  0  0  0           0  0  0
    4.7375   -3.9417    0.0000 C   0  0  0  0  0  0           0  0  0
    4.0042   -2.7000    0.0000 C   0  0  0  0  0  0           0  0  0
    7.5875   -2.2792    0.0000 C   0  0  0  0  0  0           0  0  0
    6.8667   -1.0167    0.0000 C   0  0  0  0  0  0           0  0  0
    4.0125   -3.5292    0.0000 C   0  0  0  0  0  0           0  0  0
    3.2917   -2.2875    0.0000 Cl  0  0  0  0  0  0           0  0  0
    6.1667   -3.9250    0.0000 O   0  0  0  0  0  0           0  0  0
    9.0250   -1.4042    0.0000 C   0  0  0  0  0  0           0  0  0
    8.3167   -1.0125    0.0000 C   0  0  0  0  0  0           0  0  0
   13.2667   -0.6542    0.0000 C   0  0  0  0  0  0           0  0  0
   12.4292    0.7458    0.0000 C   0  0  0  0  0  0           0  0  0
    6.1750   -4.7500    0.0000 C   0  0  0  0  0  0           0  0  0
   13.2417    0.7625    0.0000 C   0  0  0  0  0  0           0  0  0
   13.6667    0.0583    0.0000 C   0  0  0  0  0  0           0  0  0
  2  1  1  0     0  0
  3  1  2  0     0  0
  4 12  1  0     0  0
  5  4  1  0     0  0
  6  1  1  0     0  0
  7  2  1  0     0  0
  8  3  1  0     0  0
  9  5  2  0     0  0
 10 24  1  0     0  0
 11  5  1  0     0  0
 12 19  1  0     0  0
 13 18  1  0     0  0
 14  6  2  0     0  0
 15  6  1  0     0  0
 16 11  2  0     0  0
 17  9  1  0     0  0
 18 10  1  0     0  0
 19 10  1  0     0  0
 20 16  1  0     0  0
 21 17  1  0     0  0
 22 11  1  0     0  0
 23 15  1  0     0  0
 24 23  1  0     0  0
 25  7  1  0     0  0
 26  8  1  0     0  0
 27 22  1  0     0  0
 28 26  2  0     0  0
 29 25  2  0     0  0
  7  8  2  0     0  0
 28 29  1  0     0  0
  4 13  1  0     0  0
 20 17  2  0     0  0
M  END