
  SciTegic06181315362D

 34 38  0  0  0  0            999 V2000
    9.7182   -4.0694    0.0000 N   0  0
    9.7171   -4.8889    0.0000 C   0  0
   10.4251   -5.2979    0.0000 N   0  0
   10.4233   -3.6605    0.0000 C   0  0
   11.1319   -4.0658    0.0000 C   0  0
   11.1322   -4.8890    0.0000 C   0  0
   11.9152   -5.1432    0.0000 N   0  0
   12.3989   -4.4770    0.0000 C   0  0
   11.9148   -3.8113    0.0000 N   0  0
   10.4209   -2.8434    0.0000 O   0  0
   11.1274   -2.4327    0.0000 C   0  0
   11.8342   -2.8415    0.0000 C   0  0
   12.5402   -2.4315    0.0000 C   0  0
   12.5382   -1.6134    0.0000 C   0  0
   11.8243   -1.2071    0.0000 C   0  0
   11.1212   -1.6195    0.0000 C   0  0
   13.2441   -1.2018    0.0000 N   0  0
   13.9536   -1.6073    0.0000 C   0  0
   14.6595   -1.1957    0.0000 C   0  0
   13.9571   -2.4245    0.0000 O   0  0
   15.3680   -1.6076    0.0000 C   0  0
   16.0718   -1.1994    0.0000 N   0  0
   16.0725   -0.3819    0.0000 C   0  0
   15.3632    0.0320    0.0000 C   0  0
   14.6532   -0.3840    0.0000 C   0  0
   15.3675   -2.4248    0.0000 O   0  0
   16.7758   -1.6096    0.0000 C   0  0
   16.7749   -2.4279    0.0000 C   0  0
   17.4820   -2.8360    0.0000 C   0  0
   18.1904   -2.4270    0.0000 C   0  0
   18.1874   -1.6056    0.0000 C   0  0
   17.4797   -1.2011    0.0000 C   0  0
   10.4106   -1.2160    0.0000 F   0  0
   18.8934   -1.1941    0.0000 F   0  0
  1  2  1  0
  2  3  2  0
  3  6  1  0
  5  4  1  0
  4  1  2  0
  5  6  2  0
  6  7  1  0
  7  8  1  0
  8  9  2  0
  9  5  1  0
  4 10  1  0
 10 11  1  0
 11 12  2  0
 12 13  1  0
 13 14  2  0
 14 15  1  0
 15 16  2  0
 16 11  1  0
 14 17  1  0
 17 18  1  0
 18 19  1  0
 18 20  2  0
 19 21  1  0
 19 25  2  0
 21 22  1  0
 22 23  1  0
 23 24  2  0
 24 25  1  0
 21 26  2  0
 27 28  2  0
 28 29  1  0
 29 30  2  0
 30 31  1  0
 31 32  2  0
 32 27  1  0
 22 27  1  0
 16 33  1  0
 31 34  1  0
M  END