
          11280715232D 1   1.00000     0.00000     0

 46 51  0     0  0            999 V2000
    4.4125   -6.2167    0.0000 N   0  0  0  0  0  0           0  0  0
    3.9375   -4.9667    0.0000 N   0  0  3  0  0  0           0  0  0
    5.0542   -5.7000    0.0000 C   0  0  0  0  0  0           0  0  0
    4.7625   -4.9292    0.0000 N   0  0  0  0  0  0           0  0  0
    0.2292   -2.8292    0.0000 N   0  0  3  0  0  0           0  0  0
    3.7167   -5.7667    0.0000 C   0  0  0  0  0  0           0  0  0
    1.0542   -2.7417    0.0000 N   0  0  0  0  0  0           0  0  0
    1.2250   -1.9375    0.0000 N   0  0  0  0  0  0           0  0  0
    0.5125   -1.5250    0.0000 N   0  0  0  0  0  0           0  0  0
   -0.1833   -3.5417    0.0000 C   0  0  0  0  0  0           0  0  0
   -0.1000   -2.0792    0.0000 C   0  0  0  0  0  0           0  0  0
    9.3250   -8.1667    0.0000 C   0  0  0  0  0  0           0  0  0
    0.2292   -4.2542    0.0000 C   0  0  0  0  0  0           0  0  0
    9.3250   -7.3417    0.0000 C   0  0  0  0  0  0           0  0  0
    8.6042   -8.5792    0.0000 C   0  0  0  0  0  0           0  0  0
    3.5292   -4.2542    0.0000 C   0  0  0  0  0  0           0  0  0
    5.7667   -6.1125    0.0000 S   0  0  0  0  0  0           0  0  0
    1.0542   -4.2542    0.0000 C   0  0  0  0  0  0           0  0  0
    8.6125   -6.9292    0.0000 C   0  0  0  0  0  0           0  0  0
    7.8917   -8.1667    0.0000 O   0  0  0  0  0  0           0  0  0
    7.8917   -7.3417    0.0000 C   0  0  0  0  0  0           0  0  0
    1.4667   -4.9667    0.0000 C   0  0  0  0  0  0           0  0  0
    8.6042   -6.1042    0.0000 C   0  0  0  0  0  0           0  0  0
    1.4625   -3.5417    0.0000 C   0  0  0  0  0  0           0  0  0
    2.7042   -4.2542    0.0000 C   0  0  0  0  0  0           0  0  0
    6.4792   -5.6917    0.0000 C   0  0  0  0  0  0           0  0  0
    8.6042   -9.4042    0.0000 O   0  0  0  0  0  0           0  0  0
    7.1917   -6.1042    0.0000 C   0  0  0  0  0  0           0  0  0
    2.2875   -4.9667    0.0000 C   0  0  0  0  0  0           0  0  0
    2.2875   -3.5375    0.0000 C   0  0  0  0  0  0           0  0  0
    7.1875   -6.9292    0.0000 C   0  0  0  0  0  0           0  0  0
    7.9000   -5.6917    0.0000 C   0  0  0  0  0  0           0  0  0
    2.9500   -6.0542    0.0000 C   0  0  0  0  0  0           0  0  0
   -1.0083   -3.5417    0.0000 C   0  0  0  0  0  0           0  0  0
   10.0375   -8.5792    0.0000 C   0  0  0  0  0  0           0  0  0
   10.0375   -6.9292    0.0000 C   0  0  0  0  0  0           0  0  0
   -0.1833   -4.9667    0.0000 C   0  0  0  0  0  0           0  0  0
    7.8917   -9.8167    0.0000 C   0  0  0  0  0  0           0  0  0
    2.8167   -6.8667    0.0000 C   0  0  0  0  0  0           0  0  0
    1.8000   -7.8792    0.0000 C   0  0  0  0  0  0           0  0  0
    2.0167   -7.0792    0.0000 C   0  0  0  0  0  0           0  0  0
   10.7542   -8.1667    0.0000 C   0  0  0  0  0  0           0  0  0
   10.7500   -7.3417    0.0000 C   0  0  0  0  0  0           0  0  0
   -1.0083   -4.9667    0.0000 C   0  0  0  0  0  0           0  0  0
   -1.4125   -4.2542    0.0000 C   0  0  0  0  0  0           0  0  0
    0.9750   -7.8750    0.0000 C   0  0  0  0  0  0           0  0  0
  2  6  1  0     0  0
  3  1  1  0     0  0
  4  3  2  0     0  0
  5 10  1  0     0  0
  6  1  2  0     0  0
  7  5  1  0     0  0
  8  7  2  0     0  0
  9 11  2  0     0  0
 10 13  2  0     0  0
 11  5  1  0     0  0
 12 14  2  0     0  0
 13 18  1  0     0  0
 14 19  1  0     0  0
 15 12  1  0     0  0
 16  2  1  0     0  0
 17  3  1  0     0  0
 18 24  1  0     0  0
 19 23  1  0     0  0
 20 15  2  0     0  0
 21 31  1  0     0  0
 22 29  1  0     0  0
 23 32  2  0     0  0
 24 30  2  0     0  0
 25 16  1  0     0  0
 26 17  1  0     0  0
 27 15  1  0     0  0
 28 26  1  0     0  0
 29 25  2  0     0  0
 30 25  1  0     0  0
 31 28  2  0     0  0
 32 28  1  0     0  0
 33  6  1  0     0  0
 34 10  1  0     0  0
 35 12  1  0     0  0
 36 14  1  0     0  0
 37 13  1  0     0  0
 38 27  1  0     0  0
 39 33  1  0     0  0
 40 41  1  0     0  0
 41 39  1  0     0  0
 42 43  1  0     0  0
 43 36  2  0     0  0
 44 37  2  0     0  0
 45 44  1  0     0  0
 46 40  1  0     0  0
  2  4  1  0     0  0
 22 18  2  0     0  0
 19 21  2  0     0  0
 45 34  2  0     0  0
 42 35  2  0     0  0
  9  8  1  0     0  0
M  END