
  SciTegic10311316262D

 33 35  0  0  0  0            999 V2000
   13.8362  -13.1979    0.0000 O   0  0
   13.4279  -12.4854    0.0000 S   0  0
   13.0150  -13.1953    0.0000 O   0  0
   14.1473  -11.2479    0.0000 C   0  0
   14.1461  -12.0753    0.0000 C   0  0
   14.8609  -12.4881    0.0000 C   0  0
   15.5774  -12.0748    0.0000 C   0  0
   15.5745  -11.2443    0.0000 C   0  0
   14.8591  -10.8351    0.0000 C   0  0
   12.7172  -12.0741    0.0000 N   0  0
   16.2874  -10.8291    0.0000 N   0  0
   17.0035  -11.2389    0.0000 C   0  0
   17.7164  -10.8237    0.0000 C   0  0
   17.0066  -12.0639    0.0000 O   0  0
   18.4324  -11.2335    0.0000 S   0  0
   19.1453  -10.8183    0.0000 C   0  0
   19.8612  -11.2313    0.0000 N   0  0
   20.5720  -10.8196    0.0000 C   0  0
   20.5731   -9.9943    0.0000 C   0  0
   19.8573   -9.5822    0.0000 C   0  0
   19.1402   -9.9956    0.0000 N   0  0
   19.8570   -8.7572    0.0000 O   0  0
   21.2883   -9.5860    0.0000 C   0  0
   22.0028   -9.1735    0.0000 N   0  0
   21.2848  -11.2312    0.0000 C   0  0
   21.2834  -12.0573    0.0000 C   0  0
   21.9970  -12.4698    0.0000 C   0  0
   22.7125  -12.0572    0.0000 C   0  0
   22.7099  -11.2280    0.0000 C   0  0
   21.9957  -10.8193    0.0000 C   0  0
   17.7133   -9.9987    0.0000 C   0  0
   16.9972   -9.5889    0.0000 C   0  0
   23.4275  -12.4688    0.0000 Cl  0  0
  2  1  2  0
  3  2  2  0
  4  5  2  0
  5  6  1  0
  6  7  2  0
  7  8  1  0
  8  9  2  0
  9  4  1  0
  5  2  1  0
  2 10  1  0
  8 11  1  0
 11 12  1  0
 12 13  1  0
 12 14  2  0
 13 15  1  0
 15 16  1  0
 16 17  2  0
 16 21  1  0
 17 18  1  0
 18 19  2  0
 19 20  1  0
 20 21  1  0
 20 22  2  0
 23 24  3  0
 19 23  1  0
 25 26  2  0
 26 27  1  0
 27 28  2  0
 28 29  1  0
 29 30  2  0
 30 25  1  0
 18 25  1  0
 13 31  1  0
 31 32  1  0
 28 33  1  0
M  END