
          11280715072D 1   1.00000     0.00000     0

 24 26  0     0  0            999 V2000
    3.7500   -1.5375    0.0000 C   0  0  0  0  0  0           0  0  0
    3.7500   -2.3667    0.0000 C   0  0  0  0  0  0           0  0  0
    3.0292   -1.1250    0.0000 C   0  0  0  0  0  0           0  0  0
    2.3167   -1.5417    0.0000 C   0  0  0  0  0  0           0  0  0
    3.0292   -2.7792    0.0000 C   0  0  0  0  0  0           0  0  0
    2.3167   -2.3667    0.0000 C   0  0  0  0  0  0           0  0  0
    4.4625   -1.1167    0.0000 C   0  0  0  0  0  0           0  0  0
    1.5375   -2.6167    0.0000 O   0  0  0  0  0  0           0  0  0
    1.5375   -1.2875    0.0000 C   0  0  0  0  0  0           0  0  0
    1.0542   -1.9542    0.0000 C   0  0  0  0  0  0           0  0  0
    4.4542   -0.2917    0.0000 O   0  0  0  0  0  0           0  0  0
    5.1792   -1.5292    0.0000 C   0  0  0  0  0  0           0  0  0
    4.4625   -2.7792    0.0000 O   0  0  0  0  0  0           0  0  0
    3.0292   -0.3042    0.0000 O   0  0  0  0  0  0           0  0  0
    3.0292   -3.6000    0.0000 O   0  0  0  0  0  0           0  0  0
    5.8917   -1.1167    0.0000 C   0  0  0  0  0  0           0  0  0
    6.6042   -1.5250    0.0000 C   0  0  0  0  0  0           0  0  0
    2.3167    0.1083    0.0000 C   0  0  0  0  0  0           0  0  0
    3.7417   -4.0042    0.0000 C   0  0  0  0  0  0           0  0  0
    6.6042   -2.3500    0.0000 C   0  0  0  0  0  0           0  0  0
    7.3125   -1.1042    0.0000 C   0  0  0  0  0  0           0  0  0
    8.0292   -1.5125    0.0000 C   0  0  0  0  0  0           0  0  0
    7.3167   -2.7542    0.0000 C   0  0  0  0  0  0           0  0  0
    8.0375   -2.3417    0.0000 C   0  0  0  0  0  0           0  0  0
  2  1  1  0     0  0
  3  1  2  0     0  0
  4  3  1  0     0  0
  5  2  2  0     0  0
  6  4  2  0     0  0
  7  1  1  0     0  0
  8  6  1  0     0  0
  9  4  1  0     0  0
 10  9  2  0     0  0
 11  7  2  0     0  0
 12  7  1  0     0  0
 13  2  1  0     0  0
 14  3  1  0     0  0
 15  5  1  0     0  0
 16 12  1  0     0  0
 17 16  1  0     0  0
 18 14  1  0     0  0
 19 15  1  0     0  0
 20 17  2  0     0  0
 21 17  1  0     0  0
 22 21  2  0     0  0
 23 20  1  0     0  0
 24 22  1  0     0  0
  5  6  1  0     0  0
  8 10  1  0     0  0
 24 23  2  0     0  0
M  END