
  SciTegic02271514372D

 24 26  0  0  0  0            999 V2000
   16.7764  -10.9422    0.0000 C   0  0
   17.4729  -10.5147    0.0000 C   0  0
   18.1921  -10.9053    0.0000 C   0  0
   18.2147  -11.7234    0.0000 C   0  0
   17.5182  -12.1508    0.0000 C   0  0
   16.7991  -11.7602    0.0000 C   0  0
   16.0594  -10.5551    0.0000 S   0  0
   15.6521   -9.8489    0.0000 O   0  0
   15.3516  -10.9625    0.0000 N   0  0
   13.9376   -9.3281    0.0000 C   0  0
   13.2285   -9.7367    0.0000 C   0  0
   13.2285  -10.5539    0.0000 C   0  0
   13.9376  -10.9625    0.0000 C   0  0
   14.6425  -10.5539    0.0000 C   0  0
   14.6425   -9.7367    0.0000 N   0  0
   12.9523   -8.4457    0.0000 C   0  0
   13.7668   -8.5297    0.0000 N   0  0
   12.6220   -9.1930    0.0000 N   0  0
   12.5437   -7.7366    0.0000 O   0  0
   13.9376  -11.7797    0.0000 O   0  0
   14.6425  -12.1883    0.0000 C   0  0
   18.8885  -10.4779    0.0000 Cl  0  0
   17.4524   -9.7001    0.0000 Cl  0  0
   16.4635   -9.8434    0.0000 O   0  0
  1  2  1  0
  2  3  2  0
  3  4  1  0
  4  5  2  0
  5  6  1  0
  1  6  2  0
  7  8  2  0
  7  9  1  0
  1  7  1  0
 10 11  1  0
 11 12  2  0
 12 13  1  0
 13 14  2  0
 14 15  1  0
 10 15  2  0
 16 17  1  0
 16 18  1  0
 10 17  1  0
 11 18  1  0
 16 19  2  0
 20 21  1  0
 13 20  1  0
  9 14  1  0
  3 22  1  0
  2 23  1  0
  7 24  2  0
M  END