
  SciTegic02181312462D

 29 33  0  0  0  0            999 V2000
    5.4564   -7.5865    0.0000 C   0  0
    5.4568   -6.7702    0.0000 C   0  0
    4.7496   -6.3608    0.0000 C   0  0
    4.0419   -6.7677    0.0000 C   0  0
    4.0415   -7.5840    0.0000 C   0  0
    4.7488   -7.9934    0.0000 N   0  0
    6.7140   -7.1775    0.0000 C   0  0
    6.2323   -7.8385    0.0000 N   0  0
    6.2321   -6.5164    0.0000 N   0  0
    4.7500   -5.5445    0.0000 N   0  0
    5.4598   -5.1340    0.0000 C   0  0
    5.4602   -4.3177    0.0000 C   0  0
    4.7530   -3.9083    0.0000 N   0  0
    4.0453   -4.3152    0.0000 C   0  0
    4.0428   -5.1351    0.0000 C   0  0
    4.7464   -3.0887    0.0000 C   0  0
    6.4437   -1.8281    0.0000 O   0  0
    5.6369   -1.9355    0.0000 N   0  0
    5.4842   -2.7374    0.0000 C   0  0
    6.2047   -3.1282    0.0000 C   0  0
    6.7949   -2.5660    0.0000 C   0  0
    7.6006   -2.7169    0.0000 C   0  0
    3.3347   -6.3583    0.0000 Cl  0  0
    7.5309   -7.1809    0.0000 C   0  0
    8.0104   -7.8430    0.0000 C   0  0
    8.7885   -7.5903    0.0000 N   0  0
    8.7872   -6.7720    0.0000 N   0  0
    8.0083   -6.5217    0.0000 C   0  0
    9.4500   -8.0702    0.0000 C   0  0
  1  2  1  0
  2  3  2  0
  3  4  1  0
  4  5  2  0
  5  6  1  0
  1  6  2  0
  7  8  1  0
  7  9  2  0
  1  8  1  0
  2  9  1  0
 10 11  1  0
 11 12  1  0
 12 13  1  0
 13 14  1  0
 14 15  1  0
 10 15  1  0
 17 18  1  0
 18 19  2  0
 19 20  1  0
 20 21  2  0
 17 21  1  0
 21 22  1  0
 16 19  1  0
 13 16  1  0
  3 10  1  0
  4 23  1  0
 25 26  1  0
 24 25  2  0
 26 27  1  0
 27 28  2  0
 28 24  1  0
  7 24  1  0
 26 29  1  0
M  END