
          11280715222D 1   1.00000     0.00000     0

 15 16  0     0  0            999 V2000
    4.3917    1.0375    0.0000 C   0  0  0  0  0  0           0  0  0
    3.5667    1.0333    0.0000 N   0  0  0  0  0  0           0  0  0
    4.6417    0.2583    0.0000 C   0  0  0  0  0  0           0  0  0
    3.9792   -0.2292    0.0000 C   0  0  0  0  0  0           0  0  0
    3.3125    0.2500    0.0000 O   0  0  0  0  0  0           0  0  0
    4.8750    1.7083    0.0000 C   0  0  0  0  0  0           0  0  0
    3.9875   -1.0542    0.0000 C   0  0  0  0  0  0           0  0  0
    4.5375    2.4583    0.0000 O   0  0  0  0  0  0           0  0  0
    3.2750   -1.4667    0.0000 C   0  0  0  0  0  0           0  0  0
    4.7042   -1.4667    0.0000 C   0  0  0  0  0  0           0  0  0
    5.6917    1.6208    0.0000 O   0  0  0  0  0  0           0  0  0
    3.9875   -2.7042    0.0000 C   0  0  0  0  0  0           0  0  0
    3.2750   -2.2917    0.0000 C   0  0  0  0  0  0           0  0  0
    4.7042   -2.2917    0.0000 C   0  0  0  0  0  0           0  0  0
    3.9875   -3.5292    0.0000 Br  0  0  0  0  0  0           0  0  0
  2  1  2  0     0  0
  3  1  1  0     0  0
  4  3  2  0     0  0
  5  2  1  0     0  0
  6  1  1  0     0  0
  7  4  1  0     0  0
  8  6  2  0     0  0
  9  7  1  0     0  0
 10  7  2  0     0  0
 11  6  1  0     0  0
 12 14  2  0     0  0
 13  9  2  0     0  0
 14 10  1  0     0  0
 15 12  1  0     0  0
  5  4  1  0     0  0
 13 12  1  0     0  0
M  END