
  SciTegic11081110012D

 28 31  0  0  0  0            999 V2000
    8.1126   -7.3472    0.0000 N   0  0
    8.1115   -8.1744    0.0000 C   0  0
    8.8258   -8.5873    0.0000 N   0  0
    8.8241   -6.9345    0.0000 C   0  0
    9.5389   -7.3438    0.0000 C   0  0
    9.5390   -8.1699    0.0000 C   0  0
   10.3247   -8.4252    0.0000 N   0  0
   10.8103   -7.7567    0.0000 C   0  0
   10.3246   -7.0886    0.0000 N   0  0
    8.8218   -6.1095    0.0000 N   0  0
   10.5797   -9.2098    0.0000 C   0  0  1  0  0  0
   10.0951   -9.8738    0.0000 C   0  0  1  0  0  0
   10.5800  -10.5412    0.0000 C   0  0  1  0  0  0
   11.3648  -10.2862    0.0000 C   0  0  2  0  0  0
   11.3646   -9.4612    0.0000 O   0  0
   12.0323  -10.7710    0.0000 C   0  0
   11.9462  -11.5915    0.0000 O   0  0
    9.2700   -9.8729    0.0000 O   0  0
   10.3252  -11.3258    0.0000 O   0  0
   12.6137  -12.0763    0.0000 C   0  0
   12.5275  -12.8968    0.0000 C   0  0
   11.7718  -13.2297    0.0000 C   0  0
   11.6854  -14.0494    0.0000 N   0  0
   12.3534  -14.5351    0.0000 C   0  0
   13.1098  -14.1952    0.0000 C   0  0
   13.1925  -13.3766    0.0000 C   0  0
   11.6353   -7.7566    0.0000 N   0  0
   12.0479   -8.4710    0.0000 C   0  0
  1  2  2  0
 12 13  1  0
 13 14  1  0
 14 15  1  0
 15 11  1  0
  5  4  2  0
 14 16  1  6
  6  7  1  0
 16 17  1  0
  7  8  1  0
 12 18  1  1
  8  9  2  0
 13 19  1  1
  9  5  1  0
 17 20  1  0
  4  1  1  0
 20 21  1  0
  4 10  1  0
 21 22  2  0
  5  6  1  0
 22 23  1  0
 11  7  1  6
 23 24  2  0
 11 12  1  0
 24 25  1  0
 25 26  2  0
 26 21  1  0
  2  3  1  0
  8 27  1  0
  3  6  2  0
 27 28  1  0
M  END