
          11280715042D 1   1.00000     0.00000     0

 22 23  0     0  0            999 V2000
    0.5500   -0.1875    0.0000 S   0  0  3  0  0  0           0  0  0
    2.6750   -1.2917    0.0000 N   0  3  0  0  0  0           0  0  0
   -3.1458   -0.3417    0.0000 N   0  0  0  0  0  0           0  0  0
    1.0792   -0.4625    0.0000 C   0  0  0  0  0  0           0  0  0
    2.1417   -1.0042    0.0000 C   0  0  0  0  0  0           0  0  0
   -3.0958    0.6250    0.0000 N   0  0  0  0  0  0           0  0  0
   -3.4708    0.1583    0.0000 C   0  0  0  0  0  0           0  0  0
   -2.5625   -0.1875    0.0000 C   0  0  0  0  0  0           0  0  0
    0.2000    0.5208    0.0000 O   0  0  0  0  0  0           0  0  0
    0.8875    0.5208    0.0000 O   0  0  0  0  0  0           0  0  0
    2.7000   -1.8917    0.0000 O   0  5  0  0  0  0           0  0  0
    3.1875   -0.9667    0.0000 O   0  0  0  0  0  0           0  0  0
    0.0292   -0.4875    0.0000 N   0  0  0  0  0  0           0  0  0
   -2.5333    0.4125    0.0000 C   0  0  0  0  0  0           0  0  0
    1.1042   -1.0417    0.0000 C   0  0  0  0  0  0           0  0  0
    1.5792   -0.1500    0.0000 C   0  0  0  0  0  0           0  0  0
    2.1167   -0.4250    0.0000 C   0  0  0  0  0  0           0  0  0
    1.6375   -1.3167    0.0000 C   0  0  0  0  0  0           0  0  0
   -2.0458   -0.4875    0.0000 C   0  0  0  0  0  0           0  0  0
   -0.4875   -0.1875    0.0000 C   0  0  0  0  0  0           0  0  0
   -1.5333   -0.1875    0.0000 C   0  0  0  0  0  0           0  0  0
   -1.0083   -0.4875    0.0000 C   0  0  0  0  0  0           0  0  0
  2  5  1  0     0  0
  3  8  1  0     0  0
  4  1  1  0     0  0
  5 17  2  0     0  0
  6 14  1  0     0  0
  7  3  2  0     0  0
  8 19  1  0     0  0
  9  1  2  0     0  0
 10  1  2  0     0  0
 11  2  1  0     0  0
 12  2  2  0     0  0
 13  1  1  0     0  0
 14  8  2  0     0  0
 15  4  1  0     0  0
 16  4  2  0     0  0
 17 16  1  0     0  0
 18 15  2  0     0  0
 19 21  1  0     0  0
 20 13  1  0     0  0
 21 22  1  0     0  0
 22 20  1  0     0  0
  5 18  1  0     0  0
  6  7  1  0     0  0
M  CHG  2   2   1  11  -1
M  END