
          11280715452D 1   1.00000     0.00000     0

 62 68  0     0  0            999 V2000
   -4.6625   -1.4250    0.0000 N   0  0  3  0  0  0           0  0  0
    4.8542    1.6000    0.0000 N   0  0  3  0  0  0           0  0  0
    5.0500    0.6708    0.0000 N   0  3  0  0  0  0           0  0  0
    5.4000    1.7208    0.0000 C   0  0  0  0  0  0           0  0  0
    4.5750    2.0833    0.0000 C   0  0  0  0  0  0           0  0  0
   -5.1208   -1.1167    0.0000 C   0  0  0  0  0  0           0  0  0
    5.5917    0.7833    0.0000 C   0  0  0  0  0  0           0  0  0
   -4.1833   -1.1375    0.0000 C   0  0  0  0  0  0           0  0  0
   -5.8458   -1.8042    0.0000 C   0  0  0  0  0  0           0  0  0
   -4.6208   -1.9792    0.0000 C   0  0  0  0  0  0           0  0  0
   -5.6583   -1.2917    0.0000 C   0  0  0  0  0  0           0  0  0
    5.7667    1.3083    0.0000 C   0  0  0  0  0  0           0  0  0
   -5.5708   -2.2792    0.0000 N   0  0  0  0  0  0           0  0  0
    4.5750    1.1208    0.0000 B   0  5  0  0  0  0           0  0  0
    4.9542    2.5000    0.0000 C   0  0  0  0  0  0           0  0  0
   -5.0208   -2.3542    0.0000 C   0  0  0  0  0  0           0  0  0
    4.0167    2.0875    0.0000 C   0  0  0  0  0  0           0  0  0
    5.4625    2.2708    0.0000 C   0  0  0  0  0  0           0  0  0
    4.9917    0.1208    0.0000 C   0  0  0  0  0  0           0  0  0
    5.8667    0.3083    0.0000 C   0  0  0  0  0  0           0  0  0
    5.5000   -0.1042    0.0000 C   0  0  0  0  0  0           0  0  0
   -3.7083   -0.3000    0.0000 N   0  0  3  0  0  0           0  0  0
   -4.1875   -0.5875    0.0000 C   0  0  0  0  0  0           0  0  0
    3.6917    1.6458    0.0000 S   0  0  0  0  0  0           0  0  0
   -4.0958   -2.1375    0.0000 N   0  0  0  0  0  0           0  0  0
   -2.7583    0.2625    0.0000 N   0  0  3  0  0  0           0  0  0
    3.5542   -0.1542    0.0000 C   0  0  0  0  0  0           0  0  0
   -3.7833   -1.5250    0.0000 O   0  0  0  0  0  0           0  0  0
   -6.4000   -1.7875    0.0000 O   0  0  0  0  0  0           0  0  0
    0.1875    0.1208    0.0000 C   0  0  0  0  0  0           0  0  0
    3.6917    2.5458    0.0000 C   0  0  0  0  0  0           0  0  0
    3.1625    1.8208    0.0000 C   0  0  0  0  0  0           0  0  0
    4.5125   -0.1542    0.0000 C   0  0  0  0  0  0           0  0  0
    3.1625    2.3833    0.0000 C   0  0  0  0  0  0           0  0  0
    4.1792    0.7333    0.0000 F   0  0  0  0  0  0           0  0  0
    4.0917    1.4000    0.0000 F   0  0  0  0  0  0           0  0  0
    3.5542   -0.7167    0.0000 O   0  0  0  0  0  0           0  0  0
    0.1875   -0.4292    0.0000 O   0  0  0  0  0  0           0  0  0
    4.6542    1.0625    0.0000 C   0  0  0  0  0  0           0  0  0
    3.0667    0.1208    0.0000 N   0  0  0  0  0  0           0  0  0
   -0.2958    0.4083    0.0000 N   0  0  0  0  0  0           0  0  0
   -3.7208    0.2583    0.0000 C   0  0  0  0  0  0           0  0  0
   -3.2250   -0.5667    0.0000 C   0  0  0  0  0  0           0  0  0
   -3.2458    0.5333    0.0000 C   0  0  0  0  0  0           0  0  0
   -2.7500   -0.2875    0.0000 C   0  0  0  0  0  0           0  0  0
    4.0375    0.1208    0.0000 C   0  0  0  0  0  0           0  0  0
   -6.0417   -0.9167    0.0000 C   0  0  0  0  0  0           0  0  0
   -5.0000   -0.5792    0.0000 C   0  0  0  0  0  0           0  0  0
   -4.8958   -2.9000    0.0000 C   0  0  0  0  0  0           0  0  0
   -2.2750    0.5458    0.0000 C   0  0  0  0  0  0           0  0  0
   -3.9583   -2.6750    0.0000 C   0  0  0  0  0  0           0  0  0
    0.6667    0.4000    0.0000 C   0  0  0  0  0  0           0  0  0
    2.6000    0.3958    0.0000 C   0  0  0  0  0  0           0  0  0
   -0.8333    0.2625    0.0000 C   0  0  0  0  0  0           0  0  0
   -1.7958    0.2625    0.0000 C   0  0  0  0  0  0           0  0  0
    1.1542    0.1208    0.0000 C   0  0  0  0  0  0           0  0  0
   -1.3083    0.5458    0.0000 C   0  0  0  0  0  0           0  0  0
    2.1125    0.1208    0.0000 C   0  0  0  0  0  0           0  0  0
   -4.3583   -3.0542    0.0000 C   0  0  0  0  0  0           0  0  0
   -5.9458   -0.3792    0.0000 C   0  0  0  0  0  0           0  0  0
   -5.4083   -0.2042    0.0000 C   0  0  0  0  0  0           0  0  0
    1.6292    0.4000    0.0000 C   0  0  0  0  0  0           0  0  0
  2  4  1  0     0  0
  3 19  2  0     0  0
  4 12  1  0     0  0
  5  2  1  0     0  0
  6  1  1  0     0  0
  7  3  1  0     0  0
  8  1  1  0     0  0
  9 11  1  0     0  0
 10  1  1  0     0  0
 11  6  2  0     0  0
 12  7  2  0     0  0
 13 16  1  0     0  0
 14  2  1  0     0  0
 15 18  1  0     0  0
 16 10  2  0     0  0
 17  5  1  0     0  0
 18  4  2  0     0  0
 19 33  1  0     0  0
 20 21  2  0     0  0
 21 19  1  0     0  0
 22 23  1  0     0  0
 23  8  1  0     0  0
 24 17  1  0     0  0
 25 10  1  0     0  0
 26 45  1  0     0  0
 27 40  1  0     0  0
 28  8  2  0     0  0
 29  9  2  0     0  0
 30 41  1  0     0  0
 31 17  2  0     0  0
 32 24  1  0     0  0
 33 46  1  0     0  0
 34 31  1  0     0  0
 35 14  1  0     0  0
 36 14  1  0     0  0
 37 27  2  0     0  0
 38 30  2  0     0  0
 39  3  1  0     0  0
 40 53  1  0     0  0
 41 54  1  0     0  0
 42 22  1  0     0  0
 43 22  1  0     0  0
 44 42  1  0     0  0
 45 43  1  0     0  0
 46 27  1  0     0  0
 47 11  1  0     0  0
 48  6  1  0     0  0
 49 16  1  0     0  0
 50 26  1  0     0  0
 51 25  2  0     0  0
 52 30  1  0     0  0
 53 58  1  0     0  0
 54 57  1  0     0  0
 55 50  1  0     0  0
 56 52  1  0     0  0
 57 55  1  0     0  0
 58 62  1  0     0  0
 59 51  1  0     0  0
 60 61  1  0     0  0
 61 48  2  0     0  0
 62 56  1  0     0  0
 13  9  1  0     0  0
 49 59  2  0     0  0
 47 60  2  0     0  0
 44 26  1  0     0  0
  7 20  1  0     0  0
  5 15  2  0     0  0
 34 32  2  0     0  0
M  CHG  2   3   1  14  -1
M  END