
          11280714592D 1   1.00000     0.00000     0

 33 36  0     1  0            999 V2000
    4.8917   -3.7375    0.0000 S   0  0  3  0  0  0           0  0  0
    7.1167   -3.7417    0.0000 S   0  0  3  0  0  0           0  0  0
    5.0542   -3.1542    0.0000 N   0  0  3  0  0  0           0  0  0
    4.1167   -1.8292    0.0000 C   0  0  2  0  0  0           0  0  0
    4.1125   -2.4292    0.0000 C   0  0  0  0  0  0           0  0  0
    4.6375   -1.5292    0.0000 N   0  0  3  0  0  0           0  0  0
    4.6292   -2.7375    0.0000 C   0  0  1  0  0  0           0  0  0
    3.5917   -1.5292    0.0000 C   0  0  0  0  0  0           0  0  0
    5.4917   -3.7375    0.0000 O   0  0  0  0  0  0           0  0  0
    4.2917   -3.7292    0.0000 O   0  0  0  0  0  0           0  0  0
    4.7417   -4.3167    0.0000 C   0  0  0  0  0  0           0  0  0
    5.1542   -2.4375    0.0000 C   0  0  0  0  0  0           0  0  0
    6.5250   -4.1125    0.0000 O   0  0  0  0  0  0           0  0  0
    7.6500   -3.5167    0.0000 O   0  0  0  0  0  0           0  0  0
    6.6292   -3.2750    0.0000 N   0  0  0  0  0  0           0  0  0
    5.1542   -1.8292    0.0000 C   0  0  0  0  0  0           0  0  0
    3.5917   -0.9292    0.0000 C   0  0  0  0  0  0           0  0  0
    4.6375   -0.9292    0.0000 C   0  0  0  0  0  0           0  0  0
    5.6292   -3.0042    0.0000 C   0  0  0  0  0  0           0  0  0
    6.0542   -3.4292    0.0000 C   0  0  0  0  0  0           0  0  0
    4.1167   -0.6250    0.0000 C   0  0  0  0  0  0           0  0  0
    7.4917   -4.2417    0.0000 C   0  0  0  0  0  0           0  0  0
    3.0750   -1.8292    0.0000 C   0  0  0  0  0  0           0  0  0
    4.1625   -4.4667    0.0000 C   0  0  0  0  0  0           0  0  0
    5.1667   -4.7292    0.0000 C   0  0  0  0  0  0           0  0  0
    3.0750   -0.6292    0.0000 C   0  0  0  0  0  0           0  0  0
    2.5542   -1.5292    0.0000 C   0  0  0  0  0  0           0  0  0
    2.5542   -0.9292    0.0000 C   0  0  0  0  0  0           0  0  0
    5.0167   -5.3125    0.0000 C   0  0  0  0  0  0           0  0  0
    4.0125   -5.0500    0.0000 C   0  0  0  0  0  0           0  0  0
    4.4375   -5.4750    0.0000 C   0  0  0  0  0  0           0  0  0
    4.2167   -3.2375    0.0000 H   0  0  0  0  0  0           0  0  0
    3.5917   -2.1250    0.0000 H   0  0  0  0  0  0           0  0  0
  2 15  1  0     0  0
  3  1  1  0     0  0
  4  5  1  0     0  0
  5  7  1  0     0  0
  6 16  1  0     0  0
  7  3  1  0     0  0
  8  4  1  0     0  0
  9  1  2  0     0  0
 10  1  2  0     0  0
 11  1  1  0     0  0
 12  7  1  0     0  0
 13  2  2  0     0  0
 14  2  2  0     0  0
 15 20  1  0     0  0
 16 12  1  0     0  0
 17  8  1  0     0  0
 18  6  1  0     0  0
 19  3  1  0     0  0
 20 19  1  0     0  0
 21 18  1  0     0  0
 22  2  1  0     0  0
 23  8  2  0     0  0
 24 11  2  0     0  0
 25 11  1  0     0  0
 26 17  2  0     0  0
 27 23  1  0     0  0
 28 27  2  0     0  0
 29 25  2  0     0  0
 30 24  1  0     0  0
 31 29  1  0     0  0
  7 32  1  6     0  0
  4 33  1  6     0  0
 31 30  2  0     0  0
  4  6  1  0     0  0
 21 17  1  0     0  0
 28 26  1  0     0  0
M  END