
  SciTegic12171313022D

 40 45  0  0  0  0            999 V2000
    9.2941  -14.0126    0.0000 C   0  0
    9.3127  -13.1932    0.0000 C   0  0
    8.6135  -12.7693    0.0000 C   0  0
    7.8953  -13.1635    0.0000 C   0  0
    7.8806  -13.9860    0.0000 C   0  0
    8.5804  -14.4063    0.0000 C   0  0
    7.1658  -14.3821    0.0000 C   0  0
    6.4654  -13.9611    0.0000 N   0  0
    7.1515  -15.1992    0.0000 O   0  0
    5.7532  -14.3621    0.0000 C   0  0
    5.0517  -13.9409    0.0000 C   0  0
    5.0390  -15.5754    0.0000 C   0  0
    5.7478  -15.1728    0.0000 C   0  0
    4.3308  -15.1592    0.0000 C   0  0
    4.3366  -14.3412    0.0000 C   0  0
    3.5603  -14.0829    0.0000 C   0  0
    3.0748  -14.7413    0.0000 N   0  0
    3.5510  -15.4065    0.0000 C   0  0
    2.2576  -14.7356    0.0000 C   0  0
    1.8540  -14.0250    0.0000 C   0  0
   10.0293  -12.8004    0.0000 C   0  0
   10.7278  -13.2245    0.0000 N   0  0
   10.0473  -11.9834    0.0000 O   0  0
   10.7058  -14.0411    0.0000 C   0  0
   11.4002  -14.4651    0.0000 C   0  0
   12.1191  -14.0758    0.0000 C   0  0
   12.1392  -13.2579    0.0000 C   0  0
   11.4403  -12.8293    0.0000 C   0  0
   12.8182  -14.5024    0.0000 C   0  0
   12.8826  -15.3171    0.0000 N   0  0
   13.6773  -15.5076    0.0000 C   0  0
   14.1041  -14.8107    0.0000 C   0  0
   13.5731  -14.1895    0.0000 C   0  0
    8.6312  -11.9523    0.0000 N   0  0
    7.9324  -11.5285    0.0000 C   0  0
    7.9527  -10.7116    0.0000 C   0  0
    7.2548  -10.2879    0.0000 C   0  0
    6.5375  -10.6812    0.0000 C   0  0
    6.5224  -11.5025    0.0000 C   0  0
    7.2209  -11.9225    0.0000 C   0  0
  1  2  2  0
  2  3  1  0
  3  4  2  0
  4  5  1  0
  5  6  2  0
  6  1  1  0
  5  7  1  0
  7  8  1  0
  7  9  2  0
  8 10  1  0
 10 11  2  0
 11 15  1  0
 14 12  1  0
 12 13  2  0
 13 10  1  0
 14 15  2  0
 15 16  1  0
 16 17  1  0
 17 18  1  0
 18 14  1  0
 17 19  1  0
 19 20  1  0
  2 21  1  0
 21 22  1  0
 21 23  2  0
 22 24  1  0
 22 28  1  0
 24 25  1  0
 25 26  1  0
 26 27  1  0
 27 28  1  0
 29 30  1  0
 30 31  1  0
 31 32  1  0
 32 33  1  0
 33 29  1  0
 26 29  1  0
  3 34  1  0
 34 35  1  0
 35 36  2  0
 36 37  1  0
 37 38  2  0
 38 39  1  0
 39 40  2  0
 40 35  1  0
M  END