
  SciTegic04191613082D

 60 64  0  0  0  0            999 V2000
    0.0031   -3.0008    0.0000 O   0  0
   -2.3383   -1.3500    0.0000 O   0  0
   -2.3383    1.3500    0.0000 O   0  0
    0.0000    2.7000    0.0000 O   0  0
    1.2990   -0.7500    0.0000 O   0  0
    3.6387    0.8963    0.0000 O   0  0
    0.0000   -1.5000    0.0000 C   0  0  2  0  0  0
   -1.2990   -0.7500    0.0000 C   0  0  1  0  0  0
   -1.2990    0.7500    0.0000 C   0  0  2  0  0  0
    0.0000    1.5000    0.0000 C   0  0  2  0  0  0
    1.2990    0.7500    0.0000 C   0  0  1  0  0  0
    2.6003    1.4978    0.0000 C   0  0
   18.7396   -2.4024    0.0000 O   0  0
   21.5461   -1.8270    0.0000 O   0  0
   22.6271    0.6471    0.0000 O   0  0
   21.1483    3.0948    0.0000 O   0  0
   18.4533    0.1791    0.0000 O   0  0
   16.9685    2.6245    0.0000 O   0  0
   19.3433   -1.0283    0.0000 C   0  0  2  0  0  0
   20.8340   -0.8611    0.0000 C   0  0  1  0  0  0
   21.4346    0.5134    0.0000 C   0  0  2  0  0  0
   20.5445    1.7208    0.0000 C   0  0  1  0  0  0
   19.0539    1.5537    0.0000 C   0  0  1  0  0  0
   18.1608    2.7599    0.0000 C   0  0
   22.5368    5.6007    0.0000 O   0  0
   25.2209    5.8922    0.0000 O   0  0
   26.8155    3.7134    0.0000 O   0  0
   23.5260    2.0494    0.0000 O   0  0
   25.4153   -0.0988    0.0000 O   0  0
   22.6400    3.2599    0.0000 C   0  0  2  0  0  0
   23.2454    4.6323    0.0000 C   0  0  1  0  0  0
   24.7367    4.7943    0.0000 C   0  0  2  0  0  0
   25.6226    3.5838    0.0000 C   0  0  2  0  0  0
   25.0172    2.2114    0.0000 C   0  0  1  0  0  0
   25.9011    0.9985    0.0000 C   0  0
    5.2081   -5.9890    0.0000 O   0  0
    4.9392   -3.1368    0.0000 O   0  0
    2.5963   -1.7949    0.0000 O   0  0
    2.6108   -5.9949    0.0000 O   0  0
    3.9073   -5.2404    0.0000 C   0  0  2  0  0  0
    3.9021   -3.7404    0.0000 C   0  0  1  0  0  0
    2.6004   -2.9949    0.0000 C   0  0  2  0  0  0
    1.3039   -3.7494    0.0000 C   0  0  1  0  0  0
    1.3092   -5.2494    0.0000 C   0  0  1  0  0  0
    0.0136   -6.0070    0.0000 C   0  0
   17.2479   -2.5675    0.0000 C   0  0
   16.6442   -3.9416    0.0000 C   0  0
   15.1525   -4.1067    0.0000 O   0  0
   14.5487   -5.4807    0.0000 C   0  0
   13.0570   -5.6459    0.0000 C   0  0
   12.4533   -7.0199    0.0000 O   0  0
   10.9616   -7.1850    0.0000 C   0  0
   10.3579   -8.5591    0.0000 C   0  0
    8.8687   -8.7239    0.0000 N   0  0
    8.1232  -10.0256    0.0000 N   0  0
    6.6549   -9.7188    0.0000 N   0  0
    6.5119   -8.2384    0.0000 C   0  0
    7.8612   -7.6127    0.0000 C   0  0
    5.2111   -7.4898    0.0000 C   0  0
    0.0195   -7.2070    0.0000 O   0  0
  6 12  1  0
 11  5  1  0
  5  7  1  0
  7  8  1  0
  8  9  1  0
  9 10  1  0
 10 11  1  0
 11 12  1  1
  7  1  1  1
  8  2  1  6
  9  3  1  1
 10  4  1  1
 18 24  1  0
 23 17  1  0
 17 19  1  0
 19 20  1  0
 20 21  1  0
 21 22  1  0
 22 23  1  0
 23 24  1  6
 19 13  1  6
 20 14  1  1
 21 15  1  6
 22 16  1  1
 29 35  1  0
 34 28  1  0
 28 30  1  0
 30 31  1  0
 31 32  1  0
 32 33  1  0
 33 34  1  0
 34 35  1  1
 30 16  1  1
 31 25  1  6
 32 26  1  1
 33 27  1  1
 44 39  1  0
 39 40  1  0
 40 41  1  0
 41 42  1  0
 42 43  1  0
 43 44  1  0
 44 45  1  6
 40 36  1  6
 41 37  1  1
 42 38  1  6
 43  1  1  1
 13 46  1  0
 46 47  1  0
 47 48  1  0
 48 49  1  0
 49 50  1  0
 50 51  1  0
 51 52  1  0
 52 53  1  0
 53 54  1  0
 54 55  1  0
 55 56  2  0
 56 57  1  0
 57 58  2  0
 58 54  1  0
 57 59  1  0
 59 36  1  0
 45 60  1  0
M  END