
  CDK    9/16/09,10:2

 81 86  0  0  0  0  0  0  0  0999 V2000
    2.3117    1.1617    0.0000 C   0  0  0  0  0  0  0  0  0  0  0  0
    1.5376    1.4446    0.0000 C   0  0  0  0  0  0  0  0  0  0  0  0
    0.9054    0.9150    0.0000 C   0  0  0  0  0  0  0  0  0  0  0  0
    1.0404    0.1031    0.0000 C   0  0  0  0  0  0  0  0  0  0  0  0
    0.4084   -0.4263    0.0000 C   0  0  0  0  0  0  0  0  0  0  0  0
    0.1287    1.2130    0.0000 O   0  0  0  0  0  0  0  0  0  0  0  0
   -0.5091    0.6792    0.0000 C   0  0  0  0  0  0  0  0  0  0  0  0
   -0.3710   -0.1333    0.0000 C   0  0  0  0  0  0  0  0  0  0  0  0
   -1.0028   -0.6601    0.0000 C   0  0  0  0  0  0  0  0  0  0  0  0
   -1.7782   -0.3723    0.0000 C   0  0  0  0  0  0  0  0  0  0  0  0
   -1.9136    0.4415    0.0000 C   0  0  0  0  0  0  0  0  0  0  0  0
   -1.2767    0.9655    0.0000 C   0  0  0  0  0  0  0  0  0  0  0  0
    2.9452    1.6866    0.0000 O   0  0  0  0  0  0  0  0  0  0  0  0
    0.4030   -1.5013    0.0000 C   0  0  0  0  0  0  0  0  0  0  0  0
    1.1208   -1.9206    0.0000 C   0  0  0  0  0  0  0  0  0  0  0  0
    0.3919   -3.1490    0.0000 C   0  0  0  0  0  0  0  0  0  0  0  0
   -0.3199   -2.7296    0.0000 C   0  0  0  0  0  0  0  0  0  0  0  0
   -0.3153   -1.9064    0.0000 C   0  0  0  0  0  0  0  0  0  0  0  0
    0.3860   -3.9753    0.0000 N   0  0  0  0  0  0  0  0  0  0  0  0
    0.3837   -4.7997    0.0000 C   0  0  0  0  0  0  0  0  0  0  0  0
    0.3778   -5.6260    0.0000 S   0  0  0  0  0  0  0  0  0  0  0  0
    1.8393   -1.5109    0.0000 C   0  0  0  0  0  0  0  0  0  0  0  0
    1.8194   -0.1835    0.0000 C   0  0  0  0  0  0  0  0  0  0  0  0
    1.8415   -0.6850    0.0000 O   0  0  0  0  0  0  0  0  0  0  0  0
    2.4504    0.3396    0.0000 C   0  0  0  0  0  0  0  0  0  0  0  0
    1.1128   -2.7381    0.0000 C   0  0  0  0  0  0  0  0  0  0  0  0
   -2.6887    0.7329    0.0000 O   0  0  0  0  0  0  0  0  0  0  0  0
    2.5496   -1.9252    0.0000 N   0  0  0  0  0  0  0  0  0  0  0  0
    8.2011   -5.2763    0.0000 C   0  0  0  0  0  0  0  0  0  0  0  0
    8.9304   -6.5068    0.0000 O   0  0  0  0  0  0  0  0  0  0  0  0
    8.9211   -5.6827    0.0000 C   0  0  0  0  0  0  0  0  0  0  0  0
    8.1916   -4.4506    0.0000 C   0  0  0  0  0  0  0  0  0  0  0  0
    8.9030   -4.0275    0.0000 C   0  0  0  0  0  0  0  0  0  0  0  0
    8.8936   -3.2043    0.0000 C   0  0  0  0  0  0  0  0  0  0  0  0
    9.6008   -2.7835    0.0000 O   0  0  0  0  0  0  0  0  0  0  0  0
   10.3476   -5.6641    0.0000 C   0  0  0  0  0  0  0  0  0  0  0  0
   11.0415   -4.4224    0.0000 O   0  0  0  0  0  0  0  0  0  0  0  0
   11.0518   -5.2451    0.0000 C   0  0  0  0  0  0  0  0  0  0  0  0
   12.4821   -5.2261    0.0000 C   0  0  0  0  0  0  0  0  0  0  0  0
   13.2112   -6.4599    0.0000 O   0  0  0  0  0  0  0  0  0  0  0  0
   13.2057   -5.6315    0.0000 C   0  0  0  0  0  0  0  0  0  0  0  0
   12.3919   -4.4082    0.0000 C   0  0  0  0  0  0  0  0  0  0  0  0
   13.0620   -3.9165    0.0000 C   0  0  0  0  0  0  0  0  0  0  0  0
   12.9730   -3.0986    0.0000 C   0  0  0  0  0  0  0  0  0  0  0  0
   13.8144   -4.2554    0.0000 C   0  0  0  0  0  0  0  0  0  0  0  0
   14.6313   -5.6166    0.0000 C   0  0  0  0  0  0  0  0  0  0  0  0
   15.3157   -4.3764    0.0000 O   0  0  0  0  0  0  0  0  0  0  0  0
   15.3357   -5.1975    0.0000 C   0  0  0  0  0  0  0  0  0  0  0  0
   14.6441   -6.4408    0.0000 C   0  0  0  0  0  0  0  0  0  0  0  0
    6.0627   -5.7114    0.0000 C   0  0  0  0  0  0  0  0  0  0  0  0
    6.7717   -5.2896    0.0000 C   0  0  0  0  0  0  0  0  0  0  0  0
    6.7623   -4.4635    0.0000 O   0  0  0  0  0  0  0  0  0  0  0  0
    6.0721   -6.5387    0.0000 C   0  0  0  0  0  0  0  0  0  0  0  0
    6.7904   -6.9398    0.0000 C   0  0  0  0  0  0  0  0  0  0  0  0
    6.7924   -7.7677    0.0000 C   0  0  0  0  0  0  0  0  0  0  0  0
    7.5202   -8.1723    0.0000 C   0  0  0  0  0  0  0  0  0  0  0  0
    8.2288   -7.7502    0.0000 C   0  0  0  0  0  0  0  0  0  0  0  0
    8.2144   -6.9197    0.0000 C   0  0  0  0  0  0  0  0  0  0  0  0
    7.4935   -6.5197    0.0000 C   0  0  0  0  0  0  0  0  0  0  0  0
    8.9486   -8.1523    0.0000 O   0  0  0  0  0  0  0  0  0  0  0  0
    8.9580   -8.9787    0.0000 P   0  0  0  0  0  0  0  0  0  0  0  0
    8.1357   -8.9881    0.0000 O   0  0  0  0  0  0  0  0  0  0  0  0
    7.4901   -5.6957    0.0000 N   0  0  0  0  0  0  0  0  0  0  0  0
    8.1756   -2.7985    0.0000 N   0  0  0  0  0  0  0  0  0  0  0  0
    9.6289   -5.2581    0.0000 N   0  0  0  0  0  0  0  0  0  0  0  0
   11.7727   -5.6480    0.0000 N   0  0  0  0  0  0  0  0  0  0  0  0
   13.9150   -5.2093    0.0000 N   0  0  0  0  0  0  0  0  0  0  0  0
   15.3680   -6.8494    0.0000 O   0  0  0  0  0  0  0  0  0  0  0  0
   16.0624   -5.6020    0.0000 N   0  0  0  0  0  0  0  0  0  0  0  0
    5.3440   -5.3053    0.0000 N   0  0  0  0  0  0  0  0  0  0  0  0
    8.9678   -9.8030    0.0000 O   0  0  0  0  0  0  0  0  0  0  0  0
    9.7894   -8.9690    0.0000 O   0  0  0  0  0  0  0  0  0  0  0  0
    5.3328   -4.4823    0.0000 C   0  0  0  0  0  0  0  0  0  0  0  0
    6.0440   -4.0632    0.0000 O   0  0  0  0  0  0  0  0  0  0  0  0
    3.2312   -3.1841    0.0000 C   0  0  0  0  0  0  0  0  0  0  0  0
    3.2032   -4.0078    0.0000 C   0  0  0  0  0  0  0  0  0  0  0  0
    3.9030   -4.4388    0.0000 C   0  0  0  0  0  0  0  0  0  0  0  0
    4.6307   -4.0485    0.0000 C   0  0  0  0  0  0  0  0  0  0  0  0
    4.6542   -3.2225    0.0000 C   0  0  0  0  0  0  0  0  0  0  0  0
    3.9500   -2.7867    0.0000 C   0  0  0  0  0  0  0  0  0  0  0  0
    2.5274   -2.7528    0.0000 C   0  0  0  0  0  0  0  0  0  0  0  0
 16 17  1  0  0  0  0 
 17 18  2  0  0  0  0 
 18 14  1  0  0  0  0 
  5 14  1  0  0  0  0 
 16 19  1  0  0  0  0 
 19 20  2  0  0  0  0 
 20 21  2  0  0  0  0 
 15 22  1  0  0  0  0 
 22 24  2  0  0  0  0 
 11 27  1  0  0  0  0 
 22 28  1  0  0  0  0 
  1 25  1  0  0  0  0 
 25 23  2  0  0  0  0 
 23  4  1  0  0  0  0 
  3  2  2  0  0  0  0 
  2  1  1  0  0  0  0 
  3  4  1  0  0  0  0 
  3  6  1  0  0  0  0 
  4  5  2  0  0  0  0 
  5  8  1  0  0  0  0 
  7  6  1  0  0  0  0 
  7  8  2  0  0  0  0 
  8  9  1  0  0  0  0 
  9 10  2  0  0  0  0 
 49 68  1  0  0  0  0 
 65 36  1  0  0  0  0 
 31 65  1  0  0  0  0 
 48 69  1  0  0  0  0 
 70 50  1  0  0  0  0 
 66 39  1  0  0  0  0 
 38 66  1  0  0  0  0 
 61 71  1  0  0  0  0 
 34 64  1  0  0  0  0 
 61 72  1  0  0  0  0 
 67 46  1  0  0  0  0 
 41 67  1  0  0  0  0 
 34 35  2  0  0  0  0 
 36 38  1  0  0  0  0 
 38 37  2  0  0  0  0 
 39 41  1  0  0  0  0 
 41 40  2  0  0  0  0 
 39 42  1  1  0  0  0 
 42 43  1  0  0  0  0 
 43 44  1  0  0  0  0 
 43 45  1  0  0  0  0 
 46 48  1  0  0  0  0 
 48 47  2  0  0  0  0 
 46 49  1  6  0  0  0 
 50 51  1  0  0  0  0 
 51 52  2  0  0  0  0 
 50 53  1  6  0  0  0 
 53 54  1  0  0  0  0 
 54 55  2  0  0  0  0 
 55 56  1  0  0  0  0 
 56 57  2  0  0  0  0 
 57 58  1  0  0  0  0 
 58 59  2  0  0  0  0 
 59 54  1  0  0  0  0 
 57 60  1  0  0  0  0 
 60 61  1  0  0  0  0 
 61 62  2  0  0  0  0 
 29 31  1  0  0  0  0 
 31 30  2  0  0  0  0 
 29 32  1  1  0  0  0 
 32 33  1  0  0  0  0 
 33 34  1  0  0  0  0 
 51 63  1  0  0  0  0 
 73 70  1  0  0  0  0 
 63 29  1  0  0  0  0 
 73 74  2  0  0  0  0 
 10 11  1  0  0  0  0 
 75 76  2  0  0  0  0 
 11 12  2  0  0  0  0 
 12  7  1  0  0  0  0 
  1 13  2  0  0  0  0 
 14 15  2  0  0  0  0 
 15 26  1  0  0  0  0 
 75 80  1  0  0  0  0 
 76 77  1  0  0  0  0 
 77 78  2  0  0  0  0 
 78 79  1  0  0  0  0 
 79 80  2  0  0  0  0 
 78 73  1  0  0  0  0 
 26 16  2  0  0  0  0 
 75 81  1  0  0  0  0 
 81 28  1  0  0  0  0 
M  END