
  SciTegic12231509382D

 21 22  0  0  0  0            999 V2000
   22.9722  -16.3603    0.0000 C   0  0
   23.6799  -15.9517    0.0000 C   0  0
   22.2644  -15.9517    0.0000 O   0  0
   21.5567  -16.3603    0.0000 C   0  0
   20.8490  -15.9517    0.0000 C   0  0
   20.8542  -15.1335    0.0000 C   0  0
   19.4412  -15.9550    0.0000 C   0  0
   20.1487  -16.3599    0.0000 C   0  0
   19.4386  -15.1336    0.0000 C   0  0
   20.1496  -14.7250    0.0000 C   0  0
   19.9807  -13.9225    0.0000 O   0  0
   19.1652  -13.8352    0.0000 C   0  0
   18.8303  -14.5837    0.0000 O   0  0
   21.5567  -17.1775    0.0000 O   0  0
   24.3876  -16.3603    0.0000 C   0  0
   23.6799  -15.1345    0.0000 O   0  0
   25.0953  -15.9517    0.0000 N   0  0
   25.8030  -16.3603    0.0000 C   0  0
   26.5107  -15.9517    0.0000 C   0  0
   25.8030  -17.1775    0.0000 C   0  0
   26.5051  -16.7648    0.0000 C   0  0
  1  2  1  0
  1  3  1  0
  3  4  1  0
  4  5  1  0
  5  6  2  0
  6 10  1  0
  9  7  1  0
  7  8  2  0
  8  5  1  0
  9 10  2  0
 10 11  1  0
 11 12  1  0
 12 13  1  0
 13  9  1  0
  4 14  2  0
  2 15  1  0
  2 16  1  0
 15 17  1  0
 17 18  1  0
 18 19  1  0
 18 20  1  0
 18 21  1  0
M  END