
          11280714472D 1   1.00000     0.00000     0

 12 12  0     0  0            999 V2000
    4.8792   -5.6792    0.0000 N   0  0  0  0  0  0           0  0  0
    8.4917   -4.3542    0.0000 C   0  0  0  0  0  0           0  0  0
    3.6417   -5.1417    0.0000 N   0  0  0  0  0  0           0  0  0
    4.0667   -5.8667    0.0000 C   0  0  0  0  0  0           0  0  0
    4.9542   -4.8542    0.0000 C   0  0  0  0  0  0           0  0  0
    8.4375   -3.5292    0.0000 N   0  0  0  0  0  0           0  0  0
    4.1917   -4.5292    0.0000 C   0  0  0  0  0  0           0  0  0
    7.8125   -4.8167    0.0000 S   0  0  0  0  0  0           0  0  0
    9.2417   -4.7125    0.0000 N   0  0  0  0  0  0           0  0  0
    5.6667   -4.4292    0.0000 C   0  0  0  0  0  0           0  0  0
    7.0917   -4.4167    0.0000 C   0  0  0  0  0  0           0  0  0
    6.3792   -4.8375    0.0000 C   0  0  0  0  0  0           0  0  0
  2  8  1  0     0  0
  3  4  1  0     0  0
  4  1  2  0     0  0
  5  1  1  0     0  0
  6  2  2  0     0  0
  7  5  2  0     0  0
  8 11  1  0     0  0
  9  2  1  0     0  0
 10  5  1  0     0  0
 11 12  1  0     0  0
 12 10  1  0     0  0
  3  7  1  0     0  0
M  END