
  SciTegic01161211242D

 38 42  0  0  0  0            999 V2000
   12.1138    1.0462    0.0000 C   0  0
   12.9405    1.0472    0.0000 C   0  0
   13.1971    0.2619    0.0000 C   0  0
   12.5272   -0.2252    0.0000 N   0  0
   11.8617    0.2619    0.0000 N   0  0
   13.3556    1.7571    0.0000 C   0  0
   14.1823    1.7499    0.0000 C   0  0
   14.6002    2.4611    0.0000 C   0  0
   14.1924    3.1801    0.0000 C   0  0
   13.3624    3.1834    0.0000 C   0  0
   12.9484    2.4715    0.0000 C   0  0
   11.7222    1.7679    0.0000 C   0  0
   12.1575    2.4710    0.0000 C   0  0
   11.7663    3.1972    0.0000 C   0  0
   10.9401    3.2217    0.0000 C   0  0
   10.5066    2.5139    0.0000 C   0  0
   10.9002    1.7905    0.0000 C   0  0
   10.5472    3.9479    0.0000 Cl  0  0
   12.5260   -1.0509    0.0000 C   0  0
   11.8103   -1.4626    0.0000 N   0  0
   11.8090   -2.2883    0.0000 S   0  0
   11.0933   -2.7001    0.0000 C   0  0
   10.3814   -2.2837    0.0000 C   0  0
    9.6661   -2.6948    0.0000 C   0  0
    9.6644   -3.5214    0.0000 C   0  0
   10.3839   -3.9351    0.0000 C   0  0
   11.0962   -3.5217    0.0000 C   0  0
   12.2146   -2.9983    0.0000 O   0  0
   12.5189   -1.8683    0.0000 O   0  0
    8.9493   -3.9340    0.0000 Cl  0  0
   13.2404   -1.4648    0.0000 N   0  0
   13.2371   -2.2903    0.0000 C   0  0
   13.9475   -2.7041    0.0000 C   0  0
   14.6656   -2.2958    0.0000 S   0  0
   14.6688   -1.4692    0.0000 C   0  0
   13.9539   -1.0508    0.0000 C   0  0
   15.0711   -3.0068    0.0000 O   0  0
   15.3755   -1.8766    0.0000 O   0  0
 15 18  1  0
  4  5  1  0
  4 19  1  0
  9 10  1  0
 19 20  2  0
  5  1  2  0
 20 21  1  0
 10 11  2  0
 21 22  1  0
 11  6  1  0
 22 23  2  0
  2  6  1  0
 23 24  1  0
  1  2  1  0
 24 25  2  0
 25 26  1  0
 12 13  2  0
 26 27  2  0
 27 22  1  0
  6  7  2  0
 21 28  2  0
 13 14  1  0
 21 29  2  0
  2  3  1  0
 25 30  1  0
 14 15  2  0
 19 31  1  0
 31 32  1  0
  7  8  1  0
 15 16  1  0
  3  4  1  0
 16 17  2  0
 17 12  1  0
 31 36  1  0
 32 33  1  0
 33 34  1  0
 34 35  1  0
 35 36  1  0
  1 12  1  0
 34 37  2  0
  8  9  2  0
 34 38  2  0
M  END