
  SciTegic03291108572D

 27 29  0  0  0  0            999 V2000
    1.8890   -3.9271    0.0000 Cl  0  0
   -0.9689   -2.2771    0.0000 S   0  0
   -3.1123    0.6104    0.0000 S   0  0
   -0.5564   -1.5627    0.0000 O   0  0
   -1.3814   -2.9916    0.0000 O   0  0
   -1.6834    1.4354    0.0000 O   0  0
   -5.2557    0.1979    0.0000 O   0  0
   -4.5413    1.4354    0.0000 O   0  0
   -1.6834   -1.8646    0.0000 N   0  0
   -1.6834   -1.0396    0.0000 C   0  0
   -0.9689   -0.6271    0.0000 C   0  0
   -0.9689    0.1979    0.0000 C   0  0
   -1.6834    0.6104    0.0000 C   0  0
   -2.3978    0.1979    0.0000 C   0  0
   -2.3978   -0.6271    0.0000 C   0  0
   -0.2544   -2.6896    0.0000 C   0  0
   -0.2544   -1.0396    0.0000 C   0  0
   -0.2544    0.6104    0.0000 C   0  0
    0.4600   -2.2771    0.0000 C   0  0
   -0.2544   -3.5146    0.0000 C   0  0
    0.4600   -0.6271    0.0000 C   0  0
    0.4600    0.1979    0.0000 C   0  0
    1.1745   -2.6896    0.0000 C   0  0
    0.4600   -3.9271    0.0000 C   0  0
    1.1745   -3.5146    0.0000 C   0  0
   -3.8268    0.1979    0.0000 C   0  0
   -4.5413    0.6104    0.0000 C   0  0
  1 25  1  0
  2  4  2  0
  2  5  2  0
  2  9  1  0
  2 16  1  0
  3 14  1  0
  3 26  1  0
  6 13  1  0
  7 27  2  0
  8 27  1  0
  9 10  1  0
 10 11  2  0
 10 15  1  0
 11 12  1  0
 11 17  1  0
 12 13  2  0
 12 18  1  0
 13 14  1  0
 14 15  2  0
 16 19  2  0
 16 20  1  0
 17 21  2  0
 18 22  2  0
 19 23  1  0
 20 24  2  0
 21 22  1  0
 23 25  2  0
 24 25  1  0
 26 27  1  0
M  END