
  SciTegic10301317112D

 67 70  0  0  1  0            999 V2000
    1.3488  -10.1145    0.0000 N   0  0
    2.1056   -9.7859    0.0000 C   0  0
    4.1882  -10.4394    0.0000 C   0  0
    8.4472  -10.9268    0.0000 C   0  0
    0.5595   -8.8742    0.0000 C   0  0
    5.6079  -10.6019    0.0000 N   0  0
    9.8669  -11.0892    0.0000 N   0  0
    2.7685  -10.2770    0.0000 C   0  0  1  0  0  0
    6.3646  -10.2733    0.0000 C   0  0
    0.6382   -9.6955    0.0000 C   0  0  2  0  0  0
   10.6236  -10.7606    0.0000 C   0  0
    3.5252   -9.9484    0.0000 N   0  0
    7.7843  -10.4357    0.0000 N   0  0
    4.9449  -10.1108    0.0000 C   0  0  1  0  0  0
   11.8557  -12.5624    0.0000 C   0  0
    9.2039  -10.5982    0.0000 C   0  0  1  0  0  0
   11.1928  -12.0713    0.0000 N   0  0
    7.0275  -10.7643    0.0000 C   0  0  1  0  0  0
   -0.1911   -8.5318    0.0000 O   0  0
    1.6364  -12.7817    0.0000 N   0  0
   14.8827  -11.2480    0.0000 C   0  0
    2.9326  -11.0855    0.0000 C   0  0
   -1.6135   -8.6680    0.0000 C   0  0
    2.3144  -11.6319    0.0000 C   0  0
    1.5091  -11.4529    0.0000 N   0  0
   11.2866  -11.2517    0.0000 C   0  0  1  0  0  0
    1.0900  -12.1636    0.0000 C   0  0
   -0.8629   -9.0105    0.0000 C   0  0  2  0  0  0
   15.5456  -11.7390    0.0000 N   0  0
    2.3931  -12.4531    0.0000 C   0  0
    2.1993   -8.9663    0.0000 O   0  0
    4.0944  -11.2591    0.0000 O   0  0
    8.3534  -11.7464    0.0000 O   0  0
    1.2314   -8.3955    0.0000 O   0  0
    6.4584   -9.4536    0.0000 O   0  0
   10.7174   -9.9410    0.0000 O   0  0
   12.6125  -12.2338    0.0000 O   0  0
    6.9337  -11.5840    0.0000 C   0  0
   -2.2854   -9.1468    0.0000 O   0  0
   11.7619  -13.3820    0.0000 C   0  0  1  0  0  0
   14.1259  -11.5766    0.0000 N   0  0
    5.0387   -9.2912    0.0000 C   0  0
   14.9764  -10.4283    0.0000 N   0  0
    1.1699  -10.9199    0.0000 C   0  0
    9.2977   -9.7785    0.0000 C   0  0
    6.1770  -11.9126    0.0000 C   0  0
   -1.6922   -7.8468    0.0000 O   0  0
    4.6635  -12.5698    0.0000 C   0  0
    5.5141  -11.4215    0.0000 C   0  0
    6.0832  -12.7322    0.0000 C   0  0
    5.3265  -13.0608    0.0000 C   0  0
    4.7573  -11.7501    0.0000 C   0  0
    0.0200  -10.2418    0.0000 C   0  0
   12.4249  -13.8731    0.0000 O   0  0
    3.9068  -12.8984    0.0000 O   0  0
    0.3486  -10.9986    0.0000 C   0  0
   12.0433  -10.9231    0.0000 C   0  0
   -0.7843   -9.8318    0.0000 C   0  0
   13.4630  -11.0855    0.0000 C   0  0
    5.7569   -8.8853    0.0000 C   0  0
    4.4307   -8.7335    0.0000 C   0  0
   11.0052  -13.7106    0.0000 C   0  0
    8.6348   -9.2875    0.0000 C   0  0
   10.0545   -9.4499    0.0000 C   0  0
   12.7062  -11.4141    0.0000 C   0  0
    5.5928   -8.0768    0.0000 C   0  0
    4.7732   -7.9830    0.0000 C   0  0
  2  1  1  0
  3 12  1  0
  4 13  1  0
 10  5  1  1
  6 14  1  0
 16  7  1  6
  8  2  1  0
  9  6  1  0
 10  1  1  0
 11  7  1  0
 12  8  1  0
 18 13  1  1
 14  3  1  0
 15 17  1  0
 16  4  1  0
 17 26  1  0
 18  9  1  0
 19  5  1  0
 20 30  1  0
 21 41  2  0
  8 22  1  1
 28 23  1  0
 24 22  1  0
 25 24  1  0
 26 11  1  0
 27 25  2  0
 28 19  1  0
 29 21  1  0
 30 24  2  0
 31  2  2  0
 32  3  2  0
 33  4  2  0
 34  5  2  0
 35  9  2  0
 36 11  2  0
 37 15  2  0
 18 38  1  0
 39 23  2  0
 40 15  1  0
 41 59  1  0
 14 42  1  6
 43 21  1  0
 44  1  1  0
 16 45  1  0
 46 38  1  0
 47 23  1  0
 48 51  2  0
 49 46  1  0
 50 46  2  0
 51 50  1  0
 52 49  2  0
 53 10  1  0
 54 40  1  0
 55 48  1  0
 56 44  1  0
 26 57  1  6
 28 58  1  1
 59 65  1  0
 60 42  1  0
 61 42  1  0
 40 62  1  1
 63 45  1  0
 64 45  1  0
 65 57  1  0
 66 60  1  0
 67 61  1  0
 53 56  1  0
 20 27  1  0
 67 66  1  0
 48 52  1  0
M  END