
          11280714552D 1   1.00000     0.00000     0

 31 35  0     0  0            999 V2000
   -1.0958    1.3208    0.0000 N   0  0  3  0  0  0           0  0  0
   -0.3125    1.6000    0.0000 C   0  0  0  0  0  0           0  0  0
   -1.1458    2.6583    0.0000 N   0  0  0  0  0  0           0  0  0
   -0.3583    2.4333    0.0000 C   0  0  0  0  0  0           0  0  0
   -1.6083    1.9708    0.0000 C   0  0  0  0  0  0           0  0  0
    1.8292   -2.1042    0.0000 C   0  0  0  0  0  0           0  0  0
    2.8875   -1.2750    0.0000 N   0  0  0  0  0  0           0  0  0
    2.0625   -1.3042    0.0000 N   0  0  0  0  0  0           0  0  0
    3.1667   -2.0500    0.0000 N   0  0  0  0  0  0           0  0  0
    2.5167   -2.5542    0.0000 N   0  0  0  0  0  0           0  0  0
    1.0625   -2.3875    0.0000 C   0  0  0  0  0  0           0  0  0
    0.2417   -2.3667    0.0000 C   0  0  0  0  0  0           0  0  0
    0.3542    1.1208    0.0000 C   0  0  0  0  0  0           0  0  0
   -1.3250    0.5333    0.0000 C   0  0  0  0  0  0           0  0  0
   -0.1500   -1.6417    0.0000 C   0  0  0  0  0  0           0  0  0
    0.2125    0.3083    0.0000 O   0  0  0  0  0  0           0  0  0
    0.2792   -0.9375    0.0000 C   0  0  0  0  0  0           0  0  0
   -0.9750   -1.6167    0.0000 C   0  0  0  0  0  0           0  0  0
   -0.9333   -0.1917    0.0000 C   0  0  0  0  0  0           0  0  0
    0.2667    2.9708    0.0000 C   0  0  0  0  0  0           0  0  0
   -2.4333    1.9375    0.0000 C   0  0  0  0  0  0           0  0  0
   -0.1125   -0.2167    0.0000 C   0  0  0  0  0  0           0  0  0
   -1.3708   -0.8917    0.0000 C   0  0  0  0  0  0           0  0  0
    1.4542   -3.1042    0.0000 C   0  0  0  0  0  0           0  0  0
   -0.1958   -3.0667    0.0000 C   0  0  0  0  0  0           0  0  0
    1.1500    1.3458    0.0000 C   0  0  0  0  0  0           0  0  0
   -2.8708    2.6458    0.0000 C   0  0  0  0  0  0           0  0  0
    1.0792    2.8333    0.0000 C   0  0  0  0  0  0           0  0  0
    0.1917   -3.7917    0.0000 C   0  0  0  0  0  0           0  0  0
    1.0250   -3.8167    0.0000 C   0  0  0  0  0  0           0  0  0
    1.4667    2.1083    0.0000 C   0  0  0  0  0  0           0  0  0
  2  1  1  0     0  0
  3  5  2  0     0  0
  4  2  2  0     0  0
  5  1  1  0     0  0
  6 11  1  0     0  0
  7  8  2  0     0  0
  8  6  1  0     0  0
  9 10  1  0     0  0
 10  6  2  0     0  0
 11 12  2  0     0  0
 12 15  1  0     0  0
 13  2  1  0     0  0
 14  1  1  0     0  0
 15 18  2  0     0  0
 16 13  2  0     0  0
 17 22  2  0     0  0
 18 23  1  0     0  0
 19 14  1  0     0  0
 20  4  1  0     0  0
 21  5  1  0     0  0
 22 19  1  0     0  0
 23 19  2  0     0  0
 24 11  1  0     0  0
 25 12  1  0     0  0
 26 13  1  0     0  0
 27 21  1  0     0  0
 28 20  1  0     0  0
 29 25  2  0     0  0
 30 29  1  0     0  0
 31 26  1  0     0  0
  4  3  1  0     0  0
 15 17  1  0     0  0
 28 31  1  0     0  0
 24 30  2  0     0  0
  9  7  1  0     0  0
M  END