
  CDK    12/20/10,15:21

 39 44  0  0  0  0  0  0  0  0999 V2000
    5.9313   -1.7414    0.0000 C   0  0  0  0  0  0  0  0  0  0  0  0
    5.9301   -2.5688    0.0000 C   0  0  0  0  0  0  0  0  0  0  0  0
    6.6450   -2.9816    0.0000 C   0  0  0  0  0  0  0  0  0  0  0  0
    7.3613   -2.5683    0.0000 C   0  0  0  0  0  0  0  0  0  0  0  0
    7.3584   -1.7378    0.0000 N   0  0  0  0  0  0  0  0  0  0  0  0
    6.6432   -1.3288    0.0000 C   0  0  0  0  0  0  0  0  0  0  0  0
    5.2154   -2.9806    0.0000 C   0  0  0  0  0  0  0  0  0  0  0  0
    4.5014   -2.5677    0.0000 N   0  0  0  0  0  0  0  0  0  0  0  0
    4.5060   -1.7385    0.0000 C   0  0  0  0  0  0  0  0  0  0  0  0
    3.7960   -1.3256    0.0000 C   0  0  0  0  0  0  0  0  0  0  0  0
    3.0789   -1.7339    0.0000 C   0  0  0  0  0  0  0  0  0  0  0  0
    3.0762   -2.5599    0.0000 C   0  0  0  0  0  0  0  0  0  0  0  0
    3.7907   -2.9773    0.0000 C   0  0  0  0  0  0  0  0  0  0  0  0
    2.3664   -1.3182    0.0000 C   0  0  0  0  0  0  0  0  0  0  0  0
    2.3702   -0.4934    0.0000 O   0  0  0  0  0  0  0  0  0  0  0  0
    1.6500   -1.7274    0.0000 N   0  0  0  0  0  0  0  0  0  0  0  0
    0.9341   -1.3123    0.0000 C   0  0  0  0  0  0  0  0  0  0  0  0
    0.2200   -1.7180    0.0000 C   0  0  0  0  0  0  0  0  0  0  0  0
    0.2119   -2.5433    0.0000 C   0  0  0  0  0  0  0  0  0  0  0  0
    0.9242   -2.9611    0.0000 C   0  0  0  0  0  0  0  0  0  0  0  0
    1.6446   -2.5539    0.0000 C   0  0  0  0  0  0  0  0  0  0  0  0
   -0.5060   -2.9497    0.0000 N   0  0  0  0  0  0  0  0  0  0  0  0
   -1.2585   -2.6072    0.0000 C   0  0  0  0  0  0  0  0  0  0  0  0
   -1.8155   -3.2155    0.0000 N   0  0  0  0  0  0  0  0  0  0  0  0
   -0.6008   -3.7685    0.0000 C   0  0  0  0  0  0  0  0  0  0  0  0
   -1.4064   -3.9353    0.0000 C   0  0  0  0  0  0  0  0  0  0  0  0
   -1.6631   -4.7148    0.0000 C   0  0  0  0  0  0  0  0  0  0  0  0
   -1.1154   -5.3283    0.0000 C   0  0  0  0  0  0  0  0  0  0  0  0
   -0.3076   -5.1569    0.0000 C   0  0  0  0  0  0  0  0  0  0  0  0
   -0.0546   -4.3776    0.0000 C   0  0  0  0  0  0  0  0  0  0  0  0
   -1.4233   -1.7988    0.0000 O   0  0  0  0  0  0  0  0  0  0  0  0
   -2.6352   -3.1232    0.0000 C   0  0  0  0  0  0  0  0  0  0  0  0
   -2.9651   -2.3671    0.0000 C   0  0  0  0  0  0  0  0  0  0  0  0
   -3.7848   -2.2747    0.0000 N   0  0  0  0  0  0  0  0  0  0  0  0
   -4.1135   -1.5219    0.0000 C   0  0  0  0  0  0  0  0  0  0  0  0
   -4.9294   -1.4280    0.0000 C   0  0  0  0  0  0  0  0  0  0  0  0
   -5.4229   -2.0894    0.0000 C   0  0  0  0  0  0  0  0  0  0  0  0
   -5.0945   -2.8471    0.0000 C   0  0  0  0  0  0  0  0  0  0  0  0
   -4.2725   -2.9434    0.0000 C   0  0  0  0  0  0  0  0  0  0  0  0
  2  3  1  0  0  0  0 
 16 21  1  0  0  0  0 
 17 18  1  0  0  0  0 
 18 19  1  0  0  0  0 
 19 20  1  0  0  0  0 
 20 21  1  0  0  0  0 
  5  6  2  0  0  0  0 
 19 22  1  0  0  0  0 
 22 23  1  0  0  0  0 
  6  1  1  0  0  0  0 
  8 13  1  0  0  0  0 
 23 24  1  0  0  0  0 
 24 26  1  0  0  0  0 
 25 22  1  0  0  0  0 
  9 10  1  0  0  0  0 
 10 11  1  0  0  0  0 
 25 26  2  0  0  0  0 
 11 12  1  0  0  0  0 
 26 27  1  0  0  0  0 
 12 13  1  0  0  0  0 
 27 28  2  0  0  0  0 
  1  2  2  0  0  0  0 
 28 29  1  0  0  0  0 
 11 14  1  0  0  0  0 
 29 30  2  0  0  0  0 
 30 25  1  0  0  0  0 
  2  7  1  0  0  0  0 
 23 31  2  0  0  0  0 
 14 15  2  0  0  0  0 
 24 32  1  0  0  0  0 
  3  4  2  0  0  0  0 
 32 33  1  0  0  0  0 
 14 16  1  0  0  0  0 
 33 34  1  0  0  0  0 
 34 35  1  0  0  0  0 
 16 17  1  0  0  0  0 
  7  8  1  0  0  0  0 
  8  9  1  0  0  0  0 
  4  5  1  0  0  0  0 
 34 39  1  0  0  0  0 
 35 36  1  0  0  0  0 
 36 37  1  0  0  0  0 
 37 38  1  0  0  0  0 
 38 39  1  0  0  0  0 
M  END