
  CDK    9/16/09,9:50

 41 44  0  0  0  0  0  0  0  0999 V2000
    3.1089  -19.2482    0.0000 C   0  0  0  0  0  0  0  0  0  0  0  0
    3.8256  -19.6569    0.0000 C   0  0  0  0  0  0  0  0  0  0  0  0
   -1.9142  -17.2159    0.0000 C   0  0  0  0  0  0  0  0  0  0  0  0
   -1.1995  -16.7992    0.0000 C   0  0  0  0  0  0  0  0  0  0  0  0
   -1.2039  -15.9738    0.0000 C   0  0  0  0  0  0  0  0  0  0  0  0
   -1.9224  -15.5640    0.0000 C   0  0  0  0  0  0  0  0  0  0  0  0
   -2.6379  -15.9857    0.0000 C   0  0  0  0  0  0  0  0  0  0  0  0
   -2.6299  -16.8098    0.0000 C   0  0  0  0  0  0  0  0  0  0  0  0
   -3.3562  -15.5799    0.0000 O   0  0  0  0  0  0  0  0  0  0  0  0
   -0.4793  -17.2139    0.0000 C   0  0  0  0  0  0  0  0  0  0  0  0
   -1.9094  -18.0409    0.0000 C   0  0  0  0  0  0  0  0  0  0  0  0
   -0.4917  -15.5574    0.0000 C   0  0  0  0  0  0  0  0  0  0  0  0
   -0.4722  -18.0389    0.0000 C   0  0  0  0  0  0  0  0  0  0  0  0
   -1.1831  -18.4575    0.0000 N   0  0  0  0  0  0  0  0  0  0  0  0
    0.2458  -18.4452    0.0000 C   0  0  0  0  0  0  0  0  0  0  0  0
    0.9600  -18.0267    0.0000 O   0  0  0  0  0  0  0  0  0  0  0  0
    0.2520  -19.2702    0.0000 N   0  0  0  0  0  0  0  0  0  0  0  0
   -0.4657  -19.6864    0.0000 C   0  0  0  0  0  0  0  0  0  0  0  0
    0.9674  -20.5022    0.0000 C   0  0  0  0  0  0  0  0  0  0  0  0
    0.9648  -19.6745    0.0000 C   0  0  0  0  0  0  0  0  0  0  0  0
    0.2542  -20.9188    0.0000 C   0  0  0  0  0  0  0  0  0  0  0  0
   -0.4567  -20.5059    0.0000 C   0  0  0  0  0  0  0  0  0  0  0  0
   -1.1677  -20.9150    0.0000 C   0  0  0  0  0  0  0  0  0  0  0  0
   -1.1689  -21.7370    0.0000 C   0  0  0  0  0  0  0  0  0  0  0  0
   -0.4533  -22.1480    0.0000 C   0  0  0  0  0  0  0  0  0  0  0  0
    0.2548  -21.7365    0.0000 C   0  0  0  0  0  0  0  0  0  0  0  0
    1.6800  -19.2559    0.0000 C   0  0  0  0  0  0  0  0  0  0  0  0
    2.3967  -19.6645    0.0000 N   0  0  0  0  0  0  0  0  0  0  0  0
    1.6755  -18.4309    0.0000 O   0  0  0  0  0  0  0  0  0  0  0  0
    3.8337  -20.4822    0.0000 N   0  0  0  0  0  0  0  0  0  0  0  0
    4.5415  -19.2408    0.0000 O   0  0  0  0  0  0  0  0  0  0  0  0
    4.5521  -20.8876    0.0000 C   0  0  0  0  0  0  0  0  0  0  0  0
    4.5553  -21.7136    0.0000 C   0  0  0  0  0  0  0  0  0  0  0  0
    5.2730  -22.1190    0.0000 C   0  0  0  0  0  0  0  0  0  0  0  0
    5.9843  -21.6994    0.0000 C   0  0  0  0  0  0  0  0  0  0  0  0
    5.9736  -20.8702    0.0000 C   0  0  0  0  0  0  0  0  0  0  0  0
    5.2554  -20.4686    0.0000 C   0  0  0  0  0  0  0  0  0  0  0  0
    3.1045  -18.4232    0.0000 C   0  0  0  0  0  0  0  0  0  0  0  0
    3.8167  -18.0069    0.0000 C   0  0  0  0  0  0  0  0  0  0  0  0
    4.5355  -18.4129    0.0000 O   0  0  0  0  0  0  0  0  0  0  0  0
    3.8144  -17.1793    0.0000 O   0  0  0  0  0  0  0  0  0  0  0  0
 19 20  1  0  0  0  0 
  5  6  2  0  0  0  0 
  3 11  1  0  0  0  0 
 21 22  2  0  0  0  0 
  3  4  2  0  0  0  0 
 22 23  1  0  0  0  0 
  5 12  1  0  0  0  0 
 23 24  2  0  0  0  0 
  6  7  1  0  0  0  0 
 24 25  1  0  0  0  0 
 13 10  1  1  0  0  0 
 25 26  2  0  0  0  0 
 26 21  1  0  0  0  0 
 13 14  1  0  0  0  0 
  7  8  2  0  0  0  0 
 27 28  1  0  0  0  0 
 27 29  2  0  0  0  0 
 20 27  1  6  0  0  0 
 28  1  1  0  0  0  0 
 13 15  1  0  0  0  0 
  8  3  1  0  0  0  0 
  2 30  1  0  0  0  0 
  2 31  2  0  0  0  0 
 15 16  2  0  0  0  0 
 30 32  1  0  0  0  0 
  4  5  1  0  0  0  0 
 32 33  2  0  0  0  0 
 15 17  1  0  0  0  0 
 33 34  1  0  0  0  0 
 17 18  1  0  0  0  0 
 34 35  2  0  0  0  0 
  7  9  1  0  0  0  0 
 35 36  1  0  0  0  0 
  1  2  1  0  0  0  0 
 36 37  2  0  0  0  0 
 37 32  1  0  0  0  0 
  4 10  1  0  0  0  0 
  1 38  1  6  0  0  0 
 17 20  1  0  0  0  0 
 38 39  1  0  0  0  0 
 18 22  1  0  0  0  0 
 21 19  1  0  0  0  0 
 39 40  1  0  0  0  0 
 39 41  2  0  0  0  0 
M  END