
  SciTegic01311317052D

 30 33  0  0  0  0            999 V2000
    6.9917   -1.0625    0.0000 C   0  0
    6.9750   -1.8917    0.0000 C   0  0  2  0  0  0
    4.8417   -2.2792    0.0000 C   0  0
    4.8375   -3.1042    0.0000 C   0  0
    5.5542   -1.8667    0.0000 C   0  0  2  0  0  0
    6.2625   -2.2917    0.0000 C   0  0  1  0  0  0
    8.4167   -1.0875    0.0000 C   0  0
    7.6917    1.0083    0.0000 N   0  3
    4.1292   -3.5167    0.0000 C   0  0
    6.2792   -0.6417    0.0000 C   0  0
    6.9792   -0.2375    0.0000 C   0  0
    7.6917    1.8333    0.0000 N   0  5
    7.6792   -2.3167    0.0000 C   0  0
    5.5542   -1.0417    0.0000 C   0  0
    4.1292   -1.8667    0.0000 C   0  0
    8.4042   -1.9125    0.0000 C   0  0
    6.2667   -3.1125    0.0000 C   0  0
    7.6917    0.1833    0.0000 C   0  0
    9.1292   -0.6667    0.0000 C   0  0
    5.5500   -3.5167    0.0000 C   0  0
    3.4167   -3.1042    0.0000 C   0  0
    6.2667    0.1750    0.0000 O   0  0
    9.8417   -1.0792    0.0000 O   0  0
    2.7042   -3.5167    0.0000 O   0  0
    3.4167   -2.2792    0.0000 C   0  0
    4.8292   -1.4542    0.0000 C   0  0
    9.1292    0.1583    0.0000 C   0  0
    6.2625   -1.4667    0.0000 H   0  0
    6.9750   -2.7167    0.0000 H   0  0
    5.5542   -2.6917    0.0000 H   0  0
  2  1  1  0
  3  5  1  0
  4  3  1  0
  5 14  1  0
  6  2  1  0
  7  1  1  0
  8 18  2  0
  9  4  2  0
 10  1  1  0
 11  1  1  0
 12  8  2  0
 13  2  1  0
 14 10  1  0
 15  3  1  0
 16  7  1  0
 17  6  1  0
 18 11  1  0
 19  7  1  0
 20 17  1  0
 21 25  1  0
 22 11  2  0
 23 19  2  0
 24 21  2  0
 25 15  1  0
 26  3  1  0
 27 19  1  0
 13 16  1  0
  5  6  1  0
  4 20  1  0
  9 21  1  0
  6 28  1  1
  2 29  1  6
  5 30  1  6
M  CHG  2   8   1  12  -1
M  END