
  SciTegic12201110432D

  8  7  0  0  0  0            999 V2000
    0.8250    0.7145    0.0000 C   0  0
    0.4125    0.0000    0.0000 C   0  0
   -0.4125    0.0000    0.0000 C   0  0
   -0.8250   -0.7145    0.0000 C   0  0
    1.6500    0.7145    0.0000 O   0  0
    0.4125    1.4289    0.0000 O   0  0
   -0.4125   -1.4289    0.0000 O   0  0
   -1.6500   -0.7145    0.0000 O   0  0
  2  1  1  0
  1  5  1  0
  1  6  2  0
  3  2  2  0
  4  3  1  0
  4  7  1  0
  4  8  2  0
M  END