
  SciTegic09261414482D

 25 25  0  0  0  0            999 V2000
    9.5649   -3.5665    0.0000 C   0  0
    9.5638   -4.3938    0.0000 C   0  0
   10.2785   -4.8067    0.0000 C   0  0
   10.2767   -3.1537    0.0000 C   0  0
   10.9920   -3.5629    0.0000 C   0  0
   10.9923   -4.3893    0.0000 C   0  0
   11.7783   -4.6445    0.0000 N   0  0
   12.2640   -3.9757    0.0000 C   0  0
   11.7779   -3.3073    0.0000 C   0  0
   12.0326   -2.5226    0.0000 C   0  0
   12.8395   -2.3509    0.0000 C   0  0
   13.0941   -1.5662    0.0000 N   0  0
   13.9010   -1.3943    0.0000 C   0  0
   12.5419   -0.9533    0.0000 C   0  0
    8.8503   -3.1541    0.0000 O   0  0
    8.8501   -2.3293    0.0000 C   0  0
    8.1356   -1.9169    0.0000 C   0  0
    9.5645   -1.9166    0.0000 O   0  0
    8.1354   -1.0919    0.0000 C   0  0
   16.3513   -4.2872    0.0000 C   0  0
   15.9388   -5.0017    0.0000 C   0  0
   15.9388   -3.5728    0.0000 O   0  0
   17.1763   -4.2872    0.0000 O   0  0
   16.3513   -5.7162    0.0000 O   0  0
   15.1138   -5.0017    0.0000 O   0  0
  1  2  2  0
  2  3  1  0
  3  6  2  0
  5  4  2  0
  4  1  1  0
  5  6  1  0
  6  7  1  0
  7  8  1  0
  8  9  2  0
  9  5  1  0
  9 10  1  0
 10 11  1  0
 11 12  1  0
 12 13  1  0
 12 14  1  0
  1 15  1  0
 15 16  1  0
 16 17  1  0
 16 18  2  0
 17 19  1  0
 20 21  1  0
 20 22  2  0
 20 23  1  0
 21 24  2  0
 21 25  1  0
M  END