
  CDK    9/16/09,10:2

 16 17  0  0  0  0  0  0  0  0999 V2000
   -4.4048   -3.9868    0.0000 C   0  0  0  0  0  0  0  0  0  0  0  0
   -3.5804   -3.9880    0.0000 C   0  0  0  0  0  0  0  0  0  0  0  0
   -3.1711   -3.2752    0.0000 C   0  0  0  0  0  0  0  0  0  0  0  0
   -3.5809   -2.5608    0.0000 C   0  0  0  0  0  0  0  0  0  0  0  0
   -4.4084   -2.5636    0.0000 C   0  0  0  0  0  0  0  0  0  0  0  0
   -4.8182   -3.2770    0.0000 C   0  0  0  0  0  0  0  0  0  0  0  0
   -3.1710   -1.8441    0.0000 O   0  0  0  0  0  0  0  0  0  0  0  0
   -5.6442   -3.2795    0.0000 O   0  0  0  0  0  0  0  0  0  0  0  0
   -2.3450   -3.2754    0.0000 C   0  0  0  0  0  0  0  0  0  0  0  0
   -1.9300   -3.9915    0.0000 N   0  0  0  0  0  0  0  0  0  0  0  0
   -1.1039   -3.9918    0.0000 C   0  0  0  0  0  0  0  0  0  0  0  0
   -0.6920   -4.7056    0.0000 C   0  0  0  0  0  0  0  0  0  0  0  0
    0.1306   -4.7078    0.0000 C   0  0  0  0  0  0  0  0  0  0  0  0
    0.5498   -3.9937    0.0000 C   0  0  0  0  0  0  0  0  0  0  0  0
    0.1361   -3.2757    0.0000 C   0  0  0  0  0  0  0  0  0  0  0  0
   -0.6927   -3.2719    0.0000 C   0  0  0  0  0  0  0  0  0  0  0  0
  6  8  1  0  0  0  0 
  3  9  1  0  0  0  0 
  4  5  1  0  0  0  0 
  9 10  2  0  0  0  0 
  2  3  1  0  0  0  0 
 10 11  1  0  0  0  0 
 11 12  1  0  0  0  0 
  5  6  2  0  0  0  0 
  6  1  1  0  0  0  0 
  1  2  2  0  0  0  0 
  4  7  1  0  0  0  0 
  3  4  2  0  0  0  0 
 11 16  1  0  0  0  0 
 12 13  1  0  0  0  0 
 13 14  1  0  0  0  0 
 14 15  1  0  0  0  0 
 15 16  1  0  0  0  0 
M  END