
          05080814042D 1   1.00000     0.00000     0

 28 30  0     0  0            999 V2000
   -4.4306   -6.8291    0.0000 C   0  0  0  0  0  0           0  0  0
   -4.4318   -7.6565    0.0000 C   0  0  0  0  0  0           0  0  0
   -3.7169   -8.0694    0.0000 C   0  0  0  0  0  0           0  0  0
   -3.0005   -7.6560    0.0000 C   0  0  0  0  0  0           0  0  0
   -3.0034   -6.8255    0.0000 C   0  0  0  0  0  0           0  0  0
   -3.7187   -6.4164    0.0000 C   0  0  0  0  0  0           0  0  0
   -2.2854   -8.0674    0.0000 N   0  0  0  0  0  0           0  0  0
   -2.2841   -8.8924    0.0000 C   0  0  0  0  0  0           0  0  0
   -1.5690   -9.3038    0.0000 O   0  0  0  0  0  0           0  0  0
   -2.9979   -9.3060    0.0000 C   0  0  0  0  0  0           0  0  0
   -3.7099   -8.8908    0.0000 C   0  0  0  0  0  0           0  0  0
   -4.4233   -9.3037    0.0000 C   0  0  0  0  0  0           0  0  0
   -4.4224  -10.1296    0.0000 C   0  0  0  0  0  0           0  0  0
   -3.7023  -10.5408    0.0000 C   0  0  0  0  0  0           0  0  0
   -2.9919  -10.1255    0.0000 C   0  0  0  0  0  0           0  0  0
   -3.6981  -11.3658    0.0000 S   0  0  3  0  0  0           0  0  0
   -3.7042  -12.1875    0.0000 N   0  0  3  0  0  0           0  0  0
   -2.8731  -11.3668    0.0000 O   0  0  0  0  0  0           0  0  0
   -4.5231  -11.3682    0.0000 O   0  0  0  0  0  0           0  0  0
   -4.4206  -12.5918    0.0000 C   0  0  0  0  0  0           0  0  0
   -4.4286  -13.4099    0.0000 C   0  0  0  0  0  0           0  0  0
   -3.7219  -13.8299    0.0000 O   0  0  0  0  0  0           0  0  0
   -3.0055  -13.4255    0.0000 C   0  0  0  0  0  0           0  0  0
   -2.9957  -12.6013    0.0000 C   0  0  0  0  0  0           0  0  0
   -2.2904   -6.4103    0.0000 C   0  0  0  0  0  0           0  0  0
   -1.5729   -6.8199    0.0000 O   0  0  0  0  0  0           0  0  0
   -2.2920   -5.5851    0.0000 O   0  0  0  0  0  0           0  0  0
   -5.1452   -6.4168    0.0000 Cl  0  0  0  0  0  0           0  0  0
 13 14  1  0     0  0
  4  7  1  0     0  0
 14 15  2  0     0  0
 15 10  1  0     0  0
  3  4  2  0     0  0
 14 16  1  0     0  0
  7  8  1  0     0  0
 16 17  1  0     0  0
 16 18  2  0     0  0
  8  9  2  0     0  0
 16 19  2  0     0  0
 17 20  1  0     0  0
  4  5  1  0     0  0
  8 10  1  0     0  0
  2  3  1  0     0  0
 10 11  2  0     0  0
  5  6  2  0     0  0
 17 24  1  0     0  0
 20 21  1  0     0  0
 21 22  1  0     0  0
 22 23  1  0     0  0
 23 24  1  0     0  0
 11 12  1  0     0  0
  5 25  1  0     0  0
  6  1  1  0     0  0
 12 13  2  0     0  0
 25 26  1  0     0  0
 25 27  2  0     0  0
  1  2  2  0     0  0
  1 28  1  0     0  0
M  END