
  SciTegic06161612072D

 35 39  0  0  0  0            999 V2000
    0.0000    0.7486    0.0000 C   0  0
   -1.2964    1.4973    0.0000 C   0  0
   -1.2964   -1.4973    0.0000 O   0  0
    0.0000   -0.7486    0.0000 C   0  0
   -2.6111    0.7486    0.0000 C   0  0
   -2.6111   -0.7486    0.0000 C   0  0
   -7.8029   -0.7805    0.0000 O   0  0
    1.2964    1.4973    0.0000 C   0  0
   -9.1126   -1.5379    0.0000 C   0  0
   -7.7829   -3.7750    0.0000 O   0  0
   -6.5015   -1.5204    0.0000 C   0  0
   -9.1026   -3.0352    0.0000 C   0  0
   -3.9086   -1.5029    0.0000 C   0  0
  -10.4151   -0.7924    0.0000 C   0  0
   -6.4915   -3.0177    0.0000 C   0  0
    1.2964   -1.4973    0.0000 C   0  0
   -5.2101   -0.7631    0.0000 C   0  0
    2.5929    0.7486    0.0000 C   0  0
  -11.7140   -1.5423    0.0000 C   0  0
  -13.0131   -0.7923    0.0000 C   0  0
   -1.2928    2.6973    0.0000 O   0  0
    2.5929   -0.7486    0.0000 C   0  0
  -13.0131    0.7077    0.0000 C   0  0
   -3.8987   -3.0003    0.0000 C   0  0
  -10.4150    0.7077    0.0000 C   0  0
   -5.1901   -3.7576    0.0000 C   0  0
  -11.7141    1.4577    0.0000 C   0  0
   -3.6486    1.3517    0.0000 O   0  0
    1.2964    2.6973    0.0000 O   0  0
  -14.3113   -1.5454    0.0000 O   0  0
  -10.3955   -3.7971    0.0000 C   0  0
  -14.0523    1.3077    0.0000 O   0  0
    3.6321   -1.3486    0.0000 O   0  0
  -10.3856   -4.9971    0.0000 O   0  0
  -14.3096   -2.7454    0.0000 C   0  0
  2  1  1  0
  3  4  1  0
  4  1  2  0
  5  2  1  0
  6  3  1  0
  7 11  1  0
  8  1  1  0
  9  7  1  0
 10 15  1  0
 11 17  1  0
 12 10  1  0
 13  6  1  0
 14  9  1  0
 15 26  1  0
 16  4  1  0
 17 13  2  0
 18  8  2  0
 19 14  1  0
 20 19  2  0
 21  2  2  0
 22 18  1  0
 23 27  2  0
 24 13  1  0
 25 14  2  0
 26 24  2  0
 27 25  1  0
 28  5  1  0
 29  8  1  0
 30 20  1  0
 31 12  1  0
 32 23  1  0
 33 22  1  0
 34 31  1  0
 35 30  1  0
 16 22  2  0
  5  6  1  0
 11 15  2  0
  9 12  1  0
 20 23  1  0
M  END
