
          11280715122D 1   1.00000     0.00000     0

 30 32  0     0  0            999 V2000
    4.6667   -5.8250    0.0000 C   0  0  0  0  0  0           0  0  0
    3.9542   -5.4167    0.0000 C   0  0  0  0  0  0           0  0  0
   -0.0958   -5.9292    0.0000 N   0  0  3  0  0  0           0  0  0
   -0.8083   -5.5167    0.0000 C   0  0  0  0  0  0           0  0  0
    4.6667   -6.6542    0.0000 C   0  0  0  0  0  0           0  0  0
   -0.8083   -4.6917    0.0000 C   0  0  0  0  0  0           0  0  0
    1.2667   -6.8542    0.0000 N   0  0  3  0  0  0           0  0  0
    3.9542   -4.5917    0.0000 N   0  0  3  0  0  0           0  0  0
    5.3792   -7.0667    0.0000 N   0  0  0  0  0  0           0  0  0
    3.2375   -5.8292    0.0000 O   0  0  0  0  0  0           0  0  0
    0.6500   -5.5667    0.0000 C   0  0  0  0  0  0           0  0  0
   -0.1500   -6.7542    0.0000 C   0  0  0  0  0  0           0  0  0
    3.9542   -7.0667    0.0000 N   0  0  0  0  0  0           0  0  0
    1.3292   -6.0292    0.0000 C   0  0  0  0  0  0           0  0  0
    0.5292   -7.2125    0.0000 C   0  0  0  0  0  0           0  0  0
   -0.0958   -4.2750    0.0000 C   0  0  3  0  0  0           0  0  0
    5.3792   -5.4125    0.0000 C   0  0  0  0  0  0           0  0  0
    1.9500   -7.3167    0.0000 C   0  0  0  0  0  0           0  0  0
    2.6625   -6.9000    0.0000 C   0  0  0  0  0  0           0  0  0
   -1.5250   -5.9292    0.0000 C   0  0  0  0  0  0           0  0  0
   -1.5250   -4.2792    0.0000 C   0  0  0  0  0  0           0  0  0
    6.0917   -6.6542    0.0000 C   0  0  0  0  0  0           0  0  0
    3.2417   -7.4792    0.0000 C   0  0  0  0  0  0           0  0  0
    3.2375   -4.1792    0.0000 C   0  0  0  0  0  0           0  0  0
    4.6667   -4.1750    0.0000 C   0  0  0  0  0  0           0  0  0
    0.6167   -4.6792    0.0000 C   0  0  0  0  0  0           0  0  0
   -0.1000   -3.4500    0.0000 C   0  0  0  0  0  0           0  0  0
    6.0917   -5.8250    0.0000 C   0  0  0  0  0  0           0  0  0
   -2.2375   -4.6917    0.0000 C   0  0  0  0  0  0           0  0  0
   -2.2375   -5.5167    0.0000 C   0  0  0  0  0  0           0  0  0
  2  1  1  0     0  0
  3 12  1  0     0  0
  4  3  1  0     0  0
  5  1  2  0     0  0
  6  4  1  0     0  0
  7 18  1  0     0  0
  8  2  1  0     0  0
  9  5  1  0     0  0
 10  2  2  0     0  0
 11 14  1  0     0  0
 12 15  1  0     0  0
 13  5  1  0     0  0
 14  7  1  0     0  0
 15  7  1  0     0  0
 16  6  1  0     0  0
 17  1  1  0     0  0
 18 19  1  0     0  0
 19 23  1  0     0  0
 20  4  2  0     0  0
 21  6  2  0     0  0
 22 28  1  0     0  0
 23 13  1  0     0  0
 24  8  1  0     0  0
 25  8  1  0     0  0
 26 16  1  0     0  0
 27 16  1  0     0  0
 28 17  2  0     0  0
 29 30  2  0     0  0
 30 20  1  0     0  0
 22  9  2  0     0  0
  3 11  1  0     0  0
 29 21  1  0     0  0
M  END