
  SciTegic12231509382D

 23 24  0  0  1  0            999 V2000
    1.9667   -1.4792    0.0000 C   0  0  1  0  0  0
    3.3875   -1.4792    0.0000 C   0  0  2  0  0  0
    1.6167   -2.0917    0.0000 C   0  0  1  0  0  0
    3.7417   -2.0917    0.0000 C   0  0  1  0  0  0
    4.4542   -2.0917    0.0000 C   0  0  2  0  0  0
    0.9125   -2.0917    0.0000 C   0  0  2  0  0  0
    1.6167   -0.8667    0.0000 O   0  0
    2.6792   -1.4792    0.0000 O   0  0
    4.4542   -0.8667    0.0000 O   0  0
    4.8042   -1.4792    0.0000 C   0  0  1  0  0  0
    0.5542   -1.4792    0.0000 C   0  0  2  0  0  0
    3.7417   -0.8667    0.0000 C   0  0  2  0  0  0
    0.9125   -0.8667    0.0000 C   0  0  1  0  0  0
    1.9750   -2.7042    0.0000 O   0  0
    4.8042   -2.7042    0.0000 O   0  0
    3.3917   -2.7042    0.0000 O   0  0
    0.5542   -2.7042    0.0000 O   0  0
   -0.1583   -1.4792    0.0000 O   0  0
    5.5125   -1.4792    0.0000 O   0  0
    3.3917   -0.2542    0.0000 C   0  0
    0.5542   -0.2542    0.0000 C   0  0
    3.7417    0.3583    0.0000 O   0  0
    0.9125    0.3583    0.0000 O   0  0
  2  8  1  6
  3  1  1  0
  4  2  1  0
  5  4  1  0
  6  3  1  0
  7  1  1  0
  1  8  1  1
  9 12  1  0
 10  9  1  0
 11 13  1  0
 12  2  1  0
 13  7  1  0
  3 14  1  6
  5 15  1  6
  4 16  1  1
  6 17  1  1
 11 18  1  1
 10 19  1  1
 12 20  1  1
 13 21  1  1
 22 20  1  0
 23 21  1  0
 11  6  1  0
 10  5  1  0
M  END