
  CDK    9/16/09,9:59

 17 18  0  0  0  0  0  0  0  0999 V2000
   17.3327  -17.8742    0.0000 C   0  0  0  0  0  0  0  0  0  0  0  0
   18.1583  -17.8708    0.0000 C   0  0  0  0  0  0  0  0  0  0  0  0
   16.9264  -15.7343    0.0000 C   0  0  0  0  0  0  0  0  0  0  0  0
   17.3382  -16.4492    0.0000 N   0  0  0  0  0  0  0  0  0  0  0  0
   16.9233  -17.1585    0.0000 C   0  0  0  0  0  0  0  0  0  0  0  0
   16.9187  -18.5857    0.0000 O   0  0  0  0  0  0  0  0  0  0  0  0
   18.5686  -17.1595    0.0000 O   0  0  0  0  0  0  0  0  0  0  0  0
   17.3433  -15.0159    0.0000 C   0  0  0  0  0  0  0  0  0  0  0  0
   17.3445  -13.6825    0.0000 N   0  0  0  0  0  0  0  0  0  0  0  0
   16.8629  -14.3544    0.0000 C   0  0  0  0  0  0  0  0  0  0  0  0
   18.1297  -13.9384    0.0000 C   0  0  0  0  0  0  0  0  0  0  0  0
   18.1276  -14.7623    0.0000 C   0  0  0  0  0  0  0  0  0  0  0  0
   18.8432  -15.1783    0.0000 N   0  0  0  0  0  0  0  0  0  0  0  0
   19.5612  -14.7634    0.0000 C   0  0  0  0  0  0  0  0  0  0  0  0
   19.5592  -13.9363    0.0000 N   0  0  0  0  0  0  0  0  0  0  0  0
   18.8432  -13.5240    0.0000 C   0  0  0  0  0  0  0  0  0  0  0  0
   18.8417  -12.6981    0.0000 O   0  0  0  0  0  0  0  0  0  0  0  0
  4  5  1  0  0  0  0 
  5  1  1  0  0  0  0 
 11  9  1  0  0  0  0 
  9 10  1  0  0  0  0 
 10  8  2  0  0  0  0 
  1  2  1  0  0  0  0 
  1  6  1  1  0  0  0 
 11 12  2  0  0  0  0 
 12 13  1  0  0  0  0 
  2  7  1  0  0  0  0 
 13 14  2  0  0  0  0 
  3  4  1  0  0  0  0 
 14 15  1  0  0  0  0 
  3  8  1  0  0  0  0 
 15 16  1  0  0  0  0 
 16 11  1  0  0  0  0 
  8 12  1  0  0  0  0 
 16 17  2  0  0  0  0 
M  END