
  SciTegic09251318272D

 69 76  0  0  0  0            999 V2000
   -9.4985   -2.0235    0.0000 N   0  0
    9.7446    2.1663    0.0000 N   0  0
   10.0302    0.8014    0.0000 N   0  3
   10.5540    2.3250    0.0000 C   0  0
    9.3161    2.8725    0.0000 C   0  0
  -10.1889   -1.5792    0.0000 C   0  0
   10.8396    0.9680    0.0000 C   0  0
   -8.7763   -1.6030    0.0000 C   0  0
  -11.2839   -2.5710    0.0000 C   0  0
   -9.4429   -2.8171    0.0000 C   0  0
  -10.9903   -1.8172    0.0000 C   0  0
   11.1015    1.7298    0.0000 C   0  0
  -10.8712   -3.2694    0.0000 N   0  0
    9.3161    1.4680    0.0000 B   0  5
    9.8794    3.4676    0.0000 C   0  0
  -10.0380   -3.3884    0.0000 C   0  0
    8.4829    2.8725    0.0000 C   0  0
   10.6492    3.1344    0.0000 C   0  0
    9.9350    0.0000    0.0000 C   0  0
   11.2601    0.2777    0.0000 C   0  0
   10.6968   -0.3333    0.0000 C   0  0
   -8.0860   -0.3809    0.0000 N   0  0
   -8.8001   -0.7936    0.0000 C   0  0
    7.9829    2.2297    0.0000 S   0  0
   -8.6415   -3.0551    0.0000 N   0  0
   -6.6418    0.4523    0.0000 N   0  0
    7.7925   -0.4127    0.0000 C   0  0
   -8.1812   -2.1743    0.0000 O   0  0
  -12.1013   -2.5472    0.0000 O   0  0
    2.7377    0.0000    0.0000 C   0  0
   -2.3092    0.4285    0.0000 C   0  0
    7.9987    3.5471    0.0000 C   0  0
    7.1973    2.4758    0.0000 C   0  0
    9.2208   -0.4047    0.0000 C   0  0
    7.1973    3.3010    0.0000 C   0  0
    8.5939    1.8727    0.0000 F   0  0
    8.7209    0.8966    0.0000 F   0  0
    7.7845   -1.2141    0.0000 O   0  0
   -2.3250   -0.3809    0.0000 O   0  0
    2.7377   -0.7936    0.0000 O   0  0
    7.0783    0.0000    0.0000 N   0  0
   -3.0391    0.8332    0.0000 N   0  0
    2.0235    0.4205    0.0000 N   0  0
   -8.0940    0.4205    0.0000 C   0  0
   -7.3560   -0.7698    0.0000 C   0  0
   -7.3718    0.8490    0.0000 C   0  0
   -6.6338   -0.3571    0.0000 C   0  0
    8.5067    0.0000    0.0000 C   0  0
  -11.5776   -1.2935    0.0000 C   0  0
  -10.0142   -0.7936    0.0000 C   0  0
   -9.8476   -4.1660    0.0000 C   0  0
   -5.9276    0.8490    0.0000 C   0  0
   -8.4431   -3.8407    0.0000 C   0  0
   -1.5950    0.8252    0.0000 C   0  0
    3.4598    0.4205    0.0000 C   0  0
    1.2935    0.8252    0.0000 C   0  0
    6.3561    0.3967    0.0000 C   0  0
   -3.7613    0.4443    0.0000 C   0  0
   -5.2055    0.4443    0.0000 C   0  0
   -0.8728    0.4205    0.0000 C   0  0
    4.1740    0.0000    0.0000 C   0  0
    5.6262    0.0000    0.0000 C   0  0
   -4.4755    0.8490    0.0000 C   0  0
    0.5713    0.4205    0.0000 C   0  0
   -9.0620   -4.4041    0.0000 C   0  0
  -11.4268   -0.4841    0.0000 C   0  0
  -10.6332   -0.2381    0.0000 C   0  0
    4.9120    0.4047    0.0000 C   0  0
   -0.1586    0.8252    0.0000 C   0  0
  2  4  1  0
  3 19  2  0
  4 12  1  0
  5  2  1  0
  6  1  1  0
  7  3  1  0
  8  1  1  0
  9 11  1  0
 10  1  1  0
 11  6  2  0
 12  7  2  0
 13 16  1  0
 14  2  1  0
 15 18  1  0
 16 10  2  0
 17  5  1  0
 18  4  2  0
 19 34  1  0
 20 21  2  0
 21 19  1  0
 22 23  1  0
 23  8  1  0
 24 17  1  0
 25 10  1  0
 26 47  1  0
 27 41  1  0
 28  8  2  0
 29  9  2  0
 30 43  1  0
 31 42  1  0
 32 17  2  0
 33 24  1  0
 34 48  1  0
 35 32  1  0
 36 14  1  0
 37 14  1  0
 38 27  2  0
 39 31  2  0
 40 30  2  0
 41 57  1  0
 42 58  1  0
 43 56  1  0
 44 22  1  0
 45 22  1  0
 46 44  1  0
 47 45  1  0
 48 27  1  0
 49 11  1  0
 50  6  1  0
 51 16  1  0
 52 26  1  0
 53 25  2  0
 54 31  1  0
 55 30  1  0
 56 64  1  0
 57 62  1  0
 58 63  1  0
 59 52  1  0
 60 54  1  0
 61 55  1  0
 62 68  1  0
 63 59  1  0
 64 69  1  0
 65 53  1  0
 66 67  1  0
 67 50  2  0
 68 61  1  0
 69 60  1  0
 13  9  1  0
 51 65  2  0
 49 66  2  0
 46 26  1  0
  7 20  1  0
  5 15  2  0
 35 33  2  0
  3 14  1  0
M  CHG  2   3   1  14  -1
M  END