
  SciTegic12231509382D

 22 24  0  0  0  0            999 V2000
    2.8618   -2.4815    0.0000 O   0  0
    2.8618    0.0000    0.0000 O   0  0
    4.3056   -0.8250    0.0000 O   0  0
    1.4309    0.0000    0.0000 O   0  0
    5.0146   -1.2311    0.0000 O   0  0
    0.0000   -2.4815    0.0000 O   0  0
    6.4455   -3.7191    0.0000 O   0  0
    2.1463   -1.2311    0.0000 C   0  0
    3.5901   -2.0561    0.0000 C   0  0
    2.1463   -2.0561    0.0000 C   0  0
    2.8618   -0.8250    0.0000 C   0  0
    3.5901   -1.2311    0.0000 C   0  0
    4.3056   -2.4815    0.0000 C   0  0
    1.4309   -0.8250    0.0000 C   0  0
    1.4309   -2.4815    0.0000 C   0  0
    5.0146   -2.0561    0.0000 C   0  0
    0.7154   -2.0561    0.0000 C   0  0
    0.7154   -1.2311    0.0000 C   0  0
    4.3056   -3.3065    0.0000 C   0  0
    5.7301   -2.4815    0.0000 C   0  0
    5.7301   -3.3065    0.0000 C   0  0
    5.0146   -3.7191    0.0000 C   0  0
  1  9  1  0
  1 10  1  0
  2 11  2  0
  3 12  1  0
  4 14  1  0
  5 16  1  0
  6 17  1  0
  7 21  1  0
  8 10  2  0
  8 11  1  0
  8 14  1  0
  9 12  2  0
  9 13  1  0
 10 15  1  0
 11 12  1  0
 13 16  2  0
 13 19  1  0
 14 18  2  0
 15 17  2  0
 16 20  1  0
 17 18  1  0
 19 22  2  0
 20 21  2  0
 21 22  1  0
M  END