
  SciTegic05061116452D

 34 36  0  0  0  0            999 V2000
   -2.4639  -19.6060    0.0000 N   0  0
   -1.7522  -19.1974    0.0000 C   0  0
   -1.7522  -18.3723    0.0000 N   0  0
   -2.4639  -17.9559    0.0000 C   0  0
   -3.1756  -19.1974    0.0000 C   0  0
   -3.1756  -18.3677    0.0000 C   0  0
   -3.9645  -18.1113    0.0000 N   0  0
   -4.4522  -18.7825    0.0000 C   0  0
   -3.9646  -19.4536    0.0000 N   0  0
   -4.2196  -20.2382    0.0000 C   0  0
   -5.0265  -20.4098    0.0000 C   0  0
   -5.2815  -21.1943    0.0000 O   0  0
   -5.5785  -19.7966    0.0000 O   0  0
   -2.4619  -17.1309    0.0000 N   0  0
   -1.0381  -19.6108    0.0000 N   0  0
   -0.3232  -19.1990    0.0000 C   0  0
    0.3909  -19.6124    0.0000 C   0  0
    1.1058  -19.2008    0.0000 C   0  0
    1.8198  -19.6142    0.0000 C   0  0
    2.5348  -19.2025    0.0000 C   0  0
   -1.0392  -20.4357    0.0000 C   0  0
   -1.7541  -20.8474    0.0000 O   0  0
   -0.3251  -20.8491    0.0000 O   0  0
   -0.3261  -21.6741    0.0000 C   0  0
    0.3879  -22.0875    0.0000 C   0  0
   -1.0411  -22.0858    0.0000 C   0  0
   -0.3308  -22.4974    0.0000 C   0  0
   -1.7464  -16.7201    0.0000 C   0  0
   -1.0329  -17.1343    0.0000 C   0  0
   -1.0401  -17.9568    0.0000 C   0  0
   -0.3274  -18.3709    0.0000 C   0  0
    0.3891  -17.9600    0.0000 C   0  0
    0.3884  -17.1307    0.0000 C   0  0
   -0.3248  -16.7203    0.0000 C   0  0
  6  7  1  0
 16 17  1  0
  7  8  2  0
 17 18  1  0
  8  9  1  0
 18 19  1  0
  9  5  1  0
 19 20  1  0
  3  4  2  0
 15 21  1  0
  9 10  1  0
 21 22  2  0
  5  6  2  0
 21 23  1  0
 10 11  1  0
 23 24  1  0
 24 25  1  0
 11 12  1  0
 24 26  1  0
  6  4  1  0
 24 27  1  0
 11 13  2  0
 14 28  1  0
  5  1  1  0
 28 29  1  0
  4 14  1  0
 29 30  2  0
  1  2  2  0
 30 31  1  0
  2 15  1  0
 31 32  2  0
  2  3  1  0
 32 33  1  0
 15 16  1  0
 33 34  2  0
 34 29  1  0
M  END