
  SciTegic05071317032D

 27 25  0  0  0  0            999 V2000
   20.6457   -5.8451    0.0000 N   0  0
   21.3615   -6.2581    0.0000 C   0  0
   22.0722   -5.8464    0.0000 C   0  0
   22.0735   -5.0211    0.0000 N   0  0
   21.3576   -4.6091    0.0000 C   0  0
   20.6407   -5.0224    0.0000 C   0  0
   22.7879   -4.6086    0.0000 C   0  0
   23.5023   -5.0211    0.0000 C   0  0
   24.2167   -4.6086    0.0000 C   0  0
   24.9312   -5.0211    0.0000 N   0  0
   12.7938   -6.2830    0.0000 C   0  0
   12.7927   -7.1104    0.0000 C   0  0
   13.5075   -7.5232    0.0000 C   0  0
   14.2239   -7.1099    0.0000 C   0  0
   14.2210   -6.2794    0.0000 C   0  0
   13.5056   -5.8703    0.0000 C   0  0
   14.9339   -5.8642    0.0000 O   0  0
   15.6498   -6.2740    0.0000 C   0  0
   16.3628   -5.8588    0.0000 C   0  0
   17.0787   -6.2687    0.0000 C   0  0
   17.7916   -5.8534    0.0000 C   0  0
   18.5077   -6.2632    0.0000 C   0  0
   19.2205   -5.8481    0.0000 C   0  0
   19.9365   -6.2579    0.0000 C   0  0
   18.7661   -7.6136    0.0000 Cl  0  0
   22.0982   -7.5134    0.0000 Cl  0  0
   20.5955   -8.3089    0.0000 Cl  0  0
  1  2  1  0
  1  6  1  0
  2  3  1  0
  3  4  1  0
  4  5  1  0
  5  6  1  0
  4  7  1  0
  7  8  1  0
  8  9  1  0
  9 10  1  0
 11 12  2  0
 12 13  1  0
 13 14  2  0
 14 15  1  0
 15 16  2  0
 16 11  1  0
 15 17  1  0
 17 18  1  0
 18 19  1  0
 19 20  1  0
 20 21  1  0
 21 22  1  0
 22 23  1  0
 23 24  1  0
 24  1  1  0
M  END