
  CDK    9/16/09,10:4

 24 26  0  0  0  0  0  0  0  0999 V2000
   -4.2836   -2.0752    0.0000 C   0  0  0  0  0  0  0  0  0  0  0  0
   -3.5692   -1.6626    0.0000 C   0  0  0  0  0  0  0  0  0  0  0  0
   -2.8546   -2.0752    0.0000 C   0  0  0  0  0  0  0  0  0  0  0  0
   -2.1401   -1.6626    0.0000 C   0  0  0  0  0  0  0  0  0  0  0  0
   -1.4255   -2.0752    0.0000 N   0  0  0  0  0  0  0  0  0  0  0  0
   -0.7111   -1.6626    0.0000 C   0  0  0  0  0  0  0  0  0  0  0  0
    0.0035   -2.0752    0.0000 N   0  0  0  0  0  0  0  0  0  0  0  0
   -0.7111   -0.8376    0.0000 N   0  0  0  0  0  0  0  0  0  0  0  0
    0.7181   -1.6626    0.0000 C   0  0  0  0  0  0  0  0  0  0  0  0
    1.4325   -2.0752    0.0000 C   0  0  0  0  0  0  0  0  0  0  0  0
    0.7181   -0.8376    0.0000 O   0  0  0  0  0  0  0  0  0  0  0  0
    2.1462   -1.6627    0.0000 C   0  0  0  0  0  0  0  0  0  0  0  0
   -5.0705   -1.8270    0.0000 N   0  0  0  0  0  0  0  0  0  0  0  0
   -5.5496   -2.4988    0.0000 C   0  0  0  0  0  0  0  0  0  0  0  0
   -5.0588   -3.1620    0.0000 N   0  0  0  0  0  0  0  0  0  0  0  0
   -4.2764   -2.9001    0.0000 C   0  0  0  0  0  0  0  0  0  0  0  0
    2.8143   -2.1448    0.0000 C   0  0  0  0  0  0  0  0  0  0  0  0
    3.4829   -1.6613    0.0000 N   0  0  0  0  0  0  0  0  0  0  0  0
    2.4046   -0.8743    0.0000 C   0  0  0  0  0  0  0  0  0  0  0  0
    3.2287   -0.8778    0.0000 C   0  0  0  0  0  0  0  0  0  0  0  0
    3.6420   -0.1669    0.0000 C   0  0  0  0  0  0  0  0  0  0  0  0
    3.2322    0.5478    0.0000 C   0  0  0  0  0  0  0  0  0  0  0  0
    2.4050    0.5473    0.0000 C   0  0  0  0  0  0  0  0  0  0  0  0
    1.9954   -0.1641    0.0000 C   0  0  0  0  0  0  0  0  0  0  0  0
  1 13  1  0  0  0  0 
  1  2  1  0  0  0  0 
  6  7  2  0  0  0  0 
  3  4  1  0  0  0  0 
  6  8  1  0  0  0  0 
 13 14  2  0  0  0  0 
 14 15  1  0  0  0  0 
 15 16  1  0  0  0  0 
 16  1  2  0  0  0  0 
 12 17  2  0  0  0  0 
  7  9  1  0  0  0  0 
 17 18  1  0  0  0  0 
 18 20  1  0  0  0  0 
 19 12  1  0  0  0  0 
  4  5  1  0  0  0  0 
  9 10  1  0  0  0  0 
 19 20  2  0  0  0  0 
  2  3  1  0  0  0  0 
 20 21  1  0  0  0  0 
  9 11  2  0  0  0  0 
 21 22  2  0  0  0  0 
  5  6  1  0  0  0  0 
 22 23  1  0  0  0  0 
 10 12  1  0  0  0  0 
 23 24  2  0  0  0  0 
 24 19  1  0  0  0  0 
M  END