
  SciTegic01061111512D

 28 30  0  0  0  0            999 V2000
   18.2738  -18.3279    0.0000 C   0  0  2  0  0  0
   18.2738  -19.1544    0.0000 C   0  0  1  0  0  0
   18.9877  -19.5655    0.0000 C   0  0  1  0  0  0
   19.7016  -19.1544    0.0000 C   0  0  2  0  0  0
   19.7016  -18.3279    0.0000 C   0  0  1  0  0  0
   18.9877  -17.9125    0.0000 O   0  0
   20.4190  -17.9188    0.0000 S   0  0
   21.1342  -18.3320    0.0000 C   0  0
   20.4173  -19.5707    0.0000 O   0  0
   18.9877  -20.3919    0.0000 N   0  0
   18.3206  -20.8792    0.0000 N   0  0
   18.5747  -21.6655    0.0000 N   0  0
   19.4013  -21.6655    0.0000 C   0  0
   19.6594  -20.8792    0.0000 C   0  0
   17.5582  -19.5707    0.0000 O   0  0
   17.5564  -17.9188    0.0000 C   0  0
   17.5540  -17.0923    0.0000 O   0  0
   19.8836  -22.3315    0.0000 C   0  0
   19.5480  -23.0823    0.0000 O   0  0
   20.7015  -22.2468    0.0000 N   0  0
   21.1839  -22.9128    0.0000 C   0  0
   22.0018  -22.8281    0.0000 C   0  0
   22.4841  -23.4941    0.0000 N   0  0
   22.1449  -24.2396    0.0000 C   0  0
   22.6236  -24.9038    0.0000 C   0  0
   23.4423  -24.8233    0.0000 O   0  0
   23.7801  -24.0726    0.0000 C   0  0
   23.2992  -23.4022    0.0000 C   0  0
 13 14  2  0
 14 10  1  0
  5  7  1  1
  2 15  1  1
  1  2  1  0
  1 16  1  1
  7  8  1  0
 16 17  1  0
  1  6  1  0
 13 18  1  0
  4  9  1  6
 18 19  2  0
  2  3  1  0
 18 20  1  0
  3 10  1  1
 20 21  1  0
 10 11  1  0
 21 22  1  0
  3  4  1  0
 22 23  1  0
 23 24  1  0
  4  5  1  0
  5  6  1  0
 11 12  2  0
 12 13  1  0
 23 28  1  0
 24 25  1  0
 25 26  1  0
 26 27  1  0
 27 28  1  0
M  END