
          11280714522D 1   1.00000     0.00000     0

 22 24  0     1  0            999 V2000
    6.2042   -7.2417    0.0000 S   0  0  3  0  0  0           0  0  0
    5.1375   -4.6167    0.0000 C   0  0  1  0  0  0           0  0  0
    5.1292   -5.4417    0.0000 C   0  0  0  0  0  0           0  0  0
    5.8542   -4.2125    0.0000 N   0  0  3  0  0  0           0  0  0
    6.4250   -6.4500    0.0000 N   0  0  3  0  0  0           0  0  0
    5.8375   -5.8667    0.0000 C   0  0  1  0  0  0           0  0  0
    4.4167   -4.2125    0.0000 C   0  0  0  0  0  0           0  0  0
    5.4042   -7.0292    0.0000 O   0  0  0  0  0  0           0  0  0
    7.0000   -7.4542    0.0000 O   0  0  0  0  0  0           0  0  0
    6.5625   -5.4542    0.0000 C   0  0  0  0  0  0           0  0  0
    6.5667   -4.6292    0.0000 C   0  0  0  0  0  0           0  0  0
    4.4167   -3.3792    0.0000 C   0  0  0  0  0  0           0  0  0
    5.8542   -3.3792    0.0000 C   0  0  0  0  0  0           0  0  0
    5.1375   -2.9542    0.0000 C   0  0  0  0  0  0           0  0  0
    6.0042   -8.0417    0.0000 C   0  0  0  0  0  0           0  0  0
    7.2167   -6.2292    0.0000 C   0  0  0  0  0  0           0  0  0
    3.7042   -4.6167    0.0000 C   0  0  0  0  0  0           0  0  0
    3.7042   -2.9667    0.0000 C   0  0  0  0  0  0           0  0  0
    2.9917   -4.2042    0.0000 C   0  0  0  0  0  0           0  0  0
    2.9917   -3.3792    0.0000 C   0  0  0  0  0  0           0  0  0
    4.4167   -5.0292    0.0000 H   0  0  0  0  0  0           0  0  0
    5.1250   -6.2750    0.0000 H   0  0  0  0  0  0           0  0  0
  2  3  1  0     0  0
  3  6  1  0     0  0
  4 11  1  0     0  0
  5  1  1  0     0  0
  6  5  1  0     0  0
  7  2  1  0     0  0
  8  1  2  0     0  0
  9  1  2  0     0  0
 10  6  1  0     0  0
 11 10  1  0     0  0
 12  7  1  0     0  0
 13  4  1  0     0  0
 14 13  1  0     0  0
 15  1  1  0     0  0
 16  5  1  0     0  0
 17  7  2  0     0  0
 18 12  2  0     0  0
 19 17  1  0     0  0
 20 19  2  0     0  0
  2 21  1  1     0  0
  6 22  1  1     0  0
  2  4  1  0     0  0
 14 12  1  0     0  0
 20 18  1  0     0  0
M  END