
  SciTegic12231509382D

 19 20  0  0  0  0            999 V2000
    0.0000    0.7486    0.0000 C   0  0
   -1.2964    1.4973    0.0000 C   0  0
   -9.1121    1.4882    0.0000 N   0  0
    0.0000   -0.7486    0.0000 C   0  0
   -1.2964   -1.4973    0.0000 C   0  0
   -2.6111    0.7486    0.0000 C   0  0
   -3.9122    1.4966    0.0000 O   0  0
   -6.5121    1.4924    0.0000 C   0  0
   -7.8109    0.7403    0.0000 C   0  0
   -5.2109    0.7445    0.0000 C   0  0
   -2.6111   -0.7486    0.0000 C   0  0
   -6.5141    2.6924    0.0000 O   0  0
  -10.4109    0.7361    0.0000 C   0  0
    1.2964    1.4973    0.0000 C   0  0
    1.2964   -1.4973    0.0000 C   0  0
  -11.4513    1.3341    0.0000 C   0  0
  -10.4090   -0.4639    0.0000 C   0  0
    2.5929    0.7486    0.0000 C   0  0
    2.5929   -0.7486    0.0000 C   0  0
  1  2  1  0
  1  4  1  0
  4  5  1  0
  2  6  2  0
  6  7  1  0
  3  9  1  0
  8  9  1  0
  7 10  1  0
  8 10  1  0
  5 11  2  0
  6 11  1  0
  8 12  1  0
  3 13  1  0
  1 14  2  0
  4 15  2  0
 13 16  1  0
 13 17  1  0
 14 18  1  0
 15 19  1  0
 18 19  2  0
M  END