
  SciTegic05171617282D

 29 32  0  0  0  0            999 V2000
   -3.9072    2.7019    0.0000 C   0  0
   -3.9091    1.5019    0.0000 O   0  0
   -2.6111    0.7486    0.0000 C   0  0
   -1.2964    1.4973    0.0000 C   0  0
    0.0000    0.7486    0.0000 C   0  0
    1.2964    1.4973    0.0000 C   0  0
    2.5929    0.7486    0.0000 C   0  0
    2.5929   -0.7486    0.0000 N   0  0
    1.2964   -1.4973    0.0000 C   0  0
    1.2964   -2.6973    0.0000 C   0  0
    0.0000   -0.7486    0.0000 C   0  0
   -1.2964   -1.4973    0.0000 C   0  0
   -2.6111   -0.7486    0.0000 C   0  0
   -3.9091   -1.5019    0.0000 O   0  0
   -3.9072   -2.7019    0.0000 C   0  0
    3.8926   -1.4991    0.0000 S   0  0
    3.8923   -2.6991    0.0000 O   0  0
    2.8533   -2.0989    0.0000 O   0  0
    5.1929   -0.7495    0.0000 C   0  0
    6.4894   -1.4988    0.0000 C   0  0
    7.7947   -0.7340    0.0000 C   0  0
    7.7939    0.7631    0.0000 C   0  0
    9.0901    1.5121    0.0000 N   0  0
    9.0893    3.0091    0.0000 C   0  0
   10.1282    3.6097    0.0000 O   0  0
    7.7923    3.7572    0.0000 C   0  0
    6.4961    3.0082    0.0000 C   0  0
    6.4969    1.5111    0.0000 C   0  0
    5.2007    0.7621    0.0000 C   0  0
  1  2  1  0
  2  3  1  0
  3  4  2  0
  4  5  1  0
  5  6  1  0
  6  7  1  0
  7  8  1  0
  8  9  1  0
  9 10  1  0
  9 11  1  0
  5 11  2  0
 11 12  1  0
 12 13  2  0
  3 13  1  0
 13 14  1  0
 14 15  1  0
  8 16  1  0
 16 17  2  0
 16 18  2  0
 16 19  1  0
 19 20  2  0
 20 21  1  0
 21 22  2  0
 22 23  1  0
 23 24  1  0
 24 25  2  0
 24 26  1  0
 26 27  2  0
 27 28  1  0
 22 28  1  0
 28 29  2  0
 19 29  1  0
M  END