
  SciTegic04191613082D

 30 31  0  0  0  0            999 V2000
    1.2990   -0.7500    0.0000 C   0  0
    1.2990    0.7500    0.0000 C   0  0
    0.0000    1.5000    0.0000 C   0  0
   -1.2990    0.7500    0.0000 C   0  0
   -1.2990   -0.7500    0.0000 C   0  0
    0.0000   -1.5000    0.0000 C   0  0
   -2.5972   -1.5031    0.0000 O   0  0
   -2.5951   -3.0039    0.0000 C   0  0
   -3.8933   -3.7570    0.0000 C   0  0
   -3.8912   -5.2578    0.0000 N   0  0
   -5.1894   -6.0109    0.0000 C   0  0
   -5.1872   -7.5117    0.0000 C   0  0
   -6.4854   -8.2648    0.0000 C   0  0
   -6.4855   -9.7649    0.0000 C   0  0
   -7.7845  -10.5149    0.0000 C   0  0
   -9.0836   -9.7649    0.0000 C   0  0
   -9.0836   -8.2649    0.0000 C   0  0
   -7.7846   -7.5149    0.0000 C   0  0
    2.5972    1.5031    0.0000 N   0  3
    2.5955    2.7031    0.0000 O   0  0
    3.6375    0.9049    0.0000 O   0  5
  -10.3848  -10.5127    0.0000 N   0  3
  -11.4232   -9.9113    0.0000 O   0  0
  -10.3869  -11.7127    0.0000 O   0  5
   -2.5916   -6.0087    0.0000 C   0  0
   -1.5524   -5.4087    0.0000 O   0  0
   -2.5912   -7.5095    0.0000 C   0  0
   -1.5521   -8.1098    0.0000 F   0  0
   -3.6304   -8.1095    0.0000 F   0  0
   -2.5913   -8.7095    0.0000 F   0  0
  1  2  2  0
  2  3  1  0
  3  4  2  0
  4  5  1  0
  5  6  2  0
  6  1  1  0
  5  7  1  0
  7  8  1  0
  8  9  1  0
  9 10  1  0
 10 11  1  0
 11 12  1  0
 12 13  1  0
 13 14  2  0
 14 15  1  0
 15 16  2  0
 16 17  1  0
 17 18  2  0
 18 13  1  0
 19 20  2  0
 19 21  1  0
  2 19  1  0
 22 23  2  0
 22 24  1  0
 16 22  1  0
 10 25  1  0
 25 26  2  0
 25 27  1  0
 27 28  1  0
 27 29  1  0
 27 30  1  0
M  CHG  4  19   1  21  -1  22   1  24  -1
M  END