
  SciTegic11201309402D

115123  0  0  0  0            999 V2000
   -2.6617  -11.2263    0.0000 C   0  0
   -3.4486  -12.6819    0.0000 O   0  0
   10.9319  -12.6504    0.0000 C   0  0
   11.7569  -12.6538    0.0000 N   0  0
   10.5165  -13.3632    0.0000 O   0  0
   12.1665  -13.3700    0.0000 C   0  0  2  0  0  0
   12.9914  -13.3733    0.0000 C   0  0
   11.7510  -14.0827    0.0000 C   0  0  1  0  0  0
   10.9261  -14.0794    0.0000 C   0  0
   12.1606  -14.7989    0.0000 O   0  0
   13.4010  -14.0895    0.0000 N   0  0
   13.4069  -12.6605    0.0000 O   0  0
    9.7024  -11.9300    0.0000 N   0  0
   10.5227  -11.9345    0.0000 C   0  0  1  0  0  0
   10.7803  -11.1555    0.0000 C   0  0
   10.1190  -10.6698    0.0000 C   0  0
    9.4528  -11.1487    0.0000 C   0  0
   14.2260  -14.0928    0.0000 C   0  0  2  0  0  0
   14.6356  -14.8090    0.0000 C   0  0
   14.6414  -13.3800    0.0000 C   0  0
   14.2202  -15.5217    0.0000 O   0  0
   15.4581  -14.8122    0.0000 N   0  0
   15.4508  -15.6360    0.0000 C   0  0
   16.2317  -15.9022    0.0000 C   0  0
   16.7262  -15.2418    0.0000 C   0  0
   16.2512  -14.5659    0.0000 C   0  0  1  0  0  0
   16.6404  -13.8385    0.0000 C   0  0
   17.4642  -13.8119    0.0000 N   0  0
   16.2050  -13.1377    0.0000 O   0  0
   17.7437  -14.5874    0.0000 C   0  0
   18.5683  -14.5634    0.0000 C   0  0
   18.8004  -13.7717    0.0000 C   0  0
   18.1194  -13.3052    0.0000 C   0  0  1  0  0  0
   17.8293  -12.5329    0.0000 C   0  0
   18.3517  -11.8870    0.0000 N   0  0
   17.0154  -12.3980    0.0000 O   0  0
   11.1665  -13.3658    0.0000 H   0  0
    9.2927  -12.6461    0.0000 C   0  0
    8.4677  -12.6493    0.0000 C   0  0  1  0  0  0
    9.7079  -13.3590    0.0000 O   0  0
    8.0524  -11.9365    0.0000 N   0  0
    8.0580  -13.3654    0.0000 C   0  0
   17.9490  -11.1672    0.0000 C   0  0  2  0  0  0
   17.1241  -11.1556    0.0000 C   0  0
   18.3705  -10.4587    0.0000 C   0  0
   19.1954  -10.4446    0.0000 C   0  0
   19.6200  -11.1520    0.0000 C   0  0
   19.2213  -11.8744    0.0000 O   0  0
   20.4464  -11.1390    0.0000 O   0  0
   16.7213  -10.4355    0.0000 N   0  0
   16.7016  -11.8642    0.0000 O   0  0
   17.0412   -9.6740    0.0000 C   0  0
    8.4732  -14.0783    0.0000 C   0  0
    7.2274  -11.9397    0.0000 C   0  0
    6.8121  -11.2268    0.0000 C   0  0
    6.8177  -12.6558    0.0000 O   0  0
    5.2658  -10.8275    0.0000 C   0  0
    4.5583  -11.2519    0.0000 C   0  0
    5.2520  -10.0026    0.0000 O   0  0
    3.8370  -10.8514    0.0000 C   0  0
    3.1296  -11.2758    0.0000 C   0  0
    2.4083  -10.8753    0.0000 C   0  0
    1.7008  -11.2997    0.0000 N   0  0
    0.9795  -10.8993    0.0000 C   0  0
    0.2721  -11.3237    0.0000 N   0  0
    0.9657  -10.0744    0.0000 S   0  0
   -0.4492  -10.9232    0.0000 C   0  0
   -0.4578  -10.1007    0.0000 C   0  0
   -1.1782   -9.7003    0.0000 C   0  0
   -1.1492  -11.3505    0.0000 C   0  0
   -1.8701  -10.9539    0.0000 C   0  0
   -1.8859  -10.1201    0.0000 C   0  0
   -2.6838   -9.8775    0.0000 C   0  0
   -3.1611  -10.5613    0.0000 O   0  0
   -2.9535   -9.0978    0.0000 O   0  0
   -2.2245  -11.9277    0.0000 C   0  0
   -2.6225  -12.6556    0.0000 C   0  0
   -2.1913  -13.3621    0.0000 C   0  0
   -1.3622  -13.3420    0.0000 C   0  0
   -0.9662  -12.6094    0.0000 C   0  0
   -1.3997  -11.9059    0.0000 C   0  0
   -3.8814  -11.9758    0.0000 C   0  0
   -3.4888  -11.2532    0.0000 C   0  0
   -3.9181  -10.5539    0.0000 C   0  0
   -4.7400  -10.5761    0.0000 C   0  0
   -5.1306  -11.3034    0.0000 C   0  0
   -4.6990  -11.9996    0.0000 C   0  0
   -0.9312  -14.0454    0.0000 O   0  0
   -5.9552  -11.3290    0.0000 O   0  0
    8.0635  -14.7943    0.0000 C   0  0
    7.2368  -14.7987    0.0000 O   0  0
    8.4770  -15.5083    0.0000 O   0  0
    7.2166  -10.5041    0.0000 C   0  0
    7.6218   -9.7854    0.0000 C   0  0
   15.8963  -10.4308    0.0000 C   0  0
   15.4879   -9.7140    0.0000 C   0  0
   14.6629   -9.7093    0.0000 C   0  0
   14.2463  -10.4214    0.0000 C   0  0
   13.4213  -10.4167    0.0000 C   0  0
   13.0116   -9.6998    0.0000 C   0  0
    6.3917  -10.5125    0.0000 C   0  0
    5.9865  -11.2312    0.0000 N   0  0
   12.1866   -9.6963    0.0000 C   0  0
   11.7710  -10.4089    0.0000 C   0  0
   10.9460  -10.4054    0.0000 C   0  0
   10.3824   -9.7766    0.0000 C   0  0
    8.4467   -9.7770    0.0000 C   0  0
    8.8519   -9.0583    0.0000 C   0  0
    9.6769   -9.0499    0.0000 C   0  0
   16.5423   -9.0170    0.0000 C   0  0
   16.8618   -8.2564    0.0000 O   0  0
   15.7238   -9.1206    0.0000 N   0  0
   18.9065  -12.6883    0.0000 H   0  0
   17.2494  -14.5053    0.0000 H   0  0
   11.5177  -11.8347    0.0000 H   0  0
 42 53  1  0
  7 12  2  0
 41 54  1  0
 26 27  1  0
 54 55  1  0
 13 14  1  0
 54 56  2  0
 55102  1  0
 27 28  1  0
102 57  1  0
  3  5  2  0
 57 58  1  0
 27 29  2  0
 57 59  2  0
 28 30  1  0
 58 60  1  0
 82  2  1  0
 60 61  1  0
  4  6  1  0
 61 62  1  0
  2 77  1  0
 62 63  1  0
  6  7  1  0
 63 64  1  0
 30 31  1  0
 64 65  1  0
 31 32  1  0
 64 66  2  0
 32 33  1  0
 65 67  1  0
 33 28  1  0
 67 68  2  0
 14 15  1  0
 68 69  1  0
 69 72  2  0
 33 34  1  0
 71 70  2  0
 70 67  1  0
 71 72  1  0
 15 16  1  0
 34 35  1  0
 16 17  1  0
 34 36  2  0
 72 73  1  0
 73 74  1  0
 74  1  1  0
  1 71  1  0
 17 13  1  0
 73 75  2  0
  6 37  1  1
 76 77  2  0
 13 38  1  0
 77 78  1  0
 11 18  1  0
 78 79  2  0
 38 39  1  0
 79 80  1  0
  6  8  1  0
 80 81  2  0
 81 76  1  0
 38 40  2  0
 18 19  1  0
 82 83  2  0
 39 41  1  0
 83 84  1  0
 14  3  1  0
 84 85  2  0
 39 42  1  6
 85 86  1  0
 18 20  1  1
 86 87  2  0
 87 82  1  0
 35 43  1  0
 79 88  1  0
  8  9  1  6
 86 89  1  0
 43 44  1  0
 53 90  1  0
 19 21  2  0
 43 45  1  6
 90 91  1  0
 90 92  2  0
  1 83  1  0
 45 46  1  0
 93 94  1  0
 19 22  1  0
 50 95  1  0
 46 47  1  0
 95 96  1  0
 22 23  1  0
 96 97  1  0
  8 10  1  0
 97 98  1  0
 47 48  1  0
 98 99  1  0
 47 49  2  0
 99100  1  0
  3  4  1  0
 93101  1  0
 44 50  1  0
101102  1  0
  7 11  1  0
100103  1  0
 44 51  2  0
103104  1  0
  1 76  1  0
104105  1  0
 50 52  1  0
105106  1  0
 23 24  1  0
 94107  1  0
107108  1  0
106109  2  0
 24 25  1  0
108109  1  0
 52110  1  0
 25 26  1  0
110111  2  0
 26 22  1  0
110112  1  0
 33113  1  1
 26114  1  1
 14115  1  6
M  END