
          11280715142D 1   1.00000     0.00000     0

 40 44  0     1  0            999 V2000
    0.1417   -3.1542    0.0000 C   0  0  2  0  0  0           0  0  0
    0.1250   -1.2875    0.0000 N   0  0  3  0  0  0           0  0  0
    0.5542   -3.8667    0.0000 C   0  0  1  0  0  0           0  0  0
   -0.5125   -2.6417    0.0000 C   0  0  0  0  0  0           0  0  0
   -0.5125   -1.8125    0.0000 C   0  0  0  0  0  0           0  0  0
    0.9542   -2.9625    0.0000 N   0  0  0  0  0  0           0  0  0
    0.4292    0.1083    0.0000 C   0  0  0  0  0  0           0  0  0
   -0.1250   -0.5000    0.0000 C   0  0  0  0  0  0           0  0  0
    0.9375   -1.4667    0.0000 C   0  0  0  0  0  0           0  0  0
    1.3500   -4.0792    0.0000 C   0  0  0  0  0  0           0  0  0
    0.1375   -4.5792    0.0000 O   0  0  0  0  0  0           0  0  0
    0.3500   -5.3750    0.0000 C   0  0  0  0  0  0           0  0  0
    1.3042   -2.2125    0.0000 C   0  0  0  0  0  0           0  0  0
    1.2292   -0.0667    0.0000 C   0  0  0  0  0  0           0  0  0
    0.1750    0.8875    0.0000 C   0  0  0  0  0  0           0  0  0
   -0.4458   -3.7375    0.0000 C   0  0  0  0  0  0           0  0  0
    1.4417   -0.8167    0.0000 O   0  0  0  0  0  0           0  0  0
    1.5625   -4.8750    0.0000 O   0  0  0  0  0  0           0  0  0
   -0.0250   -6.7500    0.0000 C   0  0  0  0  0  0           0  0  0
    1.3542   -6.3750    0.0000 C   0  0  0  0  0  0           0  0  0
   -0.2375   -5.9542    0.0000 C   0  0  0  0  0  0           0  0  0
    1.1375   -5.5792    0.0000 C   0  0  0  0  0  0           0  0  0
    0.7667   -6.9625    0.0000 C   0  0  0  0  0  0           0  0  0
    2.1417   -3.8625    0.0000 O   0  0  0  0  0  0           0  0  0
   -1.2333   -3.0542    0.0000 C   0  0  0  0  0  0           0  0  0
   -0.6333    1.0583    0.0000 Cl  0  0  0  0  0  0           0  0  0
    2.0292   -0.2792    0.0000 F   0  0  0  0  0  0           0  0  0
   -1.2333   -1.4000    0.0000 C   0  0  0  0  0  0           0  0  0
    1.5375    1.3333    0.0000 C   0  0  0  0  0  0           0  0  0
    0.7250    1.5000    0.0000 C   0  0  0  0  0  0           0  0  0
    1.7875    0.5458    0.0000 C   0  0  0  0  0  0           0  0  0
   -1.2458   -3.5125    0.0000 C   0  0  0  0  0  0           0  0  0
   -0.2333   -4.5292    0.0000 C   0  0  0  0  0  0           0  0  0
    2.1500   -6.5875    0.0000 C   0  0  0  0  0  0           0  0  0
   -0.6083   -7.3292    0.0000 C   0  0  0  0  0  0           0  0  0
   -1.9458   -2.6417    0.0000 C   0  0  0  0  0  0           0  0  0
   -1.9458   -1.8125    0.0000 C   0  0  0  0  0  0           0  0  0
   -0.8333   -5.1125    0.0000 C   0  0  0  0  0  0           0  0  0
   -1.8333   -4.0875    0.0000 C   0  0  0  0  0  0           0  0  0
   -1.6250   -4.8875    0.0000 C   0  0  0  0  0  0           0  0  0
  2  5  1  0     0  0
  3  1  1  0     0  0
  4  1  1  0     0  0
  5  4  1  0     0  0
  6  1  1  0     0  0
  7  8  1  0     0  0
  8  2  1  0     0  0
  9 13  1  0     0  0
 10  3  1  0     0  0
  3 11  1  1     0  0
 12 11  1  0     0  0
 13  6  1  0     0  0
 14  7  2  0     0  0
 15  7  1  0     0  0
  1 16  1  1     0  0
 17  9  2  0     0  0
 18 10  2  0     0  0
 19 21  1  0     0  0
 20 22  2  0     0  0
 21 12  2  0     0  0
 22 12  1  0     0  0
 23 20  1  0     0  0
 24 10  1  0     0  0
 25  4  2  0     0  0
 26 15  1  0     0  0
 27 14  1  0     0  0
 28  5  2  0     0  0
 29 30  1  0     0  0
 30 15  2  0     0  0
 31 14  1  0     0  0
 32 16  1  0     0  0
 33 16  2  0     0  0
 34 20  1  0     0  0
 35 19  1  0     0  0
 36 25  1  0     0  0
 37 36  2  0     0  0
 38 33  1  0     0  0
 39 32  2  0     0  0
 40 38  2  0     0  0
  2  9  1  0     0  0
 39 40  1  0     0  0
 28 37  1  0     0  0
 19 23  2  0     0  0
 31 29  2  0     0  0
M  END