
  SciTegic10311316212D

 24 27  0  0  0  0            999 V2000
    0.7811   -9.2968    0.0000 C   0  0
    1.5051   -9.6967    0.0000 O   0  0
    1.4715   -8.0471    0.0000 N   0  0
    0.7607   -8.4698    0.0000 C   0  0
    2.1955   -8.4470    0.0000 C   0  0
    2.2046   -9.2699    0.0000 C   0  0
    2.9178   -9.6712    0.0000 C   0  0
    3.6265   -9.2541    0.0000 C   0  0
    3.6174   -8.4312    0.0000 C   0  0
    2.8996   -8.0254    0.0000 C   0  0
    0.0366   -8.0699    0.0000 O   0  0
    4.3295   -8.0104    0.0000 C   0  0
    5.0500   -8.4168    0.0000 N   0  0
    5.0524   -9.2413    0.0000 C   0  0
    5.7687   -9.6476    0.0000 C   0  0
    6.4833   -9.2303    0.0000 C   0  0
    6.4770   -8.4022    0.0000 C   0  0
    5.7561   -7.9914    0.0000 C   0  0
    7.2006   -9.6375    0.0000 C   0  0
    7.2044  -10.4658    0.0000 C   0  0
    7.9226  -10.8747    0.0000 C   0  0
    8.6373  -10.4566    0.0000 C   0  0
    8.6294   -9.6251    0.0000 C   0  0
    7.9107   -9.2200    0.0000 C   0  0
  1  2  1  0
  1  4  1  0
  2  6  1  0
  5  3  1  0
  3  4  1  0
  5  6  1  0
  5 10  2  0
  6  7  2  0
  7  8  1  0
  8  9  2  0
  9 10  1  0
  4 11  2  0
  9 12  1  0
 12 13  1  0
 13 14  1  0
 13 18  1  0
 14 15  1  0
 15 16  1  0
 16 17  1  0
 17 18  1  0
 19 20  2  0
 20 21  1  0
 21 22  2  0
 22 23  1  0
 23 24  2  0
 24 19  1  0
 16 19  1  0
M  END