
  SciTegic10041313282D

 84 89  0  0  1  0            999 V2000
   -4.6715  -23.5303    0.0000 C   0  0  2  0  0  0
   -3.9579  -23.9428    0.0000 C   0  0
   -4.6715  -22.7052    0.0000 C   0  0
   -3.9579  -22.2927    0.0000 C   0  0
   -5.3851  -22.2927    0.0000 C   0  0
   -3.9579  -24.7680    0.0000 O   0  0
   -3.2412  -23.5303    0.0000 N   0  0
   -2.4860  -23.8659    0.0000 C   0  0  1  0  0  0
   -1.9348  -23.2505    0.0000 C   0  0
   -2.3475  -22.5368    0.0000 C   0  0
   -3.1514  -22.7081    0.0000 C   0  0
   -2.3089  -24.6717    0.0000 C   0  0
   -2.9245  -25.2245    0.0000 O   0  0
   -1.5253  -24.9262    0.0000 N   0  0
   -1.2646  -25.7074    0.0000 C   0  0
   -0.4394  -25.7011    0.0000 C   0  0
   -0.1895  -24.9174    0.0000 C   0  0
   -0.8542  -24.4389    0.0000 C   0  0  1  0  0  0
   -0.8601  -23.6139    0.0000 C   0  0
   -0.1448  -23.1963    0.0000 N   0  0
   -1.5765  -23.1987    0.0000 O   0  0
    0.6095  -23.5275    0.0000 C   0  0  1  0  0  0
    1.1609  -22.9129    0.0000 C   0  0
    0.7462  -22.1975    0.0000 C   0  0
   -0.0596  -22.3745    0.0000 C   0  0
    0.7860  -24.3370    0.0000 C   0  0
    0.1777  -24.8882    0.0000 O   0  0
    1.5709  -24.5831    0.0000 N   0  0
    1.8334  -25.3689    0.0000 C   0  0
    2.6586  -25.3585    0.0000 C   0  0
    2.9047  -24.5735    0.0000 C   0  0
    2.2435  -24.0922    0.0000 C   0  0  1  0  0  0
    3.6964  -24.3572    0.0000 C   0  0
    2.1013  -23.4222    0.0000 C   0  0
    1.2763  -23.4222    0.0000 O   0  0
    2.2078  -22.7334    0.0000 N   0  0
    3.0314  -22.6955    0.0000 C   0  0  1  0  0  0
    3.2452  -21.8982    0.0000 C   0  0
    2.5545  -21.4449    0.0000 C   0  0
    1.9103  -21.9632    0.0000 C   0  0
    3.5444  -23.3331    0.0000 C   0  0
    3.2517  -24.1036    0.0000 O   0  0
    4.3666  -23.2057    0.0000 N   0  0
    4.9445  -23.7878    0.0000 C   0  0
    5.6810  -23.4160    0.0000 C   0  0
    4.7422  -22.4718    0.0000 C   0  0  2  0  0  0
    4.3650  -21.7380    0.0000 C   0  0
    3.5446  -21.6890    0.0000 O   0  0
    5.6381  -21.0936    0.0000 C   0  0  2  0  0  0
    6.0883  -20.4053    0.0000 C   0  0
    5.7152  -19.6695    0.0000 O   0  0
    6.0111  -21.8294    0.0000 C   0  0
    5.5620  -22.5125    0.0000 C   0  0
    6.8343  -21.8769    0.0000 C   0  0
    7.2115  -22.6108    0.0000 C   0  0
    8.4042  -23.3896    0.0000 C   0  0
    7.3590  -19.7573    0.0000 C   0  0  2  0  0  0
    8.1871  -19.7940    0.0000 C   0  0
    6.9860  -19.0215    0.0000 C   0  0
    7.4342  -18.3258    0.0000 C   0  0
    7.0611  -17.5899    0.0000 C   0  0
    7.1378  -16.1651    0.0000 C   0  0
    8.5602  -20.5298    0.0000 O   0  0
    9.4654  -19.1441    0.0000 C   0  0  2  0  0  0
    9.9129  -18.4572    0.0000 C   0  0
    9.5398  -17.7214    0.0000 O   0  0
    9.8385  -19.8798    0.0000 C   0  0
   10.6631  -19.9268    0.0000 C   0  0
   11.0389  -20.6612    0.0000 C   0  0
   12.2418  -21.4416    0.0000 C   0  0
   -5.3833  -23.9429    0.0000 N   0  0
    4.8145  -21.0461    0.0000 N   0  0
    6.9120  -20.4507    0.0000 N   0  0
    8.0355  -22.6516    0.0000 N   0  0
    9.2244  -23.4345    0.0000 N   0  0
    7.9463  -24.0796    0.0000 N   0  0
    7.5131  -16.8998    0.0000 N   0  0
    7.5892  -15.4702    0.0000 N   0  0
    6.3158  -16.1178    0.0000 N   0  0
    8.6413  -19.1053    0.0000 N   0  0
   10.7419  -18.5015    0.0000 O   0  0
   11.8625  -20.7089    0.0000 N   0  0
   13.0662  -21.4868    0.0000 N   0  0
   11.7924  -22.1345    0.0000 N   0  0
 11  7  1  0
  8 12  1  1
 12 13  2  0
 12 14  1  0
 14 15  1  0
 15 16  1  0
 16 17  1  0
 17 18  1  0
 18 14  1  0
 18 19  1  6
 19 20  1  0
 19 21  2  0
 20 22  1  0
 22 23  1  0
 23 24  1  0
 24 25  1  0
 25 20  1  0
 22 26  1  1
 26 27  2  0
 26 28  1  0
 28 29  1  0
 29 30  1  0
 30 31  1  0
 31 32  1  0
 32 28  1  0
 36 37  1  0
 37 38  1  0
 38 39  1  0
 39 40  1  0
 40 36  1  0
 37 41  1  1
 41 42  2  0
 41 43  1  0
 43 44  1  0
 44 45  1  0
 45 53  1  0
 53 46  1  0
 46 43  1  0
 46 47  1  6
 47 48  2  0
 49 50  1  0
 50 51  2  0
 49 52  1  6
 52 54  1  0
 54 55  1  0
 57 58  1  0
 57 59  1  1
 59 60  1  0
 60 61  1  0
 58 63  2  0
 64 65  1  0
 65 66  2  0
 64 67  1  6
 67 68  1  0
 68 69  1  0
 34 36  1  0
 31 33  1  0
 32 34  1  6
  1  2  1  0
 34 35  2  0
  1  3  1  1
  3  4  1  0
  3  5  1  0
  2  6  2  0
  2  7  1  0
  7  8  1  0
  8  9  1  0
  9 10  1  0
 10 11  1  0
 61 77  1  0
 77 62  1  0
 62 78  2  0
 55 74  1  0
 74 56  1  0
 62 79  1  0
 47 72  1  0
 72 49  1  0
 58 80  1  0
 80 64  1  0
 56 75  2  0
 65 81  1  0
 71  1  1  0
 69 82  1  0
 82 70  1  0
 56 76  1  0
 70 83  2  0
 50 73  1  0
 73 57  1  0
 70 84  1  0
M  END