
  SciTegic01061414252D

 22 24  0  0  0  0            999 V2000
    2.9083  -14.5856    0.0000 C   0  0
    2.9071  -15.4051    0.0000 C   0  0
    3.6152  -15.8141    0.0000 N   0  0
    3.6134  -14.1767    0.0000 C   0  0
    4.3220  -14.5820    0.0000 C   0  0
    4.3228  -15.4010    0.0000 C   0  0
    5.0313  -15.8081    0.0000 C   0  0
    5.7396  -15.3972    0.0000 C   0  0
    5.7348  -14.5751    0.0000 C   0  0
    5.0257  -14.1718    0.0000 C   0  0
    3.6094  -13.3652    0.0000 N   0  0
    4.3177  -12.9557    0.0000 C   0  0
    4.3172  -12.1421    0.0000 C   0  0
    3.6101  -11.7318    0.0000 N   0  0
    2.9018  -12.1413    0.0000 C   0  0
    2.9006  -12.9611    0.0000 C   0  0
    2.1991  -15.8132    0.0000 C   0  0
    1.4917  -15.4040    0.0000 F   0  0
    2.1985  -16.6304    0.0000 F   0  0
    1.4033  -16.0219    0.0000 F   0  0
    6.4400  -14.1622    0.0000 C   0  0
    3.6107  -10.9146    0.0000 C   0  0
  1  2  2  0
  2  3  1  0
  3  6  2  0
  5  4  2  0
  4  1  1  0
  5  6  1  0
  6  7  1  0
  7  8  2  0
  8  9  1  0
  9 10  2  0
 10  5  1  0
 11 12  1  0
 11 16  1  0
 12 13  1  0
 13 14  1  0
 14 15  1  0
 15 16  1  0
  4 11  1  0
  2 17  1  0
 17 18  1  0
 17 19  1  0
 17 20  1  0
  9 21  1  0
 14 22  1  0
M  END