
          08180812492D 1   1.00000     0.00000     0

 20 21  0     0  0            999 V2000
   -4.8723   -8.2166    0.0000 N   0  0  0  0  0  0           0  0  0
   -4.8734   -9.0440    0.0000 C   0  0  0  0  0  0           0  0  0
   -4.1586   -9.4569    0.0000 N   0  0  0  0  0  0           0  0  0
   -3.4422   -9.0435    0.0000 C   0  0  0  0  0  0           0  0  0
   -3.4450   -8.2130    0.0000 C   0  0  0  0  0  0           0  0  0
   -4.1604   -7.8039    0.0000 C   0  0  0  0  0  0           0  0  0
   -2.7321   -7.7978    0.0000 C   0  0  0  0  0  0           0  0  0
   -2.0161   -8.2076    0.0000 C   0  0  0  0  0  0           0  0  0
   -1.9231   -9.0267    0.0000 C   0  0  0  0  0  0           0  0  0
   -1.1155   -9.1952    0.0000 C   0  0  0  0  0  0           0  0  0
   -0.7056   -8.4791    0.0000 S   0  0  0  0  0  0           0  0  0
   -1.2600   -7.8682    0.0000 C   0  0  0  0  0  0           0  0  0
   -2.5328   -9.5824    0.0000 C   0  0  0  0  0  0           0  0  0
   -0.7771   -9.9476    0.0000 C   0  0  0  0  0  0           0  0  0
    0.0437  -10.0307    0.0000 C   0  0  0  0  0  0           0  0  0
    0.3821  -10.7831    0.0000 O   0  0  0  0  0  0           0  0  0
   -4.1629   -6.9789    0.0000 N   0  0  0  0  0  0           0  0  0
   -5.5882   -9.4559    0.0000 C   0  0  3  0  0  0           0  0  0
   -6.3024   -9.0429    0.0000 C   0  0  0  0  0  0           0  0  0
   -5.5889  -10.2809    0.0000 C   0  0  0  0  0  0           0  0  0
  2  3  1  0     0  0
  5  6  2  0     0  0
  9 10  2  0     0  0
 10 11  1  0     0  0
 11 12  1  0     0  0
 12  8  2  0     0  0
  6  1  1  0     0  0
  9 13  1  0     0  0
  1  2  2  0     0  0
 10 14  1  0     0  0
  5  7  1  0     0  0
 14 15  1  0     0  0
  3  4  2  0     0  0
 15 16  1  0     0  0
  7  8  1  0     0  0
  6 17  1  0     0  0
  8  9  1  0     0  0
  2 18  1  0     0  0
 18 19  1  0     0  0
  4  5  1  0     0  0
 18 20  1  0     0  0
M  END