
  SciTegic02271514552D

 25 28  0  0  0  0            999 V2000
    4.6657  -17.5488    0.0000 N   0  0
    5.3801  -17.1363    0.0000 C   0  0
    5.3801  -16.3113    0.0000 C   0  0
    4.6657  -15.8987    0.0000 N   0  0
    3.9512  -16.3113    0.0000 C   0  0
    3.2367  -15.8987    0.0000 C   0  0
    2.5222  -16.3113    0.0000 C   0  0
    2.5222  -17.1363    0.0000 C   0  0
    3.2367  -17.5488    0.0000 C   0  0
    3.9512  -17.1363    0.0000 C   0  0
    6.1648  -17.3912    0.0000 N   0  0
    6.1648  -16.0563    0.0000 C   0  0
    6.6497  -16.7238    0.0000 C   0  0
    6.4197  -15.2717    0.0000 C   0  0
    5.8677  -14.6586    0.0000 O   0  0
    7.2166  -15.0582    0.0000 N   0  0
    6.4197  -18.1758    0.0000 C   0  0
    5.8677  -18.7889    0.0000 C   0  0
    6.1226  -19.5735    0.0000 C   0  0
    6.9296  -19.7451    0.0000 C   0  0
    7.4816  -19.1320    0.0000 C   0  0
    7.2266  -18.3473    0.0000 C   0  0
    7.4747  -16.7238    0.0000 N   0  0
    5.0607  -18.6174    0.0000 C   0  0
    8.2886  -19.3035    0.0000 O   0  0
  1  2  2  0
  2  3  1  0
  3  4  2  0
  4  5  1  0
  5  6  2  0
  6  7  1  0
  7  8  2  0
  8  9  1  0
  9 10  2  0
  1 10  1  0
  5 10  1  0
 12 13  2  0
 11 13  1  0
  2 11  1  0
  3 12  1  0
 14 15  2  0
 14 16  1  0
 12 14  1  0
 17 18  1  0
 18 19  2  0
 19 20  1  0
 20 21  2  0
 21 22  1  0
 17 22  2  0
 11 17  1  0
 13 23  1  0
 18 24  1  0
 21 25  1  0
M  END