
  SciTegic11111309142D

 30 33  0  0  0  0            999 V2000
    1.6666   -1.8710    0.0000 O   0  0
    2.4940   -1.8710    0.0000 C   0  0
    2.9025   -2.5882    0.0000 C   0  0
    3.7298   -2.5882    0.0000 C   0  0
    4.1424   -1.8710    0.0000 C   0  0
    3.7298   -1.1601    0.0000 C   0  0
    2.9025   -1.1601    0.0000 C   0  0
    1.2582   -2.5882    0.0000 C   0  0
   -2.0449    0.2660    0.0000 C   0  0
   -2.4534   -0.4449    0.0000 C   0  0
   -2.0449   -1.1601    0.0000 C   0  0
   -1.2176   -1.1601    0.0000 N   0  0
   -0.8049   -0.4449    0.0000 C   0  0
   -1.2176    0.2660    0.0000 C   0  0
   -2.4534    0.9874    0.0000 C   0  0
   -3.2807    0.9874    0.0000 C   0  0
   -3.7646    1.6537    0.0000 C   0  0
   -4.5479    0.5685    0.0000 C   0  0
   -3.7646    0.3148    0.0000 N   0  0
   -0.8049   -1.8710    0.0000 C   0  0
    0.0183   -1.8710    0.0000 C   0  0
    0.4309   -2.5882    0.0000 C   0  0
    4.9656   -1.8710    0.0000 C   0  0
    5.3783   -1.1601    0.0000 N   0  0
    6.2056   -1.1601    0.0000 C   0  0
    6.6141   -0.4449    0.0000 C   0  0
    6.2056    0.2660    0.0000 C   0  0
    5.3783    0.2660    0.0000 C   0  0
    4.9656   -0.4449    0.0000 C   0  0
   -4.5475    1.3935    0.0000 N   0  0
  1  2  1  0
  2  3  2  0
  3  4  1  0
  4  5  2  0
  5  6  1  0
  6  7  2  0
  7  2  1  0
  1  8  1  0
  9 10  1  0
  9 14  1  0
 10 11  1  0
 11 12  1  0
 12 13  1  0
 13 14  1  0
  9 15  1  0
 15 16  1  0
 16 17  2  0
 18 19  2  0
 19 16  1  0
 12 20  1  0
 20 21  1  0
 21 22  1  0
 22  8  1  0
  5 23  1  0
 23 24  1  0
 24 25  1  0
 24 29  1  0
 25 26  1  0
 26 27  1  0
 27 28  1  0
 28 29  1  0
 17 30  1  0
 30 18  1  0
M  END