
  SciTegic03291108502D

 23 26  0  0  0  0            999 V2000
   -1.9477   -0.8351    0.0000 Cl  0  0
   -0.9280    3.6382    0.0000 S   0  0
    0.5711    1.3208    0.0000 S   0  0
    1.2856    2.5583    0.0000 N   0  0
    0.5711    3.7958    0.0000 N   0  0
    1.3718    0.0878    0.0000 N   0  0
    2.0392    1.2439    0.0000 N   0  0
    2.1788   -0.0837    0.0000 N   0  0
    2.5913    0.6308    0.0000 N   0  0
   -0.1434    2.5583    0.0000 C   0  0
   -0.9280    2.3034    0.0000 C   0  0
    0.5711    2.1458    0.0000 C   0  0
   -0.1434    3.3833    0.0000 C   0  0
   -1.1829    1.5187    0.0000 C   0  0
   -1.4129    2.9708    0.0000 C   0  0
    1.2856    0.9083    0.0000 C   0  0
    1.2856    3.3833    0.0000 C   0  0
   -0.6309    0.9056    0.0000 C   0  0
   -1.9899    1.3472    0.0000 C   0  0
   -0.8858    0.1210    0.0000 C   0  0
   -2.2448    0.5626    0.0000 C   0  0
   -1.6928   -0.0505    0.0000 C   0  0
    0.7587   -0.4642    0.0000 C   0  0
  1 22  1  0
  2 13  1  0
  2 15  1  0
  3 12  1  0
  3 16  1  0
  4 12  2  0
  4 17  1  0
  5 13  1  0
  5 17  2  0
  6  8  1  0
  6 16  1  0
  6 23  1  0
  7  9  1  0
  7 16  2  0
  8  9  2  0
 10 11  1  0
 10 12  1  0
 10 13  2  0
 11 14  1  0
 11 15  2  0
 14 18  2  0
 14 19  1  0
 18 20  1  0
 19 21  2  0
 20 22  2  0
 21 22  1  0
M  END