
  SciTegic01161211232D

 25 28  0  0  0  0            999 V2000
   -2.7823  -17.6198    0.0000 C   0  0  1  0  0  0
   -1.9573  -17.6198    0.0000 N   0  0
   -1.7023  -16.8351    0.0000 C   0  0
   -2.3698  -16.3501    0.0000 C   0  0
   -3.0372  -16.8351    0.0000 C   0  0
   -3.2674  -18.2872    0.0000 C   0  0
   -1.4724  -18.2873    0.0000 C   0  0
   -1.8079  -19.0410    0.0000 C   0  0
   -1.3233  -19.7087    0.0000 C   0  0
   -1.6384  -20.4693    0.0000 O   0  0
   -0.4975  -19.7763    0.0000 C   0  0
   -0.3079  -20.5793    0.0000 C   0  0
   -1.0113  -21.0028    0.0000 C   0  0
   -0.9953  -21.8218    0.0000 C   0  0
   -0.2766  -22.2184    0.0000 C   0  0
    0.4275  -21.7898    0.0000 C   0  0
    0.4079  -20.9722    0.0000 C   0  0
    1.1515  -22.1854    0.0000 C   0  0
    1.1672  -23.0111    0.0000 C   0  0
    1.8904  -23.4067    0.0000 C   0  0
    2.5961  -22.9775    0.0000 C   0  0
    2.5739  -22.1484    0.0000 C   0  0
    1.8502  -21.7566    0.0000 C   0  0
    3.3206  -23.3721    0.0000 C   0  0
    4.0449  -23.7715    0.0000 N   0  0
  1  2  1  0
  1  6  1  6
 12 13  2  0
 13 14  1  0
  2  7  1  0
 14 15  2  0
  2  3  1  0
 15 16  1  0
  7  8  1  0
 16 17  2  0
 17 12  1  0
  3  4  1  0
 16 18  1  0
  8  9  1  0
 18 19  2  0
  9 10  1  0
 19 20  1  0
  4  5  1  0
 20 21  2  0
  5  1  1  0
 21 22  1  0
 10 13  1  0
 22 23  2  0
 23 18  1  0
 12 11  1  0
 21 24  1  0
 11  9  2  0
 24 25  3  0
M  END