
  SciTegic12091611012D

 33 36  0  0  0  0            999 V2000
  -11.3988   -1.5689    0.0000 C   0  0
  -11.3912   -3.0689    0.0000 C   0  0
  -10.0884   -3.8123    0.0000 C   0  0
   -8.7932   -3.0557    0.0000 C   0  0
   -8.8007   -1.5557    0.0000 C   0  0
  -10.1036   -0.8123    0.0000 C   0  0
  -12.7008   -0.8224    0.0000 O   0  0
  -12.7052    0.3776    0.0000 C   0  0
  -12.6856   -3.8285    0.0000 O   0  0
   -7.5063   -0.7961    0.0000 C   0  0
   -7.5160    0.7047    0.0000 C   0  0
   -6.2216    1.4644    0.0000 N   0  0
   -6.2313    2.9652    0.0000 C   0  0
   -4.9153    0.7255    0.0000 C   0  0
   -3.6217    1.4865    0.0000 C   0  0
   -2.3155    0.7475    0.0000 C   0  0
   -1.0028    1.5132    0.0000 C   0  0
   -1.0028   -1.5132    0.0000 C   0  0
   -2.3155   -0.7475    0.0000 C   0  0
    0.2917   -0.7475    0.0000 C   0  0
    0.2917    0.7475    0.0000 C   0  0
    1.7138    1.2033    0.0000 O   0  0
    2.5889    0.0182    0.0000 C   0  0
    1.7138   -1.2033    0.0000 O   0  0
  -12.6778   -5.0285    0.0000 C   0  0
   -4.9369    3.7248    0.0000 C   0  0
   -4.9466    5.2256    0.0000 C   0  0
   -3.6522    5.9852    0.0000 C   0  0
   -3.6598    7.4852    0.0000 C   0  0
   -2.3645    8.2418    0.0000 C   0  0
   -1.0617    7.4984    0.0000 C   0  0
   -1.0541    5.9984    0.0000 C   0  0
   -2.3493    5.2418    0.0000 C   0  0
  1  2  2  0
  2  3  1  0
  3  4  2  0
  4  5  1  0
  5  6  2  0
  6  1  1  0
  7  8  1  0
  1  7  1  0
  2  9  1  0
  5 10  1  0
 10 11  1  0
 11 12  1  0
 12 13  1  0
 12 14  1  0
 14 15  1  0
 15 16  1  0
 16 17  2  0
 17 21  1  0
 20 18  1  0
 18 19  2  0
 19 16  1  0
 20 21  2  0
 21 22  1  0
 22 23  1  0
 23 24  1  0
 24 20  1  0
  9 25  1  0
 13 26  1  0
 26 27  1  0
 27 28  1  0
 28 29  2  0
 29 30  1  0
 30 31  2  0
 31 32  1  0
 32 33  2  0
 33 28  1  0
M  END