
          05080814042D 1   1.00000     0.00000     0

 33 37  0     1  0            999 V2000
   -5.3027    2.0649    0.0000 C   0  0  0  0  0  0           0  0  0
   -5.3039    1.2399    0.0000 C   0  0  0  0  0  0           0  0  0
   -4.5910    0.8282    0.0000 C   0  0  0  0  0  0           0  0  0
   -4.5928    2.4764    0.0000 C   0  0  0  0  0  0           0  0  0
   -3.8796    2.0685    0.0000 C   0  0  0  0  0  0           0  0  0
   -3.8761    1.2378    0.0000 C   0  0  0  0  0  0           0  0  0
   -3.1591    0.8277    0.0000 C   0  0  0  0  0  0           0  0  0
   -3.1659    2.4891    0.0000 C   0  0  0  0  0  0           0  0  0
   -2.4442    2.0744    0.0000 C   0  0  2  0  0  0           0  0  0
   -2.4431    1.2421    0.0000 C   0  0  2  0  0  0           0  0  0
   -1.7258    0.8291    0.0000 N   0  0  3  0  0  0           0  0  0
   -1.0049    1.2439    0.0000 C   0  0  0  0  0  0           0  0  0
   -1.0060    2.0763    0.0000 C   0  0  1  0  0  0           0  0  0
   -1.7279    2.4937    0.0000 C   0  0  0  0  0  0           0  0  0
   -1.7259    0.0065    0.0000 C   0  0  0  0  0  0           0  0  0
   -0.2936    2.4877    0.0000 C   0  0  0  0  0  0           0  0  0
    0.4189    2.0766    0.0000 N   0  0  3  0  0  0           0  0  0
   -0.2938    3.3103    0.0000 O   0  0  0  0  0  0           0  0  0
    0.4134    1.2493    0.0000 C   0  0  0  0  0  0           0  0  0
    1.1217    0.8383    0.0000 C   0  0  0  0  0  0           0  0  0
    1.8365    1.2462    0.0000 N   0  0  3  0  0  0           0  0  0
    1.8383    2.0698    0.0000 C   0  0  0  0  0  0           0  0  0
    1.1253    2.4854    0.0000 C   0  0  0  0  0  0           0  0  0
   -2.4512    0.4196    0.0000 H   0  0  0  0  0  0           0  0  0
   -2.4512    2.8999    0.0000 H   0  0  0  0  0  0           0  0  0
    2.5475    0.8324    0.0000 C   0  0  0  0  0  0           0  0  0
    2.5411    0.0114    0.0000 C   0  0  0  0  0  0           0  0  0
    3.2512   -0.4023    0.0000 C   0  0  0  0  0  0           0  0  0
    3.9661    0.0066    0.0000 C   0  0  0  0  0  0           0  0  0
    3.9663    0.8334    0.0000 C   0  0  0  0  0  0           0  0  0
    3.2556    1.2434    0.0000 N   0  0  0  0  0  0           0  0  0
   -4.5955    3.2995    0.0000 O   0  0  0  0  0  0           0  0  0
   -5.3091    3.7087    0.0000 C   0  0  0  0  0  0           0  0  0
  5  8  1  0     0  0
 13 16  1  1     0  0
  6  7  1  0     0  0
 16 17  1  0     0  0
  7 10  1  0     0  0
 16 18  2  0     0  0
 17 19  1  0     0  0
  9  8  1  0     0  0
  9 10  1  0     0  0
  5  4  2  0     0  0
  4  1  1  0     0  0
  5  6  1  0     0  0
 17 23  1  0     0  0
 19 20  1  0     0  0
 20 21  1  0     0  0
 21 22  1  0     0  0
 22 23  1  0     0  0
 10 24  1  1     0  0
  2  3  1  0     0  0
  9 25  1  6     0  0
  3  6  2  0     0  0
 21 26  1  0     0  0
  9 14  1  0     0  0
 26 27  2  0     0  0
 10 11  1  0     0  0
 27 28  1  0     0  0
 11 12  1  0     0  0
 28 29  2  0     0  0
 12 13  1  0     0  0
 29 30  1  0     0  0
 13 14  1  0     0  0
 30 31  2  0     0  0
 31 26  1  0     0  0
  1  2  2  0     0  0
 11 15  1  0     0  0
 32 33  1  0     0  0
  4 32  1  0     0  0
M  END