
  SciTegic01161211212D

 63 63  0  0  0  0            999 V2000
   -0.8250   -6.4833    0.0000 C   0  0
   -2.2542   -6.4833    0.0000 N   0  0
    1.3208   -6.0708    0.0000 C   0  0
   -2.9667   -6.0708    0.0000 C   0  0
    9.8917   -6.0708    0.0000 C   0  0
    7.7500   -6.4833    0.0000 C   0  0
    5.6083   -6.0708    0.0000 C   0  0
   -0.1083   -6.0708    0.0000 N   0  0
   -1.5375   -6.0708    0.0000 C   0  0  1  0  0  0
   10.6083   -6.4833    0.0000 N   0  0
    2.0333   -6.4833    0.0000 N   0  0
    0.6042   -6.4833    0.0000 C   0  0  1  0  0  0
    8.4667   -6.0708    0.0000 N   0  0
    6.3208   -6.4833    0.0000 N   0  0
    0.6042   -7.3083    0.0000 C   0  0
   11.3208   -6.0708    0.0000 C   0  0  2  0  0  0
   12.0375   -6.4833    0.0000 C   0  0
    2.7500   -6.0708    0.0000 C   0  0  2  0  0  0
    9.1792   -6.4833    0.0000 C   0  0  1  0  0  0
    1.3208   -7.7208    0.0000 C   0  0
    7.0375   -6.0708    0.0000 C   0  0  1  0  0  0
    4.1792   -6.0708    0.0000 C   0  0
    4.8917   -6.4833    0.0000 C   0  0  1  0  0  0
    3.4625   -6.4833    0.0000 C   0  0  2  0  0  0
    9.8917   -8.5458    0.0000 C   0  0
   -2.9667   -8.5458    0.0000 C   0  0
   -0.8250   -7.3083    0.0000 O   0  0
    1.3208   -5.2458    0.0000 O   0  0
   -2.9667   -5.2458    0.0000 O   0  0
    7.7500   -7.3083    0.0000 O   0  0
    5.6083   -5.2458    0.0000 O   0  0
    9.8917   -5.2458    0.0000 O   0  0
   11.3208   -5.2458    0.0000 C   0  0
   -3.6792   -6.4833    0.0000 C   0  0  2  0  0  0
   12.0375   -7.3083    0.0000 O   0  0
    2.7500   -5.2458    0.0000 C   0  0
    2.0333   -7.3083    0.0000 O   0  0
   10.6083   -8.9583    0.0000 O   0  0
   -2.2542   -8.9542    0.0000 O   0  0
    9.1792   -7.3083    0.0000 C   0  0
   -3.6792   -7.3083    0.0000 C   0  0
   -1.5375   -5.2458    0.0000 C   0  0
    1.3208   -8.5458    0.0000 N   0  0
    9.8917   -7.7208    0.0000 C   0  0
   -2.9667   -7.7208    0.0000 C   0  0
   12.7500   -6.0708    0.0000 O   0  0
   -4.3958   -6.0708    0.0000 N   0  0
    9.1792   -8.9583    0.0000 O   0  0
   -3.6792   -8.9583    0.0000 O   0  0
   12.0375   -4.8333    0.0000 C   0  0
    3.4625   -7.3083    0.0000 O   0  0
    3.4625   -4.8333    0.0000 C   0  0
    7.0375   -5.2458    0.0000 C   0  0
    4.8917   -7.3083    0.0000 C   0  0
   -2.2542   -4.8333    0.0000 C   0  0
   -0.8250   -4.8333    0.0000 C   0  0
   12.7500   -5.2500    0.0000 C   0  0
   12.0333   -4.0125    0.0000 C   0  0
    4.1792   -5.2458    0.0000 C   0  0
    3.4625   -4.0083    0.0000 C   0  0
   12.7458   -3.6000    0.0000 C   0  0
   13.4625   -4.8375    0.0000 C   0  0
   13.4667   -4.0125    0.0000 C   0  0
  2  9  1  0
  3 12  1  0
  4  2  1  0
  5 19  1  0
  6 21  1  0
  7 23  1  0
  8  1  1  0
  9  1  1  0
 10  5  1  0
 11  3  1  0
 12  8  1  0
 13  6  1  0
 14  7  1  0
 12 15  1  6
 16 10  1  0
 17 16  1  0
 18 11  1  0
 19 13  1  0
 20 15  1  0
 21 14  1  0
 22 24  1  0
 23 22  1  0
 24 18  1  0
 25 44  1  0
 26 45  1  0
 27  1  2  0
 28  3  2  0
 29  4  2  0
 30  6  2  0
 31  7  2  0
 32  5  2  0
 16 33  1  1
 34  4  1  0
 35 17  2  0
 18 36  1  1
 37 20  2  0
 38 25  2  0
 39 26  2  0
 19 40  1  6
 34 41  1  6
  9 42  1  1
 43 20  1  0
 44 40  1  0
 45 41  1  0
 46 17  1  0
 47 34  1  0
 48 25  1  0
 49 26  1  0
 50 33  1  0
 24 51  1  6
 52 36  1  0
 21 53  1  1
 23 54  1  6
 55 42  1  0
 56 42  1  0
 57 50  2  0
 58 50  1  0
 59 52  1  0
 60 52  1  0
 61 58  2  0
 62 57  1  0
 63 61  1  0
 63 62  2  0
M  END