
          11280715112D 1   1.00000     0.00000     0

 28 30  0     0  0            999 V2000
    2.5667   -0.4625    0.0000 C   0  0  0  0  0  0           0  0  0
    2.5667   -1.2792    0.0000 C   0  0  0  0  0  0           0  0  0
    3.2792   -0.0500    0.0000 C   0  0  0  0  0  0           0  0  0
    1.8542   -0.0417    0.0000 C   0  0  3  0  0  0           0  0  0
    3.9917   -0.4542    0.0000 C   0  0  0  0  0  0           0  0  0
    1.8542   -1.6917    0.0000 C   0  0  3  0  0  0           0  0  0
    3.2792   -1.6917    0.0000 C   0  0  0  0  0  0           0  0  0
    6.8542   -2.9250    0.0000 C   0  0  0  0  0  0           0  0  0
    4.7042   -0.0417    0.0000 C   0  0  3  0  0  0           0  0  0
    6.8625   -3.7500    0.0000 C   0  0  0  0  0  0           0  0  0
    6.1417   -2.5125    0.0000 C   0  0  0  0  0  0           0  0  0
    5.4250   -1.2792    0.0000 C   0  0  0  0  0  0           0  0  0
    3.9917   -1.2792    0.0000 C   0  0  0  0  0  0           0  0  0
    6.1375   -1.6875    0.0000 C   0  0  0  0  0  0           0  0  0
    1.1500   -0.4625    0.0000 C   0  0  0  0  0  0           0  0  0
    1.1500   -1.2875    0.0000 C   0  0  0  0  0  0           0  0  0
    7.5792   -4.1542    0.0000 O   0  0  0  0  0  0           0  0  0
    6.1500   -4.1667    0.0000 O   0  0  0  0  0  0           0  0  0
    5.4167   -0.4542    0.0000 C   0  0  0  0  0  0           0  0  0
    1.1417    0.3708    0.0000 C   0  0  0  0  0  0           0  0  0
    2.5667    0.3708    0.0000 C   0  0  0  0  0  0           0  0  0
    1.1417   -2.1042    0.0000 C   0  0  0  0  0  0           0  0  0
    2.5667   -2.1042    0.0000 C   0  0  0  0  0  0           0  0  0
    5.3667    0.4458    0.0000 C   0  0  0  0  0  0           0  0  0
    4.0375    0.4458    0.0000 C   0  0  0  0  0  0           0  0  0
    5.4292   -2.9292    0.0000 C   0  0  0  0  0  0           0  0  0
    5.1125    1.2333    0.0000 C   0  0  0  0  0  0           0  0  0
    4.2875    1.2250    0.0000 C   0  0  0  0  0  0           0  0  0
  2  1  2  0     0  0
  3  1  1  0     0  0
  4  1  1  0     0  0
  5  3  2  0     0  0
  6  2  1  0     0  0
  7  2  1  0     0  0
  8 11  2  0     0  0
  9  5  1  0     0  0
 10  8  1  0     0  0
 11 14  1  0     0  0
 12 19  1  0     0  0
 13  5  1  0     0  0
 14 12  2  0     0  0
 15  4  1  0     0  0
 16 15  1  0     0  0
 17 10  2  0     0  0
 18 10  1  0     0  0
 19  9  1  0     0  0
 20  4  1  0     0  0
 21  4  1  0     0  0
 22  6  1  0     0  0
 23  6  1  0     0  0
 24  9  1  0     0  0
 25  9  1  0     0  0
 26 11  1  0     0  0
 27 24  1  0     0  0
 28 25  1  0     0  0
  6 16  1  0     0  0
  7 13  2  0     0  0
 27 28  1  0     0  0
M  END