
          08180812472D 1   1.00000     0.00000     0

 26 29  0     1  0            999 V2000
    2.3894   -8.1368    0.0000 C   0  0  0  0  0  0           0  0  0
    2.3894   -7.3118    0.0000 C   0  0  0  0  0  0           0  0  0
    3.1043   -6.8969    0.0000 C   0  0  0  0  0  0           0  0  0
    1.6746   -8.5470    0.0000 O   0  0  0  0  0  0           0  0  0
    3.1043   -8.5470    0.0000 C   0  0  0  0  0  0           0  0  0
    3.8190   -8.1368    0.0000 C   0  0  0  0  0  0           0  0  0
    4.5338   -8.5470    0.0000 C   0  0  0  0  0  0           0  0  0
    5.2487   -8.1368    0.0000 C   0  0  2  0  0  0           0  0  0
    5.2487   -7.3118    0.0000 C   0  0  1  0  0  0           0  0  0
    5.9634   -6.8969    0.0000 C   0  0  2  0  0  0           0  0  0
    6.7489   -7.1554    0.0000 C   0  0  0  0  0  0           0  0  0
    7.2337   -6.4867    0.0000 C   0  0  0  0  0  0           0  0  0
    6.7489   -5.8225    0.0000 C   0  0  2  0  0  0           0  0  0
    7.0028   -5.0370    0.0000 O   0  0  0  0  0  0           0  0  0
    5.9634   -6.0718    0.0000 C   0  0  2  0  0  0           0  0  0
    5.9634   -5.2468    0.0000 C   0  0  0  0  0  0           0  0  0
    5.2487   -5.6616    0.0000 C   0  0  0  0  0  0           0  0  0
    4.5338   -6.0718    0.0000 C   0  0  0  0  0  0           0  0  0
    4.5338   -6.8969    0.0000 C   0  0  2  0  0  0           0  0  0
    3.8190   -7.3118    0.0000 C   0  0  1  0  0  0           0  0  0
    3.8190   -6.4867    0.0000 C   0  0  0  0  0  0           0  0  0
    4.5338   -7.7220    0.0000 H   0  0  0  0  0  0           0  0  0
    5.2487   -6.4867    0.0000 H   0  0  0  0  0  0           0  0  0
    5.9634   -7.7220    0.0000 H   0  0  0  0  0  0           0  0  0
    5.9638   -8.5470    0.0000 C   0  0  0  0  0  0           0  0  0
    7.5397   -6.0308    0.0000 C   0  0  0  0  0  0           0  0  0
  2  3  2  0     0  0
  1  4  2  0     0  0
  1  5  1  0     0  0
  5  6  2  0     0  0
  6  7  1  0     0  0
  7  8  1  0     0  0
  8  9  1  0     0  0
  9 10  1  0     0  0
 10 11  1  0     0  0
 11 12  1  0     0  0
 12 13  1  0     0  0
 13 14  1  1     0  0
 13 15  1  0     0  0
 10 15  1  0     0  0
 15 16  1  1     0  0
 15 17  1  0     0  0
 17 18  1  0     0  0
 18 19  1  0     0  0
  9 19  1  0     0  0
 19 20  1  0     0  0
  3 20  1  0     0  0
  6 20  1  0     0  0
 20 21  1  1     0  0
 19 22  1  6     0  0
  9 23  1  1     0  0
 10 24  1  6     0  0
  8 25  1  6     0  0
  1  2  1  0     0  0
 13 26  1  0     0  0
M  END