
  SciTegic01161211252D

 29 31  0  0  0  0            999 V2000
    5.3547  -26.4807    0.0000 C   0  0
    5.3535  -27.3078    0.0000 C   0  0
    6.0681  -27.7205    0.0000 C   0  0
    6.7842  -27.3073    0.0000 C   0  0
    6.7813  -26.4771    0.0000 C   0  0
    6.0663  -26.0682    0.0000 C   0  0
    4.6390  -27.7195    0.0000 N   0  0
    3.9252  -27.3067    0.0000 C   0  0
    3.2107  -27.7184    0.0000 N   0  0
    3.9259  -26.4820    0.0000 O   0  0
    2.4968  -27.3051    0.0000 C   0  0
    2.2231  -26.5260    0.0000 C   0  0
    1.3977  -26.5417    0.0000 C   0  0
    1.1588  -27.3322    0.0000 O   0  0
    1.8375  -27.8024    0.0000 N   0  0
    0.8995  -25.8843    0.0000 C   0  0
    1.2750  -25.1501    0.0000 C   0  0
    0.0760  -25.9264    0.0000 C   0  0
    0.3737  -25.2390    0.0000 C   0  0
    7.4940  -26.0621    0.0000 N   0  0
    8.2097  -26.4717    0.0000 C   0  0
    8.9223  -26.0567    0.0000 C   0  0
    8.2049  -27.2930    0.0000 O   0  0
    9.6364  -26.4698    0.0000 C   0  0
   10.3485  -26.0555    0.0000 C   0  0
   10.3460  -25.2299    0.0000 C   0  0
    9.6251  -24.8205    0.0000 C   0  0
    8.9160  -25.2371    0.0000 N   0  0
    9.6374  -27.2948    0.0000 O   0  0
 13 14  1  0
 14 15  1  0
 15 11  2  0
  3  4  2  0
 13 16  1  0
  7  8  1  0
 16 17  1  0
 16 18  1  0
  8  9  1  0
 16 19  1  0
  4  5  1  0
  5 20  1  0
  8 10  2  0
 20 21  1  0
  2  3  1  0
 21 22  1  0
  9 11  1  0
 21 23  2  0
 12 13  2  0
 22 24  2  0
  5  6  2  0
 24 25  1  0
  6  1  1  0
 25 26  2  0
  1  2  2  0
 26 27  1  0
  2  7  1  0
 27 28  2  0
 28 22  1  0
 11 12  1  0
 24 29  1  0
M  END