
  SciTegic12201609252D

 22 24  0  0  0  0            999 V2000
    1.4036    7.7724    0.0000 O   0  0
    2.5778    8.0198    0.0000 S   0  0
    2.9502    9.1606    0.0000 O   0  0
    3.1158    5.4773    0.0000 C   0  0
    3.5808    6.9034    0.0000 C   0  0
    5.0484    7.2137    0.0000 C   0  0
    6.0509    6.0979    0.0000 C   0  0
    5.5858    4.6718    0.0000 C   0  0
    4.1182    4.3614    0.0000 C   0  0
    3.6500    2.9355    0.0000 C   0  0
    4.4505    2.0415    0.0000 O   0  0
    2.1812    2.6271    0.0000 C   0  0
    1.7138    1.2033    0.0000 N   0  0
    1.7138   -1.2033    0.0000 N   0  0
    2.5889    0.0182    0.0000 C   0  0
    0.2917   -0.7475    0.0000 C   0  0
    0.2917    0.7475    0.0000 C   0  0
   -1.0028    1.5132    0.0000 C   0  0
   -2.3155    0.7475    0.0000 C   0  0
   -2.3155   -0.7475    0.0000 C   0  0
   -1.0028   -1.5132    0.0000 C   0  0
    1.7762    8.9129    0.0000 N   0  0
  2  1  2  0
  3  2  2  0
  4  5  2  0
  5  6  1  0
  6  7  2  0
  7  8  1  0
  8  9  2  0
  9  4  1  0
  9 10  1  0
 10 11  2  0
 10 12  1  0
 12 13  1  0
 13 17  1  0
 16 14  1  0
 14 15  2  0
 15 13  1  0
 16 17  2  0
 17 18  1  0
 18 19  2  0
 19 20  1  0
 20 21  2  0
 21 16  1  0
  5  2  1  0
  2 22  1  0
M  END