
  SciTegic05171617262D

 33 38  0  0  0  0            999 V2000
   -2.3478    4.9972    0.0000 C   0  0
   -1.2071    5.3698    0.0000 N   0  0
    0.0051    4.5042    0.0000 C   0  0
    1.1994    5.3481    0.0000 N   0  0
    0.7564    6.7743    0.0000 C   0  0
    1.5338    8.0618    0.0000 C   0  0
    0.7799    9.3813    0.0000 C   0  0
   -0.7150    9.3948    0.0000 C   0  0
   -1.4926    8.0891    0.0000 C   0  0
   -0.7385    6.7878    0.0000 C   0  0
    0.0000    3.0035    0.0000 N   0  0
    1.2785    2.2729    0.0000 C   0  0
    1.2785    0.7306    0.0000 C   0  0
    0.0000    0.0000    0.0000 C   0  0
   -1.2988   -0.7509    0.0000 C   0  0
   -1.2988   -2.2526    0.0000 C   0  0
    0.0000   -3.0238    0.0000 C   0  0
    1.2785   -2.2526    0.0000 N   0  0
    2.5829   -2.9954    0.0000 C   0  0
    2.5927   -4.4962    0.0000 C   0  0
    1.2861   -5.2576    0.0000 C   0  0
    1.3002   -6.7548    0.0000 C   0  0
    2.6220   -7.4910    0.0000 C   0  0
    3.9112   -6.7301    0.0000 C   0  0
    5.2147   -7.4664    0.0000 C   0  0
    6.5040   -6.7055    0.0000 C   0  0
    6.4898   -5.2083    0.0000 C   0  0
    5.1863   -4.4720    0.0000 C   0  0
    3.8971   -5.2329    0.0000 C   0  0
    1.2785   -0.7509    0.0000 C   0  0
    2.3200   -0.1547    0.0000 O   0  0
   -1.2988    0.7306    0.0000 C   0  0
   -1.2988    2.2729    0.0000 C   0  0
  1  2  1  0
  2  3  1  0
  3  4  2  0
  4  5  1  0
  5  6  2  0
  6  7  1  0
  7  8  2  0
  8  9  1  0
  9 10  2  0
  2 10  1  0
  5 10  1  0
  3 11  1  0
 11 12  1  0
 12 13  1  0
 13 14  1  0
 14 15  1  0
 15 16  1  0
 16 17  1  0
 17 18  1  0
 18 19  1  0
 19 20  1  0
 20 21  1  0
 21 22  2  0
 22 23  1  0
 23 24  2  0
 24 25  1  0
 25 26  2  0
 26 27  1  0
 27 28  2  0
 28 29  1  0
 20 29  2  0
 24 29  1  0
 18 30  1  0
 14 30  1  0
 30 31  2  0
 14 32  1  0
 32 33  1  0
 11 33  1  0
M  END