
  CDK    9/15/10,16:21

 33 34  0  0  0  0  0  0  0  0999 V2000
    3.6417   -1.6500    0.0000 C   0  0  0  0  0  0  0  0  0  0  0  0
    4.4542   -1.8292    0.0000 O   0  0  0  0  0  0  0  0  0  0  0  0
    3.5667   -0.8292    0.0000 O   0  0  0  0  0  0  0  0  0  0  0  0
    5.1667   -5.3167    0.0000 C   0  0  0  0  0  0  0  0  0  0  0  0
    5.1667   -6.1417    0.0000 C   0  0  0  0  0  0  0  0  0  0  0  0
    8.5875   -3.2542    0.0000 C   0  0  0  0  0  0  0  0  0  0  0  0
    2.8417   -1.4667    0.0000 C   0  0  0  0  0  0  0  0  0  0  0  0
    4.4542   -4.9042    0.0000 O   0  0  0  0  0  0  0  0  0  0  0  0
    4.8667   -1.1167    0.0000 C   0  0  0  0  0  0  0  0  0  0  0  0
    6.1125   -1.8292    0.0000 N   0  0  0  0  0  0  0  0  0  0  0  0
    9.0000   -3.9667    0.0000 C   0  0  0  0  0  0  0  0  0  0  0  0
    9.0000   -2.5417    0.0000 C   0  0  0  0  0  0  0  0  0  0  0  0
    5.8792   -4.9042    0.0000 O   0  0  0  0  0  0  0  0  0  0  0  0
    5.8792   -6.5542    0.0000 O   0  0  0  0  0  0  0  0  0  0  0  0
    4.3125   -0.4917    0.0000 C   0  0  0  0  0  0  0  0  0  0  0  0
    4.4542   -6.5542    0.0000 O   0  0  0  0  0  0  0  0  0  0  0  0
    7.7625   -3.2542    0.0000 O   0  0  0  0  0  0  0  0  0  0  0  0
    3.7167   -2.4750    0.0000 C   0  0  0  0  0  0  0  0  0  0  0  0
    8.5750   -1.8167    0.0000 O   0  0  0  0  0  0  0  0  0  0  0  0
    8.5792   -4.6917    0.0000 O   0  0  0  0  0  0  0  0  0  0  0  0
    5.7000   -1.1167    0.0000 C   0  0  0  0  0  0  0  0  0  0  0  0
    6.5250   -2.5417    0.0000 C   0  0  0  0  0  0  0  0  0  0  0  0
   10.2417   -3.2542    0.0000 C   0  0  0  0  0  0  0  0  0  0  0  0
    9.8292   -2.5417    0.0000 C   0  0  0  0  0  0  0  0  0  0  0  0
    9.8292   -3.9667    0.0000 C   0  0  0  0  0  0  0  0  0  0  0  0
    2.6000   -0.6792    0.0000 C   0  0  0  0  0  0  0  0  0  0  0  0
    2.2875   -2.0750    0.0000 C   0  0  0  0  0  0  0  0  0  0  0  0
    7.3500   -2.5417    0.0000 C   0  0  0  0  0  0  0  0  0  0  0  0
    7.7417   -1.8292    0.0000 C   0  0  0  0  0  0  0  0  0  0  0  0
    8.9917   -5.4125    0.0000 C   0  0  0  0  0  0  0  0  0  0  0  0
    1.7917   -0.5000    0.0000 C   0  0  0  0  0  0  0  0  0  0  0  0
    1.4875   -1.9000    0.0000 C   0  0  0  0  0  0  0  0  0  0  0  0
    1.2375   -1.1042    0.0000 C   0  0  0  0  0  0  0  0  0  0  0  0
  2  1  1  0  0  0  0 
  3  1  1  0  0  0  0 
  5  4  1  0  0  0  0 
  6 17  1  0  0  0  0 
  7  1  1  0  0  0  0 
  8  4  1  0  0  0  0 
  9  2  1  0  0  0  0 
 10 21  1  0  0  0  0 
 11  6  2  0  0  0  0 
 12  6  1  0  0  0  0 
 13  4  2  0  0  0  0 
 14  5  2  0  0  0  0 
 15  3  1  0  0  0  0 
 16  5  1  0  0  0  0 
 17 28  1  0  0  0  0 
  1 18  1  6  0  0  0 
 19 12  1  0  0  0  0 
 20 11  1  0  0  0  0 
 21  9  1  0  0  0  0 
 22 10  1  0  0  0  0 
 23 25  2  0  0  0  0 
 24 12  2  0  0  0  0 
 25 11  1  0  0  0  0 
 26  7  2  0  0  0  0 
 27  7  1  0  0  0  0 
 28 22  1  0  0  0  0 
 29 19  1  0  0  0  0 
 30 20  1  0  0  0  0 
 31 26  1  0  0  0  0 
 32 27  2  0  0  0  0 
 33 32  1  0  0  0  0 
 15  9  1  0  0  0  0 
 33 31  2  0  0  0  0 
 23 24  1  0  0  0  0 
M  END