
          11280715372D 1   1.00000     0.00000     0

 34 37  0     0  0            999 V2000
    5.8250   -2.2792    0.0000 C   0  0  0  0  0  0           0  0  0
    5.8292   -3.1625    0.0000 C   0  0  0  0  0  0           0  0  0
    4.3042   -2.2792    0.0000 N   0  0  3  0  0  0           0  0  0
    5.0625   -3.6000    0.0000 N   0  0  3  0  0  0           0  0  0
    4.3042   -3.1625    0.0000 C   0  0  0  0  0  0           0  0  0
    5.0625   -1.8292    0.0000 C   0  0  0  0  0  0           0  0  0
    6.6667   -2.0000    0.0000 N   0  0  0  0  0  0           0  0  0
    6.6750   -3.4292    0.0000 N   0  0  0  0  0  0           0  0  0
    7.1917   -2.7125    0.0000 C   0  0  0  0  0  0           0  0  0
    3.5375   -1.8375    0.0000 C   0  0  0  0  0  0           0  0  0
    8.0750   -2.7042    0.0000 C   0  0  0  0  0  0           0  0  0
    3.5375   -3.6042    0.0000 O   0  0  0  0  0  0           0  0  0
    5.0625   -0.9500    0.0000 O   0  0  0  0  0  0           0  0  0
   12.0500   -3.4500    0.0000 C   0  0  0  0  0  0           0  0  0
    5.0625   -4.4792    0.0000 C   0  0  0  0  0  0           0  0  0
   12.4875   -2.6792    0.0000 O   0  0  0  0  0  0           0  0  0
    8.5167   -3.4667    0.0000 C   0  0  0  0  0  0           0  0  0
    8.5042   -1.9417    0.0000 C   0  0  0  0  0  0           0  0  0
   10.7167   -2.6917    0.0000 O   0  0  0  0  0  0           0  0  0
    3.5292   -0.9542    0.0000 C   0  0  0  0  0  0           0  0  0
   11.1667   -3.4542    0.0000 C   0  0  0  0  0  0           0  0  0
    9.8375   -2.7000    0.0000 C   0  0  0  0  0  0           0  0  0
    1.3042    0.4708    0.0000 C   0  0  0  0  0  0           0  0  0
    2.7667   -0.5167    0.0000 C   0  0  0  0  0  0           0  0  0
   12.4917   -4.2125    0.0000 O   0  0  0  0  0  0           0  0  0
    0.5667    0.9625    0.0000 N   0  0  0  0  0  0           0  0  0
    9.3875   -1.9292    0.0000 C   0  0  0  0  0  0           0  0  0
    9.4000   -3.4667    0.0000 C   0  0  0  0  0  0           0  0  0
    2.0917    0.8583    0.0000 C   0  0  0  0  0  0           0  0  0
    1.2417   -0.4167    0.0000 C   0  0  0  0  0  0           0  0  0
    2.8292    0.3625    0.0000 C   0  0  0  0  0  0           0  0  0
    1.9792   -0.9042    0.0000 C   0  0  0  0  0  0           0  0  0
    4.2917   -4.9167    0.0000 C   0  0  0  0  0  0           0  0  0
    4.2917   -5.8042    0.0000 C   0  0  0  0  0  0           0  0  0
  2  1  2  0     0  0
  3  6  1  0     0  0
  4  2  1  0     0  0
  5  3  1  0     0  0
  6  1  1  0     0  0
  7  1  1  0     0  0
  8  2  1  0     0  0
  9  7  1  0     0  0
 10  3  1  0     0  0
 11  9  1  0     0  0
 12  5  2  0     0  0
 13  6  2  0     0  0
 14 21  1  0     0  0
 15  4  1  0     0  0
 16 14  2  0     0  0
 17 11  2  0     0  0
 18 11  1  0     0  0
 19 22  1  0     0  0
 20 10  1  0     0  0
 21 19  1  0     0  0
 22 27  1  0     0  0
 23 30  1  0     0  0
 24 20  1  0     0  0
 25 14  1  0     0  0
 26 23  1  0     0  0
 27 18  2  0     0  0
 28 17  1  0     0  0
 29 31  1  0     0  0
 30 32  2  0     0  0
 31 24  2  0     0  0
 32 24  1  0     0  0
 33 15  1  0     0  0
 34 33  1  0     0  0
  8  9  2  0     0  0
  4  5  1  0     0  0
 28 22  2  0     0  0
 29 23  2  0     0  0
M  END