
          11280715102D 1   1.00000     0.00000     0

 35 37  0     1  0            999 V2000
    8.8917   -4.9042    0.0000 C   0  0  0  0  0  0           0  0  0
   13.9625   -6.5625    0.0000 S   0  0  3  0  0  0           0  0  0
    8.4125   -5.5667    0.0000 N   0  0  3  0  0  0           0  0  0
    9.6792   -5.1542    0.0000 C   0  0  0  0  0  0           0  0  0
   13.9667   -5.1375    0.0000 C   0  0  2  0  0  0           0  0  0
   14.3792   -5.8500    0.0000 N   0  0  0  0  0  0           0  0  0
    9.6792   -5.9792    0.0000 C   0  0  0  0  0  0           0  0  0
   10.3917   -4.7375    0.0000 C   0  0  0  0  0  0           0  0  0
   11.8250   -4.7292    0.0000 C   0  0  0  0  0  0           0  0  0
    8.9000   -6.2375    0.0000 C   0  0  0  0  0  0           0  0  0
   14.6792   -4.7167    0.0000 C   0  0  0  0  0  0           0  0  0
   11.1125   -5.1500    0.0000 C   0  0  0  0  0  0           0  0  0
   12.5417   -5.1417    0.0000 N   0  0  0  0  0  0           0  0  0
   13.1625   -6.3417    0.0000 O   0  0  0  0  0  0           0  0  0
   14.7542   -6.7750    0.0000 O   0  0  0  0  0  0           0  0  0
    8.6375   -4.1167    0.0000 O   0  0  0  0  0  0           0  0  0
    7.7000   -5.1542    0.0000 C   0  0  0  0  0  0           0  0  0
   13.2542   -4.7292    0.0000 C   0  0  0  0  0  0           0  0  0
    4.8417   -4.3292    0.0000 N   0  0  0  0  0  0           0  0  0
   10.3917   -6.3917    0.0000 C   0  0  0  0  0  0           0  0  0
   11.8167   -3.9042    0.0000 O   0  0  0  0  0  0           0  0  0
   14.6792   -3.8917    0.0000 O   0  0  0  0  0  0           0  0  0
   11.1125   -5.9792    0.0000 C   0  0  0  0  0  0           0  0  0
   13.5417   -7.2750    0.0000 C   0  0  0  0  0  0           0  0  0
   15.4000   -5.1292    0.0000 O   0  0  0  0  0  0           0  0  0
    6.9792   -5.5667    0.0000 C   0  0  0  0  0  0           0  0  0
    6.2667   -5.1542    0.0000 C   0  0  3  0  0  0           0  0  0
    5.5667   -3.9167    0.0000 C   0  0  0  0  0  0           0  0  0
    4.8417   -5.1542    0.0000 C   0  0  0  0  0  0           0  0  0
    6.2750   -4.3375    0.0000 C   0  0  0  0  0  0           0  0  0
    5.5542   -5.5750    0.0000 C   0  0  0  0  0  0           0  0  0
   12.7167   -7.2667    0.0000 C   0  0  0  0  0  0           0  0  0
   12.3000   -7.9750    0.0000 C   0  0  0  0  0  0           0  0  0
   11.4750   -7.9667    0.0000 C   0  0  0  0  0  0           0  0  0
   13.5542   -5.8500    0.0000 H   0  0  0  0  0  0           0  0  0
  2  6  1  0     0  0
  3  1  1  0     0  0
  4  1  1  0     0  0
  5 18  1  0     0  0
  5  6  1  1     0  0
  7  4  2  0     0  0
  8  4  1  0     0  0
  9 12  1  0     0  0
 10  3  1  0     0  0
 11  5  1  0     0  0
 12  8  2  0     0  0
 13  9  1  0     0  0
 14  2  2  0     0  0
 15  2  2  0     0  0
 16  1  2  0     0  0
 17  3  1  0     0  0
 18 13  1  0     0  0
 19 29  1  0     0  0
 20  7  1  0     0  0
 21  9  2  0     0  0
 22 11  2  0     0  0
 23 12  1  0     0  0
 24  2  1  0     0  0
 25 11  1  0     0  0
 26 17  1  0     0  0
 27 26  1  0     0  0
 28 30  1  0     0  0
 29 31  1  0     0  0
 30 27  1  0     0  0
 31 27  1  0     0  0
 32 24  1  0     0  0
 33 32  1  0     0  0
 34 33  1  0     0  0
  5 35  1  6     0  0
 10  7  1  0     0  0
 20 23  2  0     0  0
 28 19  1  0     0  0
M  END