
          11280715452D 1   1.00000     0.00000     0

 30 33  0     0  0            999 V2000
   -0.5458    0.3750    0.0000 C   0  0  0  0  0  0           0  0  0
    0.1250    0.8625    0.0000 N   0  0  3  0  0  0           0  0  0
   -1.3708    0.3833    0.0000 N   0  0  0  0  0  0           0  0  0
   -0.2875   -0.4125    0.0000 N   0  0  3  0  0  0           0  0  0
   -1.6250   -0.4000    0.0000 C   0  0  0  0  0  0           0  0  0
    0.7917    0.3833    0.0000 C   0  0  0  0  0  0           0  0  0
    0.5375   -0.4125    0.0000 C   0  0  3  0  0  0           0  0  0
   -0.9583   -0.8917    0.0000 C   0  0  0  0  0  0           0  0  0
   -2.4125   -0.6542    0.0000 S   0  0  3  0  0  0           0  0  0
    0.1250    1.6875    0.0000 C   0  0  0  0  0  0           0  0  0
    0.8417    2.1000    0.0000 C   0  0  0  0  0  0           0  0  0
   -0.5875    2.1000    0.0000 C   0  0  0  0  0  0           0  0  0
    1.3292   -0.6167    0.0000 C   0  0  0  0  0  0           0  0  0
    1.5792    0.6375    0.0000 O   0  0  0  0  0  0           0  0  0
   -2.1833   -1.4417    0.0000 O   0  0  0  0  0  0           0  0  0
   -2.6375    0.1375    0.0000 O   0  0  0  0  0  0           0  0  0
    0.8417    2.9208    0.0000 C   0  0  0  0  0  0           0  0  0
   -0.5875    2.9208    0.0000 C   0  0  0  0  0  0           0  0  0
    0.1250    3.3375    0.0000 C   0  0  0  0  0  0           0  0  0
    0.5292   -1.2375    0.0000 C   0  0  0  0  0  0           0  0  0
    1.3250   -1.4417    0.0000 C   0  0  0  0  0  0           0  0  0
   -3.2125   -0.8625    0.0000 C   0  0  0  0  0  0           0  0  0
    1.3125   -3.0917    0.0000 C   0  0  0  0  0  0           0  0  0
   -1.3083    3.3375    0.0000 Cl  0  0  0  0  0  0           0  0  0
    1.5542    3.3375    0.0000 Cl  0  0  0  0  0  0           0  0  0
    1.3125   -3.9167    0.0000 Br  0  0  0  0  0  0           0  0  0
    0.6042   -1.8542    0.0000 C   0  0  0  0  0  0           0  0  0
    2.0375   -1.8542    0.0000 C   0  0  0  0  0  0           0  0  0
    2.0375   -2.6792    0.0000 C   0  0  0  0  0  0           0  0  0
    0.6000   -2.6792    0.0000 C   0  0  0  0  0  0           0  0  0
  2  1  1  0     0  0
  3  1  2  0     0  0
  4  1  1  0     0  0
  5  3  1  0     0  0
  6  2  1  0     0  0
  7  4  1  0     0  0
  8  4  1  0     0  0
  9  5  1  0     0  0
 10  2  1  0     0  0
 11 10  2  0     0  0
 12 10  1  0     0  0
 13  7  1  0     0  0
 14  6  2  0     0  0
 15  9  2  0     0  0
 16  9  2  0     0  0
 17 11  1  0     0  0
 18 12  2  0     0  0
 19 18  1  0     0  0
 20  7  1  0     0  0
 21 13  1  0     0  0
 22  9  1  0     0  0
 23 29  1  0     0  0
 24 18  1  0     0  0
 25 17  1  0     0  0
 26 23  1  0     0  0
 27 21  2  0     0  0
 28 21  1  0     0  0
 29 28  2  0     0  0
 30 27  1  0     0  0
  8  5  2  0     0  0
  7  6  1  0     0  0
 17 19  2  0     0  0
 30 23  2  0     0  0
M  END