
          11280715332D 1   1.00000     0.00000     0

 24 25  0     0  0            999 V2000
    2.1542   -3.6000    0.0000 S   0  0  3  0  0  0           0  0  0
    7.9292   -5.0000    0.0000 N   0  0  3  0  0  0           0  0  0
    7.1042   -5.0042    0.0000 C   0  0  0  0  0  0           0  0  0
    8.7042   -4.7042    0.0000 C   0  0  3  0  0  0           0  0  0
    5.4417   -3.5875    0.0000 C   0  0  0  0  0  0           0  0  0
    8.9250   -3.9167    0.0000 C   0  0  0  0  0  0           0  0  0
    2.9750   -3.6000    0.0000 C   0  0  0  0  0  0           0  0  0
    5.8625   -4.3000    0.0000 N   0  0  0  0  0  0           0  0  0
    2.1500   -4.4250    0.0000 O   0  0  0  0  0  0           0  0  0
    2.1542   -2.7750    0.0000 O   0  0  0  0  0  0           0  0  0
    4.6167   -3.5917    0.0000 C   0  0  0  0  0  0           0  0  0
    6.6875   -4.2917    0.0000 C   0  0  0  0  0  0           0  0  0
    1.3250   -3.5917    0.0000 N   0  0  0  0  0  0           0  0  0
    6.6917   -5.7167    0.0000 O   0  0  0  0  0  0           0  0  0
    5.8542   -2.8667    0.0000 O   0  0  0  0  0  0           0  0  0
    8.3500   -3.3250    0.0000 O   0  0  0  0  0  0           0  0  0
    3.3792   -2.8875    0.0000 C   0  0  0  0  0  0           0  0  0
    3.3917   -4.3125    0.0000 C   0  0  0  0  0  0           0  0  0
    4.2125   -4.3042    0.0000 C   0  0  0  0  0  0           0  0  0
    4.2000   -2.8792    0.0000 C   0  0  0  0  0  0           0  0  0
    7.9625   -5.8167    0.0000 C   0  0  0  0  0  0           0  0  0
    9.7250   -3.7125    0.0000 O   0  0  0  0  0  0           0  0  0
    9.2167   -5.3542    0.0000 C   0  0  0  0  0  0           0  0  0
    8.7542   -6.0417    0.0000 C   0  0  0  0  0  0           0  0  0
  2  3  1  0     0  0
  3 12  1  0     0  0
  4  2  1  0     0  0
  5 11  1  0     0  0
  6  4  1  0     0  0
  7  1  1  0     0  0
  8  5  1  0     0  0
  9  1  2  0     0  0
 10  1  2  0     0  0
 11 19  2  0     0  0
 12  8  1  0     0  0
 13  1  1  0     0  0
 14  3  2  0     0  0
 15  5  2  0     0  0
 16  6  2  0     0  0
 17  7  1  0     0  0
 18  7  2  0     0  0
 19 18  1  0     0  0
 20 17  2  0     0  0
 21  2  1  0     0  0
 22  6  1  0     0  0
 23  4  1  0     0  0
 24 21  1  0     0  0
 20 11  1  0     0  0
 23 24  1  0     0  0
M  END