
  SciTegic07101214422D

 39 42  0  0  0  0            999 V2000
    6.5736   -0.3750    0.0000 C   0  0
    6.5724   -1.2023    0.0000 C   0  0
    7.2872   -1.6152    0.0000 C   0  0
    8.0037   -1.2019    0.0000 C   0  0
    7.2854    0.0378    0.0000 C   0  0
    7.9971   -0.3731    0.0000 C   0  0
    7.9894    1.2683    0.0000 C   0  0
    7.2827    0.8551    0.0000 N   0  0
    8.7058    0.8593    0.0000 C   0  0
    8.7110    0.0360    0.0000 N   0  0
    9.4956   -0.2135    0.0000 C   0  0
    9.9754    0.4556    0.0000 N   0  0
    9.4872    1.1186    0.0000 N   0  0
    9.7555   -0.9965    0.0000 O   0  0
    7.9851    2.0933    0.0000 N   0  0
    8.6975    2.5095    0.0000 C   0  0
    8.6932    3.3345    0.0000 O   0  0
    9.4141    2.1007    0.0000 C   0  0
   10.7980    0.4614    0.0000 C   0  0
   11.2144   -0.2521    0.0000 C   0  0
   12.0386   -0.2472    0.0000 C   0  0
   12.4474    0.4704    0.0000 C   0  0
   12.0259    1.1846    0.0000 C   0  0
   11.2031    1.1762    0.0000 C   0  0
   13.2724    0.4768    0.0000 O   0  0
   13.6904   -0.2345    0.0000 C   0  0
   10.1264    2.5169    0.0000 C   0  0
   10.8430    2.1080    0.0000 C   0  0
   11.5553    2.5242    0.0000 N   0  0
   10.8472    1.2831    0.0000 O   0  0
   12.2719    2.1154    0.0000 C   0  0
   12.9842    2.5316    0.0000 C   0  0
   13.7008    2.1228    0.0000 C   0  0
   14.4132    2.5390    0.0000 C   0  0
   15.1298    2.1302    0.0000 C   0  0
   15.8421    2.5464    0.0000 C   0  0
   16.5587    2.1375    0.0000 C   0  0
   17.2710    2.5537    0.0000 C   0  0
   17.9876    2.1449    0.0000 N   0  0
  8  5  1  0
  9 10  1  0
 19 20  2  0
  4  6  1  0
 20 21  1  0
  5  1  1  0
 21 22  2  0
 22 23  1  0
  2  3  1  0
 23 24  2  0
 24 19  1  0
 12 19  1  0
  5  6  2  0
 22 25  1  0
 10 11  1  0
 25 26  1  0
 11 12  1  0
 18 27  1  0
 12 13  1  0
 27 28  1  0
 13  9  2  0
 28 29  1  0
  6 10  1  0
 28 30  2  0
 11 14  2  0
 29 31  1  0
  1  2  2  0
 31 32  1  0
  7 15  1  0
 32 33  1  0
  9  7  1  0
 33 34  1  0
 15 16  1  0
 34 35  1  0
  3  4  2  0
 35 36  1  0
 16 17  2  0
 36 37  1  0
  7  8  2  0
 37 38  1  0
 16 18  1  0
 38 39  1  0
M  END