
          11280715052D 1   1.00000     0.00000     0

 26 28  0     0  0            999 V2000
    3.0792   -1.4500    0.0000 C   0  0  3  0  0  0           0  0  0
    3.8792   -1.2292    0.0000 C   0  0  3  0  0  0           0  0  0
    3.4917   -0.7292    0.0000 C   0  0  0  0  0  0           0  0  0
    0.9500   -1.8667    0.0000 C   0  0  0  0  0  0           0  0  0
    2.3667   -1.8667    0.0000 C   0  0  0  0  0  0           0  0  0
    0.9500   -2.6917    0.0000 C   0  0  0  0  0  0           0  0  0
    1.6542   -1.4542    0.0000 C   0  0  0  0  0  0           0  0  0
    4.5917   -0.8167    0.0000 C   0  0  0  0  0  0           0  0  0
    0.2375   -1.4542    0.0000 C   0  0  3  0  0  0           0  0  0
    0.2375   -3.1042    0.0000 C   0  0  3  0  0  0           0  0  0
    1.6625   -3.1042    0.0000 C   0  0  0  0  0  0           0  0  0
    6.7667   -0.8542    0.0000 C   0  0  0  0  0  0           0  0  0
    5.3625   -1.1000    0.0000 C   0  0  0  0  0  0           0  0  0
    7.4042   -0.3292    0.0000 C   0  0  0  0  0  0           0  0  0
    5.9917   -0.5667    0.0000 C   0  0  0  0  0  0           0  0  0
    2.3750   -2.6917    0.0000 C   0  0  0  0  0  0           0  0  0
   -0.4708   -1.8667    0.0000 C   0  0  0  0  0  0           0  0  0
   -0.4708   -2.6917    0.0000 C   0  0  0  0  0  0           0  0  0
    8.1792   -0.6125    0.0000 O   0  0  0  0  0  0           0  0  0
    2.4917   -0.8625    0.0000 C   0  0  0  0  0  0           0  0  0
    7.2667    0.4833    0.0000 O   0  0  0  0  0  0           0  0  0
    0.9500   -1.0375    0.0000 C   0  0  0  0  0  0           0  0  0
   -0.4833   -1.0417    0.0000 C   0  0  0  0  0  0           0  0  0
    0.9500   -3.5167    0.0000 C   0  0  0  0  0  0           0  0  0
   -0.3500   -3.6875    0.0000 C   0  0  0  0  0  0           0  0  0
    5.8542    0.2458    0.0000 C   0  0  0  0  0  0           0  0  0
  2  1  1  0     0  0
  3  1  1  0     0  0
  4  7  1  0     0  0
  5  1  1  0     0  0
  6 11  1  0     0  0
  7  5  2  0     0  0
  8  2  1  0     0  0
  9  4  1  0     0  0
 10  6  1  0     0  0
 11 16  2  0     0  0
 12 15  2  0     0  0
 13  8  2  0     0  0
 12 14  1  0     0  0
 15 13  1  0     0  0
 16  5  1  0     0  0
 17  9  1  0     0  0
 18 10  1  0     0  0
 19 14  2  0     0  0
 20  1  1  0     0  0
 21 14  1  0     0  0
 22  9  1  0     0  0
 23  9  1  0     0  0
 24 10  1  0     0  0
 25 10  1  0     0  0
 26 15  1  0     0  0
  2  3  1  0     0  0
  4  6  2  0     0  0
 17 18  1  0     0  0
M  END