
          11280715052D 1   1.00000     0.00000     0

 27 29  0     0  0            999 V2000
    2.0042    0.4750    0.0000 C   0  0  3  0  0  0           0  0  0
    2.7375    0.4708    0.0000 C   0  0  3  0  0  0           0  0  0
    2.4167    1.1958    0.0000 C   0  0  0  0  0  0           0  0  0
    1.2917    0.0583    0.0000 C   0  0  0  0  0  0           0  0  0
   -0.1208    0.0583    0.0000 C   0  0  0  0  0  0           0  0  0
   -0.1208   -0.7667    0.0000 C   0  0  0  0  0  0           0  0  0
    0.5792    0.4708    0.0000 C   0  0  0  0  0  0           0  0  0
    0.5917   -1.1792    0.0000 C   0  0  0  0  0  0           0  0  0
    1.3042   -0.7667    0.0000 C   0  0  0  0  0  0           0  0  0
    3.2167   -0.0167    0.0000 C   0  0  0  0  0  0           0  0  0
   -0.8333   -1.1792    0.0000 C   0  0  3  0  0  0           0  0  0
   -0.8333    0.4708    0.0000 C   0  0  3  0  0  0           0  0  0
    5.2792   -0.7292    0.0000 C   0  0  0  0  0  0           0  0  0
    4.0417   -0.0167    0.0000 C   0  0  0  0  0  0           0  0  0
    5.6917   -1.4417    0.0000 C   0  0  0  0  0  0           0  0  0
    4.4542   -0.7292    0.0000 C   0  0  0  0  0  0           0  0  0
   -1.5458    0.0583    0.0000 C   0  0  0  0  0  0           0  0  0
   -1.5458   -0.7667    0.0000 C   0  0  0  0  0  0           0  0  0
    6.5167   -1.4500    0.0000 O   0  0  0  0  0  0           0  0  0
    1.4167    1.0625    0.0000 C   0  0  0  0  0  0           0  0  0
    5.2792   -2.1667    0.0000 O   0  0  0  0  0  0           0  0  0
    2.0167   -1.1792    0.0000 C   0  0  0  0  0  0           0  0  0
   -0.1208    0.8875    0.0000 C   0  0  0  0  0  0           0  0  0
   -1.5583    0.8833    0.0000 C   0  0  0  0  0  0           0  0  0
   -0.1208   -1.5917    0.0000 C   0  0  0  0  0  0           0  0  0
   -1.4208   -1.7625    0.0000 C   0  0  0  0  0  0           0  0  0
    4.0417   -1.4417    0.0000 C   0  0  0  0  0  0           0  0  0
  2  1  1  0     0  0
  3  1  1  0     0  0
  4  1  1  0     0  0
  5  7  1  0     0  0
  6  8  1  0     0  0
  7  4  2  0     0  0
  8  9  2  0     0  0
  9  4  1  0     0  0
 10  2  1  0     0  0
 11  6  1  0     0  0
 12  5  1  0     0  0
 13 16  2  0     0  0
 14 10  2  0     0  0
 13 15  1  0     0  0
 16 14  1  0     0  0
 17 12  1  0     0  0
 18 11  1  0     0  0
 19 15  2  0     0  0
 20  1  1  0     0  0
 21 15  1  0     0  0
 22  9  1  0     0  0
 23 12  1  0     0  0
 24 12  1  0     0  0
 25 11  1  0     0  0
 26 11  1  0     0  0
 27 16  1  0     0  0
  2  3  1  0     0  0
  5  6  2  0     0  0
 17 18  1  0     0  0
M  END