
  SciTegic01091216402D

 22 23  0  0  0  0            999 V2000
   17.3373    1.3301    0.0000 N   0  0
   17.3559    0.5038    0.0000 N   0  0
   18.1444    0.2705    0.0000 C   0  0
   18.6142    0.9502    0.0000 C   0  0
   18.1128    1.6044    0.0000 C   0  0
   16.6580    1.8002    0.0000 C   0  0
   15.9405    1.3930    0.0000 N   0  0
   16.6654    2.6228    0.0000 N   0  0
   19.4405    0.9687    0.0000 C   0  0
   19.8680    0.2660    0.0000 C   0  0
   17.3829    3.0301    0.0000 C   0  0
   18.0929    2.6148    0.0000 C   0  0
   15.2298    1.8095    0.0000 S   0  0
   15.6458    2.5183    0.0000 O   0  0
   14.5274    1.3745    0.0000 C   0  0
   14.5535    0.5499    0.0000 C   0  0
   13.8511    0.1150    0.0000 C   0  0
   13.1225    0.5046    0.0000 C   0  0
   13.0964    1.3292    0.0000 C   0  0
   13.7988    1.7641    0.0000 C   0  0
   14.6417    2.4000    0.0000 O   0  0
   12.3694    1.7192    0.0000 C   0  0
  2  3  2  0
  3  4  1  0
  4  5  1  0
  1  5  1  0
  6  7  2  0
  6  8  1  0
  1  6  1  0
  9 10  1  0
  4  9  1  0
 11 12  1  0
  8 11  1  0
 13 14  2  0
 15 16  1  0
 16 17  2  0
 17 18  1  0
 18 19  2  0
 19 20  1  0
 15 20  2  0
 13 15  1  0
  7 13  1  0
 13 21  2  0
  1  2  1  0
 19 22  1  0
M  END