
          11280715412D 1   1.00000     0.00000     0

 33 36  0     1  0            999 V2000
   -2.0833  -16.7667    0.0000 C   0  0  2  0  0  0           0  0  0
   -1.3689  -16.3542    0.0000 C   0  0  0  0  0  0           0  0  0
   -0.6544  -16.7667    0.0000 N   0  0  0  0  0  0           0  0  0
   -1.3689  -15.5292    0.0000 O   0  0  0  0  0  0           0  0  0
   -0.6544  -17.5917    0.0000 C   0  0  0  0  0  0           0  0  0
    0.0601  -18.0042    0.0000 C   0  0  0  0  0  0           0  0  0
    0.7789  -17.5898    0.0000 C   0  0  0  0  0  0           0  0  0
    0.7857  -16.7648    0.0000 C   0  0  0  0  0  0           0  0  0
    1.5035  -16.3582    0.0000 N   0  0  3  0  0  0           0  0  0
    2.2084  -16.7799    0.0000 C   0  0  0  0  0  0           0  0  0
    2.9241  -16.3768    0.0000 C   0  0  0  0  0  0           0  0  0
    2.9351  -15.5515    0.0000 N   0  0  3  0  0  0           0  0  0
    2.2242  -15.1310    0.0000 C   0  0  0  0  0  0           0  0  0
    1.5023  -15.5357    0.0000 C   0  0  0  0  0  0           0  0  0
    3.6545  -15.1476    0.0000 C   0  0  0  0  0  0           0  0  0
    4.3616  -15.5717    0.0000 C   0  0  0  0  0  0           0  0  0
    5.0804  -15.1685    0.0000 C   0  0  0  0  0  0           0  0  0
    5.0908  -14.3426    0.0000 C   0  0  0  0  0  0           0  0  0
    4.3763  -13.9217    0.0000 C   0  0  0  0  0  0           0  0  0
    3.6603  -14.3273    0.0000 C   0  0  0  0  0  0           0  0  0
   -2.7976  -16.3520    0.0000 C   0  0  0  0  0  0           0  0  0
   -3.5100  -16.7610    0.0000 C   0  0  0  0  0  0           0  0  0
   -3.5142  -17.5863    0.0000 C   0  0  2  0  0  0           0  0  0
   -2.7999  -18.0010    0.0000 C   0  0  0  0  0  0           0  0  0
   -2.0814  -17.5904    0.0000 C   0  0  0  0  0  0           0  0  0
   -4.2298  -17.9960    0.0000 C   0  0  0  0  0  0           0  0  0
   -4.9430  -17.5790    0.0000 C   0  0  0  0  0  0           0  0  0
   -5.6586  -17.9882    0.0000 C   0  0  0  0  0  0           0  0  0
   -5.6621  -18.8140    0.0000 C   0  0  0  0  0  0           0  0  0
   -4.9442  -19.2291    0.0000 C   0  0  0  0  0  0           0  0  0
   -4.2316  -18.8176    0.0000 C   0  0  0  0  0  0           0  0  0
    4.3496  -16.3966    0.0000 Cl  0  0  0  0  0  0           0  0  0
    5.7897  -15.5898    0.0000 Cl  0  0  0  0  0  0           0  0  0
 16 17  1  0     0  0
  8  9  1  0     0  0
 17 18  2  0     0  0
  9 10  1  0     0  0
 18 19  1  0     0  0
  3  5  1  0     0  0
 19 20  2  0     0  0
 20 15  1  0     0  0
  1 21  1  0     0  0
  2  3  1  0     0  0
  5  6  1  0     0  0
  1  2  1  1     0  0
  6  7  1  0     0  0
  9 14  1  0     0  0
  1 25  1  0     0  0
 21 22  1  0     0  0
 22 23  1  0     0  0
 23 24  1  0     0  0
 24 25  1  0     0  0
 10 11  1  0     0  0
 11 12  1  0     0  0
 26 27  2  0     0  0
 12 13  1  0     0  0
 27 28  1  0     0  0
 13 14  1  0     0  0
 28 29  2  0     0  0
  2  4  2  0     0  0
 29 30  1  0     0  0
 12 15  1  0     0  0
 30 31  2  0     0  0
 31 26  1  0     0  0
 23 26  1  6     0  0
  7  8  1  0     0  0
 16 32  1  0     0  0
 15 16  2  0     0  0
 17 33  1  0     0  0
M  END