
  SciTegic11201309402D

 44 46  0  0  1  0            999 V2000
    0.0542    2.0083    0.0000 N   0  0
   -0.0458    2.7583    0.0000 C   0  0
    0.2792    1.3083    0.0000 C   0  0  2  0  0  0
   -0.3208    0.8583    0.0000 C   0  0
   -0.7250    3.7583    0.0000 N   0  0
   -0.7458    3.0208    0.0000 C   0  0  1  0  0  0
    0.1167   -1.0667    0.0000 C   0  0
   -1.4000    4.0917    0.0000 C   0  0
   -0.1833    0.1083    0.0000 N   0  0
   -0.0583   -1.7917    0.0000 N   0  0
   -0.4583   -0.5667    0.0000 C   0  0  1  0  0  0
    0.5167   -2.2542    0.0000 C   0  0  2  0  0  0
    0.2750   -2.9667    0.0000 C   0  0
    0.7875    2.3833    0.0000 C   0  0
    1.0000    1.0708    0.0000 C   0  0
    0.5792    3.1833    0.0000 O   0  0
   -1.0250    1.0833    0.0000 O   0  0
    0.8375   -0.8667    0.0000 O   0  0
   -2.0125    3.6583    0.0000 O   0  0
    1.3625    1.8083    0.0000 C   0  0
    1.2417   -2.0542    0.0000 C   0  0
   -1.1833   -0.7667    0.0000 C   0  0
   -0.4625   -3.1667    0.0000 O   0  0
   -1.4125    4.8417    0.0000 C   0  0  1  0  0  0
   -1.3625    2.5958    0.0000 C   0  0
    1.7792   -2.5917    0.0000 C   0  0
    0.4875   -3.7542    0.0000 O   0  0
    2.8375   -3.6542    0.0000 C   0  0
   -2.1000    5.0792    0.0000 N   0  0
   -1.3833   -1.4917    0.0000 C   0  0
    2.5000   -2.3917    0.0000 C   0  0
    1.5792   -3.3167    0.0000 C   0  0
    2.1792    1.9458    0.0000 O   0  0
    2.1167   -3.8417    0.0000 C   0  0
    3.0375   -2.9292    0.0000 C   0  0
    3.3625   -4.1792    0.0000 O   0  0
   -0.7958    5.2750    0.0000 C   0  0
   -1.2958    1.8458    0.0000 C   0  0
   -2.0458    2.9083    0.0000 C   0  0
   -0.8500   -2.0167    0.0000 C   0  0
   -2.1000   -1.6792    0.0000 C   0  0
   -2.3000   -2.4042    0.0000 C   0  0
   -1.0458   -2.7417    0.0000 C   0  0
   -1.7625   -2.9417    0.0000 C   0  0
  2  1  1  0
  3  1  1  0
  3  4  1  1
  6  5  1  6
  6  2  1  0
  7 11  1  0
  8  5  1  0
  9  4  1  0
 10  7  1  0
 11  9  1  6
 12 10  1  1
 13 12  1  0
 14  1  1  0
  3 15  1  0
 16  2  2  0
 17  4  2  0
 18  7  2  0
 19  8  2  0
 20 14  1  0
 12 21  1  0
 11 22  1  0
 23 13  2  0
 24  8  1  0
  6 25  1  0
 26 21  1  0
 27 13  1  0
 28 34  1  0
 24 29  1  1
 30 22  1  0
 31 26  2  0
 32 26  1  0
 33 20  1  0
 34 32  2  0
 35 31  1  0
 36 28  1  0
 24 37  1  0
 38 25  1  0
 39 25  1  0
 40 30  1  0
 41 30  2  0
 42 41  1  0
 43 40  2  0
 44 42  2  0
 15 20  1  0
 43 44  1  0
 35 28  2  0
M  END