
          08180812472D 1   1.00000     0.00000     0

 20 21  0     0  0            999 V2000
    1.5501  -19.6241    0.0000 S   0  0  0  0  0  0           0  0  0
    0.9978  -19.0128    0.0000 C   0  0  0  0  0  0           0  0  0
    1.4097  -18.2979    0.0000 N   0  0  3  0  0  0           0  0  0
    2.2146  -18.4700    0.0000 C   0  0  0  0  0  0           0  0  0
    2.3035  -19.2912    0.0000 C   0  0  0  0  0  0           0  0  0
    0.1808  -19.1016    0.0000 O   0  0  0  0  0  0           0  0  0
    2.8303  -17.9177    0.0000 O   0  0  0  0  0  0           0  0  0
    3.0142  -19.7031    0.0000 C   0  0  0  0  0  0           0  0  0
    3.7291  -19.2912    0.0000 C   0  0  0  0  0  0           0  0  0
    3.7291  -18.4673    0.0000 C   0  0  0  0  0  0           0  0  0
    4.4440  -18.0554    0.0000 C   0  0  0  0  0  0           0  0  0
    5.1588  -18.4673    0.0000 C   0  0  0  0  0  0           0  0  0
    5.1588  -19.2912    0.0000 C   0  0  0  0  0  0           0  0  0
    4.4440  -19.7031    0.0000 C   0  0  0  0  0  0           0  0  0
    5.8695  -18.0554    0.0000 O   0  0  0  0  0  0           0  0  0
    6.5844  -18.4673    0.0000 C   0  0  0  0  0  0           0  0  0
    7.2951  -18.0554    0.0000 C   0  0  0  0  0  0           0  0  0
    1.0768  -17.5486    0.0000 C   0  0  0  0  0  0           0  0  0
    0.2556  -17.4597    0.0000 C   0  0  0  0  0  0           0  0  0
   -0.0773  -16.7064    0.0000 N   0  0  0  0  0  0           0  0  0
  1  2  1  0     0  0
  2  3  1  0     0  0
  3  4  1  0     0  0
  4  5  1  0     0  0
  1  5  1  0     0  0
  2  6  2  0     0  0
  4  7  2  0     0  0
  9 10  1  0     0  0
 10 11  2  0     0  0
 11 12  1  0     0  0
 12 13  2  0     0  0
 13 14  1  0     0  0
  9 14  2  0     0  0
 16 17  1  0     0  0
 15 16  1  0     0  0
 12 15  1  0     0  0
  8  9  1  0     0  0
  5  8  2  0     0  0
 18 19  1  0     0  0
 19 20  1  0     0  0
  3 18  1  0     0  0
M  END