
  SciTegic12011114592D

 36 40  0  0  0  0            999 V2000
    6.8663  -21.6622    0.0000 N   0  0
    7.5814  -21.2524    0.0000 C   0  0
    7.5843  -20.4266    0.0000 N   0  0
    6.8660  -20.0121    0.0000 C   0  0
    6.8655  -19.1871    0.0000 N   0  0
    7.5801  -18.7741    0.0000 C   0  0
    8.2945  -21.6674    0.0000 S   0  0
    9.0104  -21.2573    0.0000 C   0  0
    9.7192  -21.6754    0.0000 C   0  0
   10.4346  -21.2660    0.0000 C   0  0
   10.4379  -20.4401    0.0000 C   0  0
    9.7198  -20.0253    0.0000 C   0  0
    9.0073  -20.4371    0.0000 C   0  0
   11.1532  -20.0291    0.0000 N   0  0
    8.3658  -19.0222    0.0000 C   0  0
    8.8449  -18.3506    0.0000 C   0  0
    8.3542  -17.6874    0.0000 N   0  0
    7.5718  -17.9491    0.0000 N   0  0
    9.6699  -18.3434    0.0000 C   0  0
    5.3795  -20.1730    0.0000 C   0  0
    4.8984  -20.8341    0.0000 C   0  0
    5.3786  -21.4959    0.0000 C   0  0
    6.1564  -21.2438    0.0000 N   0  0
    6.1570  -20.4261    0.0000 C   0  0
   11.8668  -20.4431    0.0000 C   0  0
   12.5821  -20.0321    0.0000 C   0  0
   13.2957  -20.4465    0.0000 N   0  0
   11.8651  -21.2681    0.0000 O   0  0
   13.2871  -21.2670    0.0000 C   0  0
   14.0689  -21.5304    0.0000 C   0  0
   14.5610  -20.8682    0.0000 C   0  0
   14.0833  -20.1956    0.0000 C   0  0  1  0  0  0
   14.3447  -19.4131    0.0000 C   0  0
   15.1530  -19.2483    0.0000 O   0  0
   13.8500  -22.3250    0.0000 F   0  0
   14.6500  -22.1125    0.0000 F   0  0
  7  8  1  0
  6 15  1  0
 16 17  1  0
 18  6  2  0
  3  4  2  0
 16 19  1  0
 23 24  1  0
  8  9  2  0
  4 24  1  0
 21 22  2  0
  9 10  1  0
  1  2  2  0
 10 11  2  0
 20 21  1  0
 22 23  1  0
 24 20  2  0
  4  5  1  0
 14 25  1  0
 11 12  1  0
 25 26  1  0
 23  1  1  0
 26 27  1  0
 12 13  2  0
 25 28  2  0
 27 29  1  0
 13  8  1  0
  5  6  1  0
 11 14  1  0
 17 18  1  0
 29 30  1  0
 30 31  1  0
 31 32  1  0
 32 27  1  0
  2  3  1  0
 32 33  1  6
 15 16  2  0
 33 34  1  0
  2  7  1  0
 30 35  1  0
 30 36  1  0
M  END