
  SciTegic04091416292D

 25 27  0  0  0  0            999 V2000
   27.0540   -4.4781    0.0000 N   0  0
   27.8711   -4.4781    0.0000 C   0  0  1  0  0  0
   28.1255   -3.7014    0.0000 C   0  0
   27.4625   -3.2192    0.0000 C   0  0  2  0  0  0
   26.8038   -3.7014    0.0000 C   0  0
   26.6282   -5.1752    0.0000 C   0  0
   25.8112   -5.1553    0.0000 C   0  0
   27.0193   -5.8927    0.0000 O   0  0
   27.4613   -2.4020    0.0000 O   0  0
   28.2762   -5.1882    0.0000 C   0  0
   27.8641   -5.8939    0.0000 O   0  0
   29.0934   -5.1923    0.0000 N   0  0
   29.5055   -4.4866    0.0000 C   0  0
   30.3227   -4.4906    0.0000 C   0  0
   30.7253   -5.2001    0.0000 C   0  0
   31.5418   -5.2045    0.0000 C   0  0
   31.9547   -4.4982    0.0000 C   0  0
   31.5452   -3.7862    0.0000 C   0  0
   30.7301   -3.7853    0.0000 C   0  0
   32.7718   -4.5012    0.0000 C   0  0
   33.2509   -5.1609    0.0000 S   0  0
   34.0290   -4.9112    0.0000 C   0  0
   34.0320   -4.0939    0.0000 N   0  0
   33.2557   -3.8387    0.0000 C   0  0
   33.0055   -3.0608    0.0000 C   0  0
  1  2  1  0
  2  3  1  0
  3  4  1  0
  4  5  1  0
  5  1  1  0
  1  6  1  0
  6  7  1  0
  6  8  2  0
  4  9  1  6
  2 10  1  1
 10 11  2  0
 10 12  1  0
 12 13  1  0
 13 14  1  0
 14 15  2  0
 15 16  1  0
 16 17  2  0
 17 18  1  0
 18 19  2  0
 19 14  1  0
 17 20  1  0
 20 21  1  0
 21 22  1  0
 22 23  2  0
 23 24  1  0
 24 20  2  0
 24 25  1  0
M  END