
          11280715362D 1   1.00000     0.00000     0

 31 33  0     0  0            999 V2000
    5.9667   -1.9167    0.0000 S   0  0  3  0  0  0           0  0  0
    2.3917   -4.0000    0.0000 C   0  0  0  0  0  0           0  0  0
    2.3917   -3.1750    0.0000 C   0  0  0  0  0  0           0  0  0
    5.9667   -1.0917    0.0000 O   0  0  0  0  0  0           0  0  0
    5.9667   -2.7417    0.0000 O   0  0  0  0  0  0           0  0  0
    6.7917   -1.9167    0.0000 C   0  0  0  0  0  0           0  0  0
    5.2542   -1.5125    0.0000 N   0  0  0  0  0  0           0  0  0
    5.2542   -4.0000    0.0000 C   0  0  0  0  0  0           0  0  0
    3.1125   -2.7625    0.0000 C   0  0  0  0  0  0           0  0  0
    3.1125   -4.4125    0.0000 C   0  0  0  0  0  0           0  0  0
    1.6792   -4.4125    0.0000 C   0  0  0  0  0  0           0  0  0
    0.9750   -5.6417    0.0000 N   0  0  0  0  0  0           0  0  0
    5.2542   -3.1750    0.0000 O   0  0  0  0  0  0           0  0  0
    5.9667   -4.4125    0.0000 O   0  0  0  0  0  0           0  0  0
    3.1125   -1.9292    0.0000 C   0  0  0  0  0  0           0  0  0
    3.8250   -4.0000    0.0000 C   0  0  0  0  0  0           0  0  0
    4.5417   -1.9250    0.0000 C   0  0  0  0  0  0           0  0  0
    1.6875   -5.2292    0.0000 C   0  0  0  0  0  0           0  0  0
    1.6792   -2.7625    0.0000 C   0  0  0  0  0  0           0  0  0
    4.5417   -4.4125    0.0000 C   0  0  0  0  0  0           0  0  0
    1.6792   -1.9375    0.0000 C   0  0  0  0  0  0           0  0  0
    0.2542   -5.2292    0.0000 C   0  0  0  0  0  0           0  0  0
    7.2042   -2.6292    0.0000 C   0  0  0  0  0  0           0  0  0
    7.2000   -1.2042    0.0000 C   0  0  0  0  0  0           0  0  0
    3.8250   -1.5167    0.0000 C   0  0  0  0  0  0           0  0  0
    0.9667   -3.9917    0.0000 C   0  0  0  0  0  0           0  0  0
    2.3917   -1.5167    0.0000 C   0  0  0  0  0  0           0  0  0
    0.2542   -4.4042    0.0000 C   0  0  0  0  0  0           0  0  0
    8.0167   -1.2000    0.0000 C   0  0  0  0  0  0           0  0  0
    8.0292   -2.6292    0.0000 C   0  0  0  0  0  0           0  0  0
    8.4417   -1.9167    0.0000 C   0  0  0  0  0  0           0  0  0
  2  3  1  0     0  0
  3  9  2  0     0  0
  4  1  2  0     0  0
  5  1  2  0     0  0
  6  1  1  0     0  0
  7  1  1  0     0  0
  8 20  1  0     0  0
  9 15  1  0     0  0
 10  2  2  0     0  0
 11  2  1  0     0  0
 12 18  2  0     0  0
 13  8  2  0     0  0
 14  8  1  0     0  0
 15 25  1  0     0  0
 10 16  1  0     0  0
 17  7  1  0     0  0
 18 11  1  0     0  0
 19 21  2  0     0  0
 20 16  1  0     0  0
 21 27  1  0     0  0
 22 28  2  0     0  0
 23  6  2  0     0  0
 24  6  1  0     0  0
 25 17  1  0     0  0
 26 11  2  0     0  0
 27 15  2  0     0  0
 28 26  1  0     0  0
 29 24  2  0     0  0
 30 23  1  0     0  0
 31 29  1  0     0  0
 31 30  2  0     0  0
  3 19  1  0     0  0
 22 12  1  0     0  0
M  END