
  SciTegic04191614212D

 33 36  0  0  0  0            999 V2000
   -2.3155    0.7475    0.0000 C   0  0
   -2.3155   -0.7475    0.0000 C   0  0
   -1.0028   -1.5132    0.0000 C   0  0
   -1.0028    1.5132    0.0000 C   0  0
    0.2917    0.7475    0.0000 C   0  0
    0.2917   -0.7475    0.0000 C   0  0
    1.7138   -1.2033    0.0000 N   0  0
    2.5889    0.0182    0.0000 C   0  0
    1.7138    1.2033    0.0000 C   0  0
    3.7889    0.0269    0.0000 O   0  0
    2.1812    2.6271    0.0000 C   0  0
    3.6500    2.9355    0.0000 C   0  0
    4.1182    4.3614    0.0000 C   0  0
    5.5870    4.6698    0.0000 C   0  0
    6.0571    6.0943    0.0000 C   0  0
    7.5257    6.3996    0.0000 C   0  0
    8.5244    5.2803    0.0000 C   0  0
    8.0544    3.8559    0.0000 C   0  0
    6.5858    3.5506    0.0000 C   0  0
    9.9944    5.5827    0.0000 N   0  3
   10.7921    4.6862    0.0000 O   0  0
   10.3724    6.7216    0.0000 O   0  5
    2.1855   -2.6254    0.0000 C   0  0
    4.1295   -4.3524    0.0000 C   0  0
    3.6552   -2.9294    0.0000 C   0  0
    4.6506   -1.8071    0.0000 C   0  0
    6.1201   -2.1080    0.0000 C   0  0
    6.5944   -3.5310    0.0000 C   0  0
    5.5991   -4.6533    0.0000 C   0  0
    8.0641   -3.8351    0.0000 O   0  0
    8.5365   -5.2596    0.0000 C   0  0
   10.0063   -5.5636    0.0000 C   0  0
   10.3840   -6.7026    0.0000 F   0  0
  1  2  2  0
  2  3  1  0
  3  6  2  0
  5  4  2  0
  4  1  1  0
  5  6  1  0
  6  7  1  0
  7  8  1  0
  8  9  1  0
  9  5  1  0
  8 10  2  0
  9 11  2  0
 11 12  1  0
 12 13  2  0
 13 14  1  0
 14 15  2  0
 15 16  1  0
 16 17  2  0
 17 18  1  0
 18 19  2  0
 19 14  1  0
 20 21  2  0
 20 22  1  0
 17 20  1  0
 25 23  1  0
 29 24  1  0
 24 25  2  0
 25 26  1  0
 26 27  2  0
 27 28  1  0
 28 29  2  0
  7 23  1  0
 28 30  1  0
 30 31  1  0
 31 32  1  0
 32 33  1  0
M  CHG  2  20   1  22  -1
M  ISO  1  33  18
M  END