
  SciTegic01091216402D

 30 34  0  0  0  0            999 V2000
    2.3319  -22.7708    0.0000 N   0  0
    2.3307  -23.5982    0.0000 C   0  0
    3.0456  -24.0110    0.0000 N   0  0
    3.0438  -22.3580    0.0000 C   0  0
    3.7591  -22.7672    0.0000 C   0  0
    3.7594  -23.5982    0.0000 C   0  0
    4.5499  -23.8548    0.0000 N   0  0
    5.0382  -23.1823    0.0000 C   0  0
    4.5494  -22.5102    0.0000 N   0  0
    1.6159  -24.0101    0.0000 C   0  0
    3.0413  -21.5330    0.0000 N   0  0
    2.3256  -21.1227    0.0000 C   0  0
    2.3231  -20.2977    0.0000 C   0  0
    1.6124  -21.5373    0.0000 C   0  0
    2.7347  -19.5894    0.0000 C   0  0
    1.9088  -19.5878    0.0000 C   0  0
    0.7872  -21.5395    0.0000 C   0  0
    1.2018  -22.2528    0.0000 C   0  0
    4.9741  -24.5615    0.0000 C   0  0
    4.5706  -25.2802    0.0000 C   0  0
    4.9941  -25.9873    0.0000 C   0  0
    5.8199  -25.9742    0.0000 C   0  0
    6.2203  -25.2480    0.0000 C   0  0
    5.7945  -24.5439    0.0000 C   0  0
    5.8632  -23.1820    0.0000 C   0  0
    6.2450  -26.6812    0.0000 O   0  0
    6.1920  -23.8209    0.0000 Cl  0  0
    5.8453  -27.4029    0.0000 C   0  0
    6.2704  -28.1099    0.0000 F   0  0
    5.0204  -27.4176    0.0000 F   0  0
 15 13  1  0
 16 15  1  0
 13 16  1  0
  1  2  2  0
  5  4  2  0
 17 14  1  0
 18 17  1  0
 14 18  1  0
  6  7  1  0
  7  8  1  0
  8  9  2  0
  7 19  1  0
  9  5  1  0
 19 20  2  0
  4  1  1  0
 20 21  1  0
  2 10  1  0
 21 22  2  0
  5  6  1  0
 22 23  1  0
  4 11  1  0
 23 24  2  0
 24 19  1  0
  8 25  1  0
 11 12  1  0
 22 26  1  0
  2  3  1  0
 24 27  1  0
 12 13  1  0
 26 28  1  0
  3  6  2  0
 28 29  1  0
 12 14  1  0
 28 30  1  0
M  END