
  SciTegic12231509382D

 27 29  0  0  0  0            999 V2000
   -1.2964    1.4973    0.0000 C   0  0
   -2.6111    0.7486    0.0000 N   0  0
   -2.6111   -0.7486    0.0000 C   0  0
   -1.2964   -1.4973    0.0000 C   0  0
    0.0000   -0.7486    0.0000 C   0  0
    1.2964   -1.4973    0.0000 C   0  0
    2.5929   -0.7486    0.0000 C   0  0
    2.5929    0.7486    0.0000 C   0  0
    1.2964    1.4973    0.0000 C   0  0
    0.0000    0.7486    0.0000 C   0  0
    1.2964   -2.9981    0.0000 S   0  0
    2.3358   -3.5978    0.0000 O   0  0
    1.2970   -4.1981    0.0000 O   0  0
   -0.0028   -3.7494    0.0000 N   0  0
   -0.0028   -5.2502    0.0000 C   0  0
   -1.3021   -6.0014    0.0000 C   0  0
   -1.3021   -7.5023    0.0000 N   0  0
   -2.6014   -8.2535    0.0000 C   0  0
   -2.6014   -9.7543    0.0000 C   0  0
   -3.9007  -10.5056    0.0000 C   0  0
   -3.9007  -12.0064    0.0000 C   0  0
   -5.1982  -12.7591    0.0000 C   0  0
   -5.1951  -14.2591    0.0000 C   0  0
   -3.8946  -15.0065    0.0000 C   0  0
   -2.5970  -14.2538    0.0000 C   0  0
   -2.6001  -12.7538    0.0000 C   0  0
   -3.8921  -16.2065    0.0000 Br  0  0
  1  2  2  0
  2  3  1  0
  3  4  2  0
  4  5  1  0
  5  6  1  0
  6  7  2  0
  7  8  1  0
  8  9  2  0
  9 10  1  0
  1 10  1  0
  5 10  2  0
 11 12  2  0
 11 13  2  0
 11 14  1  0
  6 11  1  0
 15 16  1  0
 18 19  1  0
 19 20  2  0
 20 21  1  0
 21 22  1  0
 22 23  2  0
 23 24  1  0
 24 25  2  0
 25 26  1  0
 21 26  2  0
 24 27  1  0
 17 18  1  0
 16 17  1  0
 14 15  1  0
M  END