
  SciTegic06231415592D

 44 44  0  0  0  0            999 V2000
    1.2990   -0.7500    0.0000 N   0  0
   -1.2990    0.7500    0.0000 N   0  0
   -1.2990   -0.7500    0.0000 C   0  0
    1.2990    0.7500    0.0000 C   0  0
    0.0000    1.5000    0.0000 C   0  0
    0.0000   -1.5000    0.0000 C   0  0
   -3.9149    9.7490    0.0000 C   0  0
    3.9148   -9.7490    0.0000 C   0  0
    3.9117   -8.2481    0.0000 C   0  0
   -3.9118    8.2481    0.0000 C   0  0
   -5.2139   10.4990    0.0000 C   0  0
   -2.6158   10.4991    0.0000 C   0  0
    5.2139  -10.4990    0.0000 C   0  0
    2.6158  -10.4991    0.0000 C   0  0
   -2.6078    5.9988    0.0000 C   0  0
    2.6078   -5.9988    0.0000 C   0  0
   -2.6109    7.4996    0.0000 C   0  0
    2.6109   -7.4996    0.0000 C   0  0
   -5.2139   11.9990    0.0000 C   0  0
    5.2139  -11.9990    0.0000 C   0  0
    2.6158  -11.9991    0.0000 C   0  0
   -2.6159   11.9991    0.0000 C   0  0
   -2.3383   -1.3500    0.0000 O   0  0
   -3.9149   12.7491    0.0000 C   0  0
    3.9149  -12.7491    0.0000 C   0  0
    3.6460   -5.3970    0.0000 O   0  0
   -3.6460    5.3969    0.0000 O   0  0
   -1.3070    5.2502    0.0000 N   0  0
    1.3070   -5.2502    0.0000 N   0  0
   -0.0031    3.0008    0.0000 C   0  0
    0.0031   -3.0008    0.0000 C   0  0
   -1.5728    8.1014    0.0000 N   0  0
    1.5727   -8.1014    0.0000 N   0  0
   -1.3039    3.7494    0.0000 C   0  0
    1.3039   -3.7494    0.0000 C   0  0
   -3.9150   13.9491    0.0000 O   0  0
    3.9149  -13.9491    0.0000 O   0  0
   11.5136    0.0000    0.0000 Cl  0  0
    2.3383    1.3500    0.0000 C   0  0
    6.2531   -9.8990    0.0000 C   0  0
    1.5765   -9.8991    0.0000 C   0  0
   -6.2531    9.8990    0.0000 C   0  0
   -1.5766    9.8991    0.0000 C   0  0
    9.0136    0.0000    0.0000 Cl  0  0
  2  3  1  0
  1  4  2  0
  2  5  2  0
  4  5  1  0
  1  6  1  0
  3  6  2  0
  8  9  1  0
  7 10  1  0
  7 11  1  0
  7 12  2  0
  8 13  2  0
  8 14  1  0
 10 17  1  0
 15 17  1  0
  9 18  1  0
 16 18  1  0
 11 19  2  0
 13 20  1  0
 14 21  2  0
 12 22  1  0
  3 23  1  0
 19 24  1  0
 22 24  2  0
 20 25  2  0
 21 25  1  0
 16 26  2  0
 15 27  2  0
 15 28  1  0
 16 29  1  0
  5 30  1  0
  6 31  1  0
 17 32  1  0
 18 33  1  0
 28 34  1  0
 30 34  1  0
 29 35  1  0
 31 35  1  0
 24 36  1  0
 25 37  1  0
  4 39  1  0
 13 40  1  0
 14 41  1  0
 11 42  1  0
 12 43  1  0
M  END