
  SciTegic02271217242D

 40 43  0  0  0  0            999 V2000
   13.2652  -18.6708    0.0000 C   0  0
   13.2641  -19.4982    0.0000 C   0  0
   13.9789  -19.9110    0.0000 C   0  0
   14.6953  -19.4977    0.0000 C   0  0
   14.6925  -18.6672    0.0000 C   0  0
   13.9771  -18.2580    0.0000 C   0  0
   15.4054  -18.2520    0.0000 O   0  0
   16.1214  -18.6618    0.0000 C   0  0
   16.1212  -19.4844    0.0000 C   0  0
   16.8363  -19.8942    0.0000 C   0  0
   17.5502  -19.4789    0.0000 C   0  0
   17.5445  -18.6497    0.0000 C   0  0
   16.8287  -18.2437    0.0000 C   0  0
   18.2668  -19.8878    0.0000 Cl  0  0
   16.8213  -17.4187    0.0000 N   0  0
   17.5321  -16.9998    0.0000 S   0  0
   18.2502  -17.4059    0.0000 C   0  0
   17.1125  -16.2792    0.0000 O   0  0
   17.9375  -16.2792    0.0000 O   0  0
   18.2546  -18.2302    0.0000 C   0  0
   18.9719  -18.6363    0.0000 C   0  0
   19.6836  -18.2173    0.0000 C   0  0
   19.6736  -17.3881    0.0000 C   0  0
   18.9557  -16.9858    0.0000 C   0  0
   20.4023  -18.6224    0.0000 Cl  0  0
   12.5493  -19.9101    0.0000 C   0  0
   11.8351  -19.4970    0.0000 N   0  0
   12.5486  -20.7351    0.0000 O   0  0
   11.8358  -18.6720    0.0000 C   0  0
   11.1216  -18.2590    0.0000 C   0  0
   10.4068  -18.6709    0.0000 N   0  0
    9.6905  -18.2508    0.0000 C   0  0
    8.9778  -18.6593    0.0000 C   0  0
    8.9729  -19.4846    0.0000 C   0  0
    9.6869  -19.8999    0.0000 C   0  0
   10.4058  -19.4898    0.0000 C   0  0
   20.3828  -16.9667    0.0000 C   0  0
   21.1024  -17.3703    0.0000 F   0  0
   20.3725  -16.1418    0.0000 F   0  0
   21.0917  -16.5500    0.0000 F   0  0
  4  5  1  0
 17 20  2  0
  9 10  1  0
 20 21  1  0
  2  3  1  0
 21 22  2  0
 10 11  2  0
 22 23  1  0
  5  6  2  0
 23 24  2  0
 24 17  1  0
 11 12  1  0
 22 25  1  0
  6  1  1  0
  2 26  1  0
 12 13  2  0
 26 27  1  0
 13  8  1  0
 26 28  2  0
  1  2  2  0
 27 29  1  0
 11 14  1  0
 29 30  1  0
  5  7  1  0
 30 31  1  0
 31 32  1  0
 13 15  1  0
  3  4  2  0
 15 16  1  0
  7  8  1  0
 16 17  1  0
 31 36  1  0
 32 33  1  0
 33 34  1  0
 34 35  1  0
 35 36  1  0
 23 37  1  0
 16 18  2  0
 37 38  1  0
  8  9  2  0
 37 39  1  0
 16 19  2  0
 37 40  1  0
M  END