
          03140815512D 1   1.00000     0.00000     0

 27 29  0     0  0            999 V2000
   12.4277    0.6334    0.0000 C   0  0  0  0  0  0           0  0  0
   12.4266   -0.1940    0.0000 C   0  0  0  0  0  0           0  0  0
   13.1414   -0.6069    0.0000 C   0  0  0  0  0  0           0  0  0
   13.8578   -0.1935    0.0000 C   0  0  0  0  0  0           0  0  0
   13.8550    0.6370    0.0000 C   0  0  0  0  0  0           0  0  0
   13.1396    1.0461    0.0000 C   0  0  0  0  0  0           0  0  0
   14.5679    1.0522    0.0000 O   0  0  0  0  0  0           0  0  0
   14.5648    1.8772    0.0000 C   0  0  0  0  0  0           0  0  0
   15.2795    2.2876    0.0000 C   0  0  0  0  0  0           0  0  0
   15.2767    3.1118    0.0000 C   0  0  0  0  0  0           0  0  0
   14.5601    3.5224    0.0000 C   0  0  0  0  0  0           0  0  0
   13.8449    3.1028    0.0000 C   0  0  0  0  0  0           0  0  0
   13.8512    2.2799    0.0000 C   0  0  0  0  0  0           0  0  0
   14.5730   -0.6049    0.0000 C   0  0  0  0  0  0           0  0  0
   14.5742   -1.4299    0.0000 N   0  0  0  0  0  0           0  0  0
   15.2894   -1.8413    0.0000 C   0  0  0  0  0  0           0  0  0
   11.7118   -0.6059    0.0000 C   0  0  0  0  0  0           0  0  0
   10.9917   -1.0125    0.0000 C   0  0  0  0  0  0           0  0  0
   10.2750   -1.4208    0.0000 C   0  0  0  0  0  0           0  0  0
    9.5629   -1.0043    0.0000 C   0  0  0  0  0  0           0  0  0
    8.8461   -1.4127    0.0000 N   0  0  3  0  0  0           0  0  0
    8.1321   -0.9977    0.0000 C   0  0  0  0  0  0           0  0  0
    7.4175   -1.4026    0.0000 C   0  0  0  0  0  0           0  0  0
    7.4085   -2.2279    0.0000 O   0  0  0  0  0  0           0  0  0
    8.1204   -2.6467    0.0000 C   0  0  0  0  0  0           0  0  0
    8.8414   -2.2402    0.0000 C   0  0  0  0  0  0           0  0  0
   15.9898    3.5266    0.0000 Cl  0  0  0  0  0  0           0  0  0
 13  8  1  0     0  0
  1  2  2  0     0  0
  4 14  1  0     0  0
  5  7  1  0     0  0
 14 15  1  0     0  0
  3  4  2  0     0  0
 15 16  1  0     0  0
  7  8  1  0     0  0
  2 17  1  0     0  0
 17 18  3  0     0  0
  8  9  2  0     0  0
 18 19  1  0     0  0
  4  5  1  0     0  0
 19 20  1  0     0  0
  9 10  1  0     0  0
 20 21  1  0     0  0
 21 22  1  0     0  0
  2  3  1  0     0  0
 10 11  2  0     0  0
  5  6  2  0     0  0
 11 12  1  0     0  0
  6  1  1  0     0  0
 21 26  1  0     0  0
 22 23  1  0     0  0
 23 24  1  0     0  0
 24 25  1  0     0  0
 25 26  1  0     0  0
 12 13  2  0     0  0
 10 27  1  0     0  0
M  END