
  SciTegic05071317032D

 26 24  0  0  0  0            999 V2000
   23.3465  -10.5454    0.0000 N   0  0
   24.0624  -10.9583    0.0000 C   0  0
   24.7732  -10.5466    0.0000 C   0  0
   24.7743   -9.7213    0.0000 N   0  0
   24.0585   -9.3093    0.0000 C   0  0
   23.3415   -9.7226    0.0000 C   0  0
   25.4888   -9.3088    0.0000 C   0  0
   26.2033   -9.7213    0.0000 C   0  0
   26.9178   -9.3088    0.0000 N   0  0
   15.4943  -10.9832    0.0000 C   0  0
   15.4932  -11.8107    0.0000 C   0  0
   16.2080  -12.2235    0.0000 C   0  0
   16.9245  -11.8102    0.0000 C   0  0
   16.9216  -10.9796    0.0000 C   0  0
   16.2063  -10.5705    0.0000 C   0  0
   17.6345  -10.5645    0.0000 O   0  0
   18.3506  -10.9743    0.0000 C   0  0
   19.0634  -10.5590    0.0000 C   0  0
   19.7795  -10.9689    0.0000 C   0  0
   20.4924  -10.5537    0.0000 C   0  0
   21.2084  -10.9635    0.0000 C   0  0
   21.9214  -10.5483    0.0000 C   0  0
   22.6373  -10.9581    0.0000 C   0  0
   23.1481  -12.5890    0.0000 Cl  0  0
   25.1036  -12.1688    0.0000 Cl  0  0
   24.8089  -13.1411    0.0000 Cl  0  0
  1  2  1  0
  1  6  1  0
  2  3  1  0
  3  4  1  0
  4  5  1  0
  5  6  1  0
  4  7  1  0
  7  8  1  0
  8  9  1  0
 10 11  2  0
 11 12  1  0
 12 13  2  0
 13 14  1  0
 14 15  2  0
 15 10  1  0
 14 16  1  0
 16 17  1  0
 17 18  1  0
 18 19  1  0
 19 20  1  0
 20 21  1  0
 21 22  1  0
 22 23  1  0
 23  1  1  0
M  END