
  SciTegic04301217482D

 36 40  0  0  0  0            999 V2000
    1.3235   -8.6871    0.0000 N   0  0
    1.0763   -9.4517    0.0000 C   0  0  1  0  0  0
    2.0462   -8.4394    0.0000 C   0  0
    0.8234   -7.9746    0.0000 C   0  0
    1.5257  -10.0897    0.0000 C   0  0  1  0  0  0
    0.2789   -9.6964    0.0000 O   0  0
    2.0404   -7.5308    0.0000 C   0  0
    2.7679   -8.8647    0.0000 N   0  0
    1.3321   -7.2885    0.0000 N   0  0
    1.0466  -10.7492    0.0000 C   0  0  1  0  0  0
    0.2738  -10.4973    0.0000 C   0  0  1  0  0  0
    2.7387   -7.1234    0.0000 C   0  0
    3.5119   -8.4395    0.0000 C   0  0
   -0.4260  -10.8941    0.0000 C   0  0
    3.5070   -7.5633    0.0000 N   0  0
    2.7322   -6.3128    0.0000 N   0  0
    2.3061  -10.0953    0.0000 O   0  0
    1.3012  -11.5340    0.0000 O   0  0
   -1.1373  -10.4760    0.0000 N   0  0
   -0.4324  -11.7191    0.0000 O   0  0
   -1.8550  -10.8830    0.0000 C   0  0
   -2.6808  -10.8798    0.0000 C   0  0
   -2.2739  -11.5974    0.0000 C   0  0
    4.2267   -8.8516    0.0000 C   0  0
    4.9379   -9.2632    0.0000 C   0  0
    5.6504   -9.6758    0.0000 C   0  0
    6.3655   -9.2641    0.0000 C   0  0
    7.0772   -9.6816    0.0000 C   0  0
    7.7900   -9.2733    0.0000 C   0  0
    7.7953   -8.4480    0.0000 N   0  0
    7.0815   -8.0323    0.0000 C   0  0
    6.3623   -8.4422    0.0000 C   0  0
    8.5119   -8.0390    0.0000 C   0  0
    9.2243   -8.4551    0.0000 O   0  0
    8.5160   -7.2140    0.0000 O   0  0
    9.9409   -8.0461    0.0000 C   0  0
  5 17  1  6
  2  1  1  1
 10 18  1  6
  1  3  1  0
 14 19  1  0
  1  4  1  0
 14 20  2  0
  5  2  1  0
 19 21  1  0
 22 21  1  0
 23 22  1  0
 21 23  1  0
  2  6  1  0
  3  7  2  0
  3  8  1  0
 13 24  1  0
  4  9  2  0
 24 25  3  0
  5 10  1  0
 25 26  1  0
  6 11  1  0
 26 27  1  0
 27 28  1  0
  7 12  1  0
  8 13  2  0
 11 14  1  1
 12 15  2  0
 12 16  1  0
 27 32  1  0
 28 29  1  0
 29 30  1  0
 30 31  1  0
 31 32  1  0
  7  9  1  0
 30 33  1  0
 10 11  1  0
 33 34  1  0
 13 15  1  0
 33 35  2  0
 34 36  1  0
M  END