
  SciTegic01161211252D

 24 22  0  0  0  0            999 V2000
    3.3125   -0.2792    0.0000 C   0  0
    3.3042   -1.9292    0.0000 C   0  0
    2.5917   -1.5167    0.0000 C   0  0
    2.6000   -0.6917    0.0000 C   0  0
    0.5375    0.7208    0.0000 N   0  0
    4.0167   -1.5250    0.0000 O   0  0
    4.0250   -0.6917    0.0000 O   0  0
    0.5125   -2.9625    0.0000 N   0  0
    3.3125    0.5458    0.0000 O   0  0
    3.3000   -2.7542    0.0000 O   0  0
    0.9250   -3.6792    0.0000 C   0  0
    0.5375   -0.1042    0.0000 O   0  0
   -0.1833    1.1333    0.0000 C   0  0
    0.5250   -1.5292    0.0000 C   0  0
    0.9292   -2.2500    0.0000 C   0  0
    0.9417   -0.8167    0.0000 C   0  0
   -0.3000   -1.5250    0.0000 O   0  0
    1.7500   -3.6875    0.0000 C   0  0
    0.5000   -4.3917    0.0000 C   0  0
    1.5000   -4.2667    0.0000 C   0  0
   -0.8958    0.7208    0.0000 C   0  0
   -0.1875    1.9583    0.0000 C   0  0
   -1.6125    1.1250    0.0000 C   0  0
   -2.3250    0.7083    0.0000 C   0  0
  2  3  1  0
  3  4  2  0
  4  1  1  0
  6  2  1  0
  7  1  1  0
  8 15  1  0
  9  1  2  0
 10  2  2  0
 11  8  1  0
 12  5  1  0
 13  5  2  0
 14 16  1  0
 15 14  1  0
 16 12  1  0
 17 14  1  0
 18 11  1  0
 19 11  1  0
 20 11  1  0
 21 13  1  0
 22 13  1  0
 23 21  1  0
 24 23  1  0
M  END