
  SciTegic05061409512D

 42 45  0  0  0  0            999 V2000
    5.9061   -6.4963    0.0000 C   0  0  1  0  0  0
    5.9061   -7.3134    0.0000 C   0  0
    6.6113   -6.0835    0.0000 C   0  0
    7.3166   -6.4963    0.0000 C   0  0  1  0  0  0
    8.0152   -7.7228    0.0000 C   0  0  1  0  0  0
    8.7252   -7.3194    0.0000 C   0  0
    8.7287   -6.5023    0.0000 C   0  0  2  0  0  0
    8.0222   -6.0884    0.0000 C   0  0  1  0  0  0
    7.3093   -5.6791    0.0000 H   0  0
    8.0245   -5.2712    0.0000 C   0  0
    9.4386   -6.0974    0.0000 C   0  0
    7.3132   -7.3134    0.0000 C   0  0  1  0  0  0
    6.6109   -7.7181    0.0000 C   0  0
    6.7788   -8.5111    0.0000 C   0  0  2  0  0  0
    7.5848   -8.5965    0.0000 O   0  0
    7.8655   -7.9512    0.0000 C   0  0  1  0  0  0
    8.7208   -8.1306    0.0000 O   0  0
    8.3164   -8.5599    0.0000 O   0  0
    6.2314   -9.1179    0.0000 O   0  0
    5.4322   -8.9473    0.0000 C   0  0
    4.8849   -9.5542    0.0000 C   0  0
    5.1804   -8.1699    0.0000 O   0  0
    7.9041   -9.2655    0.0000 C   0  0
    8.3091   -9.9753    0.0000 C   0  0
    7.0869   -9.2612    0.0000 O   0  0
    8.7334   -4.8646    0.0000 C   0  0
    8.7357   -4.0475    0.0000 C   0  0
    9.4446   -3.6409    0.0000 C   0  0
    9.4469   -2.8237    0.0000 C   0  0
    8.0292   -3.6368    0.0000 C   0  0
    5.1972   -6.0897    0.0000 O   0  0
    9.4288   -7.7224    0.0000 C   0  0
   10.1363   -8.1314    0.0000 C   0  0
    9.4292   -6.9052    0.0000 O   0  0
   10.8442   -7.7232    0.0000 C   0  0
   11.5517   -8.1321    0.0000 C   0  0
   11.5489   -8.9489    0.0000 C   0  0
   12.2556   -9.3578    0.0000 C   0  0
   12.9645   -8.9495    0.0000 C   0  0
   12.9623   -8.1281    0.0000 C   0  0
   12.2551   -7.7229    0.0000 C   0  0
    8.5970   -5.5057    0.0000 C   0  0
  1  2  1  0
  1  3  1  0
  2 13  2  0
  4  3  1  0
  4 12  1  0
  4  8  1  0
 12  5  1  0
  5  6  1  0
  6  7  1  0
  7  8  1  0
  4  9  1  6
  8 10  1  0
  7 11  1  6
 12 13  1  1
 13 14  1  0
 14 15  1  0
 15 16  1  0
 12 16  1  0
  5 17  1  6
 16 18  1  6
 14 19  1  6
 19 20  1  0
 20 21  1  0
 20 22  2  0
 18 23  1  0
 23 24  1  0
 23 25  2  0
 10 26  1  0
 26 27  1  0
 27 28  1  0
 28 29  2  0
 27 30  2  0
  1 31  1  6
 17 32  1  0
 32 33  1  0
 32 34  2  0
 33 35  2  0
 35 36  1  0
 36 37  2  0
 37 38  1  0
 38 39  2  0
 39 40  1  0
 40 41  2  0
 41 36  1  0
  8 42  1  1
M  END