
          11280715492D 1   1.00000     0.00000     0

 24 27  0     1  0            999 V2000
    0.2328    1.8205    0.0000 C   0  0  0  0  0  0           0  0  0
   -0.4981    2.1574    0.0000 N   0  0  3  0  0  0           0  0  0
    0.0848    2.5642    0.0000 C   0  0  0  0  0  0           0  0  0
   -1.3179    1.8057    0.0000 C   0  0  0  0  0  0           0  0  0
   -0.3615    3.1707    0.0000 C   0  0  0  0  0  0           0  0  0
   -0.6372    2.8882    0.0000 C   0  0  3  0  0  0           0  0  0
   -1.4213    2.5426    0.0000 C   0  0  2  0  0  0           0  0  0
   -0.5996    3.7623    0.0000 C   0  0  0  0  0  0           0  0  0
   -1.6414    3.3410    0.0000 O   0  0  0  0  0  0           0  0  0
   -2.4378    3.5482    0.0000 C   0  0  0  0  0  0           0  0  0
   -2.2232    2.3312    0.0000 C   0  0  0  0  0  0           0  0  0
   -3.0211    2.1193    0.0000 C   0  0  0  0  0  0           0  0  0
   -3.8190    1.9074    0.0000 C   0  0  3  0  0  0           0  0  0
   -4.6168    1.6955    0.0000 C   0  0  0  0  0  0           0  0  0
   -3.6077    1.1121    0.0000 C   0  0  0  0  0  0           0  0  0
   -4.0302    2.7026    0.0000 O   0  0  0  0  0  0           0  0  0
   -5.2538    2.2175    0.0000 S   0  0  0  0  0  0           0  0  0
   -5.9428    1.7679    0.0000 C   0  0  0  0  0  0           0  0  0
   -5.7227    0.9588    0.0000 C   0  0  0  0  0  0           0  0  0
   -4.9087    0.9237    0.0000 C   0  0  0  0  0  0           0  0  0
   -4.1250    0.4779    0.0000 S   0  0  0  0  0  0           0  0  0
   -3.6768   -0.2087    0.0000 C   0  0  0  0  0  0           0  0  0
   -2.8706    0.0105    0.0000 C   0  0  0  0  0  0           0  0  0
   -2.8356    0.8218    0.0000 C   0  0  0  0  0  0           0  0  0
  2  4  1  0     0  0
 11 12  3  0     0  0
  2  5  1  0     0  0
 12 13  1  0     0  0
  3  6  1  0     0  0
 13 14  1  0     0  0
  4  7  1  0     0  0
 13 15  1  0     0  0
  5  8  1  0     0  0
 13 16  1  0     0  0
  6  7  1  0     0  0
  6  8  1  0     0  0
  7  9  1  1     0  0
 17 18  1  0     0  0
 18 19  2  0     0  0
 19 20  1  0     0  0
 20 14  2  0     0  0
 14 17  1  0     0  0
  1  2  1  0     0  0
  9 10  1  0     0  0
  1  3  1  0     0  0
  7 11  1  0     0  0
 21 22  1  0     0  0
 22 23  2  0     0  0
 23 24  1  0     0  0
 24 15  2  0     0  0
 15 21  1  0     0  0
M  END