
  Mrv0541 04051115152D          

 26 30  0  0  0  0            999 V2000
   -2.4405   -0.4405    0.0000 C   0  0  0  0  0  0  0  0  0  0  0  0
   -1.8885   -1.0536    0.0000 C   0  0  0  0  0  0  0  0  0  0  0  0
    1.4335   -2.3341    0.0000 C   0  0  0  0  0  0  0  0  0  0  0  0
    0.6265   -2.1626    0.0000 N   0  0  0  0  0  0  0  0  0  0  0  0
   -1.0815   -0.8821    0.0000 C   0  0  0  0  0  0  0  0  0  0  0  0
   -0.7010   -2.3021    0.0000 C   0  0  0  0  0  0  0  0  0  0  0  0
   -0.5295   -1.4952    0.0000 C   0  0  0  0  0  0  0  0  0  0  0  0
    0.2910   -1.4089    0.0000 C   0  0  0  0  0  0  0  0  0  0  0  0
    0.0134   -2.7146    0.0000 N   0  0  0  0  0  0  0  0  0  0  0  0
   -0.8266   -0.0974    0.0000 N   0  0  0  0  0  0  0  0  0  0  0  0
   -1.3786    0.5157    0.0000 N   0  0  0  0  0  0  0  0  0  0  0  0
   -2.1856    0.3441    0.0000 C   0  0  0  0  0  0  0  0  0  0  0  0
   -1.2924    1.3361    0.0000 C   0  0  0  0  0  0  0  0  0  0  0  0
   -2.0461    1.6717    0.0000 N   0  0  0  0  0  0  0  0  0  0  0  0
   -2.5981    1.0586    0.0000 N   0  0  0  0  0  0  0  0  0  0  0  0
   -0.5779    1.7486    0.0000 S   0  0  0  0  0  0  0  0  0  0  0  0
    0.1366    1.3361    0.0000 C   0  0  0  0  0  0  0  0  0  0  0  0
    0.8510    1.7486    0.0000 C   0  0  0  0  0  0  0  0  0  0  0  0
    1.5655    1.3361    0.0000 C   0  0  0  0  0  0  0  0  0  0  0  0
    1.5655    0.5111    0.0000 C   0  0  0  0  0  0  0  0  0  0  0  0
    0.8510    0.0986    0.0000 C   0  0  0  0  0  0  0  0  0  0  0  0
    0.1366    0.5111    0.0000 C   0  0  0  0  0  0  0  0  0  0  0  0
    2.2800    1.7486    0.0000 C   0  0  0  0  0  0  0  0  0  0  0  0
    2.9944    1.3361    0.0000 C   0  0  0  0  0  0  0  0  0  0  0  0
    2.9944    0.5111    0.0000 C   0  0  0  0  0  0  0  0  0  0  0  0
    2.2800    0.0986    0.0000 N   0  0  0  0  0  0  0  0  0  0  0  0
  1 12  1  0  0  0  0
  2  1  2  0  0  0  0
  5  2  1  0  0  0  0
  3  4  1  0  0  0  0
  4  9  1  0  0  0  0
  8  4  1  0  0  0  0
  5 10  2  0  0  0  0
  7  5  1  0  0  0  0
  7  6  1  0  0  0  0
  6  9  2  0  0  0  0
  8  7  2  0  0  0  0
 11 10  1  0  0  0  0
 13 11  1  0  0  0  0
 12 11  1  0  0  0  0
 12 15  2  0  0  0  0
 13 16  1  0  0  0  0
 13 14  2  0  0  0  0
 15 14  1  0  0  0  0
 17 16  1  0  0  0  0
 17 22  2  0  0  0  0
 17 18  1  0  0  0  0
 19 18  2  0  0  0  0
 20 19  1  0  0  0  0
 23 19  1  0  0  0  0
 21 20  2  0  0  0  0
 20 26  1  0  0  0  0
 22 21  1  0  0  0  0
 24 23  2  0  0  0  0
 25 24  1  0  0  0  0
 25 26  2  0  0  0  0
M  END