
  SciTegic09261414532D

 47 54  0  0  0  0            999 V2000
    0.9891  -25.6878    0.0000 C   0  0
    0.9880  -26.5074    0.0000 C   0  0
    1.6960  -26.9163    0.0000 C   0  0
    1.6942  -25.2790    0.0000 C   0  0
    2.4028  -25.6842    0.0000 C   0  0
    2.4031  -26.5074    0.0000 C   0  0
    3.1861  -26.7616    0.0000 N   0  0
    3.6698  -26.0954    0.0000 C   0  0
    3.1857  -25.4297    0.0000 N   0  0
    3.4388  -27.5387    0.0000 C   0  0
    4.4837  -26.0937    0.0000 C   0  0
    4.8920  -26.8029    0.0000 C   0  0
    5.7084  -26.8030    0.0000 C   0  0
    6.1176  -26.0946    0.0000 C   0  0
    5.7043  -25.3847    0.0000 C   0  0
    4.8893  -25.3881    0.0000 C   0  0
    6.9348  -26.0932    0.0000 O   0  0
    7.3445  -26.8003    0.0000 C   0  0
    8.1617  -26.7989    0.0000 C   0  0
    8.5715  -27.5059    0.0000 N   0  0
    8.2403  -28.2480    0.0000 C   0  0
    8.8481  -28.7944    0.0000 N   0  0
    9.3838  -27.5856    0.0000 C   0  0
    9.5513  -28.3819    0.0000 C   0  0
   10.3233  -28.6334    0.0000 C   0  0
   10.9283  -28.0896    0.0000 C   0  0
   10.7562  -27.2911    0.0000 C   0  0
    9.9845  -27.0434    0.0000 C   0  0
    7.5340  -28.6551    0.0000 C   0  0
    6.8274  -28.2424    0.0000 C   0  0
    6.1188  -28.6480    0.0000 C   0  0
    6.1156  -29.4660    0.0000 C   0  0
    6.8269  -29.8769    0.0000 C   0  0
    7.5326  -29.4690    0.0000 C   0  0
    2.8922  -28.1461    0.0000 C   0  0
    2.0946  -27.9751    0.0000 C   0  0
    1.5482  -28.5817    0.0000 C   0  0
    1.8008  -29.3598    0.0000 C   0  0
    2.6049  -29.5278    0.0000 C   0  0
    3.1478  -28.9198    0.0000 C   0  0
    8.5691  -26.0905    0.0000 C   0  0
    9.3848  -26.0922    0.0000 C   0  0
    9.7921  -25.3879    0.0000 C   0  0
    9.3858  -24.6784    0.0000 N   0  0
    8.5677  -24.6779    0.0000 C   0  0
    8.1558  -25.3867    0.0000 C   0  0
    0.7489  -28.4116    0.0000 C   0  0
  1  2  2  0
  2  3  1  0
  3  6  2  0
  5  4  2  0
  4  1  1  0
  5  6  1  0
  6  7  1  0
  7  8  1  0
  8  9  2  0
  9  5  1  0
  7 10  1  0
 11 12  2  0
 12 13  1  0
 13 14  2  0
 14 15  1  0
 15 16  2  0
 16 11  1  0
  8 11  1  0
 14 17  1  0
 17 18  1  0
 18 19  1  0
 19 20  1  0
 20 21  1  0
 21 22  2  0
 22 24  1  0
 23 20  1  0
 23 24  2  0
 24 25  1  0
 25 26  2  0
 26 27  1  0
 27 28  2  0
 28 23  1  0
 29 30  2  0
 30 31  1  0
 31 32  2  0
 32 33  1  0
 33 34  2  0
 34 29  1  0
 21 29  1  0
 10 35  1  0
 35 36  2  0
 36 37  1  0
 37 38  2  0
 38 39  1  0
 39 40  2  0
 40 35  1  0
 19 41  1  0
 41 42  1  0
 41 46  1  0
 42 43  1  0
 43 44  1  0
 44 45  1  0
 45 46  1  0
 37 47  1  0
M  END