
          11280715172D 1   1.00000     0.00000     0

 43 47  0     0  0            999 V2000
   -1.2958    1.2083    0.0000 C   0  0  0  0  0  0           0  0  0
   -2.0500    0.8708    0.0000 N   0  0  3  0  0  0           0  0  0
   -2.6083    1.4833    0.0000 N   0  0  0  0  0  0           0  0  0
   -1.3875    2.0333    0.0000 C   0  0  0  0  0  0           0  0  0
   -2.1958    2.2083    0.0000 C   0  0  0  0  0  0           0  0  0
   -0.5833    0.7958    0.0000 N   0  0  0  0  0  0           0  0  0
    0.1292    1.2125    0.0000 C   0  0  0  0  0  0           0  0  0
   -2.2208    0.0708    0.0000 C   0  0  0  0  0  0           0  0  0
    1.5625    1.2208    0.0000 C   0  0  0  0  0  0           0  0  0
    0.8417    0.8000    0.0000 N   0  0  0  0  0  0           0  0  0
   -1.7708   -1.2917    0.0000 C   0  0  0  0  0  0           0  0  0
    2.2792    0.8083    0.0000 C   0  0  0  0  0  0           0  0  0
    2.9917    1.2208    0.0000 C   0  0  0  0  0  0           0  0  0
   -1.6083   -0.4792    0.0000 C   0  0  0  0  0  0           0  0  0
   -2.5333    2.9583    0.0000 C   0  0  3  0  0  0           0  0  0
    4.4167    4.5125    0.0000 N   0  0  3  0  0  0           0  0  0
    2.9875    2.0375    0.0000 C   0  0  0  0  0  0           0  0  0
   -1.1583   -1.8375    0.0000 C   0  0  0  0  0  0           0  0  0
    0.1292    2.0375    0.0000 O   0  0  0  0  0  0           0  0  0
   -2.5583   -1.5500    0.0000 C   0  0  0  0  0  0           0  0  0
   -3.0000   -0.1917    0.0000 C   0  0  0  0  0  0           0  0  0
    1.5625    2.0458    0.0000 C   0  0  0  0  0  0           0  0  0
    2.2750    2.4583    0.0000 C   0  0  0  0  0  0           0  0  0
   -3.1708   -1.0000    0.0000 C   0  0  0  0  0  0           0  0  0
    4.4167    6.1542    0.0000 O   0  0  0  0  0  0           0  0  0
   -0.3708   -1.5792    0.0000 N   0  0  3  0  0  0           0  0  0
    3.7042    2.4583    0.0000 O   0  0  0  0  0  0           0  0  0
    4.4167    3.6875    0.0000 C   0  0  0  0  0  0           0  0  0
    3.7042    3.2750    0.0000 C   0  0  0  0  0  0           0  0  0
    3.7042    4.9167    0.0000 C   0  0  0  0  0  0           0  0  0
    5.1292    4.9167    0.0000 C   0  0  0  0  0  0           0  0  0
    2.2792   -0.0042    0.0000 C   0  0  0  0  0  0           0  0  0
    3.7000    0.8208    0.0000 C   0  0  0  0  0  0           0  0  0
   -2.9500    3.6708    0.0000 C   0  0  0  0  0  0           0  0  0
   -2.0500    3.6208    0.0000 C   0  0  0  0  0  0           0  0  0
   -3.3583    3.0458    0.0000 C   0  0  0  0  0  0           0  0  0
    5.1292    5.7417    0.0000 C   0  0  0  0  0  0           0  0  0
    3.7042    5.7417    0.0000 C   0  0  0  0  0  0           0  0  0
   -2.7250   -2.3542    0.0000 C   0  0  0  0  0  0           0  0  0
    0.2417   -2.1292    0.0000 C   0  0  0  0  0  0           0  0  0
    0.3417   -1.1625    0.0000 C   0  0  0  0  0  0           0  0  0
    3.7042    0.0000    0.0000 C   0  0  0  0  0  0           0  0  0
    2.9917   -0.4167    0.0000 C   0  0  0  0  0  0           0  0  0
  2  1  1  0     0  0
  3  2  1  0     0  0
  4  1  2  0     0  0
  5  4  1  0     0  0
  6  1  1  0     0  0
  7  6  1  0     0  0
  8  2  1  0     0  0
  9 10  1  0     0  0
 10  7  1  0     0  0
 11 14  2  0     0  0
 12  9  2  0     0  0
 13 12  1  0     0  0
 14  8  1  0     0  0
 15  5  1  0     0  0
 16 28  1  0     0  0
 17 23  1  0     0  0
 18 11  1  0     0  0
 19  7  2  0     0  0
 20 24  2  0     0  0
 21  8  2  0     0  0
 22  9  1  0     0  0
 23 22  2  0     0  0
 24 21  1  0     0  0
 25 37  1  0     0  0
 26 18  1  0     0  0
 27 17  1  0     0  0
 28 29  1  0     0  0
 29 27  1  0     0  0
 30 16  1  0     0  0
 31 16  1  0     0  0
 32 12  1  0     0  0
 33 13  1  0     0  0
 34 15  1  0     0  0
 35 15  1  0     0  0
 36 15  1  0     0  0
 37 31  1  0     0  0
 38 30  1  0     0  0
 39 20  1  0     0  0
 40 26  1  0     0  0
 41 26  1  0     0  0
 42 43  1  0     0  0
 43 32  2  0     0  0
  3  5  2  0     0  0
 20 11  1  0     0  0
 17 13  2  0     0  0
 33 42  2  0     0  0
 25 38  1  0     0  0
M  END