
          11280715122D 1   1.00000     0.00000     0

 27 29  0     0  0            999 V2000
   -0.4833   -0.2917    0.0000 C   0  0  0  0  0  0           0  0  0
   -0.4875   -1.1750    0.0000 N   0  0  3  0  0  0           0  0  0
    0.2875    0.1458    0.0000 C   0  0  0  0  0  0           0  0  0
    0.2792   -1.6250    0.0000 C   0  0  0  0  0  0           0  0  0
    0.2917    1.0250    0.0000 C   0  0  0  0  0  0           0  0  0
   -0.4708    1.4708    0.0000 C   0  0  0  0  0  0           0  0  0
   -1.2458    0.1500    0.0000 C   0  0  0  0  0  0           0  0  0
   -2.7958   -2.5042    0.0000 N   0  0  0  0  0  0           0  0  0
   -1.2708   -1.6167    0.0000 C   0  0  3  0  0  0           0  0  0
    1.0417   -1.1792    0.0000 C   0  0  0  0  0  0           0  0  0
    0.2792   -2.5042    0.0000 O   0  0  0  0  0  0           0  0  0
    2.5667   -1.1792    0.0000 C   0  0  0  0  0  0           0  0  0
   -1.2458    1.0333    0.0000 C   0  0  0  0  0  0           0  0  0
    1.8042   -1.6167    0.0000 O   0  0  0  0  0  0           0  0  0
    3.3292    0.1500    0.0000 C   0  0  0  0  0  0           0  0  0
    4.1000   -1.1750    0.0000 C   0  0  0  0  0  0           0  0  0
    2.5667   -0.2917    0.0000 C   0  0  0  0  0  0           0  0  0
    3.3292   -1.6167    0.0000 C   0  0  0  0  0  0           0  0  0
    4.1000   -0.2917    0.0000 C   0  0  0  0  0  0           0  0  0
    1.0542    1.4625    0.0000 Cl  0  0  0  0  0  0           0  0  0
   -0.4708    2.3583    0.0000 Cl  0  0  0  0  0  0           0  0  0
   -2.0333   -1.1750    0.0000 C   0  0  0  0  0  0           0  0  0
   -1.2708   -2.5125    0.0000 C   0  0  0  0  0  0           0  0  0
   -2.7958   -1.6167    0.0000 C   0  0  0  0  0  0           0  0  0
   -2.0333   -2.9417    0.0000 C   0  0  0  0  0  0           0  0  0
    4.8625   -1.6167    0.0000 C   0  0  0  0  0  0           0  0  0
    3.3292    1.0333    0.0000 C   0  0  0  0  0  0           0  0  0
  2  1  1  0     0  0
  3  1  2  0     0  0
  4  2  1  0     0  0
  5  3  1  0     0  0
  6 13  1  0     0  0
  7  1  1  0     0  0
  8 25  1  0     0  0
  9  2  1  0     0  0
 10  4  1  0     0  0
 11  4  2  0     0  0
 12 14  1  0     0  0
 13  7  2  0     0  0
 14 10  1  0     0  0
 15 17  2  0     0  0
 16 18  1  0     0  0
 17 12  1  0     0  0
 18 12  2  0     0  0
 19 16  2  0     0  0
 20  5  1  0     0  0
 21  6  1  0     0  0
 22  9  1  0     0  0
 23  9  1  0     0  0
 24 22  1  0     0  0
 25 23  1  0     0  0
 26 16  1  0     0  0
 27 15  1  0     0  0
  6  5  2  0     0  0
  8 24  1  0     0  0
 19 15  1  0     0  0
M  END