
  SciTegic11201309402D

 27 28  0  0  1  0            999 V2000
    5.2733   -3.1056    0.0000 N   0  0
    4.5641   -3.5060    0.0000 C   0  0
    6.6974   -3.1056    0.0000 C   0  0
    5.9882   -3.5174    0.0000 C   0  0
    8.8422   -3.5232    0.0000 C   0  0
    9.5571   -3.1114    0.0000 C   0  0
    7.4123   -3.5232    0.0000 N   0  0
    4.5527   -4.3296    0.0000 O   0  0
    3.8492   -3.0942    0.0000 C   0  0  2  0  0  0
    0.2975   -4.3296    0.0000 N   0  0
    6.6974   -2.2820    0.0000 O   0  0
    9.5571   -2.2878    0.0000 O   0  0
    8.1216   -3.1114    0.0000 C   0  0  2  0  0  0
    3.1457   -3.5060    0.0000 C   0  0
    5.2733   -2.2820    0.0000 C   0  0
   10.2663   -3.5346    0.0000 O   0  0
    2.4251   -3.0942    0.0000 C   0  0
    4.5641   -1.8588    0.0000 C   0  0
    1.7158   -3.5060    0.0000 C   0  0
    0.2975   -3.5060    0.0000 C   0  0
    1.0009   -4.7414    0.0000 C   0  0
    3.8492   -2.2706    0.0000 C   0  0
    8.5334   -2.3907    0.0000 C   0  0
    1.0009   -3.0942    0.0000 C   0  0
    1.7158   -4.3296    0.0000 C   0  0
    3.1399   -2.6824    0.0000 H   0  0
    7.7098   -2.3907    0.0000 H   0  0
  2  1  1  0
  3  4  1  0
  4  1  1  0
  5 13  1  0
  6  5  1  0
  7  3  1  0
  8  2  2  0
  9  2  1  0
 10 21  1  0
 11  3  2  0
 12  6  2  0
 13  7  1  0
 14  9  1  0
 15  1  1  0
 16  6  1  0
 17 14  1  0
 18 15  1  0
 19 17  1  0
 20 24  1  0
 21 25  1  0
 22 18  1  0
 13 23  1  0
 24 19  1  0
 25 19  1  0
  9 26  1  1
 13 27  1  1
  9 22  1  0
 10 20  1  0
M  END