
  SciTegic04091414152D

 33 37  0  0  0  0            999 V2000
   14.8208  -20.4621    0.0000 C   0  0
   14.2022  -20.9940    0.0000 C   0  0  2  0  0  0
   14.3560  -21.7929    0.0000 C   0  0
   15.1414  -22.0372    0.0000 N   0  3
   15.7462  -21.5271    0.0000 C   0  0
   15.5929  -20.7217    0.0000 C   0  0
   14.4289  -21.1768    0.0000 C   0  0
   15.2249  -21.3610    0.0000 C   0  0
   13.4305  -20.7251    0.0000 O   0  0
   12.0229  -20.5544    0.0000 C   0  0
   11.4827  -21.1723    0.0000 C   0  0
   12.6820  -21.0475    0.0000 C   0  0
   11.2694  -20.2331    0.0000 C   0  0
   11.0428  -19.4466    0.0000 C   0  0
   11.5200  -18.7799    0.0000 C   0  0
   12.3341  -18.7459    0.0000 C   0  0
   12.8764  -19.3571    0.0000 C   0  0
   12.7373  -20.1648    0.0000 C   0  0
   10.6691  -21.1023    0.0000 C   0  0
   10.3465  -21.8568    0.0000 C   0  0
   10.9643  -22.3968    0.0000 C   0  0
   11.6687  -21.9760    0.0000 C   0  0
   12.5851  -21.8589    0.0000 O   0  0
   15.1968  -22.8525    0.0000 C   0  0
   15.9306  -23.2122    0.0000 C   0  0
   15.9859  -24.0275    0.0000 O   0  0
   16.6089  -22.7566    0.0000 N   0  0
   17.3427  -23.1163    0.0000 C   0  0
   17.3951  -23.9291    0.0000 C   0  0
   18.1280  -24.2887    0.0000 C   0  0
   18.8074  -23.8330    0.0000 C   0  0
   18.7491  -23.0136    0.0000 C   0  0
   18.0158  -22.6577    0.0000 N   0  0
  1  2  1  0
  1  6  1  0
  2  3  1  0
  3  4  1  0
  4  5  1  0
  5  6  1  0
  1  7  1  0
  4  8  1  0
  7  8  1  0
  2  9  1  6
 11 10  1  0
 10 12  1  0
 13 14  1  0
 14 15  1  0
 15 16  1  0
 13 10  1  0
 16 17  1  0
 10 18  1  0
 17 18  1  0
 11 19  2  0
 19 20  1  0
 20 21  2  0
 21 22  1  0
 22 11  1  0
 12 23  2  0
 12  9  1  0
  4 24  1  0
 24 25  1  0
 25 26  2  0
 25 27  1  0
 27 28  1  0
 28 29  2  0
 29 30  1  0
 30 31  2  0
 31 32  1  0
 32 33  2  0
 33 28  1  0
M  CHG  1   4   1
M  END