
          11280715262D 1   1.00000     0.00000     0

 21 24  0     0  0            999 V2000
    1.4042    1.1583    0.0000 C   0  0  0  0  0  0           0  0  0
   -0.7250   -0.0917    0.0000 C   0  0  3  0  0  0           0  0  0
    0.6917    0.7458    0.0000 C   0  0  0  0  0  0           0  0  0
   -0.0208    1.1500    0.0000 N   0  0  0  0  0  0           0  0  0
   -0.0083   -1.3292    0.0000 C   0  0  3  0  0  0           0  0  0
   -1.1833   -1.7667    0.0000 C   0  0  3  0  0  0           0  0  0
   -1.4833   -1.3917    0.0000 C   0  0  3  0  0  0           0  0  0
    2.1250    0.7500    0.0000 C   0  0  0  0  0  0           0  0  0
   -1.4833   -0.4917    0.0000 C   0  0  0  0  0  0           0  0  0
   -0.0083   -0.5125    0.0000 C   0  0  0  0  0  0           0  0  0
   -1.1833   -0.7250    0.0000 C   0  0  0  0  0  0           0  0  0
    0.7042   -0.0792    0.0000 O   0  0  0  0  0  0           0  0  0
   -0.7333    0.7333    0.0000 C   0  0  0  0  0  0           0  0  0
   -0.7000   -1.6917    0.0000 C   0  0  0  0  0  0           0  0  0
   -0.3625   -2.0417    0.0000 C   0  0  0  0  0  0           0  0  0
   -1.8250   -2.0417    0.0000 C   0  0  0  0  0  0           0  0  0
    2.1292   -0.0750    0.0000 Cl  0  0  0  0  0  0           0  0  0
    1.4042    1.9833    0.0000 C   0  0  0  0  0  0           0  0  0
    2.8375    1.1708    0.0000 C   0  0  0  0  0  0           0  0  0
    2.1167    2.4000    0.0000 C   0  0  0  0  0  0           0  0  0
    2.8292    1.9958    0.0000 C   0  0  0  0  0  0           0  0  0
  2 13  1  0     0  0
  3  1  1  0     0  0
  4  3  1  0     0  0
  5 10  1  0     0  0
  6 11  1  0     0  0
  7  9  1  0     0  0
  8  1  2  0     0  0
  9  2  1  0     0  0
 10  2  1  0     0  0
 11  2  1  0     0  0
 12  3  2  0     0  0
 13  4  1  0     0  0
 14  5  1  0     0  0
 15  6  1  0     0  0
 16  6  1  0     0  0
 17  8  1  0     0  0
 18  1  1  0     0  0
 19  8  1  0     0  0
 20 18  2  0     0  0
 21 20  1  0     0  0
 21 19  2  0     0  0
  7 16  1  0     0  0
  5 15  1  0     0  0
  7 14  1  0     0  0
M  END