
  Mrv0541 05211314572D          

 24 24  0  0  0  0            999 V2000
    0.8250    0.7145    0.0000 C   0  0  0  0  0  0  0  0  0  0  0  0
    0.4125    0.0000    0.0000 C   0  0  0  0  0  0  0  0  0  0  0  0
   -0.4125    0.0000    0.0000 C   0  0  0  0  0  0  0  0  0  0  0  0
   -0.8250   -0.7145    0.0000 C   0  0  0  0  0  0  0  0  0  0  0  0
    1.6500    0.7145    0.0000 O   0  0  0  0  0  0  0  0  0  0  0  0
    0.4125    1.4289    0.0000 O   0  0  0  0  0  0  0  0  0  0  0  0
   -0.4125   -1.4289    0.0000 O   0  0  0  0  0  0  0  0  0  0  0  0
   -1.6500   -0.7145    0.0000 O   0  0  0  0  0  0  0  0  0  0  0  0
    3.6536   -2.2136    0.0000 N   0  0  0  0  0  0  0  0  0  0  0  0
    3.9085   -2.9982    0.0000 O   0  0  0  0  0  0  0  0  0  0  0  0
    4.7335   -2.9982    0.0000 C   0  0  0  0  0  0  0  0  0  0  0  0
    4.9884   -2.2136    0.0000 C   0  0  0  0  0  0  0  0  0  0  0  0
    4.3210   -1.7287    0.0000 C   0  0  0  0  0  0  0  0  0  0  0  0
    5.0355    1.9838    0.0000 C   0  0  0  0  0  0  0  0  0  0  0  0
    5.0355    1.1588    0.0000 C   0  0  0  0  0  0  0  0  0  0  0  0
    5.0355    0.3338    0.0000 C   0  0  0  0  0  0  0  0  0  0  0  0
    5.0355   -0.4912    0.0000 C   0  0  0  0  0  0  0  0  0  0  0  0
    4.3210   -0.9037    0.0000 O   0  0  0  0  0  0  0  0  0  0  0  0
    5.7500    2.3963    0.0000 N   0  0  0  0  0  0  0  0  0  0  0  0
    5.2184   -3.6656    0.0000 C   0  0  0  0  0  0  0  0  0  0  0  0
    5.8362    3.2168    0.0000 C   0  0  0  0  0  0  0  0  0  0  0  0
    6.6432    3.3883    0.0000 C   0  0  0  0  0  0  0  0  0  0  0  0
    7.0557    2.6739    0.0000 C   0  0  0  0  0  0  0  0  0  0  0  0
    6.5036    2.0608    0.0000 C   0  0  0  0  0  0  0  0  0  0  0  0
 11 12  2  0  0  0  0
 12 13  1  0  0  0  0
 13  9  2  0  0  0  0
  1  5  2  0  0  0  0
  1  6  1  0  0  0  0
 14 15  1  0  0  0  0
  4  7  2  0  0  0  0
 15 16  3  0  0  0  0
  4  8  1  0  0  0  0
 16 17  1  0  0  0  0
 17 18  1  0  0  0  0
 18 13  1  0  0  0  0
  9 10  1  0  0  0  0
 14 19  1  0  0  0  0
 11 20  1  0  0  0  0
 19 21  1  0  0  0  0
  1  2  1  0  0  0  0
  2  3  2  0  0  0  0
  3  4  1  0  0  0  0
 10 11  1  0  0  0  0
 21 22  1  0  0  0  0
 22 23  1  0  0  0  0
 23 24  1  0  0  0  0
 24 19  1  0  0  0  0
M  END