
  SciTegic10301317112D

 34 35  0  0  0  0            999 V2000
    2.1250   -5.7750    0.0000 S   0  0
    5.4167   -5.7625    0.0000 C   0  0
   10.5167   -8.4167    0.0000 C   0  0  1  0  0  0
   10.9375   -9.1292    0.0000 C   0  0
    9.6917   -8.4250    0.0000 N   0  0
    2.9500   -5.7750    0.0000 C   0  0
    9.2042   -7.7542    0.0000 C   0  0
    5.8292   -6.4750    0.0000 N   0  0
    2.1167   -6.6000    0.0000 O   0  0
    2.1250   -4.9500    0.0000 O   0  0
    7.0750   -7.1792    0.0000 C   0  0
    4.5917   -5.7667    0.0000 C   0  0
    1.3000   -5.7667    0.0000 N   0  0
    7.9000   -7.1750    0.0000 N   0  0
   10.9292   -7.7000    0.0000 C   0  0
    5.8250   -5.0417    0.0000 O   0  0
   10.5292   -9.8417    0.0000 O   0  0
    9.5417   -7.0000    0.0000 O   0  0
    6.6667   -7.8917    0.0000 O   0  0
    3.3500   -5.0625    0.0000 C   0  0
    3.3625   -6.4875    0.0000 C   0  0
    4.1792   -6.4792    0.0000 C   0  0
    4.1667   -5.0542    0.0000 C   0  0
    6.6542   -6.4667    0.0000 C   0  0
    8.3875   -7.8417    0.0000 C   0  0
   11.7542   -7.6917    0.0000 C   0  0
   11.7625   -9.1250    0.0000 O   0  0
   13.4000   -7.6875    0.0000 C   0  0
   12.1667   -8.4042    0.0000 C   0  0
   12.1542   -6.9792    0.0000 C   0  0
   12.9792   -6.9667    0.0000 C   0  0
   12.9917   -8.4042    0.0000 C   0  0
   14.2250   -7.6792    0.0000 O   0  0
   14.6417   -8.3917    0.0000 C   0  0
  2 12  1  0
  3  5  1  0
  4  3  1  0
  5  7  1  0
  6  1  1  0
  7 25  1  0
  8  2  1  0
  9  1  2  0
 10  1  2  0
 11 24  1  0
 12 22  2  0
 13  1  1  0
 14 11  1  0
  3 15  1  1
 16  2  2  0
 17  4  2  0
 18  7  2  0
 19 11  2  0
 20  6  1  0
 21  6  2  0
 22 21  1  0
 23 20  2  0
 24  8  1  0
 25 14  1  0
 26 15  1  0
 27  4  1  0
 28 31  1  0
 29 26  2  0
 30 26  1  0
 31 30  2  0
 32 29  1  0
 33 28  1  0
 34 33  1  0
 12 23  1  0
 28 32  2  0
M  END