
  SciTegic11201309402D

 60 63  0  0  1  0            999 V2000
   -1.0500   -5.6000    0.0000 C   0  0
   -1.3458   -4.9375    0.0000 C   0  0
   -1.1875   -3.9625    0.0000 N   0  0
   -0.8333   -6.4000    0.0000 C   0  0
    0.6792   -2.9500    0.0000 O   0  0
    0.3500   -3.5417    0.0000 C   0  0
    0.4250   -2.1667    0.0000 C   0  0  2  0  0  0
   -0.4708   -3.5417    0.0000 C   0  0  2  0  0  0
   -0.2958   -1.7542    0.0000 C   0  0
    1.1375   -1.7542    0.0000 C   0  0  1  0  0  0
   -1.5250   -6.8500    0.0000 N   0  0
    3.2792   -2.1750    0.0000 C   0  0
    0.4167   -7.1167    0.0000 C   0  0  1  0  0  0
    1.8542   -2.1667    0.0000 C   0  0
    2.5667   -1.7625    0.0000 C   0  0
   -1.8750   -5.5625    0.0000 O   0  0
   -0.8208   -7.2250    0.0000 C   0  0  1  0  0  0
   -0.2875   -0.9292    0.0000 C   0  0
    2.5667   -3.4125    0.0000 C   0  0
    0.4167   -7.9417    0.0000 C   0  0  2  0  0  0
   -2.1708   -6.3292    0.0000 C   0  0
    1.1292   -6.7042    0.0000 C   0  0  2  0  0  0
    2.5625   -4.2375    0.0000 C   0  0
   -0.4125   -7.9417    0.0000 C   0  0
    3.2792   -3.0000    0.0000 C   0  0  1  0  0  0
   -0.3750   -4.8125    0.0000 O   0  0
    0.7667   -4.2500    0.0000 O   0  0
   -2.4250   -0.5167    0.0000 C   0  0  2  0  0  0
   -1.0083   -0.5167    0.0000 C   0  0  1  0  0  0
    1.1292   -5.8792    0.0000 C   0  0
   -1.7208   -0.9250    0.0000 C   0  0
    3.9917   -1.7625    0.0000 O   0  0
   -2.4250    0.3083    0.0000 C   0  0  1  0  0  0
    1.8500   -4.6417    0.0000 C   0  0
    1.8417   -5.4667    0.0000 C   0  0  2  0  0  0
    4.5167   -3.7125    0.0000 C   0  0
   -1.7208    0.7250    0.0000 C   0  0
    5.3417   -3.7042    0.0000 C   0  0
   -1.9083   -3.5542    0.0000 C   0  0
    0.0000   -6.4000    0.0000 O   0  0
    1.8500   -2.9917    0.0000 O   0  0
   -1.0083    0.3083    0.0000 C   0  0
    0.9917   -8.5250    0.0000 O   0  0
    1.8417   -7.1167    0.0000 O   0  0
   -3.1458   -0.9292    0.0000 O   0  0
   -3.1458    0.7208    0.0000 O   0  0
   -1.0083   -2.1667    0.0000 C   0  0
    1.1417   -0.9292    0.0000 C   0  0
    4.1000   -2.9917    0.0000 C   0  0
   -0.4750   -2.7250    0.0000 C   0  0
   -1.4833   -7.7167    0.0000 C   0  0
    3.2792   -4.6500    0.0000 C   0  0
    2.5625   -5.8875    0.0000 C   0  0
    1.8417   -7.9417    0.0000 C   0  0
    0.7792   -9.3250    0.0000 C   0  0
   -3.8583   -0.5167    0.0000 C   0  0
   -1.9083   -2.7250    0.0000 C   0  0
   -1.1958   -2.3125    0.0000 C   0  0
   -0.5488   -7.3770    0.0000 H   0  0
    0.2345   -2.8328    0.0000 H   0  0
  2  1  1  0
  3  2  1  0
  4  1  2  0
  5  6  1  0
  8  6  1  0
  7  5  1  0
  8  3  1  0
  7  9  1  6
 10  7  1  0
 11  4  1  0
 12 15  1  0
 13 20  1  0
 14 10  1  0
 15 14  1  0
 16  1  1  0
 17  4  1  0
 18  9  2  0
 19 23  2  0
 20 24  1  0
 21 16  1  0
 22 13  1  0
 23 34  1  0
 24 17  1  0
 25 12  1  0
 26  2  2  0
 27  6  2  0
 28 31  1  0
 29 18  1  1
 30 22  1  0
 31 29  1  0
 32 12  2  0
 33 37  1  0
 34 35  1  0
 35 30  1  0
 36 49  1  0
 37 42  1  0
 38 36  2  0
 39  3  1  0
 40 13  1  0
 41 14  1  0
 42 29  1  0
 20 43  1  1
 22 44  1  6
 28 45  1  1
 33 46  1  6
 47  9  1  0
 10 48  1  6
 25 49  1  6
 50  8  1  0
 17 51  1  1
 52 23  1  0
 35 53  1  6
 54 44  1  0
 55 43  1  0
 56 45  1  0
 57 39  1  0
 58 57  1  0
 13 59  1  1
 11 21  2  0
 58 50  1  0
 19 25  1  0
 28 33  1  0
  8 60  1  6
M  END