
  CDK    6/4/10,11:41

 16 17  0  0  0  0  0  0  0  0999 V2000
   -2.7084    2.3655    0.0000 C   0  0  0  0  0  0  0  0  0  0  0  0
   -2.7095    1.5385    0.0000 C   0  0  0  0  0  0  0  0  0  0  0  0
   -1.9950    1.1259    0.0000 C   0  0  0  0  0  0  0  0  0  0  0  0
   -1.2790    1.5390    0.0000 C   0  0  0  0  0  0  0  0  0  0  0  0
   -1.2818    2.3691    0.0000 C   0  0  0  0  0  0  0  0  0  0  0  0
   -1.9968    2.7780    0.0000 C   0  0  0  0  0  0  0  0  0  0  0  0
   -0.5693    2.7840    0.0000 N   0  0  0  0  0  0  0  0  0  0  0  0
   -3.4239    1.1268    0.0000 S   0  0  0  0  0  0  0  0  0  0  0  0
   -4.1436    0.7204    0.0000 N   0  0  0  0  0  0  0  0  0  0  0  0
   -3.0153    0.4106    0.0000 O   0  0  0  0  0  0  0  0  0  0  0  0
   -3.8308    1.8440    0.0000 O   0  0  0  0  0  0  0  0  0  0  0  0
   -4.1516   -0.1040    0.0000 C   0  0  0  0  0  0  0  0  0  0  0  0
   -4.8203   -0.5857    0.0000 N   0  0  0  0  0  0  0  0  0  0  0  0
   -4.5730   -1.3724    0.0000 N   0  0  0  0  0  0  0  0  0  0  0  0
   -3.7484   -1.3803    0.0000 C   0  0  0  0  0  0  0  0  0  0  0  0
   -3.4863   -0.5986    0.0000 S   0  0  0  0  0  0  0  0  0  0  0  0
  2  8  1  0  0  0  0 
  8  9  1  0  0  0  0 
  4  5  1  0  0  0  0 
  8 10  2  0  0  0  0 
  2  3  1  0  0  0  0 
  8 11  2  0  0  0  0 
  5  6  2  0  0  0  0 
  9 12  1  0  0  0  0 
 12 13  2  0  0  0  0 
  6  1  1  0  0  0  0 
  1  2  2  0  0  0  0 
  5  7  1  0  0  0  0 
  3  4  2  0  0  0  0 
 13 14  1  0  0  0  0 
 14 15  2  0  0  0  0 
 15 16  1  0  0  0  0 
 16 12  1  0  0  0  0 
M  END