
          11280715082D 1   1.00000     0.00000     0

 30 33  0     1  0            999 V2000
    5.1917   -3.4542    0.0000 N   0  0  3  0  0  0           0  0  0
    5.5292   -4.2042    0.0000 C   0  0  0  0  0  0           0  0  0
    5.6042   -2.7417    0.0000 C   0  0  2  0  0  0           0  0  0
    4.8875   -4.7167    0.0000 C   0  0  0  0  0  0           0  0  0
    7.7292   -3.2292    0.0000 C   0  0  0  0  0  0           0  0  0
    4.3875   -3.2792    0.0000 C   0  0  0  0  0  0           0  0  0
    4.1167   -4.4167    0.0000 C   0  0  0  0  0  0           0  0  0
    5.0500   -2.1292    0.0000 C   0  0  0  0  0  0           0  0  0
    6.9417   -3.4167    0.0000 N   0  0  0  0  0  0           0  0  0
    8.2917   -3.8292    0.0000 N   0  0  0  0  0  0           0  0  0
    6.2667   -4.7667    0.0000 O   0  0  0  0  0  0           0  0  0
    3.4750   -4.9292    0.0000 C   0  0  0  0  0  0           0  0  0
    4.2917   -2.4667    0.0000 C   0  0  1  0  0  0           0  0  0
    6.4250   -2.6542    0.0000 C   0  0  0  0  0  0           0  0  0
    5.0125   -5.5292    0.0000 C   0  0  0  0  0  0           0  0  0
    3.6000   -5.7417    0.0000 C   0  0  0  0  0  0           0  0  0
    4.3667   -6.0542    0.0000 C   0  0  0  0  0  0           0  0  0
    7.9667   -2.4417    0.0000 N   0  0  0  0  0  0           0  0  0
    3.5750   -2.0542    0.0000 O   0  0  0  0  0  0           0  0  0
    3.5750   -1.2292    0.0000 C   0  0  0  0  0  0           0  0  0
    2.8625   -0.8167    0.0000 C   0  0  0  0  0  0           0  0  0
    2.7125   -4.6292    0.0000 C   0  0  0  0  0  0           0  0  0
    2.9542   -6.2542    0.0000 C   0  0  0  0  0  0           0  0  0
    2.1417   -1.2292    0.0000 C   0  0  0  0  0  0           0  0  0
    2.8625    0.0083    0.0000 C   0  0  0  0  0  0           0  0  0
    2.0625   -5.1417    0.0000 C   0  0  0  0  0  0           0  0  0
    2.1875   -5.9542    0.0000 C   0  0  0  0  0  0           0  0  0
    1.4292   -0.8167    0.0000 C   0  0  0  0  0  0           0  0  0
    2.1417    0.4208    0.0000 C   0  0  0  0  0  0           0  0  0
    1.4292    0.0083    0.0000 C   0  0  0  0  0  0           0  0  0
  2  1  1  0     0  0
  3  1  1  0     0  0
  4  2  1  0     0  0
  5  9  1  0     0  0
  6  1  1  0     0  0
  7  4  2  0     0  0
  8  3  1  0     0  0
  9 14  1  0     0  0
 10  5  2  0     0  0
 11  2  2  0     0  0
 12  7  1  0     0  0
 13  6  1  0     0  0
  3 14  1  6     0  0
 15  4  1  0     0  0
 16 17  1  0     0  0
 17 15  2  0     0  0
 18  5  1  0     0  0
 13 19  1  6     0  0
 20 19  1  0     0  0
 21 20  1  0     0  0
 22 12  2  0     0  0
 23 16  2  0     0  0
 24 21  2  0     0  0
 25 21  1  0     0  0
 26 22  1  0     0  0
 27 23  1  0     0  0
 28 24  1  0     0  0
 29 25  2  0     0  0
 30 29  1  0     0  0
 13  8  1  0     0  0
 12 16  1  0     0  0
 27 26  2  0     0  0
 30 28  2  0     0  0
M  END