
          02060813482D 1   1.00000     0.00000     0

 43 47  0     1  0            999 V2000
   -3.3000  -29.5854    0.0000 N   0  0  0  0  0  0           0  0  0
   -2.5855  -29.1729    0.0000 C   0  0  2  0  0  0           0  0  0
   -1.8711  -29.5854    0.0000 C   0  0  0  0  0  0           0  0  0
   -2.5855  -28.3479    0.0000 C   0  0  0  0  0  0           0  0  0
   -3.3000  -27.9354    0.0000 C   0  0  0  0  0  0           0  0  0
   -3.2972  -27.1094    0.0000 C   0  0  0  0  0  0           0  0  0
   -4.0108  -26.6969    0.0000 C   0  0  0  0  0  0           0  0  0
   -4.7263  -27.1095    0.0000 C   0  0  0  0  0  0           0  0  0
   -4.7236  -27.9388    0.0000 C   0  0  0  0  0  0           0  0  0
   -4.0094  -28.3474    0.0000 C   0  0  0  0  0  0           0  0  0
   -4.0068  -29.1724    0.0000 C   0  0  0  0  0  0           0  0  0
   -2.5819  -26.6982    0.0000 C   0  0  0  0  0  0           0  0  0
   -5.4414  -26.6979    0.0000 O   0  0  0  0  0  0           0  0  0
   -1.8711  -30.4104    0.0000 O   0  0  0  0  0  0           0  0  0
   -1.1565  -29.1729    0.0000 N   0  0  3  0  0  0           0  0  0
   -0.4477  -29.5879    0.0000 C   0  0  1  0  0  0           0  0  0
    0.2647  -29.1789    0.0000 C   0  0  0  0  0  0           0  0  0
   -1.1640  -28.3495    0.0000 C   0  0  0  0  0  0           0  0  0
   -0.4454  -27.9389    0.0000 C   0  0  0  0  0  0           0  0  0
    0.2659  -28.3532    0.0000 C   0  0  0  0  0  0           0  0  0
    0.9782  -27.9444    0.0000 C   0  0  0  0  0  0           0  0  0
    0.9804  -27.1215    0.0000 C   0  0  0  0  0  0           0  0  0
    0.2644  -26.7090    0.0000 C   0  0  0  0  0  0           0  0  0
   -0.4450  -27.1202    0.0000 C   0  0  0  0  0  0           0  0  0
   -0.4512  -30.4129    0.0000 C   0  0  0  0  0  0           0  0  0
   -1.1674  -30.8223    0.0000 O   0  0  0  0  0  0           0  0  0
    0.2616  -30.8284    0.0000 N   0  0  0  0  0  0           0  0  0
   -0.4537  -28.7604    0.0000 H   0  0  0  0  0  0           0  0  0
    0.9777  -30.4190    0.0000 C   0  0  0  0  0  0           0  0  0
    1.6905  -30.8344    0.0000 C   0  0  0  0  0  0           0  0  0
    2.4067  -30.4249    0.0000 C   0  0  0  0  0  0           0  0  0
    3.1194  -30.8405    0.0000 C   0  0  0  0  0  0           0  0  0
    3.8356  -30.4309    0.0000 C   0  0  2  0  0  0           0  0  0
    3.8391  -29.6060    0.0000 N   0  0  0  0  0  0           0  0  0
    4.5483  -30.8466    0.0000 C   0  0  0  0  0  0           0  0  0
    4.5599  -31.6699    0.0000 N   0  0  0  0  0  0           0  0  0
    5.3299  -30.5796    0.0000 N   0  0  0  0  0  0           0  0  0
    5.8238  -31.2403    0.0000 C   0  0  0  0  0  0           0  0  0
    5.3487  -31.9125    0.0000 C   0  0  0  0  0  0           0  0  0
    5.6936  -32.6580    0.0000 C   0  0  0  0  0  0           0  0  0
    6.5131  -32.7324    0.0000 C   0  0  0  0  0  0           0  0  0
    6.9868  -32.0553    0.0000 C   0  0  0  0  0  0           0  0  0
    6.6394  -31.3126    0.0000 C   0  0  0  0  0  0           0  0  0
 20 21  1  0     0  0
  2  3  1  0     0  0
 21 22  2  0     0  0
 10 11  1  0     0  0
 22 23  1  0     0  0
  5  6  2  0     0  0
 23 24  2  0     0  0
 24 19  1  0     0  0
  6 12  1  0     0  0
 16 25  1  0     0  0
  1  2  1  0     0  0
 25 26  2  0     0  0
  8 13  1  0     0  0
 25 27  1  0     0  0
  6  7  1  0     0  0
 16 28  1  6     0  0
  3 14  2  0     0  0
 27 29  1  0     0  0
  2  4  1  1     0  0
 29 30  1  0     0  0
  3 15  1  0     0  0
 30 31  1  0     0  0
 15 16  1  0     0  0
 31 32  1  0     0  0
  7  8  2  0     0  0
 32 33  1  0     0  0
 33 34  1  6     0  0
  8  9  1  0     0  0
 33 35  1  0     0  0
 35 36  2  0     0  0
 15 18  1  0     0  0
 16 17  1  0     0  0
 36 39  1  0     0  0
 38 37  1  0     0  0
 37 35  1  0     0  0
 17 20  1  0     0  0
 19 18  1  0     0  0
 38 39  2  0     0  0
  4  5  1  0     0  0
 39 40  1  0     0  0
  9 10  2  0     0  0
 40 41  2  0     0  0
 19 20  2  0     0  0
 41 42  1  0     0  0
 10  5  1  0     0  0
 42 43  2  0     0  0
 43 38  1  0     0  0
M  END