
  SciTegic05071317012D

 36 39  0  0  0  0            999 V2000
   18.8476  -11.7997    0.0000 C   0  0
   18.8465  -12.6192    0.0000 C   0  0
   19.5545  -13.0282    0.0000 C   0  0
   19.5527  -11.3908    0.0000 C   0  0
   20.2614  -11.7961    0.0000 C   0  0
   20.2648  -12.6213    0.0000 C   0  0
   20.9771  -13.0287    0.0000 N   0  0
   21.6907  -12.6155    0.0000 C   0  0
   21.6873  -11.7903    0.0000 N   0  0
   20.9704  -11.3783    0.0000 C   0  0
   18.1398  -11.3913    0.0000 O   0  0
   18.1396  -10.5741    0.0000 C   0  0
   18.1385  -13.0273    0.0000 O   0  0
   17.4311  -12.6181    0.0000 C   0  0
   20.9659  -10.5611    0.0000 N   0  0
   22.3995  -13.0221    0.0000 N   0  0
   23.8124  -13.8435    0.0000 N   0  0
   23.8121  -13.0254    0.0000 C   0  0
   23.1029  -12.6143    0.0000 C   0  0
   23.1034  -14.2506    0.0000 C   0  0  2  0  0  0
   22.3960  -13.8423    0.0000 C   0  0  2  0  0  0
   21.6927  -14.2485    0.0000 C   0  0
   21.6905  -15.0646    0.0000 C   0  0
   22.3978  -15.4729    0.0000 C   0  0
   23.1074  -15.0651    0.0000 C   0  0
   24.5197  -14.2529    0.0000 C   0  0
   24.5188  -15.0701    0.0000 O   0  0
   25.2278  -13.8450    0.0000 C   0  0
   25.9709  -14.1790    0.0000 O   0  0
   26.5184  -13.5723    0.0000 C   0  0
   26.1105  -12.8641    0.0000 C   0  0
   25.3111  -13.0333    0.0000 C   0  0
   27.3310  -13.6586    0.0000 C   0  0
   27.6626  -14.4055    0.0000 C   0  0
   27.8121  -12.9980    0.0000 O   0  0
   26.4256  -11.8741    0.0000 Cl  0  0
  1  2  2  0
  2  3  1  0
  3  6  2  0
  5  4  2  0
  4  1  1  0
  5  6  1  0
  5 10  1  0
  6  7  1  0
  7  8  2  0
  8  9  1  0
  9 10  2  0
  1 11  1  0
 11 12  1  0
  2 13  1  0
 13 14  1  0
 10 15  1  0
  8 16  1  0
 16 21  1  0
 16 19  1  0
 20 17  1  0
 17 18  1  0
 18 19  1  0
 20 21  1  0
 20 25  1  1
 21 22  1  6
 22 23  1  0
 23 24  1  0
 24 25  1  0
 17 26  1  0
 26 27  2  0
 26 28  1  0
 28 29  1  0
 29 30  1  0
 30 31  2  0
 31 32  1  0
 32 28  2  0
 30 33  1  0
 33 34  1  0
 33 35  2  0
M  END