
  SciTegic01201417202D

 86 92  0  0  0  0            999 V2000
   15.1875   -1.2699    0.0000 C   0  0  1  0  0  0
   14.4450   -2.4799    0.0000 C   0  0  2  0  0  0
   13.2396   -0.1332    0.0000 C   0  0  2  0  0  0
   12.2175   -4.0243    0.0000 C   0  0  2  0  0  0
   13.3634   -3.2681    0.0000 C   0  0  2  0  0  0
   14.4771   -0.8528    0.0000 C   0  0  1  0  0  0
   12.4146   -0.1332    0.0000 C   0  0  1  0  0  0
   11.8096   -3.3094    0.0000 C   0  0  1  0  0  0
   14.1884   -3.2727    0.0000 C   0  0  1  0  0  0
   12.0068    0.5863    0.0000 C   0  0  2  0  0  0
   10.9893   -3.3048    0.0000 C   0  0  2  0  0  0
   15.1783   -2.0949    0.0000 O   0  0
   13.7759   -1.9986    0.0000 O   0  0
   13.6567    0.5818    0.0000 O   0  0
   11.8096   -4.7440    0.0000 O   0  0
   13.0425   -4.0243    0.0000 O   0  0
   13.6475   -0.8528    0.0000 O   0  0
   15.9117   -0.8711    0.0000 C   0  0  1  0  0  0
   10.5722   -4.0152    0.0000 C   0  0  1  0  0  0
   12.4238    1.3013    0.0000 C   0  0  1  0  0  0
   13.1113   -2.4844    0.0000 C   0  0  2  0  0  0
   10.9800   -4.7393    0.0000 C   0  0
   13.2488    1.2922    0.0000 C   0  0  1  0  0  0
   14.4955   -0.0278    0.0000 C   0  0  1  0  0  0
   15.9254   -0.0507    0.0000 C   0  0  2  0  0  0
   15.2150    0.3756    0.0000 C   0  0
   12.0021   -0.8481    0.0000 N   0  0
   12.2268   -2.5944    0.0000 N   0  0
   14.6008   -3.9831    0.0000 O   0  0
   10.5813   -2.5944    0.0000 O   0  0
   11.1818    0.5910    0.0000 O   0  0
   14.4862    0.7972    0.0000 N   0  0
   16.6449    0.3481    0.0000 N   0  0
   16.6174   -1.2974    0.0000 O   0  0
   12.0159    2.0163    0.0000 O   0  0
    9.7472   -4.0152    0.0000 O   0  0
   10.5675   -5.4452    0.0000 C   0  0
   13.6659    2.0072    0.0000 C   0  0
   12.3918   -2.0719    0.0000 C   0  0
    9.7426   -5.4406    0.0000 N   0  0
   14.4909    2.0026    0.0000 N   0  0
   11.5949   -2.2854    0.0000 S   0  0
   11.0115   -1.7020    0.0000 C   0  0
   10.2146   -1.9156    0.0000 C   0  0
    9.6313   -1.3322    0.0000 O   0  0
    8.5771   -3.1339    0.0000 S   0  0
    7.8057   -2.9326    0.0000 S   0  0
    9.1856   -2.6164    0.0000 C   0  0
    7.1875   -2.4103    0.0000 C   0  0
    6.7419   -1.1214    0.0000 O   0  0
    7.3408   -1.6389    0.0000 C   0  0
    9.0275   -1.8497    0.0000 C   0  0
    5.3715   -0.8627    0.0000 C   0  0
    5.9752   -1.3753    0.0000 C   0  0
    1.8410   -1.8414    0.0000 C   0  0  2  0  0  0
   -0.0156   -1.9135    0.0000 C   0  0  1  0  0  0
   -1.0212   -0.9080    0.0000 C   0  0  2  0  0  0
    1.6282   -1.0521    0.0000 C   0  0  1  0  0  0
   -0.2284   -1.1173    0.0000 C   0  0  2  0  0  0
    2.2116   -0.4687    0.0000 C   0  0  2  0  0  0
    2.6337   -2.0576    0.0000 O   0  0
    0.7805   -2.1331    0.0000 O   0  0
   -1.0348    0.6912    0.0000 C   0  0  1  0  0  0
   -1.2407   -0.1119    0.0000 O   0  0
    3.0077   -0.6746    0.0000 C   0  0  1  0  0  0
   -0.2421    0.4750    0.0000 O   0  0
    3.2171   -1.4742    0.0000 C   0  0  1  0  0  0
   -0.6024   -2.5003    0.0000 C   0  0  1  0  0  0
   -1.6080   -1.4948    0.0000 C   0  0  2  0  0  0
   -1.3952   -2.2841    0.0000 C   0  0
    0.3447    1.0618    0.0000 C   0  0  1  0  0  0
   -0.6608    2.0673    0.0000 C   0  0
   -1.2477    1.4805    0.0000 C   0  0  1  0  0  0
    0.1320    1.8580    0.0000 C   0  0  2  0  0  0
    1.9954    0.3309    0.0000 N   0  0
    0.8286   -0.8359    0.0000 O   0  0
    0.3550   -0.5340    0.0000 O   0  0
   -2.4041   -1.2752    0.0000 N   0  0
   -0.3896   -3.2964    0.0000 N   0  0
    3.5911   -0.0912    0.0000 O   0  0
   -2.0438    1.7001    0.0000 N   0  0
    0.7153    2.4413    0.0000 O   0  0
    4.0167   -1.6904    0.0000 C   0  0
    1.7243    1.4256    0.0000 N   0  0
    1.1408    0.8422    0.0000 C   0  0
    4.6001   -1.1070    0.0000 S   0  0
  2 12  1  1
  3 17  1  6
  4 16  1  1
  5  9  1  0
  6  1  1  0
  7  3  1  0
  8  4  1  0
  9  2  1  0
 10  7  1  0
 11  8  1  0
  1 12  1  6
 13  2  1  0
 14  3  1  0
 15  4  1  0
  5 16  1  6
  6 17  1  1
 18  1  1  0
 19 22  1  0
 20 23  1  0
 21 13  1  0
 22 15  1  0
 23 14  1  0
 24  6  1  0
 25 18  1  0
 26 24  1  0
  7 27  1  6
  8 28  1  1
  9 29  1  6
 11 30  1  6
 10 31  1  1
 24 32  1  6
 25 33  1  6
 18 34  1  1
 20 35  1  6
 19 36  1  1
 37 22  1  0
 23 38  1  1
 21 39  1  1
 40 37  1  0
 41 38  1  0
 26 25  1  0
  5 21  1  0
 10 20  1  0
 19 11  1  0
 39 42  1  0
 42 43  1  0
 43 44  1  0
 44 45  1  0
 52 45  1  0
 46 48  1  0
 47 46  1  0
 86 53  1  0
 48 52  1  0
 49 47  1  0
 50 51  1  0
 51 49  1  0
 53 54  1  0
 54 50  1  0
 56 62  1  1
 57 59  1  0
 58 55  1  0
 59 56  1  0
 60 58  1  0
 61 55  1  0
 55 62  1  6
 63 64  1  6
 57 64  1  1
 65 67  1  0
 66 63  1  0
 67 61  1  0
 68 56  1  0
 69 70  1  0
 70 68  1  0
 71 66  1  0
 72 73  1  0
 73 63  1  0
 74 71  1  0
 60 75  1  1
 58 76  1  6
 59 77  1  6
 69 78  1  6
 68 79  1  6
 65 80  1  6
 73 81  1  6
 74 82  1  6
 67 83  1  1
 84 85  1  0
 71 85  1  1
 86 83  1  0
 65 60  1  0
 69 57  1  0
 74 72  1  0
M  END