
          11280715092D 1   1.00000     0.00000     0

 28 30  0     0  0            999 V2000
    1.9875    1.0333    0.0000 C   0  0  0  0  0  0           0  0  0
   -2.9333   -0.5625    0.0000 N   0  0  3  0  0  0           0  0  0
    2.5667    0.8833    0.0000 N   0  0  0  0  0  0           0  0  0
    1.8292    1.6125    0.0000 O   0  0  0  0  0  0           0  0  0
   -2.3333   -0.5667    0.0000 C   0  0  0  0  0  0           0  0  0
    1.5625    0.6083    0.0000 N   0  0  0  0  0  0           0  0  0
   -2.0250   -0.0417    0.0000 C   0  0  0  0  0  0           0  0  0
    3.0417    1.2458    0.0000 C   0  0  0  0  0  0           0  0  0
   -1.4458   -0.2000    0.0000 C   0  0  0  0  0  0           0  0  0
   -1.0250    0.2208    0.0000 C   0  0  0  0  0  0           0  0  0
    3.9917    1.9708    0.0000 C   0  0  0  0  0  0           0  0  0
    3.5917    1.0083    0.0000 C   0  0  0  0  0  0           0  0  0
    2.9625    1.8333    0.0000 C   0  0  0  0  0  0           0  0  0
    3.4375    2.2083    0.0000 C   0  0  0  0  0  0           0  0  0
    4.0667    1.3708    0.0000 C   0  0  0  0  0  0           0  0  0
    0.5542    0.3375    0.0000 C   0  0  0  0  0  0           0  0  0
   -0.4458    0.0708    0.0000 O   0  0  0  0  0  0           0  0  0
   -3.2250   -0.0417    0.0000 C   0  0  0  0  0  0           0  0  0
   -3.2333   -1.0792    0.0000 C   0  0  0  0  0  0           0  0  0
   -1.7625    0.9500    0.0000 C   0  0  0  0  0  0           0  0  0
    0.9792    0.7625    0.0000 C   0  0  0  0  0  0           0  0  0
   -2.1833    0.5333    0.0000 C   0  0  0  0  0  0           0  0  0
   -0.0208    0.4958    0.0000 C   0  0  0  0  0  0           0  0  0
   -1.1833    0.8000    0.0000 C   0  0  0  0  0  0           0  0  0
    4.4667    2.3333    0.0000 C   0  0  0  0  0  0           0  0  0
   -3.8250   -0.0417    0.0000 C   0  0  0  0  0  0           0  0  0
   -3.8333   -1.0750    0.0000 C   0  0  0  0  0  0           0  0  0
   -4.1333   -0.5542    0.0000 C   0  0  0  0  0  0           0  0  0
  2  5  1  0     0  0
  3  1  1  0     0  0
  4  1  2  0     0  0
  5  7  1  0     0  0
  6  1  1  0     0  0
  7  9  2  0     0  0
  8  3  1  0     0  0
  9 10  1  0     0  0
 10 17  1  0     0  0
 11 14  1  0     0  0
 12  8  2  0     0  0
 13  8  1  0     0  0
 14 13  2  0     0  0
 15 12  1  0     0  0
 16 21  1  0     0  0
 17 23  1  0     0  0
 18  2  1  0     0  0
 19  2  1  0     0  0
 20 24  1  0     0  0
 21  6  1  0     0  0
 22 20  2  0     0  0
 23 16  1  0     0  0
 24 10  2  0     0  0
 25 11  1  0     0  0
 26 18  1  0     0  0
 27 19  1  0     0  0
 28 27  1  0     0  0
 11 15  2  0     0  0
 22  7  1  0     0  0
 28 26  1  0     0  0
M  END