
          11280715122D 1   1.00000     0.00000     0

 22 21  0     0  0            999 V2000
   -1.1375    1.3958    0.0000 N   0  0  0  0  0  0           0  0  0
   -1.1333    0.0583    0.0000 N   0  0  0  0  0  0           0  0  0
   -1.6208    0.7250    0.0000 C   0  0  0  0  0  0           0  0  0
   -0.3500    1.1458    0.0000 C   0  0  0  0  0  0           0  0  0
    5.2542   -1.7917    0.0000 C   0  0  0  0  0  0           0  0  0
    3.6250   -1.7500    0.0000 C   0  0  0  0  0  0           0  0  0
    4.0417   -1.0375    0.0000 C   0  0  0  0  0  0           0  0  0
    4.8667   -1.0625    0.0000 C   0  0  0  0  0  0           0  0  0
   -0.3458    0.3208    0.0000 C   0  0  0  0  0  0           0  0  0
    6.0792   -1.8167    0.0000 O   0  0  0  0  0  0           0  0  0
    4.0292   -2.4667    0.0000 O   0  0  0  0  0  0           0  0  0
    2.8000   -1.7417    0.0000 O   0  0  0  0  0  0           0  0  0
    4.8250   -2.4917    0.0000 O   0  0  0  0  0  0           0  0  0
    2.5000    1.1583    0.0000 O   0  0  0  0  0  0           0  0  0
    0.3625    1.5625    0.0000 C   0  0  0  0  0  0           0  0  0
    1.7875    1.5708    0.0000 C   0  0  0  0  0  0           0  0  0
    3.2125    1.5708    0.0000 C   0  0  0  0  0  0           0  0  0
    1.0750    1.1500    0.0000 C   0  0  0  0  0  0           0  0  0
    3.9250    1.1583    0.0000 C   0  0  0  0  0  0           0  0  0
    5.3542    1.1708    0.0000 C   0  0  0  0  0  0           0  0  0
    4.6375    1.5708    0.0000 C   0  0  0  0  0  0           0  0  0
    6.0667    1.5833    0.0000 C   0  0  0  0  0  0           0  0  0
  2  3  1  0     0  0
  3  1  2  0     0  0
  4  1  1  0     0  0
  6  7  1  0     0  0
  7  8  2  0     0  0
  8  5  1  0     0  0
  9  4  2  0     0  0
 10  5  2  0     0  0
 11  6  2  0     0  0
 12  6  1  0     0  0
 13  5  1  0     0  0
 14 16  1  0     0  0
 15  4  1  0     0  0
 16 18  1  0     0  0
 17 14  1  0     0  0
 18 15  1  0     0  0
 19 17  1  0     0  0
 20 21  1  0     0  0
 21 19  1  0     0  0
 22 20  1  0     0  0
  9  2  1  0     0  0
M  END