
  SciTegic09261414462D

 52 53  0  0  0  0            999 V2000
   28.7678  -19.8891    0.0000 N   0  0
   29.4823  -20.3016    0.0000 C   0  0  2  0  0  0
   30.1968  -19.8891    0.0000 C   0  0
   29.4823  -21.1266    0.0000 C   0  0
   30.9112  -20.3016    0.0000 N   0  0
   30.1968  -19.0641    0.0000 O   0  0
   31.6257  -19.8891    0.0000 C   0  0  2  0  0  0
   32.3402  -20.3016    0.0000 C   0  0
   31.6257  -19.0641    0.0000 C   0  0
   32.3402  -21.1266    0.0000 O   0  0
   33.0547  -19.8891    0.0000 N   0  0
   33.7691  -20.3016    0.0000 C   0  0  2  0  0  0
   34.4836  -19.8891    0.0000 C   0  0
   33.7691  -21.1266    0.0000 C   0  0
   35.1981  -20.3016    0.0000 N   0  0
   34.4836  -19.0641    0.0000 O   0  0
   34.4836  -21.5391    0.0000 C   0  0
   34.4836  -22.3641    0.0000 C   0  0
   35.1981  -22.7766    0.0000 C   0  0
   35.1981  -23.6016    0.0000 N   0  3
   35.9125  -24.0141    0.0000 C   0  0
   34.4836  -24.0141    0.0000 C   0  0
   35.1913  -24.4224    0.0000 C   0  0
   32.3402  -18.6516    0.0000 C   0  0
   32.3402  -17.8266    0.0000 C   0  0
   33.0547  -19.0641    0.0000 C   0  0
   35.9125  -19.8891    0.0000 C   0  0  2  0  0  0
   36.6270  -20.3016    0.0000 C   0  0
   35.9125  -19.0641    0.0000 C   0  0
   36.6270  -18.6516    0.0000 O   0  0
   37.3415  -19.8890    0.0000 N   0  0
   36.6270  -21.1266    0.0000 O   0  0
   28.0534  -20.3016    0.0000 C   0  0
   27.3389  -19.8891    0.0000 C   0  0  2  0  0  0
   28.0534  -21.1266    0.0000 O   0  0
   27.3389  -19.0641    0.0000 C   0  0
   26.6244  -20.3016    0.0000 N   0  0
   28.0534  -18.6516    0.0000 C   0  0
   28.7676  -19.0666    0.0000 C   0  0
   29.4816  -18.6548    0.0000 C   0  0
   29.4820  -17.8289    0.0000 C   0  0
   28.7625  -17.4166    0.0000 C   0  0
   28.0515  -17.8308    0.0000 C   0  0
   25.9100  -19.8891    0.0000 C   0  0
   25.1955  -20.3016    0.0000 C   0  0
   25.9100  -19.0641    0.0000 O   0  0
   24.4815  -19.8861    0.0000 C   0  0
   23.7675  -20.2979    0.0000 C   0  0
   23.7670  -21.1238    0.0000 C   0  0
   24.4865  -21.5361    0.0000 C   0  0
   25.1976  -21.1220    0.0000 C   0  0
   23.0531  -21.5373    0.0000 Br  0  0
  1  2  1  0
  2  3  1  0
  2  4  1  6
  3  5  1  0
  3  6  2  0
  5  7  1  0
  7  8  1  0
  7  9  1  1
  8 10  2  0
  8 11  1  0
 11 12  1  0
 12 13  1  0
 12 14  1  6
 13 15  1  0
 13 16  2  0
 14 17  1  0
 17 18  1  0
 18 19  1  0
 19 20  1  0
 20 21  1  0
 20 22  1  0
 20 23  1  0
  9 24  1  0
 24 25  1  0
 24 26  1  0
 15 27  1  0
 27 28  1  0
 27 29  1  1
 29 30  1  0
 28 31  1  0
 28 32  2  0
  1 33  1  0
 33 34  1  0
 33 35  2  0
 34 36  1  1
 34 37  1  0
 36 38  1  0
 38 39  2  0
 39 40  1  0
 40 41  2  0
 41 42  1  0
 42 43  2  0
 43 38  1  0
 37 44  1  0
 44 45  1  0
 44 46  2  0
 45 47  2  0
 47 48  1  0
 48 49  2  0
 49 50  1  0
 50 51  2  0
 51 45  1  0
 49 52  1  0
M  CHG  1  20   1
M  END