
  SciTegic01311317052D

 56 62  0  0  1  0            999 V2000
    5.4165   -7.4119    0.0000 C   0  0
    4.7015   -7.8234    0.0000 C   0  0
    8.0686   -4.9509    0.0000 N   0  0
    7.2996   -4.6516    0.0000 C   0  0
    6.7966   -3.3172    0.0000 C   0  0
    8.8709   -6.3476    0.0000 C   0  0
    5.9777   -8.0104    0.0000 C   0  0
    3.9907   -7.4077    0.0000 N   0  0
    5.7657   -5.1172    0.0000 N   0  0
    8.7462   -7.1624    0.0000 N   0  0
    6.4765   -4.7140    0.0000 C   0  0  1  0  0  0
    8.6298   -5.5537    0.0000 C   0  0  2  0  0  0
    5.3001   -5.8031    0.0000 C   0  0
    7.3578   -2.1076    0.0000 N   0  0
    6.7509   -8.3097    0.0000 N   0  0
    6.6387   -2.5066    0.0000 C   0  0
    1.8623   -6.1523    0.0000 N   0  0
    6.2354   -3.9200    0.0000 C   0  0
    7.6114   -3.4170    0.0000 C   0  0
    5.1754   -6.6220    0.0000 C   0  0
    7.9606   -2.6688    0.0000 C   0  0
    2.5690   -6.5638    0.0000 C   0  0
    2.5607   -7.3952    0.0000 C   0  0
    3.2840   -6.1648    0.0000 C   0  0
    3.2715   -7.8109    0.0000 C   0  0
    3.9948   -6.5763    0.0000 C   0  0
    4.7015   -8.6465    0.0000 O   0  0
    8.2848   -7.8441    0.0000 C   0  0  2  0  0  0
    7.3994   -3.9200    0.0000 O   0  0
    9.6940   -6.2770    0.0000 O   0  0
    9.3448   -5.1422    0.0000 C   0  0
    5.5163   -8.6963    0.0000 O   0  0
    4.5311   -5.5038    0.0000 O   0  0
    7.5740   -8.2557    0.0000 C   0  0
    8.8460   -8.4469    0.0000 C   0  0
   10.0557   -5.5537    0.0000 C   0  0
    8.6049   -9.2326    0.0000 C   0  0
    1.8748   -5.3292    0.0000 C   0  0
    1.1473   -6.5596    0.0000 C   0  0
    8.0853   -4.0904    0.0000 C   0  0
    8.7836   -2.5939    0.0000 C   0  0
   10.0557   -6.3768    0.0000 C   0  0
   10.7748   -5.1422    0.0000 C   0  0
    7.7984   -9.4197    0.0000 C   0  0
    9.1660   -9.8395    0.0000 C   0  0
    0.4407   -6.1356    0.0000 C   0  0
    1.1640   -4.9052    0.0000 C   0  0
    8.9083   -4.0198    0.0000 C   0  0
    9.2575   -3.2674    0.0000 C   0  0
   11.4898   -5.5537    0.0000 C   0  0
   10.7748   -6.7966    0.0000 C   0  0
    8.9208  -10.6293    0.0000 C   0  0
    7.5573  -10.2053    0.0000 C   0  0
    0.4489   -5.3126    0.0000 C   0  0
   11.4898   -6.3768    0.0000 C   0  0
    8.1185  -10.8122    0.0000 C   0  0
  2  1  1  0
  3  4  1  0
  4 11  1  0
  5 18  1  0
  6 10  1  0
  7  1  1  0
  8  2  1  0
  9 13  1  0
 10 28  1  0
 11  9  1  0
 12  3  1  0
 13 20  1  0
 14 16  1  0
 15  7  1  0
 16  5  2  0
 17 22  1  0
 11 18  1  1
 19  5  1  0
 20  1  1  0
 21 19  2  0
 22 24  1  0
 23 25  1  0
 24 26  1  0
 25  8  1  0
 26  8  1  0
 27  2  2  0
 28 34  1  0
 29  4  2  0
 30  6  2  0
 12 31  1  1
 32  7  2  0
 33 13  2  0
 34 15  1  0
 28 35  1  1
 36 31  1  0
 37 35  1  0
 38 17  1  0
 39 17  1  0
 40 19  1  0
 41 21  1  0
 42 36  2  0
 43 36  1  0
 44 37  1  0
 45 37  2  0
 46 39  1  0
 47 38  1  0
 48 40  2  0
 49 48  1  0
 50 43  2  0
 51 42  1  0
 52 45  1  0
 53 44  2  0
 54 46  1  0
 55 50  1  0
 56 52  2  0
 23 22  1  0
  6 12  1  0
 14 21  1  0
 56 53  1  0
 47 54  1  0
 49 41  2  0
 51 55  2  0
M  END