
  SciTegic01161211252D

 13 12  0  0  0  0            999 V2000
    3.3792   -2.6792    0.0000 P   0  0
    6.7917   -3.0542    0.0000 P   0  0
    4.0667   -3.0750    0.0000 C   0  0
    3.3917   -1.9000    0.0000 O   0  0
    2.6125   -2.7417    0.0000 O   0  0
    7.4792   -2.6667    0.0000 O   0  0
    7.5542   -3.2667    0.0000 O   0  0
    3.3625   -3.4917    0.0000 O   0  0
    6.7875   -3.8500    0.0000 O   0  0
    4.7417   -2.6750    0.0000 C   0  0
    6.1125   -2.6625    0.0000 C   0  0
    5.4292   -3.0667    0.0000 C   0  0
    4.7417   -1.8792    0.0000 O   0  0
  2 11  1  0
  3  1  1  0
  4  1  1  0
  5  1  1  0
  6  2  1  0
  7  2  1  0
  8  1  2  0
  9  2  2  0
 10  3  1  0
 11 12  1  0
 12 10  1  0
 13 10  2  0
M  END