
  Mrv0541 04051115152D          

 19 21  0  0  0  0            999 V2000
   -1.8287   -2.7140    0.0000 O   0  0  0  0  0  0  0  0  0  0  0  0
   -1.9149   -1.8935    0.0000 C   0  0  0  0  0  0  0  0  0  0  0  0
   -1.2475   -1.4086    0.0000 C   0  0  1  0  0  0  0  0  0  0  0  0
   -1.2475   -0.5836    0.0000 O   0  0  0  0  0  0  0  0  0  0  0  0
   -0.4629   -0.3286    0.0000 C   0  0  1  0  0  0  0  0  0  0  0  0
   -0.2079    0.4560    0.0000 N   0  0  0  0  0  0  0  0  0  0  0  0
   -0.6929    1.1234    0.0000 C   0  0  0  0  0  0  0  0  0  0  0  0
   -0.2079    1.7909    0.0000 C   0  0  0  0  0  0  0  0  0  0  0  0
    0.5767    1.5359    0.0000 C   0  0  0  0  0  0  0  0  0  0  0  0
    1.2912    1.9484    0.0000 C   0  0  0  0  0  0  0  0  0  0  0  0
    2.0056    1.5359    0.0000 N   0  0  0  0  0  0  0  0  0  0  0  0
    2.0056    0.7109    0.0000 C   0  0  0  0  0  0  0  0  0  0  0  0
    1.2912    0.2984    0.0000 N   0  0  0  0  0  0  0  0  0  0  0  0
    0.5767    0.7109    0.0000 C   0  0  0  0  0  0  0  0  0  0  0  0
    1.2912    2.7734    0.0000 N   0  0  0  0  0  0  0  0  0  0  0  0
    0.0220   -0.9961    0.0000 C   0  0  2  0  0  0  0  0  0  0  0  0
    0.8470   -0.9961    0.0000 O   0  0  0  0  0  0  0  0  0  0  0  0
   -0.4629   -1.6635    0.0000 C   0  0  2  0  0  0  0  0  0  0  0  0
   -0.2079   -2.4481    0.0000 O   0  0  0  0  0  0  0  0  0  0  0  0
  2  1  1  0  0  0  0
  3  2  1  1  0  0  0
  3  4  1  0  0  0  0
 18  3  1  0  0  0  0
  5  4  1  0  0  0  0
  5  6  1  1  0  0  0
  5 16  1  0  0  0  0
  7  6  1  0  0  0  0
 14  6  1  0  0  0  0
  8  7  2  0  0  0  0
  9  8  1  0  0  0  0
  9 10  2  0  0  0  0
 14  9  1  0  0  0  0
 10 11  1  0  0  0  0
 10 15  1  0  0  0  0
 12 11  2  0  0  0  0
 12 13  1  0  0  0  0
 14 13  2  0  0  0  0
 16 17  1  6  0  0  0
 16 18  1  0  0  0  0
 18 19  1  6  0  0  0
M  END