
  Mrv0541 04051115152D          

 34 37  0  0  0  0            999 V2000
   -3.1543   -0.2410    0.0000 N   0  0  0  0  0  0  0  0  0  0  0  0
    1.1325   -0.2410    0.0000 N   0  0  0  0  0  0  0  0  0  0  0  0
   -2.4399   -0.6535    0.0000 C   0  0  0  0  0  0  0  0  0  0  0  0
    0.4180   -0.6535    0.0000 C   0  0  0  0  0  0  0  0  0  0  0  0
   -3.8688   -0.6535    0.0000 C   0  0  0  0  0  0  0  0  0  0  0  0
   -1.7254   -0.2410    0.0000 N   0  0  0  0  0  0  0  0  0  0  0  0
    1.8470   -0.6535    0.0000 C   0  0  0  0  0  0  0  0  0  0  0  0
   -3.1543   -1.8910    0.0000 O   0  0  0  0  0  0  0  0  0  0  0  0
   -3.8688   -1.4785    0.0000 C   0  0  0  0  0  0  0  0  0  0  0  0
   -0.2964   -0.2410    0.0000 N   0  0  0  0  0  0  0  0  0  0  0  0
    0.4180   -1.4785    0.0000 C   0  0  0  0  0  0  0  0  0  0  0  0
    2.5614    2.2340    0.0000 C   0  0  0  0  0  0  0  0  0  0  0  0
   -2.4399   -1.4785    0.0000 C   0  0  0  0  0  0  0  0  0  0  0  0
   -1.0109   -0.6535    0.0000 C   0  0  0  0  0  0  0  0  0  0  0  0
    3.2759    1.8215    0.0000 C   0  0  0  0  0  0  0  0  0  0  0  0
    1.8470    1.8215    0.0000 C   0  0  0  0  0  0  0  0  0  0  0  0
    1.8470   -1.4785    0.0000 N   0  0  0  0  0  0  0  0  0  0  0  0
    2.5614    0.5840    0.0000 C   0  0  0  0  0  0  0  0  0  0  0  0
    3.2759    0.9965    0.0000 C   0  0  0  0  0  0  0  0  0  0  0  0
    1.8470    0.9965    0.0000 C   0  0  0  0  0  0  0  0  0  0  0  0
    2.5614   -0.2410    0.0000 N   0  0  0  0  0  0  0  0  0  0  0  0
    1.1325   -1.8910    0.0000 C   0  0  0  0  0  0  0  0  0  0  0  0
   -4.5833   -0.2410    0.0000 O   0  0  0  0  0  0  0  0  0  0  0  0
   -1.7254   -1.8910    0.0000 C   0  0  0  0  0  0  0  0  0  0  0  0
   -0.2964   -1.8910    0.0000 F   0  0  0  0  0  0  0  0  0  0  0  0
   -1.0109   -1.4785    0.0000 C   0  0  0  0  0  0  0  0  0  0  0  0
    2.5614    3.0590    0.0000 O   0  0  0  0  0  0  0  0  0  0  0  0
    1.1325    2.2340    0.0000 O   0  0  0  0  0  0  0  0  0  0  0  0
    3.9904    2.2340    0.0000 O   0  0  0  0  0  0  0  0  0  0  0  0
   -4.6933   -1.5073    0.0000 C   0  0  0  0  0  0  0  0  0  0  0  0
   -4.3060   -2.1781    0.0000 C   0  0  0  0  0  0  0  0  0  0  0  0
    1.8470    3.4715    0.0000 C   0  0  0  0  0  0  0  0  0  0  0  0
    0.4180    1.8215    0.0000 C   0  0  0  0  0  0  0  0  0  0  0  0
    4.7049    1.8215    0.0000 C   0  0  0  0  0  0  0  0  0  0  0  0
  3  1  1  0  0  0  0
  5  1  1  0  0  0  0
  4  2  2  0  0  0  0
  7  2  1  0  0  0  0
  3  6  2  0  0  0  0
 13  3  1  0  0  0  0
  4 10  1  0  0  0  0
 11  4  1  0  0  0  0
  5  9  1  0  0  0  0
  5 23  2  0  0  0  0
 14  6  1  0  0  0  0
  7 17  2  0  0  0  0
  7 21  1  0  0  0  0
  9  8  1  0  0  0  0
 13  8  1  0  0  0  0
 30  9  1  0  0  0  0
 31  9  1  0  0  0  0
 14 10  1  0  0  0  0
 11 22  2  0  0  0  0
 11 25  1  0  0  0  0
 12 15  2  0  0  0  0
 12 16  1  0  0  0  0
 12 27  1  0  0  0  0
 13 24  2  0  0  0  0
 14 26  2  0  0  0  0
 15 19  1  0  0  0  0
 15 29  1  0  0  0  0
 16 20  2  0  0  0  0
 16 28  1  0  0  0  0
 22 17  1  0  0  0  0
 18 19  2  0  0  0  0
 18 20  1  0  0  0  0
 18 21  1  0  0  0  0
 24 26  1  0  0  0  0
 32 27  1  0  0  0  0
 33 28  1  0  0  0  0
 34 29  1  0  0  0  0
M  END