
  SciTegic09261414532D

 50 57  0  0  0  0            999 V2000
   20.6690   -9.4873    0.0000 N   0  0
   19.8833   -9.6946    0.0000 C   0  0
   19.8387  -10.5107    0.0000 N   0  0
   21.1162  -10.1700    0.0000 C   0  0
   20.6010  -10.7998    0.0000 C   0  0
   20.8891  -11.5588    0.0000 C   0  0
   21.6921  -11.6891    0.0000 C   0  0
   22.2062  -11.0544    0.0000 C   0  0
   21.9153  -10.2979    0.0000 C   0  0
   19.1232   -9.3997    0.0000 C   0  0
   19.0016   -8.5905    0.0000 C   0  0
   18.2413   -8.2928    0.0000 C   0  0
   17.6021   -8.8033    0.0000 C   0  0
   17.7281   -9.6150    0.0000 C   0  0
   18.4883   -9.9089    0.0000 C   0  0
   13.4038   -6.9131    0.0000 C   0  0
   13.4027   -7.7326    0.0000 C   0  0
   14.1107   -8.1416    0.0000 C   0  0
   14.1089   -6.5042    0.0000 C   0  0
   14.8176   -6.9095    0.0000 C   0  0
   14.8178   -7.7326    0.0000 C   0  0
   15.6008   -7.9868    0.0000 N   0  0
   16.0845   -7.3207    0.0000 C   0  0
   15.6004   -6.6549    0.0000 N   0  0
   15.8535   -8.7639    0.0000 C   0  0
   16.8984   -7.3190    0.0000 N   0  0
   17.3067   -8.0282    0.0000 C   0  0
   18.1231   -8.0282    0.0000 C   0  0
   18.5323   -7.3198    0.0000 C   0  0
   18.1190   -6.6099    0.0000 C   0  0
   17.3040   -6.6134    0.0000 C   0  0
   19.3495   -7.3185    0.0000 C   0  0
   19.7593   -8.0255    0.0000 O   0  0
   20.5764   -8.0241    0.0000 C   0  0
   15.3069   -9.3714    0.0000 C   0  0
   14.5093   -9.2003    0.0000 C   0  0
   13.9629   -9.8070    0.0000 C   0  0
   14.2155  -10.5851    0.0000 C   0  0
   15.0196  -10.7530    0.0000 C   0  0
   15.5625  -10.1451    0.0000 C   0  0
   20.9862   -8.7312    0.0000 C   0  0
   19.7569   -6.6101    0.0000 O   0  0
   21.8006   -8.6805    0.0000 C   0  0
   22.2525   -9.3625    0.0000 C   0  0
   23.0646   -9.3125    0.0000 C   0  0
   23.4310   -8.5816    0.0000 C   0  0
   22.9791   -7.8996    0.0000 C   0  0
   22.1607   -7.9484    0.0000 C   0  0
   14.2576   -8.4229    0.0000 F   0  0
   16.3626  -10.3114    0.0000 Cl  0  0
  1  2  1  0
  2  3  2  0
  3  5  1  0
  4  1  1  0
  4  5  2  0
  5  6  1  0
  6  7  2  0
  7  8  1  0
  8  9  2  0
  9  4  1  0
 10 11  2  0
 11 12  1  0
 12 13  2  0
 13 14  1  0
 14 15  2  0
 15 10  1  0
  2 10  1  0
 16 17  2  0
 17 18  1  0
 18 21  2  0
 20 19  2  0
 19 16  1  0
 20 21  1  0
 21 22  1  0
 22 23  1  0
 23 24  2  0
 24 20  1  0
 22 25  1  0
 26 27  1  0
 27 28  1  0
 28 29  1  0
 29 30  1  0
 30 31  1  0
 31 26  1  0
 23 26  1  0
 29 32  1  0
 32 33  1  0
 33 34  1  0
 25 35  1  0
 35 36  2  0
 36 37  1  0
 37 38  2  0
 38 39  1  0
 39 40  2  0
 40 35  1  0
 34 41  1  0
 41  1  1  0
 32 42  2  0
 43 44  1  0
 43 48  1  0
 44 45  1  0
 45 46  1  0
 46 47  1  0
 47 48  1  0
 41 43  1  0
 36 49  1  0
 40 50  1  0
M  END