
  SciTegic12161614552D

 33 37  0  0  0  0            999 V2000
    1.7138   -1.2033    0.0000 N   0  0
    2.5889    0.0182    0.0000 C   0  0
    1.7138    1.2033    0.0000 C   0  0
    0.2917    0.7475    0.0000 C   0  0
   -1.0028    1.5132    0.0000 C   0  0
   -2.3155    0.7475    0.0000 C   0  0
   -2.3155   -0.7475    0.0000 C   0  0
   -1.0028   -1.5132    0.0000 C   0  0
    0.2917   -0.7475    0.0000 C   0  0
    4.0872    0.0351    0.0000 C   0  0
    5.2871    0.0488    0.0000 N   0  0
   -3.6217    1.4865    0.0000 C   0  0
   -4.9153    0.7255    0.0000 N   0  0
   -6.2219    1.4621    0.0000 C   0  0
   -7.5133    0.6990    0.0000 C   0  0
   -7.4980   -0.8010    0.0000 C   0  0
   -6.1914   -1.5377    0.0000 C   0  0
   -4.9001   -0.7745    0.0000 C   0  0
   -8.7885   -1.5672    0.0000 N   0  0
   -7.4396   -5.3147    0.0000 C   0  0
   -8.7456   -6.0918    0.0000 N   0  0
  -10.0467   -5.3374    0.0000 C   0  0
  -10.0597   -3.8424    0.0000 C   0  0
   -8.7711   -3.0679    0.0000 C   0  0
   -7.4527   -3.8197    0.0000 N   0  0
  -11.4857   -3.3990    0.0000 C   0  0
  -12.3502   -4.6282    0.0000 C   0  0
  -11.4648   -5.8056    0.0000 S   0  0
  -13.8482   -4.6612    0.0000 C   0  0
  -14.5704   -5.9768    0.0000 C   0  0
  -15.7701   -6.0035    0.0000 F   0  0
  -13.9479   -7.0027    0.0000 F   0  0
  -15.1474   -7.0290    0.0000 F   0  0
  1  2  1  0
  2  3  2  0
  3  4  1  0
  4  5  1  0
  5  6  2  0
  6  7  1  0
  7  8  2  0
  8  9  1  0
  1  9  1  0
  4  9  2  0
 10 11  3  0
  2 10  1  0
 13 14  1  0
 14 15  1  0
 15 16  1  0
 16 17  1  0
 17 18  1  0
 13 18  1  0
 20 21  1  0
 21 22  2  0
 22 23  1  0
 23 24  2  0
 24 25  1  0
 20 25  2  0
 26 27  2  0
 27 28  1  0
 22 28  1  0
 23 26  1  0
 29 30  1  0
 27 29  1  0
 19 24  1  0
 16 19  1  0
 12 13  1  0
  6 12  1  0
 30 31  1  0
 30 32  1  0
 30 33  1  0
M  END