
          11280714462D 1   1.00000     0.00000     0

 20 21  0     0  0            999 V2000
   -0.5458    0.0708    0.0000 C   0  0  0  0  0  0           0  0  0
   -1.2583   -0.3417    0.0000 C   0  0  0  0  0  0           0  0  0
    0.2417   -0.1875    0.0000 N   0  0  0  0  0  0           0  0  0
   -0.5458    0.9000    0.0000 C   0  0  0  0  0  0           0  0  0
   -1.9708    0.0708    0.0000 C   0  0  0  0  0  0           0  0  0
   -1.2583    1.3125    0.0000 C   0  0  0  0  0  0           0  0  0
    0.2417    1.1583    0.0000 C   0  0  0  0  0  0           0  0  0
   -1.9708    0.9000    0.0000 C   0  0  0  0  0  0           0  0  0
    0.7375    0.4875    0.0000 C   0  0  0  0  0  0           0  0  0
    0.6542    1.8750    0.0000 C   0  0  0  0  0  0           0  0  0
   -1.2583   -1.1667    0.0000 O   0  0  0  0  0  0           0  0  0
   -2.6875   -0.3417    0.0000 O   0  0  0  0  0  0           0  0  0
    1.8792    2.6083    0.0000 N   0  0  3  0  0  0           0  0  0
   -2.6833    1.3083    0.0000 O   0  0  0  0  0  0           0  0  0
    1.4750    1.8958    0.0000 C   0  0  0  0  0  0           0  0  0
    1.4625    3.3208    0.0000 C   0  0  0  0  0  0           0  0  0
    2.7042    2.6208    0.0000 C   0  0  0  0  0  0           0  0  0
   -1.9708   -1.5792    0.0000 C   0  0  0  0  0  0           0  0  0
   -3.4000    0.0708    0.0000 C   0  0  0  0  0  0           0  0  0
   -2.6833    2.1333    0.0000 C   0  0  0  0  0  0           0  0  0
  2  1  2  0     0  0
  3  1  1  0     0  0
  4  1  1  0     0  0
  5  2  1  0     0  0
  6  4  2  0     0  0
  7  4  1  0     0  0
  8  6  1  0     0  0
  9  3  1  0     0  0
 10  7  1  0     0  0
 11  2  1  0     0  0
 12  5  1  0     0  0
 13 15  1  0     0  0
 14  8  1  0     0  0
 15 10  1  0     0  0
 16 13  1  0     0  0
 17 13  1  0     0  0
 18 11  1  0     0  0
 19 12  1  0     0  0
 20 14  1  0     0  0
  7  9  2  0     0  0
  8  5  2  0     0  0
M  END