
          11280715222D 1   1.00000     0.00000     0

 27 29  0     1  0            999 V2000
   -0.0458    0.5208    0.0000 N   0  0  3  0  0  0           0  0  0
    1.2042   -0.1792    0.0000 C   0  0  2  0  0  0           0  0  0
    1.7875   -0.7625    0.0000 C   0  0  0  0  0  0           0  0  0
    1.1917    1.2458    0.0000 C   0  0  1  0  0  0           0  0  0
    0.3792   -0.1792    0.0000 C   0  0  0  0  0  0           0  0  0
    0.3750    1.2375    0.0000 C   0  0  0  0  0  0           0  0  0
    5.3292    2.3750    0.0000 C   0  0  0  0  0  0           0  0  0
   -0.8708    0.5125    0.0000 C   0  0  0  0  0  0           0  0  0
    1.5792   -1.5542    0.0000 C   0  0  0  0  0  0           0  0  0
   -2.5250    1.9208    0.0000 N   0  0  0  0  0  0           0  0  0
    5.0750    3.2708    0.0000 O   0  0  0  0  0  0           0  0  0
   -1.2875    1.2250    0.0000 C   0  0  0  0  0  0           0  0  0
    2.4917    1.1958    0.0000 C   0  0  0  0  0  0           0  0  0
    3.4292    1.1958    0.0000 C   0  0  0  0  0  0           0  0  0
    6.2292    2.1500    0.0000 O   0  0  0  0  0  0           0  0  0
    0.7792   -1.7750    0.0000 O   0  0  0  0  0  0           0  0  0
    1.9000    1.6458    0.0000 C   0  0  0  0  0  0           0  0  0
   -2.1083    1.2208    0.0000 C   0  0  0  0  0  0           0  0  0
    2.5792   -0.5417    0.0000 C   0  0  0  0  0  0           0  0  0
    4.6792    1.7083    0.0000 C   0  0  0  0  0  0           0  0  0
   -2.1208    2.6458    0.0000 C   0  0  0  0  0  0           0  0  0
    3.8750    1.7000    0.0000 C   0  0  0  0  0  0           0  0  0
    2.1667   -2.1417    0.0000 C   0  0  0  0  0  0           0  0  0
   -0.8750    1.9458    0.0000 C   0  0  0  0  0  0           0  0  0
   -1.2958    2.6500    0.0000 C   0  0  0  0  0  0           0  0  0
    3.1667   -1.1167    0.0000 C   0  0  0  0  0  0           0  0  0
    2.9542   -1.9167    0.0000 C   0  0  0  0  0  0           0  0  0
  2  5  1  0     0  0
  2  3  1  1     0  0
  4  6  1  0     0  0
  5  1  1  0     0  0
  6  1  1  0     0  0
  7 20  1  0     0  0
  8  1  1  0     0  0
  9  3  2  0     0  0
 10 18  2  0     0  0
 11  7  2  0     0  0
 12  8  1  0     0  0
 13 17  1  0     0  0
 14 13  2  0     0  0
 15  7  1  0     0  0
 16  9  1  0     0  0
  4 17  1  1     0  0
 18 12  1  0     0  0
 19  3  1  0     0  0
 20 22  1  0     0  0
 21 25  2  0     0  0
 22 14  1  0     0  0
 23  9  1  0     0  0
 24 12  2  0     0  0
 25 24  1  0     0  0
 26 19  2  0     0  0
 27 26  1  0     0  0
  2  4  1  0     0  0
 21 10  1  0     0  0
 23 27  2  0     0  0
M  END