
  SciTegic12201609472D

 36 40  0  0  0  0            999 V2000
   -2.5827    5.3949    0.0000 O   0  0
   -3.6222    5.9944    0.0000 C   0  0
   -3.6225    7.4952    0.0000 C   0  0
   -4.9232    8.2424    0.0000 C   0  0
   -4.9266    9.7424    0.0000 N   0  0
   -3.6292   10.4953    0.0000 C   0  0
   -2.3285    9.7482    0.0000 C   0  0
   -2.3252    8.2482    0.0000 C   0  0
   -3.6318   11.6953    0.0000 O   0  0
   -4.9214    5.2429    0.0000 N   0  0
   -4.9211    3.7421    0.0000 C   0  0
   -6.2185    2.9892    0.0000 C   0  0
   -7.5198    3.7366    0.0000 N   0  0
   -7.5257    5.2367    0.0000 C   0  0
   -8.8276    5.9817    0.0000 C   0  0
  -10.1237    5.2267    0.0000 N   0  0
  -11.1653    5.8227    0.0000 C   0  0
  -10.1180    3.7267    0.0000 C   0  0
   -8.8161    2.9817    0.0000 C   0  0
   -6.2151    1.4892    0.0000 C   0  0
   -4.9144    0.7421    0.0000 C   0  0
   -3.6168    1.4950    0.0000 C   0  0
   -2.3155    0.7475    0.0000 C   0  0
   -1.0028    1.5132    0.0000 C   0  0
    0.2917    0.7475    0.0000 C   0  0
    1.7138    1.2033    0.0000 C   0  0
    2.5889    0.0182    0.0000 C   0  0
    1.7138   -1.2033    0.0000 N   0  0
    0.2917   -0.7475    0.0000 C   0  0
   -1.0028   -1.5132    0.0000 C   0  0
   -2.3155   -0.7475    0.0000 C   0  0
   -3.6204    2.9950    0.0000 C   0  0
   -1.0237    7.5007    0.0000 C   0  0
    0.0145    8.1024    0.0000 F   0  0
   -1.0214    6.3007    0.0000 F   0  0
    0.0166    6.9025    0.0000 F   0  0
  1  2  2  0
  2  3  1  0
  3  4  2  0
  4  5  1  0
  5  6  1  0
  6  7  1  0
  7  8  2  0
  3  8  1  0
  6  9  2  0
  2 10  1  0
 10 11  1  0
 11 12  2  0
 12 13  1  0
 13 14  1  0
 14 15  1  0
 15 16  1  0
 16 17  1  0
 16 18  1  0
 18 19  1  0
 13 19  1  0
 12 20  1  0
 20 21  2  0
 21 22  1  0
 22 23  1  0
 23 24  2  0
 24 25  1  0
 25 26  1  0
 26 27  2  0
 27 28  1  0
 25 29  2  0
 28 29  1  0
 29 30  1  0
 30 31  2  0
 23 31  1  0
 22 32  2  0
 11 32  1  0
  8 33  1  0
 33 34  1  0
 33 35  1  0
 33 36  1  0
M  END