
          11280715502D 1   1.00000     0.00000     0

 44 48  0     1  0            999 V2000
   -1.6898  -11.8429    0.0000 C   0  0  0  0  0  0           0  0  0
   -1.2701  -12.5558    0.0000 C   0  0  0  0  0  0           0  0  0
   -0.4446  -12.5478    0.0000 C   0  0  0  0  0  0           0  0  0
   -0.0379  -11.8276    0.0000 C   0  0  0  0  0  0           0  0  0
   -0.4628  -11.1139    0.0000 C   0  0  0  0  0  0           0  0  0
   -1.2868  -11.1254    0.0000 C   0  0  0  0  0  0           0  0  0
   -0.0600  -10.3939    0.0000 C   0  0  0  0  0  0           0  0  0
    0.7649  -10.3826    0.0000 N   0  0  3  0  0  0           0  0  0
   -0.4823   -9.6851    0.0000 O   0  0  0  0  0  0           0  0  0
    1.1857  -11.0942    0.0000 C   0  0  1  0  0  0           0  0  0
    2.0071  -11.0850    0.0000 C   0  0  0  0  0  0           0  0  0
    2.4137  -10.3668    0.0000 N   0  0  3  0  0  0           0  0  0
    1.9927   -9.6561    0.0000 C   0  0  0  0  0  0           0  0  0
    1.1651   -9.6638    0.0000 C   0  0  0  0  0  0           0  0  0
    0.7810  -11.8132    0.0000 C   0  0  0  0  0  0           0  0  0
    1.1929  -12.5260    0.0000 C   0  0  0  0  0  0           0  0  0
    0.8625  -13.2801    0.0000 C   0  0  0  0  0  0           0  0  0
    1.4746  -13.8308    0.0000 N   0  0  0  0  0  0           0  0  0
    2.0159  -12.6136    0.0000 C   0  0  0  0  0  0           0  0  0
    2.1865  -13.4177    0.0000 C   0  0  0  0  0  0           0  0  0
    2.9666  -13.6704    0.0000 C   0  0  0  0  0  0           0  0  0
    3.5769  -13.1202    0.0000 C   0  0  0  0  0  0           0  0  0
    3.4017  -12.3139    0.0000 C   0  0  0  0  0  0           0  0  0
    2.6218  -12.0649    0.0000 C   0  0  0  0  0  0           0  0  0
   -0.0334  -13.2600    0.0000 C   0  0  3  0  0  0           0  0  0
    0.6770  -12.8404    0.0000 F   0  0  0  0  0  0           0  0  0
    0.3826  -13.9724    0.0000 F   0  0  0  0  0  0           0  0  0
   -0.7459  -13.6759    0.0000 F   0  0  0  0  0  0           0  0  0
   -2.5148  -11.8512    0.0000 C   0  0  3  0  0  0           0  0  0
   -2.5119  -12.6768    0.0000 F   0  0  0  0  0  0           0  0  0
   -2.5283  -11.0267    0.0000 F   0  0  0  0  0  0           0  0  0
   -3.3423  -11.8607    0.0000 F   0  0  0  0  0  0           0  0  0
    3.2386  -10.3586    0.0000 C   0  0  0  0  0  0           0  0  0
    3.6441   -9.6401    0.0000 C   0  0  0  0  0  0           0  0  0
    4.4690   -9.6320    0.0000 N   0  0  0  0  0  0           0  0  0
    3.2245   -8.9297    0.0000 C   0  0  0  0  0  0           0  0  0
    4.8886  -10.3423    0.0000 O   0  0  0  0  0  0           0  0  0
    5.7135  -10.3342    0.0000 C   0  0  0  0  0  0           0  0  0
    6.1331  -11.0445    0.0000 C   0  0  0  0  0  0           0  0  0
    5.7263  -11.7603    0.0000 C   0  0  0  0  0  0           0  0  0
    6.1452  -12.4701    0.0000 C   0  0  0  0  0  0           0  0  0
    6.9710  -12.4624    0.0000 C   0  0  0  0  0  0           0  0  0
    7.3762  -11.7389    0.0000 C   0  0  0  0  0  0           0  0  0
    6.9551  -11.0320    0.0000 N   0  0  0  0  0  0           0  0  0
 20 21  1  0     0  0
  2  3  1  0     0  0
 21 22  2  0     0  0
  5  6  2  0     0  0
 22 23  1  0     0  0
  6  1  1  0     0  0
 23 24  2  0     0  0
 24 19  1  0     0  0
  1  2  2  0     0  0
  3 25  1  0     0  0
  8 14  1  0     0  0
 25 26  1  0     0  0
 10 11  1  0     0  0
 25 27  1  0     0  0
 11 12  1  0     0  0
 25 28  1  0     0  0
 12 13  1  0     0  0
  1 29  1  0     0  0
 13 14  1  0     0  0
 29 30  1  0     0  0
  5  7  1  0     0  0
 29 31  1  0     0  0
 10 15  1  1     0  0
 29 32  1  0     0  0
  3  4  2  0     0  0
 12 33  1  0     0  0
 15 16  1  0     0  0
 33 34  1  0     0  0
 16 17  2  0     0  0
 34 35  2  0     0  0
  7  8  1  0     0  0
 34 36  1  0     0  0
 35 37  1  0     0  0
 17 18  1  0     0  0
 37 38  1  0     0  0
 18 20  1  0     0  0
 38 39  1  0     0  0
 19 16  1  0     0  0
 39 40  2  0     0  0
  7  9  2  0     0  0
 40 41  1  0     0  0
  8 10  1  0     0  0
 41 42  2  0     0  0
 19 20  2  0     0  0
 42 43  1  0     0  0
  4  5  1  0     0  0
 43 44  2  0     0  0
 44 39  1  0     0  0
M  END