
  SciTegic12231509382D

 10 10  0  0  0  0            999 V2000
    0.0000    0.9075    0.0000 S   0  0
    0.0000    1.7325    0.0000 O   0  0
   -0.8250    0.9075    0.0000 O   0  0
    0.8250    0.9075    0.0000 N   0  0
    0.0000    0.0825    0.0000 C   0  0
    0.7145   -0.3300    0.0000 C   0  0
   -0.7145   -0.3300    0.0000 C   0  0
    0.7145   -1.1550    0.0000 C   0  0
   -0.7145   -1.1550    0.0000 C   0  0
    0.0000   -1.5675    0.0000 C   0  0
  1  2  2  0
  1  3  2  0
  1  4  1  0
  1  5  1  0
  5  6  2  0
  5  7  1  0
  6  8  1  0
  7  9  2  0
  8 10  2  0
  9 10  1  0
M  END