
  SciTegic07111213592D

 19 21  0  0  0  0            999 V2000
   -0.6957   -0.1468    0.0000 C   0  0
   -0.6957    0.6782    0.0000 C   0  0
    0.0188    1.0907    0.0000 C   0  0
    0.7332    0.6782    0.0000 C   0  0
    1.4477    1.0907    0.0000 C   0  0
    2.1622    0.6782    0.0000 C   0  0
    2.1622   -0.1468    0.0000 C   0  0
    1.4477   -0.5593    0.0000 C   0  0
    0.7332   -0.1468    0.0000 C   0  0
    0.0188   -0.5593    0.0000 O   0  0
    0.0188    1.9157    0.0000 O   0  0
    1.4477    1.9157    0.0000 O   0  0
    2.8766   -0.5593    0.0000 O   0  0
   -1.4102   -1.3843    0.0000 C   0  0
   -2.1247   -1.7968    0.0000 C   0  0
   -2.8391   -1.3843    0.0000 C   0  0
   -2.8391   -0.5593    0.0000 C   0  0
   -2.1247   -0.1468    0.0000 C   0  0
   -1.4102   -0.5593    0.0000 C   0  0
  1  2  2  0
  1 10  1  0
 19  1  1  0
  2  3  1  0
  3  4  1  0
  3 11  2  0
  4  5  2  0
  9  4  1  0
  5  6  1  0
  5 12  1  0
  6  7  2  0
  7  8  1  0
  7 13  1  0
  9  8  2  0
  9 10  1  0
 14 15  2  0
 19 14  1  0
 15 16  1  0
 16 17  2  0
 17 18  1  0
 19 18  2  0
M  END