
  Mrv0541 04051115152D          

 24 25  0  0  0  0            999 V2000
    1.4590    1.8045    0.0000 O   0  0  0  0  0  0  0  0  0  0  0  0
    1.4590    0.9795    0.0000 C   0  0  2  0  0  0  0  0  0  0  0  0
    2.1735    0.5670    0.0000 C   0  0  1  0  0  0  0  0  0  0  0  0
    2.8880    0.9795    0.0000 O   0  0  0  0  0  0  0  0  0  0  0  0
    2.1735   -0.2580    0.0000 C   0  0  1  0  0  0  0  0  0  0  0  0
    2.8880   -0.6705    0.0000 O   0  0  0  0  0  0  0  0  0  0  0  0
    1.4590   -0.6705    0.0000 C   0  0  1  0  0  0  0  0  0  0  0  0
    1.4590   -1.4955    0.0000 C   0  0  0  0  0  0  0  0  0  0  0  0
    0.7446   -1.9080    0.0000 O   0  0  0  0  0  0  0  0  0  0  0  0
    0.7446   -0.2580    0.0000 O   0  0  0  0  0  0  0  0  0  0  0  0
    0.7446    0.5670    0.0000 C   0  0  1  0  0  0  0  0  0  0  0  0
    0.0301    0.9795    0.0000 O   0  0  0  0  0  0  0  0  0  0  0  0
   -0.6844    0.5670    0.0000 C   0  0  1  0  0  0  0  0  0  0  0  0
   -1.3988    0.9795    0.0000 C   0  0  2  0  0  0  0  0  0  0  0  0
   -1.3988    1.8045    0.0000 O   0  0  0  0  0  0  0  0  0  0  0  0
   -2.1133    0.5670    0.0000 C   0  0  1  0  0  0  0  0  0  0  0  0
   -2.8278    0.9795    0.0000 O   0  0  0  0  0  0  0  0  0  0  0  0
   -2.1133   -0.2580    0.0000 C   0  0  2  0  0  0  0  0  0  0  0  0
   -2.8278   -0.6705    0.0000 O   0  0  0  0  0  0  0  0  0  0  0  0
   -2.8278   -1.4955    0.0000 C   0  0  0  0  0  0  0  0  0  0  0  0
   -1.3988   -0.6705    0.0000 O   0  0  0  0  0  0  0  0  0  0  0  0
   -0.6844   -0.2580    0.0000 C   0  0  2  0  0  0  0  0  0  0  0  0
    0.0301   -0.6705    0.0000 C   0  0  0  0  0  0  0  0  0  0  0  0
    0.0301   -1.4955    0.0000 O   0  0  0  0  0  0  0  0  0  0  0  0
  2  1  1  6  0  0  0
  2  3  1  0  0  0  0
 11  2  1  0  0  0  0
  3  4  1  1  0  0  0
  3  5  1  0  0  0  0
  5  6  1  1  0  0  0
  5  7  1  0  0  0  0
  7  8  1  1  0  0  0
  7 10  1  0  0  0  0
  8  9  1  0  0  0  0
 11 10  1  0  0  0  0
 11 12  1  1  0  0  0
 13 12  1  6  0  0  0
 14 13  1  0  0  0  0
 22 13  1  0  0  0  0
 14 15  1  1  0  0  0
 16 14  1  0  0  0  0
 16 17  1  6  0  0  0
 16 18  1  0  0  0  0
 18 19  1  1  0  0  0
 18 21  1  0  0  0  0
 20 19  1  0  0  0  0
 22 21  1  0  0  0  0
 22 23  1  1  0  0  0
 23 24  1  0  0  0  0
M  END