
  SciTegic09261414532D

 37 42  0  0  0  0            999 V2000
   20.2014   -9.1211    0.0000 C   0  0
   20.2002   -9.9407    0.0000 C   0  0
   20.9083  -10.3496    0.0000 C   0  0
   20.9065   -8.7123    0.0000 C   0  0
   21.6151   -9.1175    0.0000 C   0  0
   21.6199   -9.9361    0.0000 C   0  0
   22.3999  -10.1846    0.0000 N   0  0
   22.8773   -9.5195    0.0000 C   0  0
   22.3922   -8.8601    0.0000 N   0  0
   22.6570  -10.9603    0.0000 C   0  0
   22.1137  -11.5708    0.0000 C   0  0
   21.3150  -11.4030    0.0000 C   0  0
   20.7720  -12.0127    0.0000 C   0  0
   21.0289  -12.7894    0.0000 C   0  0
   21.8339  -12.9529    0.0000 C   0  0
   22.3734  -12.3419    0.0000 C   0  0
   23.6937   -9.5134    0.0000 N   0  0
   24.1052  -10.2205    0.0000 C   0  0
   24.9188  -10.2176    0.0000 C   0  0
   25.3271   -9.5093    0.0000 C   0  0
   24.9155   -8.8022    0.0000 C   0  0
   24.0957   -8.8034    0.0000 C   0  0
   26.1443   -9.5076    0.0000 C   0  0
   26.5543  -10.2144    0.0000 O   0  0
   26.5514   -8.7990    0.0000 O   0  0
   26.1472  -10.9230    0.0000 C   0  0
   26.5573  -11.6298    0.0000 C   0  0
   26.1502  -12.3384    0.0000 N   0  0
   25.3381  -12.4278    0.0000 C   0  0
   25.1699  -13.2275    0.0000 N   0  0
   26.4846  -13.0865    0.0000 C   0  0
   25.8764  -13.6321    0.0000 C   0  0
   26.0454  -14.4295    0.0000 C   0  0
   26.8220  -14.6825    0.0000 C   0  0
   27.4298  -14.1319    0.0000 C   0  0
   27.2577  -13.3365    0.0000 C   0  0
   24.7892  -11.8225    0.0000 C   0  0
  1  2  2  0
  2  3  1  0
  3  6  2  0
  5  4  2  0
  4  1  1  0
  5  6  1  0
  6  7  1  0
  7  8  1  0
  8  9  2  0
  9  5  1  0
  7 10  1  0
 10 11  1  0
 11 12  2  0
 12 13  1  0
 13 14  2  0
 14 15  1  0
 15 16  2  0
 16 11  1  0
 17 18  1  0
 17 22  1  0
 18 19  1  0
 19 20  1  0
 20 21  1  0
 21 22  1  0
  8 17  1  0
 20 23  1  0
 23 24  1  0
 23 25  2  0
 24 26  1  0
 26 27  1  0
 27 28  1  0
 28 29  1  0
 29 30  2  0
 30 32  1  0
 31 28  1  0
 31 32  2  0
 32 33  1  0
 33 34  2  0
 34 35  1  0
 35 36  2  0
 36 31  1  0
 29 37  1  0
M  END