
  SciTegic07091215302D

 32 34  0  0  0  0            999 V2000
  -12.2405    6.2613    0.0000 C   0  0
  -12.2405    7.0900    0.0000 C   0  0
  -13.6783    6.2613    0.0000 N   0  0
  -12.9573    7.5044    0.0000 N   0  0
  -12.9573    5.8469    0.0000 C   0  0
  -13.6783    7.0900    0.0000 C   0  0
  -11.5320    5.8469    0.0000 N   0  0
  -11.5320    7.5044    0.0000 N   0  0
   -6.5720    4.6038    0.0000 C   0  0
   -6.5720    3.7751    0.0000 N   0  0
   -6.5720    2.9505    0.0000 C   0  0  2  0  0  0
   -7.2805    5.0265    0.0000 C   0  0
  -12.9573    5.0265    0.0000 O   0  0
  -10.8192    6.2613    0.0000 C   0  0
   -5.8385    5.0182    0.0000 O   0  0
  -14.4035    7.5251    0.0000 N   0  0
   -9.3896    6.2820    0.0000 N   0  0
  -10.8192    7.0900    0.0000 C   0  0
   -7.2805    5.8469    0.0000 C   0  0
   -7.9725    4.6287    0.0000 C   0  0
   -8.6728    5.8593    0.0000 C   0  0
  -10.0982    5.8469    0.0000 C   0  0
   -7.9725    6.2571    0.0000 C   0  0
   -8.6935    5.0265    0.0000 C   0  0
   -5.8575    2.5380    0.0000 C   0  0
   -7.2864    2.5380    0.0000 C   0  0
   -5.8575    1.7130    0.0000 O   0  0
   -5.1430    2.9505    0.0000 O   0  0
   -7.2864    1.7130    0.0000 C   0  0
   -8.0009    1.3005    0.0000 C   0  0
   -8.0009    0.4755    0.0000 O   0  0
   -8.7154    1.7130    0.0000 O   0  0
  2  1  2  0
  3  5  2  0
  4  2  1  0
  5  1  1  0
  6  3  1  0
  7  1  1  0
  8  2  1  0
  9 12  1  0
 10  9  1  0
 11 10  1  6
 12 20  2  0
 13  5  1  0
 14  7  1  0
 15  9  2  0
 16  6  1  0
 17 22  1  0
 18 14  1  0
 19 23  2  0
 20 24  1  0
 21 17  1  0
 22 14  1  0
 23 21  1  0
 24 21  2  0
  8 18  1  0
  4  6  2  0
 12 19  1  0
 11 25  1  0
 11 26  1  0
 25 27  1  0
 25 28  2  0
 26 29  1  0
 29 30  1  0
 30 31  1  0
 30 32  2  0
M  END