
          11280715232D 1   1.00000     0.00000     0

 36 41  0     0  0            999 V2000
    3.5167   -2.3292    0.0000 N   0  0  3  0  0  0           0  0  0
    3.0542   -2.9542    0.0000 C   0  0  0  0  0  0           0  0  0
    3.0542   -1.7000    0.0000 C   0  0  0  0  0  0           0  0  0
    2.3042   -1.9292    0.0000 C   0  0  3  0  0  0           0  0  0
    2.3042   -2.7167    0.0000 C   0  0  3  0  0  0           0  0  0
    3.2917   -3.6917    0.0000 C   0  0  0  0  0  0           0  0  0
    7.6750   -2.7292    0.0000 C   0  0  0  0  0  0           0  0  0
    7.2875   -1.5417    0.0000 N   0  0  0  0  0  0           0  0  0
    7.0417   -2.2750    0.0000 N   0  0  0  0  0  0           0  0  0
    8.0625   -1.5417    0.0000 N   0  0  0  0  0  0           0  0  0
    8.3000   -2.2792    0.0000 N   0  0  0  0  0  0           0  0  0
    7.6750   -3.5042    0.0000 C   0  0  0  0  0  0           0  0  0
    7.0000   -3.8875    0.0000 C   0  0  0  0  0  0           0  0  0
    2.7667   -4.2875    0.0000 C   0  0  0  0  0  0           0  0  0
    0.9542   -2.7292    0.0000 C   0  0  0  0  0  0           0  0  0
    0.9542   -1.9500    0.0000 C   0  0  0  0  0  0           0  0  0
    4.3000   -2.3292    0.0000 C   0  0  0  0  0  0           0  0  0
    1.6292   -1.5500    0.0000 C   0  0  3  0  0  0           0  0  0
    1.6292   -3.1042    0.0000 C   0  0  3  0  0  0           0  0  0
    3.2917   -0.9542    0.0000 O   0  0  0  0  0  0           0  0  0
    6.3250   -3.5000    0.0000 C   0  0  0  0  0  0           0  0  0
    3.0167   -5.0292    0.0000 O   0  0  0  0  0  0           0  0  0
    1.2375   -2.4875    0.0000 C   0  0  0  0  0  0           0  0  0
    2.0417   -2.2667    0.0000 C   0  0  0  0  0  0           0  0  0
    5.6500   -3.8875    0.0000 C   0  0  0  0  0  0           0  0  0
    6.3250   -2.7167    0.0000 C   0  0  0  0  0  0           0  0  0
    4.9750   -2.7167    0.0000 C   0  0  0  0  0  0           0  0  0
    2.0042   -4.1125    0.0000 O   0  0  0  0  0  0           0  0  0
    5.6500   -2.3292    0.0000 C   0  0  0  0  0  0           0  0  0
    4.9750   -3.5000    0.0000 C   0  0  0  0  0  0           0  0  0
    8.3417   -3.8875    0.0000 C   0  0  0  0  0  0           0  0  0
    7.0000   -4.6792    0.0000 C   0  0  0  0  0  0           0  0  0
    1.4792   -4.7125    0.0000 C   0  0  0  0  0  0           0  0  0
    7.6542   -5.0542    0.0000 C   0  0  0  0  0  0           0  0  0
    8.3292   -4.6792    0.0000 C   0  0  0  0  0  0           0  0  0
    0.7292   -4.5417    0.0000 C   0  0  0  0  0  0           0  0  0
  2  1  1  0     0  0
  3  1  1  0     0  0
  4  3  1  0     0  0
  5  2  1  0     0  0
  6  2  2  0     0  0
  7 12  1  0     0  0
  8  9  2  0     0  0
  9  7  1  0     0  0
 10 11  1  0     0  0
 11  7  2  0     0  0
 12 13  2  0     0  0
 13 21  1  0     0  0
 14  6  1  0     0  0
 15 19  1  0     0  0
 16 18  1  0     0  0
 17  1  1  0     0  0
 18  4  1  0     0  0
 19  5  1  0     0  0
 20  3  2  0     0  0
 21 25  2  0     0  0
 22 14  2  0     0  0
 23 19  1  0     0  0
 24 18  1  0     0  0
 25 30  1  0     0  0
 26 29  2  0     0  0
 27 17  1  0     0  0
 28 14  1  0     0  0
 29 27  1  0     0  0
 30 27  2  0     0  0
 31 12  1  0     0  0
 32 13  1  0     0  0
 33 28  1  0     0  0
 34 32  2  0     0  0
 35 34  1  0     0  0
 36 33  1  0     0  0
  4  5  1  0     0  0
 26 21  1  0     0  0
 23 24  1  0     0  0
 15 16  2  0     0  0
 31 35  2  0     0  0
 10  8  1  0     0  0
M  END