
  SciTegic12231509382D

 26 29  0  0  0  0            999 V2000
    0.2917    0.7475    0.0000 C   0  0
   -1.0028    1.5132    0.0000 C   0  0
    0.2917   -0.7475    0.0000 C   0  0
   -8.8299    2.9467    0.0000 N   0  0
    1.7138   -1.2033    0.0000 S   0  0
  -10.1347    3.6882    0.0000 C   0  0
   -6.2216    1.4644    0.0000 N   0  0
    1.7138    1.2033    0.0000 C   0  0
    2.5889    0.0182    0.0000 C   0  0
   -2.3155    0.7475    0.0000 C   0  0
   -0.9991    2.7132    0.0000 O   0  0
   -7.5360    3.7055    0.0000 C   0  0
   -8.8197    1.4467    0.0000 C   0  0
   -1.0028   -1.5132    0.0000 C   0  0
  -10.1474    5.1882    0.0000 C   0  0
   -2.3155   -0.7475    0.0000 C   0  0
   -3.6217    1.4865    0.0000 C   0  0
   -4.9153    0.7255    0.0000 C   0  0
   -7.5156    0.7056    0.0000 C   0  0
   -6.2319    2.9644    0.0000 C   0  0
   -8.8556    5.9522    0.0000 O   0  0
  -11.4275    2.9274    0.0000 C   0  0
  -11.4527    5.9273    0.0000 C   0  0
   -8.8674    7.1522    0.0000 C   0  0
  -12.7328    3.6664    0.0000 C   0  0
  -12.7454    5.1664    0.0000 C   0  0
  1  2  1  0
  1  3  2  0
  3  5  1  0
  4  6  1  0
  1  8  1  0
  5  9  1  0
  8  9  2  0
  2 10  1  0
  2 11  2  0
  4 12  1  0
  4 13  1  0
  3 14  1  0
  6 15  2  0
 10 16  1  0
 14 16  1  0
 10 17  1  0
  7 18  1  0
 17 18  1  0
  7 19  1  0
 13 19  1  0
  7 20  1  0
 12 20  1  0
 15 21  1  0
  6 22  1  0
 15 23  1  0
 21 24  1  0
 22 25  2  0
 23 26  2  0
 25 26  1  0
M  END