
          11280715492D 1   1.00000     0.00000     0

 28 30  0     0  0            999 V2000
    0.8652   -7.5208    0.0000 N   0  0  0  0  0  0           0  0  0
    0.8641   -8.3482    0.0000 C   0  0  0  0  0  0           0  0  0
    1.5789   -8.7610    0.0000 C   0  0  0  0  0  0           0  0  0
    2.2953   -8.3477    0.0000 C   0  0  0  0  0  0           0  0  0
    2.2925   -7.5172    0.0000 C   0  0  0  0  0  0           0  0  0
    1.5771   -7.1080    0.0000 C   0  0  0  0  0  0           0  0  0
    3.0105   -8.7591    0.0000 C   0  0  0  0  0  0           0  0  0
    3.9019   -9.7549    0.0000 N   0  0  0  0  0  0           0  0  0
    4.3135   -9.0434    0.0000 C   0  0  0  0  0  0           0  0  0
    3.7529   -8.4209    0.0000 N   0  0  0  0  0  0           0  0  0
    3.0948   -9.5765    0.0000 C   0  0  0  0  0  0           0  0  0
    2.4792  -10.1246    0.0000 C   0  0  0  0  0  0           0  0  0
    1.7577   -9.7221    0.0000 C   0  0  0  0  0  0           0  0  0
    1.0506  -10.1455    0.0000 C   0  0  0  0  0  0           0  0  0
    1.0636  -10.9713    0.0000 C   0  0  0  0  0  0           0  0  0
    1.7898  -11.3718    0.0000 C   0  0  0  0  0  0           0  0  0
    2.4940  -10.9461    0.0000 C   0  0  0  0  0  0           0  0  0
    0.3566  -11.3964    0.0000 Cl  0  0  0  0  0  0           0  0  0
    1.8062  -12.1967    0.0000 O   0  0  0  0  0  0           0  0  0
    5.1375   -9.0417    0.0000 C   0  0  0  0  0  0           0  0  0
    5.5515   -9.7553    0.0000 N   0  0  0  0  0  0           0  0  0
    5.5485   -8.3263    0.0000 O   0  0  0  0  0  0           0  0  0
    6.3765   -9.7536    0.0000 C   0  0  0  0  0  0           0  0  0
    6.7904  -10.4672    0.0000 C   0  0  0  0  0  0           0  0  0
    7.6154  -10.4655    0.0000 C   0  0  0  0  0  0           0  0  0
    8.0294  -11.1791    0.0000 N   0  0  3  0  0  0           0  0  0
    8.8544  -11.1774    0.0000 C   0  0  0  0  0  0           0  0  0
    7.6184  -11.8944    0.0000 C   0  0  0  0  0  0           0  0  0
 13 14  2  0     0  0
  4  7  1  0     0  0
 14 15  1  0     0  0
  3  4  1  0     0  0
 15 16  2  0     0  0
 16 17  1  0     0  0
 17 12  2  0     0  0
 11 12  1  0     0  0
  4  5  2  0     0  0
 15 18  1  0     0  0
  2  3  2  0     0  0
 16 19  1  0     0  0
  8  9  2  0     0  0
  9 20  1  0     0  0
  9 10  1  0     0  0
 20 21  1  0     0  0
 10  7  1  0     0  0
 20 22  2  0     0  0
  7 11  2  0     0  0
 21 23  1  0     0  0
 11  8  1  0     0  0
 23 24  1  0     0  0
  5  6  1  0     0  0
 24 25  1  0     0  0
  6  1  2  0     0  0
 25 26  1  0     0  0
 12 13  1  0     0  0
 26 27  1  0     0  0
  1  2  1  0     0  0
 26 28  1  0     0  0
M  END