
  SciTegic04091511462D

 56 60  0  0  1  0            999 V2000
    7.9229   -1.1648    0.0000 N   0  0
    7.3709   -1.7779    0.0000 C   0  0
    8.9848   -2.1210    0.0000 C   0  0
    8.7299   -1.3364    0.0000 C   0  0  2  0  0  0
    6.0119   -2.2195    0.0000 N   0  0
    8.4328   -2.7341    0.0000 N   0  0
    6.4796   -5.9711    0.0000 N   0  0
    5.9697   -4.4018    0.0000 N   0  0
    8.3906   -4.9164    0.0000 N   0  0
    5.4177   -5.0149    0.0000 C   0  0
    6.2668   -3.0041    0.0000 C   0  0
    7.5104   -0.4504    0.0000 C   0  0
    6.5639   -1.6064    0.0000 C   0  0  2  0  0  0
    5.3755   -7.1973    0.0000 C   0  0
    7.0316   -5.3580    0.0000 C   0  0
    8.1357   -4.1318    0.0000 C   0  0
    5.6726   -5.7995    0.0000 C   0  0  1  0  0  0
    6.7034   -0.6219    0.0000 C   0  0
    5.7148   -3.6172    0.0000 C   0  0  2  0  0  0
    5.3755   -8.5321    0.0000 N   0  0
    4.8906   -7.8647    0.0000 C   0  0
    7.8386   -5.5295    0.0000 C   0  0  2  0  0  0
    8.6877   -3.5187    0.0000 C   0  0  2  0  0  0
    5.1206   -6.4126    0.0000 C   0  0
    6.1601   -7.4522    0.0000 C   0  0
    6.1601   -8.2772    0.0000 C   0  0
    9.1554   -7.2703    0.0000 C   0  0
    7.6258   -2.5625    0.0000 O   0  0
    9.7918   -2.2925    0.0000 O   0  0
    9.2819   -0.7233    0.0000 C   0  0
    7.0738   -3.1756    0.0000 O   0  0
    4.6107   -4.8434    0.0000 O   0  0
    7.3287   -3.9603    0.0000 O   0  0
    6.7767   -4.5734    0.0000 O   0  0
    4.9078   -3.4457    0.0000 C   0  0
    9.9624   -7.4418    0.0000 O   0  0
    8.0935   -6.3141    0.0000 C   0  0
    8.9005   -6.4857    0.0000 C   0  0
    8.6034   -7.8834    0.0000 N   0  0
    9.4947   -3.6902    0.0000 C   0  0
    4.6529   -2.6611    0.0000 C   0  0
   10.5566   -4.6464    0.0000 S   0  0
    6.8746   -7.0397    0.0000 C   0  0
    9.0270    0.0614    0.0000 C   0  0
    9.7496   -4.4748    0.0000 C   0  0
    6.8746   -8.6897    0.0000 C   0  0
   10.8115   -5.4310    0.0000 C   0  0
    5.2049   -2.0480    0.0000 C   0  0
    3.8459   -2.4895    0.0000 C   0  0
    8.2200    0.2329    0.0000 C   0  0
    9.5790    0.6745    0.0000 C   0  0
    7.5891   -7.4522    0.0000 C   0  0
    7.5891   -8.2772    0.0000 C   0  0
    3.5909   -1.7049    0.0000 C   0  0
    4.9500   -1.2633    0.0000 C   0  0
    4.1430   -1.0918    0.0000 C   0  0
  2  1  1  0
  3  4  1  0
  4  1  1  0
 13  5  1  6
  6  3  1  0
  7 15  1  0
  8 19  1  0
  9 16  1  0
 10  8  1  0
 11  5  1  0
 12  1  1  0
 13  2  1  0
 14 24  1  0
 15 22  1  0
 16 23  1  0
 17 10  1  0
 18 12  2  0
 19 11  1  0
 20 21  1  0
 21 14  2  0
 22  9  1  0
 23  6  1  0
 17 24  1  6
 25 14  1  0
 26 25  2  0
 27 38  1  0
 28  2  2  0
 29  3  2  0
  4 30  1  1
 31 11  2  0
 32 10  2  0
 33 16  2  0
 34 15  2  0
 19 35  1  1
 36 27  2  0
 22 37  1  1
 38 37  1  0
 39 27  1  0
 23 40  1  1
 41 35  1  0
 42 45  1  0
 43 25  1  0
 44 30  1  0
 45 40  1  0
 46 26  1  0
 47 42  1  0
 48 41  2  0
 49 41  1  0
 50 44  1  0
 51 44  1  0
 52 43  2  0
 53 52  1  0
 54 49  2  0
 55 48  1  0
 56 54  1  0
 18 13  1  0
  7 17  1  0
 55 56  2  0
 20 26  1  0
 53 46  2  0
M  END