
  SciTegic11201309402D

148151  0  0  0  0            999 V2000
   -2.8142    0.5020    0.0000 N   0  0
   -2.1647    0.1270    0.0000 C   0  0
   -1.5190    1.2478    0.0000 O   0  0
   -1.5190    0.4997    0.0000 C   0  0
   -0.8723    0.1263    0.0000 N   0  0
   -3.4574    0.1305    0.0000 C   0  0
   -4.1082    0.5063    0.0000 C   0  0
   -3.4574   -0.6116    0.0000 O   0  0
   -4.7533    0.1392    0.0000 C   0  0
   -5.4054    0.5142    0.0000 C   0  0
   -5.3952    1.2624    0.0000 C   0  0
   -4.7444    1.6341    0.0000 C   0  0
   -4.1013    1.2569    0.0000 C   0  0
   -0.1550   -0.2887    0.0000 C   0  0
    0.5581    0.9519    0.0000 O   0  0
    0.5581    0.1263    0.0000 C   0  0
    1.2755   -0.2887    0.0000 N   0  0
    1.9927    0.1263    0.0000 C   0  0
    2.7059   -1.1143    0.0000 O   0  0
    2.7059   -0.2887    0.0000 C   0  0
    3.4232    0.1263    0.0000 N   0  0
    4.1364   -0.2887    0.0000 C   0  0  2  0  0  0
    4.8536    0.9519    0.0000 O   0  0
    4.8536    0.1263    0.0000 C   0  0
    4.1364   -1.1143    0.0000 C   0  0
    4.8536   -2.3536    0.0000 C   0  0
    4.8536   -1.5292    0.0000 C   0  0
    5.5657   -1.1149    0.0000 C   0  0
    6.2819   -1.5292    0.0000 C   0  0
    6.2819   -2.3536    0.0000 C   0  0
    5.5657   -2.7637    0.0000 C   0  0
    5.5668   -0.2887    0.0000 N   0  0
    6.2841    0.1263    0.0000 C   0  0  2  0  0  0
    6.9972   -1.1143    0.0000 O   0  0
    6.9972   -0.2887    0.0000 C   0  0
    6.2841    0.9519    0.0000 C   0  0  2  0  0  0
    6.9972    1.3627    0.0000 O   0  0
    5.5668    1.3627    0.0000 C   0  0
    7.7145    0.1263    0.0000 N   0  0
    8.4277   -0.2887    0.0000 C   0  0
    9.1449    0.9519    0.0000 O   0  0
    9.1449    0.1263    0.0000 C   0  0
    9.8623   -0.2887    0.0000 N   0  0
   19.9891   -4.9963    0.0000 N   0  0
   20.5482   -4.3871    0.0000 C   0  0  2  0  0  0
   21.6044   -5.3524    0.0000 O   0  0
   21.3540   -4.5657    0.0000 C   0  0
   20.2978   -3.6005    0.0000 C   0  0
   20.8530   -2.9924    0.0000 C   0  0
   20.6026   -2.2059    0.0000 C   0  0
   21.1618   -1.5966    0.0000 C   0  0
   20.9149   -0.8079    0.0000 N   0  0
   21.9131   -3.9565    0.0000 N   0  0
   22.7171   -4.1325    0.0000 C   0  0  2  0  0  0
   23.0254   -2.7357    0.0000 O   0  0
   23.2723   -3.5245    0.0000 C   0  0
   22.9675   -4.9191    0.0000 C   0  0
   23.7732   -5.0978    0.0000 C   0  0
   24.0237   -5.8843    0.0000 C   0  0
   24.8298   -6.0639    0.0000 C   0  0
   25.0802   -6.8505    0.0000 N   0  0
   24.0820   -3.7018    0.0000 N   0  0
   24.6323   -3.0876    0.0000 C   0  0  2  0  0  0
   25.3204   -1.8352    0.0000 O   0  0
   24.6143   -2.2632    0.0000 C   0  0
   25.4577   -3.0591    0.0000 C   0  0
   25.9031   -3.7560    0.0000 C   0  0
   26.7273   -3.7159    0.0000 O   0  0
   25.5222   -4.4895    0.0000 N   0  0
   23.8877   -1.8649    0.0000 N   0  0
   23.8728   -1.0400    0.0000 C   0  0  2  0  0  0
   22.4402   -1.0695    0.0000 O   0  0
   23.1462   -0.6416    0.0000 C   0  0
   24.5789   -0.6120    0.0000 C   0  0
   24.5583    0.2144    0.0000 C   0  0
   25.2644    0.6424    0.0000 C   0  0
   25.2495    1.4672    0.0000 O   0  0
   25.9910    0.2440    0.0000 N   0  0
   23.1313    0.1833    0.0000 N   0  0
   22.4047    0.5817    0.0000 C   0  0  2  0  0  0
   23.0938    1.8382    0.0000 O   0  0
   22.3877    1.4102    0.0000 C   0  0
   21.6986    0.1537    0.0000 C   0  0
   20.9023    0.0828    0.0000 C   0  0
   20.2510    0.4929    0.0000 O   0  0
   21.6633    1.8050    0.0000 N   0  0
   17.8272   -2.1215    0.0000 N   0  0
   17.8231   -1.2958    0.0000 C   0  0
   17.1081   -0.8843    0.0000 N   0  0
   18.5385   -0.8775    0.0000 N   0  0
   15.6976   -5.0237    0.0000 N   0  0
   16.4130   -4.6053    0.0000 C   0  0  2  0  0  0
   17.1321   -5.8423    0.0000 O   0  0
   17.1280   -5.0167    0.0000 C   0  0
   16.4089   -3.7797    0.0000 C   0  0
   17.1200   -3.3655    0.0000 C   0  0
   17.1161   -2.5357    0.0000 C   0  0
   17.8434   -4.5984    0.0000 N   0  0
   18.5585   -5.0098    0.0000 C   0  0  2  0  0  0
   19.2698   -3.7658    0.0000 O   0  0
   19.2738   -4.5914    0.0000 C   0  0
   18.5625   -5.8354    0.0000 C   0  0
   19.2817   -6.2427    0.0000 C   0  0
   19.2857   -7.0684    0.0000 C   0  0
   20.0051   -7.4797    0.0000 C   0  0
   20.0090   -8.3054    0.0000 N   0  0
   10.2373   -1.0086    0.0000 C   0  0  2  0  0  0
    8.9913   -1.6617    0.0000 O   0  0
    9.8038   -1.6972    0.0000 C   0  0
   11.0498   -1.0441    0.0000 C   0  0
   11.4248   -1.7640    0.0000 C   0  0
   12.2374   -1.7952    0.0000 C   0  0
   12.6165   -2.5194    0.0000 C   0  0
   13.4249   -2.5507    0.0000 N   0  0
    7.2494   -4.4037    0.0000 N   0  0
    6.4369   -4.3725    0.0000 C   0  0
    6.0619   -3.6525    0.0000 N   0  0
    6.0035   -5.0570    0.0000 N   0  0
   10.1788   -2.4171    0.0000 N   0  0
    9.7455   -3.1016    0.0000 C   0  0  2  0  0  0
   10.9330   -3.8570    0.0000 O   0  0
   10.1205   -3.8215    0.0000 C   0  0
    8.9329   -3.0661    0.0000 C   0  0
    8.4954   -3.7548    0.0000 C   0  0
    7.6869   -3.7193    0.0000 C   0  0
    9.6829   -4.5060    0.0000 N   0  0
   10.0681   -5.2211    0.0000 C   0  0  2  0  0  0
   10.8194   -6.4222    0.0000 O   0  0
   10.7883   -5.6095    0.0000 C   0  0
    9.7528   -5.9732    0.0000 C   0  0
    8.9456   -6.0756    0.0000 C   0  0
    8.6317   -6.8224    0.0000 C   0  0
    7.8246   -6.9249    0.0000 C   0  0
    7.5107   -7.6758    0.0000 N   0  0
   11.4752   -5.1757    0.0000 N   0  0
   12.1930   -5.5588    0.0000 C   0  0  2  0  0  0
   12.8530   -4.3164    0.0000 O   0  0
   12.8841   -5.1251    0.0000 C   0  0
   12.2241   -6.3715    0.0000 C   0  0
   12.9420   -6.7504    0.0000 O   0  0
   13.6019   -5.5081    0.0000 N   0  0
   14.2888   -5.0744    0.0000 C   0  0  2  0  0  0
   15.0376   -6.2702    0.0000 O   0  0
   15.0067   -5.4574    0.0000 C   0  0
   14.2619   -4.2657    0.0000 C   0  0
   14.2807   -3.1183    0.0000 C   0  0
   14.9156   -2.8501    0.0000 O   0  0
    6.9926   -2.7656    0.0000 F   0  0
 57 58  1  0
 58 59  1  0
 59 60  1  0
 60 61  1  0
 62 63  1  0
 63 65  1  0
 65 64  2  0
 63 66  1  6
 66 67  1  0
 67 68  2  0
 67 69  1  0
 70 71  1  0
 71 73  1  0
 73 72  2  0
 71 74  1  6
 74 75  1  0
 75 76  1  0
 76 77  2  0
 76 78  1  0
 79 80  1  0
 80 82  1  1
 82 81  2  0
 80 83  1  0
 83 84  1  0
 84 85  2  0
 84 52  1  0
 40 42  1  0
 42 41  2  0
  1  2  1  0
  2  4  1  0
  4  3  2  0
  1  6  1  0
  6  7  1  0
  6  8  2  0
  7  9  2  0
  9 10  1  0
 10 11  2  0
 11 12  1  0
 12 13  2  0
 13  7  1  0
  4  5  1  0
 16 17  1  0
 20 21  1  0
 24 32  1  0
 35 39  1  0
 94 98  1  0
101 44  1  0
 87 88  1  0
 88 89  1  0
 88 90  2  0
 92 91  1  1
 92 94  1  0
 94 93  2  0
 92 95  1  0
 95 96  1  0
 96 97  1  0
 97 87  1  0
 99 98  1  6
 99101  1  0
101100  2  0
 99102  1  0
102103  1  0
103104  1  0
104105  1  0
105106  1  0
 42 43  1  0
  5 14  1  0
 14 16  1  0
 16 15  2  0
 17 18  1  0
 18 20  1  0
 20 19  2  0
 22 21  1  6
 22 24  1  0
 24 23  2  0
 22 25  1  0
 25 27  1  0
 26 27  2  0
 27 28  1  0
 28 29  2  0
 29 30  1  0
 30 31  2  0
 31 26  1  0
 33 32  1  1
 33 35  1  0
 35 34  2  0
 33 36  1  0
 36 37  1  1
 36 38  1  0
 39 40  1  0
 47 53  1  0
 56 62  1  0
 65 70  1  0
 73 79  1  0
 82 86  1  0
 45 44  1  1
 45 47  1  0
 47 46  2  0
 45 48  1  0
 48 49  1  0
 49 50  1  0
 50 51  1  0
 51 52  1  0
 53 54  1  0
 54 56  1  0
 56 55  2  0
109119  1  0
122126  1  0
129135  1  0
138141  1  0
144 91  1  0
107 43  1  1
107109  1  0
109108  2  0
107110  1  0
110111  1  0
111112  1  0
112113  1  0
113114  1  0
115116  1  0
116117  1  0
116118  2  0
119120  1  0
120122  1  0
122121  2  0
120123  1  6
123124  1  0
124125  1  0
125115  1  0
126127  1  0
127129  1  0
129128  2  0
127130  1  6
130131  1  0
131132  1  0
132133  1  0
133134  1  0
135136  1  0
136138  1  0
138137  2  0
136139  1  6
139140  1  0
141142  1  0
142144  1  1
144143  2  0
142145  1  0
145146  1  0
146147  2  0
114146  1  0
 54 57  1  6
 30148  1  0
M  END