
  CDK    9/16/09,10:7

 23 22  0  0  0  0  0  0  0  0999 V2000
   14.6609   -0.5156    0.0000 N   0  0  0  0  0  0  0  0  0  0  0  0
   12.5683   -0.4297    0.0000 N   0  0  0  0  0  0  0  0  0  0  0  0
   14.6609   -1.3406    0.0000 C   0  0  0  0  0  0  0  0  0  0  0  0
   12.5683   -1.2504    0.0000 C   0  0  0  0  0  0  0  0  0  0  0  0
   13.6554   -1.8261    0.0000 O   0  0  0  0  0  0  0  0  0  0  0  0
   15.3741    2.3633    0.0000 N   0  0  0  0  0  0  0  0  0  0  0  0
   11.8550    2.4449    0.0000 N   0  0  0  0  0  0  0  0  0  0  0  0
   15.3784   -0.1075    0.0000 C   0  0  0  0  0  0  0  0  0  0  0  0
   11.8507   -0.0172    0.0000 C   0  0  0  0  0  0  0  0  0  0  0  0
   13.9519   -0.1075    0.0000 C   0  0  0  0  0  0  0  0  0  0  0  0
   13.2773   -0.0172    0.0000 C   0  0  0  0  0  0  0  0  0  0  0  0
   12.5726    2.0367    0.0000 C   0  0  0  0  0  0  0  0  0  0  0  0
   14.6609    1.9508    0.0000 C   0  0  0  0  0  0  0  0  0  0  0  0
   12.5683    1.2117    0.0000 C   0  0  0  0  0  0  0  0  0  0  0  0
   14.6609    1.1300    0.0000 C   0  0  0  0  0  0  0  0  0  0  0  0
   15.3741    3.1840    0.0000 O   0  0  0  0  0  0  0  0  0  0  0  0
   11.8593    3.2699    0.0000 O   0  0  0  0  0  0  0  0  0  0  0  0
   15.3784    0.7219    0.0000 C   0  0  0  0  0  0  0  0  0  0  0  0
   13.2773    0.8035    0.0000 C   0  0  0  0  0  0  0  0  0  0  0  0
   11.8507    0.8035    0.0000 C   0  0  0  0  0  0  0  0  0  0  0  0
   13.9519    0.7219    0.0000 C   0  0  0  0  0  0  0  0  0  0  0  0
   16.8565    2.1613    0.0000 Cl  0  0  0  0  0  0  0  0  0  0  0  0
   16.8265    0.3480    0.0000 Cl  0  0  0  0  0  0  0  0  0  0  0  0
  2  4  1  0  0  0  0 
  3  1  1  0  0  0  0 
  4  5  1  0  0  0  0 
  5  3  1  0  0  0  0 
  6 13  2  0  0  0  0 
  7 12  2  0  0  0  0 
  8  1  2  0  0  0  0 
  9  2  2  0  0  0  0 
 10  1  1  0  0  0  0 
 11  2  1  0  0  0  0 
 12 14  1  0  0  0  0 
 13 15  1  0  0  0  0 
 14 20  2  0  0  0  0 
 15 18  2  0  0  0  0 
 16  6  1  0  0  0  0 
 17  7  1  0  0  0  0 
 18  8  1  0  0  0  0 
 19 11  2  0  0  0  0 
 20  9  1  0  0  0  0 
 21 10  2  0  0  0  0 
 15 21  1  0  0  0  0 
 14 19  1  0  0  0  0 
M  CHG  1   1   1
M  CHG  1   2   1
M  CHG  1  22  -1
M  CHG  1  23  -1
M  END