
  SciTegic05171617272D

 13 13  0  0  1  0            999 V2000
    3.6387   -0.8963    0.0000 C   0  0
    2.6003   -1.4977    0.0000 O   0  0
    1.2990   -0.7500    0.0000 C   0  0  2  0  0  0
    1.2990    0.7500    0.0000 O   0  0
    0.0000    1.5000    0.0000 C   0  0
    0.0031    3.0008    0.0000 C   0  0
    1.0432    3.5994    0.0000 O   0  0
   -1.2990    0.7500    0.0000 C   0  0  2  0  0  0
   -2.3383    1.3500    0.0000 O   0  0
   -1.2990   -0.7500    0.0000 C   0  0  2  0  0  0
   -2.3383   -1.3500    0.0000 O   0  0
    0.0000   -1.5000    0.0000 C   0  0
    0.0000   -2.7000    0.0000 O   0  0
  1  2  1  0
  3  2  1  1
  3  4  1  0
  4  5  1  0
  5  6  1  0
  6  7  1  0
  5  8  1  0
  8  9  1  1
  8 10  1  0
 10 11  1  1
 10 12  1  0
  3 12  1  0
 12 13  1  0
M  END