
          11280714442D 1   1.00000     0.00000     0

 27 28  0     0  0            999 V2000
    1.9875   -5.9542    0.0000 C   0  0  0  0  0  0           0  0  0
    2.6792   -5.5042    0.0000 C   0  0  0  0  0  0           0  0  0
    9.0417   -3.9875    0.0000 C   0  0  0  0  0  0           0  0  0
    3.4125   -5.8875    0.0000 O   0  0  0  0  0  0           0  0  0
    1.2542   -5.5667    0.0000 C   0  0  0  0  0  0           0  0  0
    9.7792   -4.3667    0.0000 C   0  0  0  0  0  0           0  0  0
    2.6417   -4.6875    0.0000 O   0  0  0  0  0  0           0  0  0
    8.3500   -4.4292    0.0000 C   0  0  0  0  0  0           0  0  0
    9.8167   -5.1917    0.0000 C   0  0  0  0  0  0           0  0  0
    4.1042   -5.4417    0.0000 C   0  0  0  0  0  0           0  0  0
    8.3917   -5.2500    0.0000 C   0  0  0  0  0  0           0  0  0
    4.8417   -5.8250    0.0000 C   0  0  3  0  0  0           0  0  0
    1.2167   -4.7417    0.0000 Cl  0  0  0  0  0  0           0  0  0
    9.1167   -5.6292    0.0000 C   0  0  0  0  0  0           0  0  0
    9.0000   -3.1625    0.0000 O   0  0  0  0  0  0           0  0  0
    6.2667   -5.7542    0.0000 N   0  0  0  0  0  0           0  0  0
    2.0292   -6.7750    0.0000 C   0  0  0  0  0  0           0  0  0
   10.4667   -3.9167    0.0000 O   0  0  0  0  0  0           0  0  0
    4.8792   -6.6500    0.0000 O   0  0  0  0  0  0           0  0  0
    5.5375   -5.3792    0.0000 C   0  0  0  0  0  0           0  0  0
    0.5625   -6.0167    0.0000 C   0  0  0  0  0  0           0  0  0
    6.9625   -5.3167    0.0000 C   0  0  0  0  0  0           0  0  0
    7.6917   -5.6917    0.0000 C   0  0  0  0  0  0           0  0  0
    9.6917   -2.7167    0.0000 C   0  0  0  0  0  0           0  0  0
   11.2042   -4.3000    0.0000 C   0  0  0  0  0  0           0  0  0
    1.3375   -7.2167    0.0000 C   0  0  0  0  0  0           0  0  0
    0.6000   -6.8417    0.0000 C   0  0  0  0  0  0           0  0  0
  2  1  1  0     0  0
  3  8  2  0     0  0
  4  2  1  0     0  0
  5  1  2  0     0  0
  6  9  2  0     0  0
  7  2  2  0     0  0
  8 11  1  0     0  0
  9 14  1  0     0  0
 10  4  1  0     0  0
 11 23  1  0     0  0
 12 10  1  0     0  0
 13  5  1  0     0  0
 14 11  2  0     0  0
 15  3  1  0     0  0
 16 20  1  0     0  0
 17  1  1  0     0  0
 18  6  1  0     0  0
 19 12  1  0     0  0
 20 12  1  0     0  0
 21  5  1  0     0  0
 22 16  1  0     0  0
 23 22  1  0     0  0
 24 15  1  0     0  0
 25 18  1  0     0  0
 26 17  2  0     0  0
 27 26  1  0     0  0
 27 21  2  0     0  0
  6  3  1  0     0  0
M  END