
  SciTegic12201612072D

 44 48  0  0  0  0            999 V2000
   -3.6486    1.3517    0.0000 N   0  0
   -2.6111    0.7486    0.0000 C   0  0
   -1.2964    1.4973    0.0000 N   0  0
    0.0000    0.7486    0.0000 C   0  0
    0.0000   -0.7486    0.0000 C   0  0
   -1.2964   -1.4973    0.0000 C   0  0
   -2.6111   -0.7486    0.0000 C   0  0
   -3.9091   -1.5019    0.0000 C   0  0
   -3.9067   -3.0027    0.0000 C   0  0
   -5.2049   -3.7560    0.0000 C   0  0
   -6.2452   -3.1579    0.0000 O   0  0
   -5.2025   -5.2568    0.0000 N   0  0
   -6.5006   -6.0101    0.0000 C   0  0
   -6.4983   -7.5109    0.0000 C   0  0
   -7.7964   -8.2641    0.0000 C   0  0
    1.2964   -1.4973    0.0000 C   0  0
    2.5929   -0.7486    0.0000 C   0  0
    2.5929    0.7486    0.0000 C   0  0
    1.2964    1.4973    0.0000 C   0  0
    3.8926   -1.4990    0.0000 C   0  0
    5.1929   -0.7510    0.0000 C   0  0
    6.4908   -1.5029    0.0000 C   0  0
    6.4885   -3.0029    0.0000 C   0  0
    5.1883   -3.7510    0.0000 C   0  0
    3.8904   -2.9990    0.0000 C   0  0
    5.1952    0.7498    0.0000 C   0  0
    5.1975    2.2507    0.0000 C   0  0
    5.1999    3.7515    0.0000 C   0  0
    3.9018    4.5048    0.0000 C   0  0
    2.5173    4.5742    0.0000 C   0  0
    3.2646    3.2736    0.0000 C   0  0
    3.9046    6.0060    0.0000 N   0  0
    5.2053    6.7548    0.0000 C   0  0
    5.2081    8.2556    0.0000 C   0  0
    6.5070    9.0059    0.0000 C   0  0
    6.5067   10.5059    0.0000 C   0  0
    5.2076   11.2557    0.0000 C   0  0
    3.9086   10.5055    0.0000 C   0  0
    3.9089    9.0055    0.0000 C   0  0
    5.2074   12.4557    0.0000 F   0  0
    6.2436    6.1532    0.0000 O   0  0
   -7.7945   -9.4641    0.0000 C   0  0
   -8.8346   -8.8659    0.0000 C   0  0
   -8.8367   -7.6661    0.0000 C   0  0
  1  2  1  0
  3  2  2  0
  4  3  1  0
  5  4  2  0
  5  6  1  0
  7  6  2  0
  2  7  1  0
  8  7  1  0
  8  9  1  0
  9 10  1  0
 11 10  2  0
 12 10  1  0
 13 12  1  0
 13 14  1  0
 14 15  1  0
  5 16  1  0
 16 17  2  0
 17 18  1  0
 18 19  2  0
  4 19  1  0
 17 20  1  0
 21 20  2  0
 21 22  1  0
 23 22  2  0
 24 23  1  0
 25 24  2  0
 20 25  1  0
 21 26  1  0
 27 26  3  0
 28 27  1  0
 28 29  1  0
 29 30  1  0
 30 31  1  0
 29 31  1  0
 29 32  1  0
 33 32  1  0
 34 33  1  0
 34 35  2  0
 35 36  1  0
 36 37  2  0
 37 38  1  0
 38 39  2  0
 34 39  1  0
 40 37  1  0
 33 41  2  0
 15 42  1  0
 15 43  1  0
 15 44  1  0
M  END