
  Mrv0541 04051115152D          

 15 15  0  0  0  0            999 V2000
    0.7195   -0.4126    0.0000 C   0  0  0  0  0  0  0  0  0  0  0  0
    0.0051   -0.8251    0.0000 C   0  0  0  0  0  0  0  0  0  0  0  0
   -0.7094   -0.4126    0.0000 C   0  0  0  0  0  0  0  0  0  0  0  0
   -0.7094    0.4124    0.0000 C   0  0  0  0  0  0  0  0  0  0  0  0
    0.0051    0.8249    0.0000 C   0  0  0  0  0  0  0  0  0  0  0  0
    0.7195    0.4124    0.0000 C   0  0  0  0  0  0  0  0  0  0  0  0
    1.4340   -0.8251    0.0000 C   0  0  0  0  0  0  0  0  0  0  0  0
   -1.4239   -0.8251    0.0000 C   0  0  0  0  0  0  0  0  0  0  0  0
    0.0051    1.6499    0.0000 C   0  0  0  0  0  0  0  0  0  0  0  0
    2.1485   -0.4126    0.0000 O   0  0  0  0  0  0  0  0  0  0  0  0
    1.4340   -1.6501    0.0000 O   0  0  0  0  0  0  0  0  0  0  0  0
   -1.4239   -1.6501    0.0000 O   0  0  0  0  0  0  0  0  0  0  0  0
   -2.1383   -0.4126    0.0000 O   0  0  0  0  0  0  0  0  0  0  0  0
    0.7195    2.0624    0.0000 O   0  0  0  0  0  0  0  0  0  0  0  0
   -0.7094    2.0624    0.0000 O   0  0  0  0  0  0  0  0  0  0  0  0
  1  2  2  0  0  0  0
  1  6  1  0  0  0  0
  1  7  1  0  0  0  0
  2  3  1  0  0  0  0
  3  4  2  0  0  0  0
  3  8  1  0  0  0  0
  4  5  1  0  0  0  0
  5  6  2  0  0  0  0
  5  9  1  0  0  0  0
  7 10  2  0  0  0  0
  7 11  1  0  0  0  0
  8 12  2  0  0  0  0
  8 13  1  0  0  0  0
  9 14  2  0  0  0  0
  9 15  1  0  0  0  0
M  END