
  SciTegic06271217572D

 24 26  0  0  0  0            999 V2000
   12.5795    0.3415    0.0000 C   0  0
   12.5783   -0.4854    0.0000 C   0  0
   13.2927   -0.8980    0.0000 C   0  0
   13.2909    0.7541    0.0000 C   0  0
   13.2885    1.5787    0.0000 Cl  0  0
   13.2925   -1.7226    0.0000 Cl  0  0
   14.0059    0.3451    0.0000 C   0  0
   14.0062   -0.4808    0.0000 C   0  0
   14.7919   -0.7359    0.0000 N   0  0
   15.2772   -0.0675    0.0000 C   0  0
   14.7906    0.5999    0.0000 C   0  0
   16.1018   -0.0672    0.0000 O   0  0
   14.3716    1.3201    0.0000 O   0  0
   15.4943    1.0349    0.0000 C   0  0
   15.4696    1.8591    0.0000 C   0  0
   16.1711    2.2926    0.0000 C   0  0
   14.7435    2.2497    0.0000 O   0  0
   16.8940    1.9019    0.0000 C   0  0
   17.5949    2.3348    0.0000 C   0  0
   17.5706    3.1598    0.0000 C   0  0
   16.8395    3.5502    0.0000 C   0  0
   16.1416    3.1151    0.0000 C   0  0
   18.2715    3.5943    0.0000 O   0  0
   18.9981    3.2045    0.0000 C   0  0
  4  5  1  0
 10 12  2  0
  2  3  1  0
 11 13  1  0
  3  6  1  0
 11 14  1  0
  7  8  1  0
 14 15  1  0
  3  8  2  0
 15 16  1  0
  1  2  2  0
 15 17  2  0
  7  4  2  0
 16 18  2  0
  4  1  1  0
 18 19  1  0
 19 20  2  0
  8  9  1  0
 20 21  1  0
  9 10  1  0
 21 22  2  0
 22 16  1  0
 10 11  1  0
 20 23  1  0
 11  7  1  0
 23 24  1  0
M  END