
  Mrv0541 04051115152D          

 32 35  0  0  0  0            999 V2000
   -1.2873    3.7996    0.0000 Cl  0  0  0  0  0  0  0  0  0  0  0  0
   -0.9859    3.0316    0.0000 C   0  0  0  0  0  0  0  0  0  0  0  0
   -0.1701    2.9087    0.0000 C   0  0  0  0  0  0  0  0  0  0  0  0
    0.1313    2.1407    0.0000 C   0  0  0  0  0  0  0  0  0  0  0  0
   -0.3831    1.4957    0.0000 C   0  0  0  0  0  0  0  0  0  0  0  0
   -1.1989    1.6186    0.0000 C   0  0  0  0  0  0  0  0  0  0  0  0
   -1.5003    2.3866    0.0000 C   0  0  0  0  0  0  0  0  0  0  0  0
   -0.0817    0.7277    0.0000 C   0  0  1  0  0  0  0  0  0  0  0  0
    0.7341    0.6047    0.0000 C   0  0  0  0  0  0  0  0  0  0  0  0
    1.5326    0.3972    0.0000 O   0  0  0  0  0  0  0  0  0  0  0  0
    1.2485    1.2498    0.0000 O   0  0  0  0  0  0  0  0  0  0  0  0
   -0.5961    0.0827    0.0000 N   0  0  0  0  0  0  0  0  0  0  0  0
   -1.4004    0.2663    0.0000 C   0  0  0  0  0  0  0  0  0  0  0  0
   -1.5840    1.0706    0.0000 O   0  0  0  0  0  0  0  0  0  0  0  0
   -2.0454   -0.2481    0.0000 C   0  0  0  0  0  0  0  0  0  0  0  0
   -2.7599    0.1644    0.0000 C   0  0  0  0  0  0  0  0  0  0  0  0
   -3.4743   -0.2481    0.0000 C   0  0  0  0  0  0  0  0  0  0  0  0
   -4.1888    0.1644    0.0000 I   0  0  0  0  0  0  0  0  0  0  0  0
   -3.4743   -1.0731    0.0000 C   0  0  0  0  0  0  0  0  0  0  0  0
   -2.7599   -1.4856    0.0000 C   0  0  0  0  0  0  0  0  0  0  0  0
   -2.0454   -1.0731    0.0000 C   0  0  0  0  0  0  0  0  0  0  0  0
   -1.4004   -1.5875    0.0000 N   0  0  0  0  0  0  0  0  0  0  0  0
   -0.5961   -1.4039    0.0000 C   0  0  0  0  0  0  0  0  0  0  0  0
   -0.0817   -2.0489    0.0000 O   0  0  0  0  0  0  0  0  0  0  0  0
   -0.2381   -0.6606    0.0000 C   0  0  2  0  0  0  0  0  0  0  0  0
    0.5869   -0.6606    0.0000 C   0  0  0  0  0  0  0  0  0  0  0  0
    0.9994    0.0539    0.0000 C   0  0  0  0  0  0  0  0  0  0  0  0
    1.8244    0.0539    0.0000 C   0  0  0  0  0  0  0  0  0  0  0  0
    2.2369   -0.6606    0.0000 C   0  0  0  0  0  0  0  0  0  0  0  0
    3.0619   -0.6606    0.0000 Cl  0  0  0  0  0  0  0  0  0  0  0  0
    1.8244   -1.3751    0.0000 C   0  0  0  0  0  0  0  0  0  0  0  0
    0.9994   -1.3751    0.0000 C   0  0  0  0  0  0  0  0  0  0  0  0
  2  1  1  0  0  0  0
  2  3  2  0  0  0  0
  2  7  1  0  0  0  0
  3  4  1  0  0  0  0
  4  5  2  0  0  0  0
  5  6  1  0  0  0  0
  5  8  1  0  0  0  0
  6  7  2  0  0  0  0
  8  9  1  0  0  0  0
  8 12  1  1  0  0  0
  9 10  2  0  0  0  0
  9 11  1  0  0  0  0
 13 12  1  0  0  0  0
 25 12  1  0  0  0  0
 13 14  2  0  0  0  0
 15 13  1  0  0  0  0
 15 16  1  0  0  0  0
 15 21  2  0  0  0  0
 16 17  2  0  0  0  0
 17 18  1  0  0  0  0
 17 19  1  0  0  0  0
 19 20  2  0  0  0  0
 20 21  1  0  0  0  0
 21 22  1  0  0  0  0
 23 22  1  0  0  0  0
 23 24  2  0  0  0  0
 23 25  1  0  0  0  0
 25 26  1  1  0  0  0
 26 27  1  0  0  0  0
 26 32  2  0  0  0  0
 27 28  2  0  0  0  0
 28 29  1  0  0  0  0
 29 30  1  0  0  0  0
 29 31  2  0  0  0  0
 31 32  1  0  0  0  0
M  END