
  SciTegic11201309402D

 56 60  0  0  1  0            999 V2000
    4.8167   -2.7792    0.0000 P   0  0
    1.9792   -0.3000    0.0000 C   0  0  1  0  0  0
    2.4000    0.4083    0.0000 C   0  0
    1.9917    1.1208    0.0000 N   0  0
    1.1542   -0.3792    0.0000 N   0  0
   -4.1833   -2.6375    0.0000 P   0  0
    1.9917    1.9458    0.0000 C   0  0  2  0  0  0
    1.2750    2.3625    0.0000 C   0  0
    0.3542   -0.1667    0.0000 C   0  0
    0.5542    1.9458    0.0000 N   0  0
    2.7042    2.3625    0.0000 C   0  0
   -2.2958    1.9458    0.0000 C   0  0
    3.4167    1.9458    0.0000 C   0  0
    4.1042   -2.3667    0.0000 C   0  0
   -1.0333   -0.5292    0.0000 C   0  0
   -3.0208    2.3625    0.0000 C   0  0
    5.0292   -1.9792    0.0000 O   0  0
   -0.2333   -0.7375    0.0000 C   0  0
    1.9750   -1.1292    0.0000 C   0  0
   -4.3958   -1.8375    0.0000 O   0  0
    3.2167    0.4000    0.0000 O   0  0
   -1.6208   -1.1125    0.0000 C   0  0
    1.2750    3.1833    0.0000 O   0  0
   -1.5833    2.3625    0.0000 C   0  0
    0.1417    0.6333    0.0000 O   0  0
   -0.8708    0.3000    0.0000 C   0  0
   -1.5833    0.7083    0.0000 C   0  0
   -3.3833   -2.8542    0.0000 C   0  0
    3.4167    1.1208    0.0000 O   0  0
    4.6042   -3.5750    0.0000 O   0  0
    5.6167   -2.9917    0.0000 O   0  0
   -5.0000   -2.6375    0.0000 O   0  0
   -4.1833   -3.4667    0.0000 O   0  0
    3.3917   -2.7750    0.0000 C   0  0
    4.1042   -1.5375    0.0000 C   0  0
   -1.4083   -1.9000    0.0000 C   0  0
   -2.4208   -0.8917    0.0000 C   0  0
   -0.1583    2.3625    0.0000 C   0  0
   -3.7333    1.9458    0.0000 C   0  0
    2.6792   -1.5375    0.0000 C   0  0
    4.1292    2.3625    0.0000 N   0  0
   -2.7958   -2.2750    0.0000 C   0  0
    3.3917   -1.1292    0.0000 C   0  0
    2.6792   -2.3542    0.0000 C   0  0
   -0.8708    1.9458    0.0000 C   0  0  1  0  0  0
   -1.9958   -2.4917    0.0000 C   0  0
   -3.0083   -1.4667    0.0000 C   0  0
    2.7750   -0.0875    0.0000 C   0  0
   -2.2958    1.1083    0.0000 C   0  0
   -0.8708    1.1125    0.0000 C   0  0
   -3.0250    0.7000    0.0000 C   0  0
   -3.0208    3.1833    0.0000 C   0  0
   -3.7333    1.1083    0.0000 C   0  0
   -4.4458    2.3625    0.0000 C   0  0
   -3.7333    3.6083    0.0000 C   0  0
   -4.4458    3.1750    0.0000 C   0  0
  2 19  1  0
  3  2  1  0
  4  3  1  0
  5  2  1  0
  6 28  1  0
  7  4  1  0
  8  7  1  0
  9  5  1  0
 10  8  1  0
  7 11  1  6
 12 24  1  0
 13 11  1  0
 14  1  1  0
 15 18  1  0
 16 12  2  0
 17  1  2  0
 18  9  1  0
 19 40  1  0
 20  6  2  0
 21  3  2  0
 22 15  1  0
 23  8  2  0
 45 24  1  1
 25  9  2  0
 26 15  1  0
 27 26  2  0
 28 42  1  0
 29 13  2  0
 30  1  1  0
 31  1  1  0
 32  6  1  0
 33  6  1  0
 34 14  2  0
 35 14  1  0
 36 22  1  0
 37 22  2  0
 38 10  1  0
 39 16  1  0
 40 43  1  0
 41 13  1  0
 42 47  2  0
 43 35  2  0
 44 34  1  0
 45 38  1  0
 46 36  2  0
 47 37  1  0
  2 48  1  1
 49 12  1  0
 50 27  1  0
 51 49  2  0
 52 16  1  0
 53 51  1  0
 54 39  1  0
 55 52  2  0
 56 55  1  0
 44 40  2  0
 45 50  1  0
 42 46  1  0
 53 39  2  0
 56 54  2  0
M  END