
  SciTegic04091415032D

 23 25  0  0  0  0            999 V2000
   34.5476   -8.3370    0.0000 C   0  0
   34.5465   -9.1565    0.0000 N   0  0
   35.2545   -9.5655    0.0000 C   0  0
   35.9642   -9.1560    0.0000 C   0  0
   35.9613   -8.3334    0.0000 C   0  0
   35.2527   -7.9281    0.0000 N   0  0
   33.8399   -7.9281    0.0000 C   0  0
   33.8449   -7.1106    0.0000 N   0  0
   33.0680   -6.8541    0.0000 N   0  0
   36.6675   -7.9221    0.0000 C   0  0
   36.6644   -7.1049    0.0000 F   0  0
   37.3768   -8.3280    0.0000 F   0  0
   37.3721   -7.5074    0.0000 F   0  0
   33.0651   -8.1773    0.0000 C   0  0
   32.5876   -7.5172    0.0000 C   0  0
   31.7817   -7.6002    0.0000 C   0  0
   31.4470   -8.3423    0.0000 N   0  0
   31.9245   -9.0024    0.0000 C   0  0
   32.7367   -8.9203    0.0000 C   0  0
   35.2543  -10.3827    0.0000 N   0  0
   34.5465  -10.7911    0.0000 C   0  0
   34.5463  -11.6083    0.0000 C   0  0
   33.8385  -12.0167    0.0000 O   0  0
  1  2  2  0
  2  3  1  0
  3  4  2  0
  4  5  1  0
  5  6  2  0
  6  1  1  0
  8  9  1  0
  7  8  2  0
  9 15  1  0
 14  7  1  0
  1  7  1  0
  5 10  1  0
 10 11  1  0
 10 12  1  0
 10 13  1  0
 14 15  2  0
 14 19  1  0
 15 16  1  0
 16 17  2  0
 17 18  1  0
 18 19  2  0
  3 20  1  0
 20 21  1  0
 21 22  1  0
 22 23  1  0
M  END