
          11280715402D 1   1.00000     0.00000     0

 29 31  0     0  0            999 V2000
    3.0500   -3.6500    0.0000 C   0  0  0  0  0  0           0  0  0
    2.5750   -2.9750    0.0000 N   0  0  0  0  0  0           0  0  0
    2.5542   -4.3125    0.0000 N   0  0  0  0  0  0           0  0  0
   11.7417   -1.6417    0.0000 C   0  0  0  0  0  0           0  0  0
    3.8750   -3.6667    0.0000 C   0  0  0  0  0  0           0  0  0
    1.7875   -3.2167    0.0000 C   0  0  0  0  0  0           0  0  0
   11.3417   -0.9250    0.0000 C   0  0  0  0  0  0           0  0  0
    1.7750   -4.0417    0.0000 C   0  0  0  0  0  0           0  0  0
   11.3167   -2.3542    0.0000 C   0  0  0  0  0  0           0  0  0
    4.2917   -2.9542    0.0000 C   0  0  0  0  0  0           0  0  0
    4.2750   -4.3792    0.0000 C   0  0  0  0  0  0           0  0  0
   10.5125   -0.9125    0.0000 C   0  0  0  0  0  0           0  0  0
    6.3500   -3.7042    0.0000 O   0  0  0  0  0  0           0  0  0
    5.5250   -3.6917    0.0000 C   0  0  0  0  0  0           0  0  0
   10.4917   -2.3375    0.0000 C   0  0  0  0  0  0           0  0  0
    7.5750   -4.4375    0.0000 C   0  0  3  0  0  0           0  0  0
    6.7500   -4.4250    0.0000 C   0  0  0  0  0  0           0  0  0
    5.1167   -2.9667    0.0000 C   0  0  0  0  0  0           0  0  0
    5.1000   -4.4000    0.0000 C   0  0  0  0  0  0           0  0  0
   10.0917   -1.6167    0.0000 C   0  0  0  0  0  0           0  0  0
   12.5667   -1.6542    0.0000 O   0  0  0  0  0  0           0  0  0
    8.8250   -3.7417    0.0000 N   0  0  0  0  0  0           0  0  0
   11.7625   -0.2125    0.0000 O   0  0  0  0  0  0           0  0  0
    7.9792   -5.1542    0.0000 O   0  0  0  0  0  0           0  0  0
    8.0000   -3.7292    0.0000 C   0  0  0  0  0  0           0  0  0
    9.2417   -3.0292    0.0000 C   0  0  0  0  0  0           0  0  0
   10.0667   -3.0417    0.0000 C   0  0  0  0  0  0           0  0  0
   12.9667   -2.3792    0.0000 C   0  0  0  0  0  0           0  0  0
   12.5875   -0.2167    0.0000 C   0  0  0  0  0  0           0  0  0
  2  1  2  0     0  0
  3  1  1  0     0  0
  4  9  1  0     0  0
  5  1  1  0     0  0
  6  2  1  0     0  0
  7 12  1  0     0  0
  8  3  1  0     0  0
  9 15  2  0     0  0
 10  5  1  0     0  0
 11  5  2  0     0  0
 12 20  2  0     0  0
 13 14  1  0     0  0
 14 19  2  0     0  0
 15 27  1  0     0  0
 16 17  1  0     0  0
 17 13  1  0     0  0
 18 10  2  0     0  0
 19 11  1  0     0  0
 20 15  1  0     0  0
 21  4  1  0     0  0
 22 25  1  0     0  0
 23  7  1  0     0  0
 24 16  1  0     0  0
 25 16  1  0     0  0
 26 22  1  0     0  0
 27 26  1  0     0  0
 28 21  1  0     0  0
 29 23  1  0     0  0
  8  6  2  0     0  0
 18 14  1  0     0  0
  7  4  2  0     0  0
M  END