
  SciTegic06051315212D

 21 22  0  0  0  0            999 V2000
   31.5389   -8.4814    0.0000 C   0  0
   31.5377   -9.3010    0.0000 C   0  0
   32.2458   -9.7099    0.0000 C   0  0
   32.9554   -9.3005    0.0000 C   0  0
   32.9526   -8.4778    0.0000 C   0  0
   32.2440   -8.0726    0.0000 C   0  0
   32.2415   -7.2554    0.0000 S   0  0
   32.9480   -6.8447    0.0000 N   0  0
   31.4454   -7.4620    0.0000 O   0  0
   31.8251   -6.5417    0.0000 O   0  0
   33.6588   -8.0666    0.0000 F   0  0
   30.8311   -8.0730    0.0000 F   0  0
   30.8297   -9.7090    0.0000 F   0  0
   33.6638   -9.7080    0.0000 F   0  0
   32.2456  -10.5271    0.0000 O   0  0
   31.5378  -10.9355    0.0000 C   0  0
   30.8336  -10.5237    0.0000 C   0  0
   30.1262  -10.9315    0.0000 C   0  0
   30.1256  -11.7495    0.0000 C   0  0
   30.8382  -12.1581    0.0000 C   0  0
   31.5426  -11.7480    0.0000 C   0  0
  1  2  2  0
  2  3  1  0
  3  4  2  0
  4  5  1  0
  5  6  2  0
  6  1  1  0
  6  7  1  0
  7  8  1  0
  7  9  2  0
  7 10  2  0
  5 11  1  0
  1 12  1  0
  2 13  1  0
  4 14  1  0
  3 15  1  0
 15 16  1  0
 16 17  2  0
 17 18  1  0
 18 19  2  0
 19 20  1  0
 20 21  2  0
 21 16  1  0
M  END