
  SciTegic01091216402D

 60 62  0  0  0  0            999 V2000
   -0.1330   -8.9350    0.0000 Na  0  3
    5.7609   -9.1355    0.0000 O   0  0
    1.4428  -11.5589    0.0000 C   0  0  2  0  0  0
    2.1521  -11.9759    0.0000 C   0  0  2  0  0  0
    2.8660  -11.5760    0.0000 C   0  0  1  0  0  0
    2.8769  -10.7533    0.0000 O   0  0
    2.1677  -10.3322    0.0000 C   0  0  1  0  0  0
    1.4475  -10.7378    0.0000 C   0  0  2  0  0  0
    0.7345  -10.3157    0.0000 O   0  0
    2.1770   -9.5052    0.0000 C   0  0
    1.4651   -9.0856    0.0000 O   0  0
    3.5737  -11.9959    0.0000 O   0  0
    0.7228  -11.9645    0.0000 O   0  0
    2.1435  -12.8029    0.0000 O   0  0
   -1.4046  -11.5616    0.0000 C   0  0  1  0  0  0
   -1.4046  -12.3885    0.0000 C   0  0  1  0  0  0
   -0.6903  -12.7959    0.0000 C   0  0  2  0  0  0
    0.0239  -12.3885    0.0000 C   0  0
    0.0230  -11.5593    0.0000 C   0  0  2  0  0  0
   -0.6903  -11.1418    0.0000 O   0  0
    0.0210  -10.7317    0.0000 C   0  0
   -0.6967  -10.3177    0.0000 O   0  0
   -0.6903  -13.6228    0.0000 O   0  0
   -2.1167  -12.8011    0.0000 N   0  0
   -2.1185  -11.1481    0.0000 C   0  0  1  0  0  0
   -2.1209  -10.3210    0.0000 C   0  0  1  0  0  0
   -2.1155  -13.6280    0.0000 C   0  0
   -2.8316  -14.0446    0.0000 C   0  0
   -1.4022  -14.0426    0.0000 O   0  0
   -2.8340  -11.5658    0.0000 O   0  0
   -1.4088  -10.7345    0.0000 H   0  0
   -2.8389   -9.9117    0.0000 C   0  0
   -1.4095   -9.9075    0.0000 O   0  0
   -2.8413   -9.0847    0.0000 N   0  0
    0.0167   -9.9034    0.0000 O   0  5
    4.2953  -11.5929    0.0000 C   0  0  2  0  0  0
    5.0036  -12.0159    0.0000 C   0  0  2  0  0  0
    5.7230  -11.6163    0.0000 C   0  0  1  0  0  0
    5.7370  -10.7891    0.0000 O   0  0
    5.0253  -10.3629    0.0000 C   0  0  1  0  0  0
    4.2997  -10.7682    0.0000 C   0  0  2  0  0  0
    4.2888  -12.4177    0.0000 H   0  0
    3.5874  -10.3450    0.0000 O   0  0
    5.0379   -9.5361    0.0000 C   0  0
    6.4332  -12.0389    0.0000 O   0  0
    7.1564  -11.6387    0.0000 C   0  0
    7.8666  -12.0612    0.0000 C   0  0
    8.5897  -11.6610    0.0000 Si  0  0
    9.2958  -12.0835    0.0000 C   0  0
    8.6026  -10.8341    0.0000 C   0  0
    9.2966  -11.2374    0.0000 C   0  0
    4.9905  -12.8428    0.0000 O   0  0
   -3.5551   -8.6753    0.0000 C   0  0
   -3.5575   -7.8526    0.0000 O   0  0
   -4.2665   -9.0888    0.0000 C   0  0
   -4.9811   -8.6789    0.0000 C   0  0
   -5.6921   -9.0916    0.0000 C   0  0
   -5.6901   -9.9154    0.0000 C   0  0
   -4.9713  -10.3246    0.0000 C   0  0
   -4.2633   -9.9094    0.0000 C   0  0
  7  8  1  0
 15 31  1  1
  3  4  1  0
 26 32  1  0
  8  9  1  1
 26 33  1  1
 32 34  1  0
 19 13  1  0
  7 10  1  1
 21 35  1  0
 15 20  1  0
 36 12  1  0
 36 37  1  0
 16 17  1  0
 17 18  1  0
 18 19  1  0
 19 20  1  0
 36 41  1  0
 37 38  1  0
 38 39  1  0
 39 40  1  0
 40 41  1  0
 19 21  1  1
 36 42  1  6
 10 11  1  0
 41 43  1  1
 21 22  2  0
 40 44  1  1
 44  2  1  0
  3  8  1  0
 38 45  1  1
 17 23  1  6
 45 46  1  0
  5 12  1  1
 46 47  1  0
 16 24  1  1
 47 48  1  0
  4  5  1  0
 48 49  1  0
 15 25  1  0
 48 50  1  0
  3 13  1  1
 48 51  1  0
 25 26  1  0
 37 52  1  6
  5  6  1  0
 34 53  1  0
 24 27  1  0
 53 54  2  0
  4 14  1  6
 53 55  1  0
 27 28  1  0
 55 56  2  0
 15 16  1  0
 56 57  1  0
 27 29  2  0
 57 58  2  0
  6  7  1  0
 58 59  1  0
 25 30  1  6
 59 60  2  0
 60 55  1  0
M  CHG  2   1   1  35  -1
M  END