
  SciTegic09261414532D

 40 45  0  0  0  0            999 V2000
    2.0884   -2.2906    0.0000 C   0  0
    2.0884   -3.1078    0.0000 C   0  0
    2.8019   -3.5164    0.0000 C   0  0
    2.8019   -1.8820    0.0000 C   0  0
    3.5072   -2.2906    0.0000 C   0  0
    3.5056   -3.1101    0.0000 C   0  0
    4.2098   -3.5174    0.0000 C   0  0
    4.9202   -3.1104    0.0000 N   0  0
    4.9220   -2.2920    0.0000 C   0  0
    4.2131   -1.8842    0.0000 C   0  0
    2.7990   -4.3377    0.0000 C   0  0
    2.0960   -4.7432    0.0000 N   0  0
    2.0961   -5.5666    0.0000 C   0  0
    2.7060   -6.1196    0.0000 S   0  0
    1.3881   -5.9739    0.0000 N   0  0
    1.5605   -6.7744    0.0000 C   0  0
    2.3764   -6.8542    0.0000 C   0  0
    2.7166   -7.5978    0.0000 C   0  0
    2.2419   -8.2614    0.0000 C   0  0
    1.4310   -8.1857    0.0000 C   0  0
    1.0863   -7.4425    0.0000 C   0  0
    3.5114   -4.7453    0.0000 O   0  0
    5.6284   -3.5179    0.0000 C   0  0
    5.6280   -4.3387    0.0000 S   0  0
    6.4036   -4.5923    0.0000 C   0  0
    6.8827   -3.9320    0.0000 C   0  0
    6.4017   -3.2683    0.0000 N   0  0
    7.6997   -3.9367    0.0000 C   0  0
    8.1082   -4.6430    0.0000 O   0  0
    8.1083   -3.2268    0.0000 O   0  0
    6.6557   -5.3696    0.0000 C   0  0
    7.4549   -5.5400    0.0000 C   0  0
    7.7070   -6.3173    0.0000 C   0  0
    8.5063   -6.4877    0.0000 O   0  0
    8.7583   -7.2650    0.0000 C   0  0
    8.2089   -7.8699    0.0000 C   0  0
    8.4604   -8.6466    0.0000 C   0  0
    9.2604   -8.8176    0.0000 C   0  0
    9.8084   -8.2057    0.0000 C   0  0
    9.5540   -7.4314    0.0000 C   0  0
  1  2  2  0
  1  4  1  0
  2  3  1  0
  3  6  2  0
  5  4  2  0
  5  6  1  0
  6  7  1  0
  7  8  1  0
  8  9  1  0
  9 10  1  0
 10  5  1  0
  3 11  1  0
 11 12  1  0
 12 13  1  0
 13 14  1  0
 14 17  1  0
 16 15  1  0
 15 13  2  0
 16 17  2  0
 17 18  1  0
 18 19  2  0
 19 20  1  0
 20 21  2  0
 21 16  1  0
  8 23  1  0
 11 22  2  0
 23 24  1  0
 25 26  2  0
 26 27  1  0
 27 23  2  0
 26 28  1  0
 28 29  1  0
 28 30  2  0
 24 25  1  0
 25 31  1  0
 31 32  1  0
 32 33  1  0
 33 34  1  0
 34 35  1  0
 35 36  2  0
 36 37  1  0
 37 38  2  0
 38 39  1  0
 39 40  2  0
 40 35  1  0
M  END