
          11280715252D 1   1.00000     0.00000     0

 42 44  0     1  0            999 V2000
    3.5292   -1.7250    0.0000 P   0  0  3  0  0  0           0  0  0
    4.2167   -1.7250    0.0000 N   0  0  3  0  0  0           0  0  0
    4.8542   -2.2292    0.0000 C   0  0  3  0  0  0           0  0  0
    9.9417   -4.7250    0.0000 N   0  3  0  0  0  0           0  0  0
    4.8167   -3.0542    0.0000 C   0  0  0  0  0  0           0  0  0
    2.3500   -1.5750    0.0000 N   0  0  0  0  0  0           0  0  0
    2.9167   -2.0250    0.0000 C   0  0  0  0  0  0           0  0  0
    1.6792   -1.9250    0.0000 C   0  0  0  0  0  0           0  0  0
    5.5125   -3.5000    0.0000 N   0  0  0  0  0  0           0  0  0
    0.4667   -1.9292    0.0000 N   0  0  0  0  0  0           0  0  0
    9.3000   -4.3292    0.0000 C   0  0  0  0  0  0           0  0  0
    0.0625   -2.6542    0.0000 C   0  0  0  0  0  0           0  0  0
    9.9167   -5.4792    0.0000 O   0  5  0  0  0  0           0  0  0
    3.5292   -1.0375    0.0000 O   0  0  0  0  0  0           0  0  0
    1.0625   -1.5042    0.0000 C   0  0  1  0  0  0           0  0  0
   10.6042   -4.3667    0.0000 O   0  0  0  0  0  0           0  0  0
    4.0792   -3.4292    0.0000 O   0  0  0  0  0  0           0  0  0
    1.6875   -2.6750    0.0000 O   0  0  0  0  0  0           0  0  0
    7.3875   -3.1292    0.0000 N   0  0  0  0  0  0           0  0  0
    0.6667   -3.2250    0.0000 O   0  0  0  0  0  0           0  0  0
    3.5292   -2.4125    0.0000 O   0  0  0  0  0  0           0  0  0
    6.1042   -3.0667    0.0000 C   0  0  2  0  0  0           0  0  0
    9.3250   -3.5667    0.0000 C   0  0  0  0  0  0           0  0  0
    8.6375   -4.6792    0.0000 C   0  0  0  0  0  0           0  0  0
    4.5125   -0.9542    0.0000 C   0  0  0  0  0  0           0  0  0
    8.0292   -3.5292    0.0000 C   0  0  0  0  0  0           0  0  0
    6.7250   -3.4875    0.0000 C   0  0  0  0  0  0           0  0  0
    5.5542   -1.7875    0.0000 C   0  0  0  0  0  0           0  0  0
    6.1042   -2.3125    0.0000 C   0  0  0  0  0  0           0  0  0
    8.6875   -3.1792    0.0000 C   0  0  0  0  0  0           0  0  0
    8.0000   -4.2792    0.0000 C   0  0  0  0  0  0           0  0  0
    6.7542   -1.9375    0.0000 C   0  0  0  0  0  0           0  0  0
    5.3417   -1.0125    0.0000 C   0  0  0  0  0  0           0  0  0
   -0.7333   -2.8792    0.0000 C   0  0  0  0  0  0           0  0  0
    1.0625   -0.7417    0.0000 C   0  0  0  0  0  0           0  0  0
    2.9292   -2.7417    0.0000 C   0  0  0  0  0  0           0  0  0
    7.4000   -2.3125    0.0000 C   0  0  0  0  0  0           0  0  0
    6.7542   -1.1875    0.0000 C   0  0  0  0  0  0           0  0  0
    2.9250   -3.4292    0.0000 C   0  0  0  0  0  0           0  0  0
    8.0500   -1.9375    0.0000 C   0  0  0  0  0  0           0  0  0
    7.4000   -0.8125    0.0000 C   0  0  0  0  0  0           0  0  0
    8.0500   -1.1875    0.0000 C   0  0  0  0  0  0           0  0  0
  2  1  1  0     0  0
  3  2  1  0     0  0
  4 11  1  0     0  0
  5  3  1  0     0  0
  6  7  1  0     0  0
  7  1  1  0     0  0
  8  6  1  0     0  0
  9  5  1  0     0  0
 10 15  1  0     0  0
 11 24  2  0     0  0
 12 10  1  0     0  0
 13  4  1  0     0  0
 14  1  2  0     0  0
 15  8  1  0     0  0
 16  4  2  0     0  0
 17  5  2  0     0  0
 18  8  2  0     0  0
 19 27  1  0     0  0
 20 12  2  0     0  0
 21  1  1  0     0  0
 22  9  1  0     0  0
 23 30  2  0     0  0
 24 31  1  0     0  0
 25  2  1  0     0  0
 26 19  1  0     0  0
 27 22  1  0     0  0
 28  3  1  0     0  0
 22 29  1  1     0  0
 30 26  1  0     0  0
 31 26  2  0     0  0
 32 29  1  0     0  0
 33 25  1  0     0  0
 34 12  1  0     0  0
 15 35  1  1     0  0
 36 21  1  0     0  0
 37 32  1  0     0  0
 38 32  2  0     0  0
 39 36  1  0     0  0
 40 37  2  0     0  0
 41 38  1  0     0  0
 42 41  2  0     0  0
 33 28  1  0     0  0
 42 40  1  0     0  0
 11 23  1  0     0  0
M  CHG  2   4   1  13  -1
M  END