
  SciTegic04071410272D

 27 30  0  0  0  0            999 V2000
    5.4949    1.1056    0.0000 C   0  0  1  0  0  0
    6.5619    0.3037    0.0000 C   0  0  2  0  0  0
    6.0457    0.7324    0.0000 C   0  0
    5.0740    0.7324    0.0000 C   0  0  1  0  0  0
    4.9343    1.5455    0.0000 N   0  0
    6.4237    1.1211    0.0000 C   0  0
    4.5541    0.0201    0.0000 C   0  0
    5.1744    0.3970    0.0000 C   0  0
    4.5117    2.2540    0.0000 C   0  0
    6.9737   -0.4112    0.0000 C   0  0
    6.5605   -1.1253    0.0000 C   0  0
    6.1472   -1.8393    0.0000 C   0  0
    7.2745   -1.5385    0.0000 C   0  0
    7.9894   -1.1267    0.0000 C   0  0
    8.7035   -1.5399    0.0000 C   0  0
    8.7026   -2.3649    0.0000 C   0  0
    7.9878   -2.7767    0.0000 C   0  0
    7.2737   -2.3635    0.0000 C   0  0
    6.5590   -2.5542    0.0000 C   0  0
    6.1458   -3.2683    0.0000 C   0  0
    5.3208   -3.2674    0.0000 C   0  0
    4.9090   -2.5526    0.0000 C   0  0
    5.3222   -1.8385    0.0000 C   0  0
    5.3049    1.9084    0.0000 H   0  0
    4.4712    1.2957    0.0000 H   0  0
    5.8464   -0.7120    0.0000 C   0  0
    5.8472    0.1130    0.0000 O   0  0
  3  4  1  0
  4  5  1  0
  1  5  1  0
  1  6  1  0
  6  2  1  0
  4  7  1  0
  1  8  1  0
  7  8  1  0
  5  9  1  0
  2 10  1  6
 10 11  1  0
 11 12  1  0
 11 13  1  0
 13 14  2  0
 14 15  1  0
 15 16  2  0
 16 17  1  0
 17 18  2  0
 18 13  1  0
 12 19  2  0
 19 20  1  0
 20 21  2  0
 21 22  1  0
 22 23  2  0
 23 12  1  0
  1 24  1  6
  4 25  1  1
 11 26  1  0
  2  3  1  0
 26 27  1  0
M  END