
  SciTegic12171312552D

 72 80  0  0  0  0            999 V2000
   22.9115   -6.0615    0.0000 C   0  0
   22.9089   -6.8916    0.0000 C   0  0
   23.6274   -7.3048    0.0000 C   0  0
   24.3413   -6.8905    0.0000 C   0  0
   23.6254   -5.6465    0.0000 C   0  0
   24.3367   -6.0614    0.0000 C   0  0
   24.3295   -4.4149    0.0000 C   0  0
   23.6235   -4.8288    0.0000 N   0  0
   24.3302   -3.5881    0.0000 N   0  0
   25.0389   -3.1673    0.0000 C   0  0
   25.0475   -4.8235    0.0000 N   0  0
   25.0552   -5.6465    0.0000 C   0  0
   25.8401   -5.8911    0.0000 N   0  0
   26.3170   -5.2273    0.0000 C   0  0
   25.8314   -4.5670    0.0000 N   0  0
   25.0395   -2.3405    0.0000 O   0  0
   25.7572   -3.5817    0.0000 C   0  0
   26.4764   -3.1608    0.0000 C   0  0
   27.1416   -5.2197    0.0000 C   0  0
   23.6269   -8.1295    0.0000 Cl  0  0
   27.6301   -5.8869    0.0000 C   0  0
   28.4121   -5.6269    0.0000 C   0  0
   28.4088   -4.8022    0.0000 C   0  0
   27.6220   -4.5525    0.0000 O   0  0
   27.1907   -3.5726    0.0000 C   0  0
   27.9036   -3.1555    0.0000 C   0  0
   28.6601   -3.4880    0.0000 C   0  0
   29.2089   -2.8721    0.0000 N   0  0
   28.7917   -2.1592    0.0000 N   0  0
   27.9871   -2.3328    0.0000 N   0  0
   30.0274   -2.9555    0.0000 C   0  0
   30.3584   -3.7103    0.0000 C   0  0
   31.1792   -3.8068    0.0000 C   0  0
   31.6691   -3.1443    0.0000 C   0  0
   31.3381   -2.3853    0.0000 C   0  0
   31.8321   -1.7228    0.0000 C   0  0
   32.6488   -1.8192    0.0000 N   0  0
   32.9633   -2.5803    0.0000 C   0  0
   32.4560   -3.2348    0.0000 O   0  0
   33.7807   -2.6910    0.0000 C   0  0
   34.0910   -3.4563    0.0000 C   0  0
   34.9084   -3.5670    0.0000 C   0  0
   35.4157   -2.9166    0.0000 C   0  0
   35.1013   -2.1513    0.0000 C   0  0
   34.2837   -2.0406    0.0000 C   0  0
   36.2290   -3.0273    0.0000 C   0  0
   35.6085   -1.5009    0.0000 C   0  0
   36.4260   -1.6117    0.0000 C   0  0
   35.2941   -0.7357    0.0000 O   0  0
   36.5434   -3.7926    0.0000 C   0  0
   37.3608   -3.9033    0.0000 C   0  0
   37.8640   -3.2530    0.0000 O   0  0
   37.5537   -2.4876    0.0000 C   0  0
   36.7362   -2.3769    0.0000 C   0  0
   36.0362   -4.4430    0.0000 C   0  0
   36.3506   -5.2041    0.0000 C   0  0
   37.1680   -5.3189    0.0000 C   0  0
   37.6711   -4.6644    0.0000 C   0  0
   38.0609   -1.8331    0.0000 C   0  0
   37.7465   -1.0721    0.0000 C   0  0
   36.9290   -0.9613    0.0000 C   0  0
   38.2495   -0.4174    0.0000 N   0  0
   38.8742   -1.9481    0.0000 S   0  0
   38.4886   -4.7794    0.0000 S   0  0
   37.4783   -6.0800    0.0000 N   0  0
   39.1690   -2.7160    0.0000 O   0  0
   38.7833   -5.5473    0.0000 O   0  0
   39.6464   -1.6532    0.0000 O   0  0
   39.0064   -1.1308    0.0000 O   0  0
   39.2607   -4.4845    0.0000 O   0  0
   38.6207   -3.9621    0.0000 O   0  0
   36.3200   -1.0885    0.0000 O   0  0
  1  2  2  0
  2  3  1  0
  3  4  2  0
  4  6  1  0
  5  1  1  0
  5  6  2  0
  6 12  1  0
 11  7  1  0
  7  8  2  0
  8  5  1  0
  7  9  1  0
  9 10  1  0
 11 12  1  0
 12 13  2  0
 13 14  1  0
 14 15  2  0
 15 11  1  0
 10 16  2  0
 10 17  1  0
 17 18  1  0
 14 19  1  0
  3 20  1  0
 19 21  2  0
 21 22  1  0
 22 23  2  0
 23 24  1  0
 24 19  1  0
 18 25  1  0
 25 26  1  0
 26 27  2  0
 27 28  1  0
 28 29  1  0
 29 30  2  0
 30 26  1  0
 28 31  1  0
 31 32  1  0
 32 33  1  0
 33 34  1  0
 34 35  1  0
 35 36  1  0
 36 37  1  0
 37 38  1  0
 38 39  2  0
 38 40  1  0
 40 41  2  0
 41 42  1  0
 42 43  2  0
 43 44  1  0
 44 45  2  0
 45 40  1  0
 43 46  1  0
 44 47  1  0
 47 49  1  0
 46 50  2  0
 50 51  1  0
 51 52  1  0
 52 53  1  0
 53 54  2  0
 54 46  1  0
 50 55  1  0
 55 56  2  0
 56 57  1  0
 57 58  1  0
 58 51  2  0
 53 59  1  0
 59 60  2  0
 60 61  1  0
 61 48  2  0
 48 54  1  0
 60 62  1  0
 59 63  1  0
 58 64  1  0
 57 65  2  0
 63 66  1  0
 64 67  1  0
 63 68  2  0
 69 63  2  0
 64 70  2  0
 71 64  2  0
 47 72  2  0
M  END