
  SciTegic11161115462D

 37 40  0  0  0  0            999 V2000
   -4.2931    2.2459    0.0000 C   0  0
   -4.2943    1.4185    0.0000 C   0  0
   -3.5794    1.0056    0.0000 C   0  0
   -3.5812    2.6586    0.0000 C   0  0
   -2.8659    2.2495    0.0000 C   0  0
   -2.8671    1.4164    0.0000 C   0  0
   -2.1502    1.0012    0.0000 N   0  0
   -1.4275    1.4144    0.0000 C   0  0
   -1.4263    2.2474    0.0000 C   0  0
   -2.1478    2.6673    0.0000 N   0  0
   -5.0084    2.6580    0.0000 N   0  3
   -5.7228    2.2453    0.0000 O   0  0
   -5.0086    3.4830    0.0000 O   0  5
   -0.7108    2.6582    0.0000 N   0  0
   -0.7142    0.9998    0.0000 N   0  0
    0.0026    2.2439    0.0000 C   0  0
   -0.0048    1.4198    0.0000 C   0  0
    0.7078    1.0056    0.0000 C   0  0
    1.4243    1.4164    0.0000 C   0  0
    1.4237    2.2457    0.0000 C   0  0
    0.7105    2.6561    0.0000 C   0  0
   -0.7165    0.1749    0.0000 C   0  0
   -1.4344   -0.2336    0.0000 C   0  0
   -1.4371   -1.0578    0.0000 C   0  0
   -0.7232   -1.4731    0.0000 C   0  0
   -0.0052   -1.0582    0.0000 C   0  0
   -0.0061   -0.2353    0.0000 C   0  0
    0.7095   -1.4702    0.0000 C   0  0
    1.4237   -1.0572    0.0000 C   0  0
    2.1385   -1.4692    0.0000 C   0  0
    2.8527   -1.0562    0.0000 O   0  0
    2.1391   -2.2942    0.0000 O   0  0
    2.1377    2.6590    0.0000 C   0  0
    2.8526    2.2472    0.0000 C   0  0
    3.5666    2.6605    0.0000 C   0  0
    4.2815    2.2488    0.0000 O   0  0
    3.5657    3.4855    0.0000 O   0  0
 17 18  1  0
  6  7  1  0
 18 19  2  0
  7  8  2  0
 19 20  1  0
  8  9  1  0
 20 21  2  0
 21 16  1  0
  9 10  2  0
 15 22  1  0
  5  6  1  0
 22 23  2  0
 23 24  1  0
  2  3  1  0
 24 25  2  0
 11 12  2  0
 25 26  1  0
 11 13  1  0
 26 27  2  0
 27 22  1  0
  1 11  1  0
 26 28  1  0
  3  6  2  0
 28 29  2  0
  9 14  1  0
 29 30  1  0
  1  2  2  0
 30 31  1  0
  8 15  1  0
 30 32  2  0
  5  4  2  0
 20 33  1  0
 14 16  1  0
 33 34  2  0
  4  1  1  0
 34 35  1  0
 16 17  2  0
 35 36  1  0
  5 10  1  0
 35 37  2  0
M  CHG  2  11   1  13  -1
M  END