
  SciTegic12231509382D

 22 23  0  0  0  0            999 V2000
    6.3625   -4.8917    0.0000 C   0  0
    7.0167   -5.1792    0.0000 N   0  0
    3.8125   -4.8875    0.0000 N   0  0
    6.4292   -4.1917    0.0000 C   0  0
    5.1167   -7.0250    0.0000 C   0  0
    7.4875   -4.6542    0.0000 C   0  0
    7.1292   -4.0417    0.0000 N   0  0
    2.8667   -4.2250    0.0000 N   0  0
    3.5792   -4.2167    0.0000 C   0  0
    3.2417   -5.3167    0.0000 C   0  0
    5.1292   -6.3292    0.0000 N   0  0
    2.6625   -4.9042    0.0000 C   0  0
    5.7417   -7.3750    0.0000 N   0  0
    4.5125   -7.4042    0.0000 N   0  0
    5.7500   -5.2500    0.0000 C   0  0
    5.7500   -5.9625    0.0000 S   0  0
    5.9042   -3.7167    0.0000 C   0  0
    3.2542   -6.0292    0.0000 C   0  0
    6.3667   -7.0042    0.0000 C   0  0
    3.8875   -7.0917    0.0000 C   0  0
    6.3667   -6.3125    0.0000 C   0  0
    3.8792   -6.3792    0.0000 C   0  0
  2  1  1  0
  3 10  1  0
  4  1  2  0
  5 13  1  0
  6  2  2  0
  7  4  1  0
  8 12  1  0
  9  3  2  0
 10 18  1  0
 11  5  2  0
 12 10  2  0
 13 19  1  0
 14  5  1  0
 15  1  1  0
 16 15  1  0
 17  4  1  0
 18 22  1  0
 19 21  1  0
 20 14  1  0
 21 16  1  0
 22 20  1  0
  7  6  1  0
  8  9  1  0
M  END