
  SciTegic04091414152D

 35 40  0  0  0  0            999 V2000
    9.9667  -27.3271    0.0000 C   0  0
    8.8529  -24.5604    0.0000 C   0  0
    8.2301  -25.0964    0.0000 C   0  0  2  0  0  0
    8.3839  -25.8995    0.0000 C   0  0
    9.1734  -26.1438    0.0000 N   0  3
    9.7823  -25.6336    0.0000 C   0  0
    9.6249  -24.8242    0.0000 C   0  0
    8.4568  -25.2793    0.0000 C   0  0
    9.2569  -25.4676    0.0000 C   0  0
    7.4543  -24.8276    0.0000 O   0  0
    6.0384  -24.6569    0.0000 C   0  0
    5.4941  -25.2748    0.0000 C   0  0
    6.7017  -25.1500    0.0000 C   0  0
    5.2808  -24.3314    0.0000 C   0  0
    5.0542  -23.5408    0.0000 C   0  0
    5.5314  -22.8700    0.0000 C   0  0
    6.3496  -22.8360    0.0000 C   0  0
    6.8961  -23.4513    0.0000 C   0  0
    6.7569  -24.2631    0.0000 C   0  0
    4.6764  -25.2048    0.0000 C   0  0
    4.3537  -25.9634    0.0000 C   0  0
    4.9757  -26.5075    0.0000 C   0  0
    5.6842  -26.0825    0.0000 C   0  0
    6.6048  -25.9655    0.0000 O   0  0
    9.2288  -26.9632    0.0000 C   0  0
   10.1078  -28.1367    0.0000 O   0  0
   10.9210  -28.2520    0.0000 C   0  0
   11.2807  -27.5141    0.0000 N   0  0
   10.6939  -26.9412    0.0000 N   0  0
   11.3079  -28.9773    0.0000 C   0  0
   10.8676  -29.6739    0.0000 C   0  0
   11.2491  -30.3998    0.0000 C   0  0
   12.0707  -30.4304    0.0000 C   0  0
   12.5093  -29.7291    0.0000 C   0  0
   12.1253  -29.0060    0.0000 C   0  0
  2  3  1  0
  2  7  1  0
  3  4  1  0
  4  5  1  0
  5  6  1  0
  6  7  1  0
  2  8  1  0
  5  9  1  0
  8  9  1  0
  3 10  1  6
 12 11  1  0
 11 13  1  0
 14 15  1  0
 15 16  1  0
 16 17  1  0
 14 11  1  0
 17 18  1  0
 11 19  1  0
 18 19  1  0
 12 20  2  0
 20 21  1  0
 21 22  2  0
 22 23  1  0
 23 12  1  0
 13 24  2  0
 13 10  1  0
  5 25  1  0
 25  1  1  0
  1 26  1  0
 26 27  1  0
 27 28  2  0
 28 29  1  0
 29  1  2  0
 30 31  2  0
 31 32  1  0
 32 33  2  0
 33 34  1  0
 34 35  2  0
 35 30  1  0
 27 30  1  0
M  CHG  1   5   1
M  END