
  SciTegic08011209522D

 39 43  0  0  0  0            999 V2000
   -2.0098  -16.6125    0.0000 N   0  0
   -2.0109  -17.4398    0.0000 C   0  0
   -1.2961  -17.8527    0.0000 N   0  0
   -1.2979  -16.1997    0.0000 C   0  0
   -0.5825  -16.6088    0.0000 C   0  0
   -0.5791  -17.4419    0.0000 C   0  0
    0.1401  -17.8532    0.0000 N   0  0
    0.8605  -17.4360    0.0000 C   0  0
    0.8570  -16.6029    0.0000 N   0  0
    0.1332  -16.1870    0.0000 C   0  0
    0.1441  -18.6748    0.0000 C   0  0
   -0.5709  -19.0886    0.0000 C   0  0
   -0.5690  -19.9128    0.0000 C   0  0
    0.1471  -20.3242    0.0000 C   0  0
    0.8628  -19.9053    0.0000 C   0  0
    0.8574  -19.0825    0.0000 C   0  0
   -2.7257  -17.8518    0.0000 N   0  0
   -2.7264  -18.6768    0.0000 C   0  0
   -3.4413  -19.0871    0.0000 C   0  0
   -3.4423  -19.9114    0.0000 C   0  0
   -2.7276  -20.3253    0.0000 C   0  0
   -2.0104  -19.9089    0.0000 C   0  0
   -2.0130  -19.0860    0.0000 C   0  0
    1.5761  -17.8466    0.0000 O   0  0
    1.5798  -20.3134    0.0000 N   0  0
    1.5850  -21.1383    0.0000 C   0  0
    2.3020  -21.5464    0.0000 C   0  0
    0.8731  -21.5553    0.0000 O   0  0
    2.3072  -22.3714    0.0000 C   0  0
   -2.7272  -21.1503    0.0000 N   0  0
    1.5702  -16.1882    0.0000 C   0  0
   -3.4441  -21.5599    0.0000 C   0  0
   -3.4456  -22.3813    0.0000 C   0  0
   -2.7327  -22.7972    0.0000 N   0  0
   -2.0167  -22.3856    0.0000 C   0  0
   -2.0135  -21.5580    0.0000 C   0  0
   -2.7354  -23.6222    0.0000 C   0  0
   -4.1550  -18.6733    0.0000 O   0  0
   -4.1534  -17.8483    0.0000 C   0  0
  6  7  1  0
 18 19  2  0
  7  8  1  0
 19 20  1  0
  8  9  1  0
 20 21  2  0
  9 10  1  0
 21 22  1  0
  5  6  1  0
 22 23  2  0
 23 18  1  0
  8 24  2  0
 11 12  2  0
 15 25  1  0
  2  3  1  0
 25 26  1  0
 12 13  1  0
 26 27  1  0
  3  6  2  0
 26 28  2  0
 13 14  2  0
 27 29  1  0
  1  2  2  0
 21 30  1  0
 14 15  1  0
  9 31  1  0
 30 32  1  0
  5  4  2  0
 15 16  2  0
 16 11  1  0
  7 11  1  0
  4  1  1  0
 30 36  1  0
 32 33  1  0
 33 34  1  0
 34 35  1  0
 35 36  1  0
  2 17  1  0
 34 37  1  0
  5 10  1  0
 19 38  1  0
 17 18  1  0
 38 39  1  0
M  END