
  SciTegic10301317112D

 32 32  0  0  0  0            999 V2000
   -0.9832   -1.1541    0.0000 S   0  0
    2.3122   -1.1416    0.0000 C   0  0
    9.1157   -5.1786    0.0000 C   0  0  1  0  0  0
    9.9406   -5.1161    0.0000 C   0  0
    8.6532   -4.4995    0.0000 N   0  0
   -0.1583   -1.1541    0.0000 C   0  0
    7.8283   -4.5037    0.0000 C   0  0
    2.7289   -1.8540    0.0000 N   0  0
   -0.9832   -1.9790    0.0000 O   0  0
   -0.9832   -0.3292    0.0000 O   0  0
    3.9662   -2.5539    0.0000 C   0  0
    6.1035   -3.1288    0.0000 C   0  0
    1.4873   -1.1416    0.0000 C   0  0
   -1.8081   -1.1499    0.0000 N   0  0
    6.5867   -3.7996    0.0000 N   0  0
    4.7912   -2.5539    0.0000 N   0  0
    2.7164   -0.4250    0.0000 O   0  0
   10.2988   -4.3787    0.0000 O   0  0
    7.4241   -5.2244    0.0000 O   0  0
    3.5621   -3.2746    0.0000 O   0  0
    6.4368   -2.3789    0.0000 O   0  0
    0.2417   -0.4416    0.0000 C   0  0
    0.2542   -1.8665    0.0000 C   0  0
    1.0791   -1.8623    0.0000 C   0  0
    1.0666   -0.4292    0.0000 C   0  0
    3.5538   -1.8415    0.0000 C   0  0
    7.4116   -3.7913    0.0000 C   0  0
    5.2786   -3.2163    0.0000 C   0  0
    8.7615   -5.9243    0.0000 C   0  0
   10.4030   -5.8035    0.0000 O   0  0
    9.2239   -6.6034    0.0000 C   0  0
    7.9366   -5.9868    0.0000 C   0  0
  2 13  1  0
  3  5  1  0
  4  3  1  0
  5  7  1  0
  6  1  1  0
  7 27  1  0
  8  2  1  0
  9  1  2  0
 10  1  2  0
 11 26  1  0
 12 28  1  0
 13 24  2  0
 14  1  1  0
 15 12  1  0
 16 11  1  0
 17  2  2  0
 18  4  2  0
 19  7  2  0
 20 11  2  0
 21 12  2  0
 22  6  1  0
 23  6  2  0
 24 23  1  0
 25 22  2  0
 26  8  1  0
 27 15  1  0
 28 16  1  0
  3 29  1  6
 30  4  1  0
 31 29  1  0
 32 29  1  0
 25 13  1  0
M  END