
  SciTegic07061118172D

 26 29  0  0  0  0            999 V2000
   19.0917    2.0167    0.0000 N   0  0
   19.0917    1.1917    0.0000 C   0  0
   19.8037    0.7833    0.0000 N   0  0
   19.8037    2.4333    0.0000 C   0  0
   20.5157    2.0167    0.0000 C   0  0
   20.5122    1.1917    0.0000 C   0  0
   21.2210    0.7784    0.0000 N   0  0
   21.9378    1.1856    0.0000 C   0  0
   21.9413    2.0106    0.0000 C   0  0
   21.2280    2.4284    0.0000 C   0  0
   22.6499    0.7691    0.0000 O   0  0
   21.2163   -0.0465    0.0000 C   0  0
   18.3778    0.7781    0.0000 N   0  0
   18.3790   -0.0469    0.0000 C   0  0
   17.6581   -0.4571    0.0000 C   0  0
   17.6574   -1.2785    0.0000 C   0  0
   18.3706   -1.6938    0.0000 O   0  0
   19.0863   -1.2815    0.0000 C   0  0
   19.0888   -0.4539    0.0000 C   0  0
   22.6544    2.4166    0.0000 C   0  0
   23.3666    1.9982    0.0000 C   0  0
   24.0810    2.4034    0.0000 C   0  0
   24.0896    3.2287    0.0000 C   0  0
   23.3775    3.6472    0.0000 C   0  0
   22.6568    3.2403    0.0000 C   0  0
   21.9449    3.6573    0.0000 Cl  0  0
  1  2  1  0
  2 13  1  0
  1  4  2  0
 13 14  1  0
 14 15  1  0
  2  3  2  0
  3  6  1  0
  5  4  1  0
  5 10  1  0
  6  7  1  0
 14 19  1  0
 15 16  1  0
 16 17  1  0
 17 18  1  0
 18 19  1  0
 20 21  1  0
  7  8  1  0
  8  9  1  0
  9 10  2  0
  5  6  2  0
  8 11  2  0
 20 25  2  0
 21 22  2  0
 22 23  1  0
 23 24  2  0
 24 25  1  0
  9 20  1  0
  7 12  1  0
 25 26  1  0
M  END