
          11280715332D 1   1.00000     0.00000     0

 37 41  0     0  0            999 V2000
    4.0667   -2.6917    0.0000 N   0  0  3  0  0  0           0  0  0
    5.4875   -2.7042    0.0000 C   0  0  3  0  0  0           0  0  0
    4.0542   -1.8750    0.0000 C   0  0  0  0  0  0           0  0  0
    4.7792   -3.1125    0.0000 C   0  0  0  0  0  0           0  0  0
    9.0500   -1.4417    0.0000 C   0  0  3  0  0  0           0  0  0
    5.4792   -3.5292    0.0000 C   0  0  0  0  0  0           0  0  0
    7.6250   -2.2750    0.0000 N   0  0  3  0  0  0           0  0  0
    6.1792   -4.7667    0.0000 C   0  0  0  0  0  0           0  0  0
    6.1875   -3.9417    0.0000 C   0  0  0  0  0  0           0  0  0
    3.3542   -3.1125    0.0000 C   0  0  0  0  0  0           0  0  0
    9.0500   -2.2667    0.0000 C   0  0  0  0  0  0           0  0  0
    8.3292   -1.0375    0.0000 C   0  0  0  0  0  0           0  0  0
    5.4625   -5.1750    0.0000 C   0  0  0  0  0  0           0  0  0
    5.4917   -1.8750    0.0000 C   0  0  0  0  0  0           0  0  0
    4.7792   -1.4625    0.0000 C   0  0  0  0  0  0           0  0  0
    3.3417   -1.4667    0.0000 O   0  0  0  0  0  0           0  0  0
    6.2000   -2.2875    0.0000 C   0  0  0  0  0  0           0  0  0
    4.7625   -3.9292    0.0000 C   0  0  0  0  0  0           0  0  0
    9.7625   -1.0292    0.0000 C   0  0  0  0  0  0           0  0  0
    4.7542   -4.7542    0.0000 C   0  0  0  0  0  0           0  0  0
    7.6167   -1.4542    0.0000 C   0  0  0  0  0  0           0  0  0
    8.3417   -2.6875    0.0000 C   0  0  0  0  0  0           0  0  0
    6.9167   -2.6917    0.0000 C   0  0  0  0  0  0           0  0  0
    6.8917   -5.1792    0.0000 Cl  0  0  0  0  0  0           0  0  0
    9.6292   -2.0292    0.0000 O   0  0  0  0  0  0           0  0  0
    5.4542   -6.0000    0.0000 Cl  0  0  0  0  0  0           0  0  0
    2.6375   -2.7000    0.0000 C   0  0  0  0  0  0           0  0  0
   10.4750   -1.4417    0.0000 C   0  0  0  0  0  0           0  0  0
    9.7500   -0.2042    0.0000 C   0  0  0  0  0  0           0  0  0
    1.9167   -3.1125    0.0000 C   0  0  0  0  0  0           0  0  0
    2.6375   -1.8667    0.0000 C   0  0  0  0  0  0           0  0  0
   10.4542    0.2083    0.0000 C   0  0  0  0  0  0           0  0  0
   11.1875   -1.0250    0.0000 C   0  0  0  0  0  0           0  0  0
    1.2042   -2.7000    0.0000 C   0  0  0  0  0  0           0  0  0
    1.9167   -1.4542    0.0000 C   0  0  0  0  0  0           0  0  0
    1.2042   -1.8750    0.0000 C   0  0  0  0  0  0           0  0  0
   11.1792   -0.2000    0.0000 C   0  0  0  0  0  0           0  0  0
  2  4  1  0     0  0
  3  1  1  0     0  0
  4  1  1  0     0  0
  5 11  1  0     0  0
  6  2  1  0     0  0
  7 23  1  0     0  0
  8  9  2  0     0  0
  9  6  1  0     0  0
 10  1  1  0     0  0
 11 22  1  0     0  0
 12 21  1  0     0  0
 13 20  2  0     0  0
 14  2  1  0     0  0
 15  3  1  0     0  0
 16  3  2  0     0  0
 17  2  1  0     0  0
 18  6  2  0     0  0
 19  5  1  0     0  0
 20 18  1  0     0  0
 21  7  1  0     0  0
 22  7  1  0     0  0
 23 17  1  0     0  0
 24  8  1  0     0  0
 25  5  1  0     0  0
 26 13  1  0     0  0
 27 10  1  0     0  0
 28 19  2  0     0  0
 29 19  1  0     0  0
 30 27  2  0     0  0
 31 27  1  0     0  0
 32 29  2  0     0  0
 33 28  1  0     0  0
 34 30  1  0     0  0
 35 31  2  0     0  0
 36 35  1  0     0  0
 37 32  1  0     0  0
 14 15  1  0     0  0
 34 36  2  0     0  0
 13  8  1  0     0  0
 12  5  1  0     0  0
 33 37  2  0     0  0
M  END