
  SciTegic01181116592D

 20 22  0  0  0  0            999 V2000
    2.0402    0.9625    0.0000 C   0  0
    2.0391    0.1352    0.0000 C   0  0
    2.7539   -0.2777    0.0000 C   0  0
    2.7521    1.3753    0.0000 C   0  0
    3.4675    0.9662    0.0000 C   0  0
    3.4682    0.1393    0.0000 C   0  0
    4.1835   -0.2716    0.0000 N   0  0
    4.8986    0.1431    0.0000 C   0  0
    4.8938    0.9731    0.0000 C   0  0
    4.1779    1.3803    0.0000 N   0  0
    5.6057    1.3899    0.0000 C   0  0
    6.3227    0.9818    0.0000 N   0  0
    5.6007    2.2149    0.0000 O   0  0
    7.0347    1.3986    0.0000 C   0  0
    7.7530    0.9850    0.0000 C   0  0
    8.4644    1.4012    0.0000 C   0  0
    8.4599    2.2270    0.0000 C   0  0
    7.7379    2.6350    0.0000 C   0  0
    7.0294    2.2165    0.0000 C   0  0
    9.1712    2.6448    0.0000 C   0  0
  9 10  2  0
 10  5  1  0
  9 11  1  0
  2  3  1  0
 11 12  1  0
  5  6  1  0
 11 13  2  0
  3  6  2  0
 12 14  1  0
  6  7  1  0
 14 15  2  0
  1  2  2  0
 15 16  1  0
  7  8  2  0
 16 17  2  0
  5  4  2  0
 17 18  1  0
  8  9  1  0
 18 19  2  0
 19 14  1  0
  4  1  1  0
 17 20  1  0
M  END