
  CDK    9/16/09,9:57

 28 30  0  0  0  0  0  0  0  0999 V2000
   10.3590  -24.0571    0.0000 C   0  0  0  0  0  0  0  0  0  0  0  0
    9.6410  -24.4701    0.0000 C   0  0  0  0  0  0  0  0  0  0  0  0
    8.9252  -24.0521    0.0000 C   0  0  0  0  0  0  0  0  0  0  0  0
    8.1709  -24.3883    0.0000 C   0  0  0  0  0  0  0  0  0  0  0  0
    8.0325  -23.0589    0.0000 C   0  0  0  0  0  0  0  0  0  0  0  0
    8.8381  -23.2328    0.0000 N   0  0  0  0  0  0  0  0  0  0  0  0
   11.0820  -24.4699    0.0000 C   0  0  0  0  0  0  0  0  0  0  0  0
   14.6632  -24.1126    0.0000 C   0  0  0  0  0  0  0  0  0  0  0  0
   13.9404  -24.5169    0.0000 C   0  0  0  0  0  0  0  0  0  0  0  0
   12.5094  -24.4917    0.0000 C   0  0  0  0  0  0  0  0  0  0  0  0
   15.3713  -24.5344    0.0000 C   0  0  0  0  0  0  0  0  0  0  0  0
   16.0905  -24.1321    0.0000 C   0  0  0  0  0  0  0  0  0  0  0  0
   15.3600  -25.3584    0.0000 C   0  0  0  0  0  0  0  0  0  0  0  0
   14.6387  -25.7580    0.0000 C   0  0  0  0  0  0  0  0  0  0  0  0
   14.6271  -26.5813    0.0000 C   0  0  0  0  0  0  0  0  0  0  0  0
   15.3356  -27.0039    0.0000 C   0  0  0  0  0  0  0  0  0  0  0  0
   16.0573  -26.5972    0.0000 C   0  0  0  0  0  0  0  0  0  0  0  0
   16.0654  -25.7752    0.0000 C   0  0  0  0  0  0  0  0  0  0  0  0
   16.7948  -24.5580    0.0000 N   0  0  0  0  0  0  0  0  0  0  0  0
   17.5136  -24.1565    0.0000 C   0  0  0  0  0  0  0  0  0  0  0  0
   17.5254  -23.3316    0.0000 C   0  0  0  0  0  0  0  0  0  0  0  0
   16.8123  -22.9098    0.0000 C   0  0  0  0  0  0  0  0  0  0  0  0
   16.0964  -23.3139    0.0000 C   0  0  0  0  0  0  0  0  0  0  0  0
   15.3255  -27.8279    0.0000 F   0  0  0  0  0  0  0  0  0  0  0  0
    7.6205  -23.7737    0.0000 N   0  0  0  0  0  0  0  0  0  0  0  0
   13.2321  -24.0938    0.0000 N   0  0  0  0  0  0  0  0  0  0  0  0
   11.8020  -24.0672    0.0000 N   0  0  0  0  0  0  0  0  0  0  0  0
   12.4988  -25.3170    0.0000 N   0  0  0  0  0  0  0  0  0  0  0  0
 11 12  1  0  0  0  0 
  2  3  1  0  0  0  0 
 11 13  1  0  0  0  0 
  3  4  2  0  0  0  0 
 13 14  2  0  0  0  0 
 14 15  1  0  0  0  0 
 15 16  2  0  0  0  0 
  5  6  2  0  0  0  0 
 16 17  1  0  0  0  0 
  3  6  1  0  0  0  0 
 17 18  2  0  0  0  0 
 18 13  1  0  0  0  0 
  1  7  1  0  0  0  0 
 12 19  2  0  0  0  0 
  8  9  1  0  0  0  0 
 19 20  1  0  0  0  0 
 20 21  2  0  0  0  0 
 21 22  1  0  0  0  0 
 22 23  2  0  0  0  0 
 23 12  1  0  0  0  0 
 16 24  1  0  0  0  0 
  8 11  1  0  0  0  0 
  1  2  1  0  0  0  0 
  9 26  1  0  0  0  0 
 26 10  1  0  0  0  0 
  4 25  1  0  0  0  0 
 25  5  1  0  0  0  0 
 10 27  1  0  0  0  0 
 27  7  1  0  0  0  0 
 10 28  2  0  0  0  0 
M  END