
  SciTegic05061116452D

 22 24  0  0  0  0            999 V2000
    4.8781  -24.6396    0.0000 C   0  0
    4.8770  -25.4669    0.0000 C   0  0
    5.5919  -25.8799    0.0000 C   0  0
    5.5901  -24.2267    0.0000 C   0  0
    6.3055  -24.6359    0.0000 C   0  0
    6.3062  -25.4628    0.0000 C   0  0
    7.0216  -25.8738    0.0000 N   0  0
    7.7368  -25.4590    0.0000 C   0  0
    7.7320  -24.6290    0.0000 C   0  0
    7.0160  -24.2217    0.0000 N   0  0
    8.4528  -25.8688    0.0000 O   0  0
    8.4561  -26.6939    0.0000 C   0  0
    9.1722  -27.1036    0.0000 C   0  0
    8.4439  -24.2121    0.0000 C   0  0
    9.1610  -24.6203    0.0000 N   0  0
    9.8688  -24.2052    0.0000 C   0  0
    8.4389  -23.3871    0.0000 O   0  0
   10.5783  -24.6133    0.0000 C   0  0
   11.2857  -24.1989    0.0000 N   0  0
   11.2806  -23.3775    0.0000 C   0  0
   10.5623  -22.9722    0.0000 C   0  0
    9.8578  -23.3889    0.0000 C   0  0
  8 11  1  0
  2  3  1  0
 11 12  1  0
  5  6  1  0
 12 13  1  0
  3  6  2  0
  9 14  1  0
  6  7  1  0
 14 15  1  0
  1  2  2  0
 15 16  1  0
  7  8  2  0
 14 17  2  0
  5  4  2  0
 16 18  2  0
  8  9  1  0
 18 19  1  0
  4  1  1  0
 19 20  2  0
  9 10  2  0
 20 21  1  0
 10  5  1  0
 21 22  2  0
 22 16  1  0
M  END