
          11280715172D 1   1.00000     0.00000     0

 30 32  0     1  0            999 V2000
    6.5417   -2.7250    0.0000 C   0  0  2  0  0  0           0  0  0
    6.5417   -1.9000    0.0000 N   0  0  3  0  0  0           0  0  0
    3.6792   -0.2500    0.0000 C   0  0  0  0  0  0           0  0  0
    7.2542   -3.1375    0.0000 C   0  0  3  0  0  0           0  0  0
    5.8292   -3.1375    0.0000 C   0  0  0  0  0  0           0  0  0
    6.5417   -4.3750    0.0000 N   0  0  3  0  0  0           0  0  0
    7.2542   -3.9625    0.0000 C   0  0  0  0  0  0           0  0  0
    4.4042   -0.6625    0.0000 C   0  0  0  0  0  0           0  0  0
    5.8292   -1.4875    0.0000 C   0  0  0  0  0  0           0  0  0
    2.9667   -0.6625    0.0000 N   0  0  3  0  0  0           0  0  0
    3.6792    0.5750    0.0000 O   0  0  0  0  0  0           0  0  0
    7.2542   -1.4875    0.0000 C   0  0  0  0  0  0           0  0  0
    5.8292   -3.9625    0.0000 C   0  0  0  0  0  0           0  0  0
    4.4042   -1.4875    0.0000 C   0  0  0  0  0  0           0  0  0
    5.1167   -0.2500    0.0000 C   0  0  0  0  0  0           0  0  0
    5.1167   -1.9000    0.0000 C   0  0  0  0  0  0           0  0  0
    5.8292   -0.6625    0.0000 C   0  0  0  0  0  0           0  0  0
    7.2542   -5.6125    0.0000 C   0  0  0  0  0  0           0  0  0
    7.2542   -6.4375    0.0000 C   0  0  0  0  0  0           0  0  0
    6.5417   -5.2000    0.0000 C   0  0  0  0  0  0           0  0  0
    7.9667   -2.7250    0.0000 C   0  0  0  0  0  0           0  0  0
    2.2542   -0.2500    0.0000 C   0  0  0  0  0  0           0  0  0
    2.9667   -1.4875    0.0000 C   0  0  0  0  0  0           0  0  0
    7.9667   -1.9000    0.0000 C   0  0  0  0  0  0           0  0  0
    7.2542   -0.6625    0.0000 C   0  0  0  0  0  0           0  0  0
    1.5417   -0.6625    0.0000 C   0  0  0  0  0  0           0  0  0
    2.2542   -1.9000    0.0000 C   0  0  0  0  0  0           0  0  0
    7.9667   -0.2500    0.0000 C   0  0  0  0  0  0           0  0  0
    8.6792   -1.4875    0.0000 C   0  0  0  0  0  0           0  0  0
    8.6792   -0.6625    0.0000 C   0  0  0  0  0  0           0  0  0
  1  2  1  6     0  0
  3  8  1  0     0  0
  4  1  1  0     0  0
  5  1  1  0     0  0
  6 13  1  0     0  0
  7  4  1  0     0  0
  8 15  2  0     0  0
  9  2  1  0     0  0
 10  3  1  0     0  0
 11  3  2  0     0  0
 12  2  1  0     0  0
 13  5  1  0     0  0
 14 16  2  0     0  0
 15 17  1  0     0  0
 16  9  1  0     0  0
 17  9  2  0     0  0
 18 20  1  0     0  0
 19 18  2  0     0  0
 20  6  1  0     0  0
  4 21  1  0     0  0
 22 10  1  0     0  0
 23 10  1  0     0  0
 24 12  2  0     0  0
 25 12  1  0     0  0
 26 22  1  0     0  0
 27 23  1  0     0  0
 28 25  2  0     0  0
 29 24  1  0     0  0
 30 28  1  0     0  0
  6  7  1  0     0  0
  8 14  1  0     0  0
 30 29  2  0     0  0
M  END