
          11280715342D 1   1.00000     0.00000     0

 29 31  0     0  0            999 V2000
   -0.6583   -5.8250    0.0000 N   0  0  3  0  0  0           0  0  0
   -0.7875   -5.0917    0.0000 C   0  0  0  0  0  0           0  0  0
   -0.2375   -6.5417    0.0000 C   0  0  0  0  0  0           0  0  0
    3.3667   -8.9250    0.0000 S   0  0  3  0  0  0           0  0  0
   -2.1833   -4.7875    0.0000 O   0  0  0  0  0  0           0  0  0
   -1.2583   -6.3875    0.0000 C   0  0  0  0  0  0           0  0  0
   -1.4000   -4.5375    0.0000 C   0  0  0  0  0  0           0  0  0
   -2.0708   -6.2667    0.0000 C   0  0  0  0  0  0           0  0  0
   -2.4833   -5.5542    0.0000 C   0  0  0  0  0  0           0  0  0
    0.5875   -6.5292    0.0000 N   0  0  0  0  0  0           0  0  0
    0.0000   -4.8500    0.0000 C   0  0  0  0  0  0           0  0  0
    1.8292   -7.2417    0.0000 C   0  0  0  0  0  0           0  0  0
    2.2417   -7.9625    0.0000 C   0  0  0  0  0  0           0  0  0
    1.0000   -7.2500    0.0000 N   0  0  0  0  0  0           0  0  0
    3.8125   -9.6250    0.0000 O   0  0  0  0  0  0           0  0  0
    2.6667   -9.3667    0.0000 O   0  0  0  0  0  0           0  0  0
   -0.6500   -7.2542    0.0000 O   0  0  0  0  0  0           0  0  0
    3.0667   -7.9625    0.0000 C   0  0  0  0  0  0           0  0  0
   -1.2208   -3.7292    0.0000 C   0  0  0  0  0  0           0  0  0
    2.2417   -6.5292    0.0000 O   0  0  0  0  0  0           0  0  0
    0.1792   -4.0375    0.0000 C   0  0  0  0  0  0           0  0  0
    4.1542   -8.6750    0.0000 C   0  0  0  0  0  0           0  0  0
   -0.4333   -3.4792    0.0000 C   0  0  0  0  0  0           0  0  0
    0.9792   -3.7792    0.0000 Cl  0  0  0  0  0  0           0  0  0
   -2.4833   -6.9875    0.0000 C   0  0  0  0  0  0           0  0  0
   -3.3083   -5.5542    0.0000 C   0  0  0  0  0  0           0  0  0
    4.7542   -9.2292    0.0000 C   0  0  0  0  0  0           0  0  0
   -3.3125   -6.9875    0.0000 C   0  0  0  0  0  0           0  0  0
   -3.7250   -6.2667    0.0000 C   0  0  0  0  0  0           0  0  0
  2  1  1  0     0  0
  3  1  1  0     0  0
  4 18  1  0     0  0
  5  7  1  0     0  0
  6  1  1  0     0  0
  7  2  1  0     0  0
  8  6  1  0     0  0
  9  8  2  0     0  0
 10  3  1  0     0  0
 11  2  2  0     0  0
 12 14  1  0     0  0
 13 12  1  0     0  0
 14 10  1  0     0  0
 15  4  2  0     0  0
 16  4  2  0     0  0
 17  3  2  0     0  0
 18 13  1  0     0  0
 19  7  2  0     0  0
 20 12  2  0     0  0
 21 11  1  0     0  0
 22  4  1  0     0  0
 23 21  2  0     0  0
 24 21  1  0     0  0
 25  8  1  0     0  0
 26  9  1  0     0  0
 27 22  1  0     0  0
 28 25  2  0     0  0
 29 28  1  0     0  0
  9  5  1  0     0  0
 23 19  1  0     0  0
 29 26  2  0     0  0
M  END