
          11280715402D 1   1.00000     0.00000     0

 35 39  0     0  0            999 V2000
    4.4417   -5.0792    0.0000 N   0  0  3  0  0  0           0  0  0
    4.3542   -5.9000    0.0000 C   0  0  0  0  0  0           0  0  0
    3.6917   -4.7417    0.0000 C   0  0  0  0  0  0           0  0  0
    8.7167   -5.0750    0.0000 C   0  0  0  0  0  0           0  0  0
    4.9750   -6.4500    0.0000 C   0  0  0  0  0  0           0  0  0
    8.3000   -3.8042    0.0000 N   0  0  0  0  0  0           0  0  0
    8.0417   -4.5917    0.0000 N   0  0  0  0  0  0           0  0  0
    9.1250   -3.8042    0.0000 N   0  0  0  0  0  0           0  0  0
    3.1375   -5.3500    0.0000 C   0  0  3  0  0  0           0  0  0
    9.3792   -4.5875    0.0000 N   0  0  0  0  0  0           0  0  0
    8.7250   -5.9000    0.0000 C   0  0  0  0  0  0           0  0  0
    3.5542   -6.0667    0.0000 C   0  0  0  0  0  0           0  0  0
    8.0125   -6.3125    0.0000 C   0  0  0  0  0  0           0  0  0
    4.8042   -7.2542    0.0000 C   0  0  0  0  0  0           0  0  0
    5.1542   -4.6667    0.0000 C   0  0  0  0  0  0           0  0  0
    7.3000   -5.9042    0.0000 C   0  0  0  0  0  0           0  0  0
    3.5167   -3.9375    0.0000 O   0  0  0  0  0  0           0  0  0
    4.0167   -7.5125    0.0000 O   0  0  0  0  0  0           0  0  0
    7.3000   -5.0750    0.0000 C   0  0  0  0  0  0           0  0  0
    6.5792   -6.3167    0.0000 C   0  0  0  0  0  0           0  0  0
    5.8667   -5.0750    0.0000 C   0  0  0  0  0  0           0  0  0
    5.4167   -7.8042    0.0000 O   0  0  0  0  0  0           0  0  0
    5.8667   -5.9042    0.0000 C   0  0  0  0  0  0           0  0  0
    6.5792   -4.6625    0.0000 C   0  0  0  0  0  0           0  0  0
    2.7167   -4.6375    0.0000 C   0  0  0  0  0  0           0  0  0
    2.7292   -6.0667    0.0000 C   0  0  0  0  0  0           0  0  0
    9.4375   -6.3042    0.0000 C   0  0  0  0  0  0           0  0  0
    8.0125   -7.1417    0.0000 C   0  0  0  0  0  0           0  0  0
    5.2500   -8.6167    0.0000 C   0  0  0  0  0  0           0  0  0
    1.8917   -4.6375    0.0000 C   0  0  0  0  0  0           0  0  0
    1.8917   -6.0667    0.0000 C   0  0  0  0  0  0           0  0  0
    9.4417   -7.1375    0.0000 C   0  0  0  0  0  0           0  0  0
    8.7292   -7.5500    0.0000 C   0  0  0  0  0  0           0  0  0
    5.8625   -9.1667    0.0000 C   0  0  0  0  0  0           0  0  0
    1.4792   -5.3542    0.0000 C   0  0  0  0  0  0           0  0  0
  2  1  1  0     0  0
  3  1  1  0     0  0
  4 11  1  0     0  0
  5  2  2  0     0  0
  6  7  2  0     0  0
  7  4  1  0     0  0
  8 10  1  0     0  0
  9  3  1  0     0  0
 10  4  2  0     0  0
 11 13  2  0     0  0
 12  2  1  0     0  0
 13 16  1  0     0  0
 14  5  1  0     0  0
 15  1  1  0     0  0
 16 19  2  0     0  0
 17  3  2  0     0  0
 18 14  2  0     0  0
 19 24  1  0     0  0
 20 23  2  0     0  0
 21 15  1  0     0  0
 22 14  1  0     0  0
 23 21  1  0     0  0
 24 21  2  0     0  0
 25  9  1  0     0  0
 26  9  1  0     0  0
 27 11  1  0     0  0
 28 13  1  0     0  0
 29 22  1  0     0  0
 30 25  1  0     0  0
 31 26  1  0     0  0
 32 33  1  0     0  0
 33 28  2  0     0  0
 34 29  1  0     0  0
 35 31  1  0     0  0
 12  9  1  0     0  0
 16 20  1  0     0  0
 35 30  1  0     0  0
 27 32  2  0     0  0
  6  8  1  0     0  0
M  END