
  SciTegic02011310462D

 35 40  0  0  0  0            999 V2000
   27.8244    0.0082    0.0000 C   0  0
   27.8232   -0.8195    0.0000 C   0  0
   28.5313   -1.2285    0.0000 C   0  0
   29.2409   -0.8190    0.0000 C   0  0
   29.2381    0.0046    0.0000 C   0  0
   28.5295    0.4165    0.0000 C   0  0
   28.5299   -2.0469    0.0000 N   0  0
   27.8203   -2.4541    0.0000 C   0  0
   27.8182   -3.2677    0.0000 C   0  0
   28.5240   -3.6803    0.0000 N   0  0
   29.2336   -3.2731    0.0000 C   0  0
   29.2374   -2.4533    0.0000 C   0  0
   28.5270    1.2337    0.0000 N   0  0
   29.2335    1.6402    0.0000 C   0  0
   29.9466    1.2377    0.0000 N   0  0
   29.9440    2.8648    0.0000 C   0  0
   29.2335    2.4565    0.0000 N   0  0
   30.6528    2.4562    0.0000 C   0  0
   30.6474    1.6414    0.0000 C   0  0
   31.4252    1.3799    0.0000 N   0  0
   31.9114    2.0406    0.0000 C   0  0
   31.4339    2.7035    0.0000 N   0  0
   32.7286    2.0378    0.0000 N   0  0
   33.1325    1.3284    0.0000 C   0  0
   32.7168    0.6224    0.0000 C   0  0
   33.1201   -0.0941    0.0000 C   0  0
   33.9381   -0.0999    0.0000 C   0  0
   34.3512    0.6115    0.0000 C   0  0
   33.9456    1.3243    0.0000 C   0  0
   28.5207   -4.4975    0.0000 C   0  0
   31.6729    0.5985    0.0000 C   0  0
   31.1882   -0.0595    0.0000 C   0  0
   31.6641   -0.7238    0.0000 C   0  0
   32.4430   -0.4764    0.0000 C   0  0
   32.4483    0.3444    0.0000 C   0  0
  1  2  2  0
  2  3  1  0
  3  4  2  0
  4  5  1  0
  5  6  2  0
  6  1  1  0
  7  8  1  0
  7 12  1  0
  8  9  1  0
  9 10  1  0
 10 11  1  0
 11 12  1  0
  3  7  1  0
  6 13  1  0
 13 14  1  0
 14 15  1  0
 14 17  2  0
 15 19  2  0
 18 16  2  0
 16 17  1  0
 18 19  1  0
 19 20  1  0
 20 21  1  0
 21 22  2  0
 22 18  1  0
 21 23  1  0
 23 24  1  0
 24 25  2  0
 25 26  1  0
 26 27  2  0
 27 28  1  0
 28 29  2  0
 29 24  1  0
 10 30  1  0
 31 32  1  0
 32 33  1  0
 33 34  1  0
 34 35  1  0
 35 31  1  0
 20 31  1  0
M  END