
          11280714442D 1   1.00000     0.00000     0

 19 19  0     0  0            999 V2000
    3.2542   -3.8750    0.0000 C   0  0  0  0  0  0           0  0  0
    3.9542   -3.4292    0.0000 C   0  0  0  0  0  0           0  0  0
    4.6792   -3.8125    0.0000 O   0  0  0  0  0  0           0  0  0
    2.5250   -3.4917    0.0000 C   0  0  0  0  0  0           0  0  0
    3.9167   -2.6042    0.0000 O   0  0  0  0  0  0           0  0  0
    7.5417   -3.6792    0.0000 N   0  0  0  0  0  0           0  0  0
    8.2292   -3.2375    0.0000 C   0  0  3  0  0  0           0  0  0
    6.1125   -3.7417    0.0000 C   0  0  3  0  0  0           0  0  0
    5.3792   -3.3667    0.0000 C   0  0  0  0  0  0           0  0  0
    6.8042   -3.3000    0.0000 C   0  0  0  0  0  0           0  0  0
    2.4875   -2.6667    0.0000 F   0  0  0  0  0  0           0  0  0
    3.3000   -4.6917    0.0000 C   0  0  0  0  0  0           0  0  0
    6.1500   -4.5667    0.0000 O   0  0  0  0  0  0           0  0  0
    1.8292   -3.9417    0.0000 C   0  0  0  0  0  0           0  0  0
    8.2000   -2.4125    0.0000 C   0  0  0  0  0  0           0  0  0
    8.7917   -2.6292    0.0000 C   0  0  0  0  0  0           0  0  0
    8.9667   -3.6167    0.0000 C   0  0  0  0  0  0           0  0  0
    2.6042   -5.1417    0.0000 C   0  0  0  0  0  0           0  0  0
    1.8667   -4.7625    0.0000 C   0  0  0  0  0  0           0  0  0
  2  1  1  0     0  0
  3  2  1  0     0  0
  4  1  2  0     0  0
  5  2  2  0     0  0
  6 10  1  0     0  0
  7  6  1  0     0  0
  8  9  1  0     0  0
  9  3  1  0     0  0
 10  8  1  0     0  0
 11  4  1  0     0  0
 12  1  1  0     0  0
 13  8  1  0     0  0
 14  4  1  0     0  0
 15  7  1  0     0  0
 16  7  1  0     0  0
 17  7  1  0     0  0
 18 12  2  0     0  0
 19 18  1  0     0  0
 19 14  2  0     0  0
M  END