
  SciTegic02271217242D

 77 80  0  0  0  0            999 V2000
   12.9795  -13.9739    0.0000 C   0  0  1  0  0  0
   12.7250  -14.7596    0.0000 C   0  0
   11.8860  -14.7889    0.0000 N   0  0
   11.6189  -15.5692    0.0000 C   0  0  2  0  0  0
   10.7879  -15.5714    0.0000 C   0  0
   10.5203  -14.7889    0.0000 N   0  0
    9.7062  -14.7590    0.0000 C   0  0  2  0  0  0
    9.4654  -13.9806    0.0000 C   0  0
   10.1162  -13.4939    0.0000 N   0  0
    9.8709  -12.7195    0.0000 C   0  0  2  0  0  0
   10.5182  -12.2288    0.0000 C   0  0
   11.1984  -12.6817    0.0000 N   0  0
   11.8586  -12.1999    0.0000 C   0  0  2  0  0  0
   12.5446  -12.6929    0.0000 C   0  0
   12.3109  -13.4827    0.0000 N   0  0
   11.8556  -11.3749    0.0000 C   0  0
   12.5685  -10.9598    0.0000 C   0  0
   11.1396  -10.9650    0.0000 C   0  0
    9.1566  -12.3067    0.0000 C   0  0
    9.2890  -15.4707    0.0000 C   0  0
    8.4640  -15.4653    0.0000 C   0  0
    8.0468  -16.1770    0.0000 C   0  0
    8.0562  -14.7481    0.0000 C   0  0
   10.3091  -16.2433    0.0000 O   0  0
   12.0529  -16.2708    0.0000 C   0  0
   11.6623  -16.9974    0.0000 C   0  0
   10.8400  -17.0186    0.0000 C   0  0
   10.4495  -17.7444    0.0000 C   0  0
   10.8836  -18.4470    0.0000 C   0  0
   11.7124  -18.4192    0.0000 C   0  0
   12.0992  -17.6928    0.0000 C   0  0
   13.2220  -15.4181    0.0000 O   0  0
   13.6898  -13.5541    0.0000 C   0  0
   14.4084  -13.9593    0.0000 C   0  0
   15.1186  -13.5396    0.0000 C   0  0
   14.4168  -14.7843    0.0000 C   0  0
   13.3251  -12.4256    0.0000 O   0  0
   10.4927  -11.4042    0.0000 O   0  0
    8.6808  -13.7255    0.0000 O   0  0
    9.1570  -11.4817    0.0000 C   0  0
    8.4428  -11.0688    0.0000 C   0  0
    8.4432  -10.2438    0.0000 C   0  0
    7.7289   -9.8309    0.0000 N   0  0
    7.7294   -9.0059    0.0000 C   0  0
    7.0151   -8.5931    0.0000 C   0  0
    8.4440   -8.5938    0.0000 O   0  0
    7.0155   -7.7681    0.0000 C   0  0
    6.3012   -7.3552    0.0000 O   0  0
    6.3017   -6.5302    0.0000 C   0  0
    5.5874   -6.1174    0.0000 C   0  0
    5.5878   -5.2924    0.0000 O   0  0
    4.8736   -4.8795    0.0000 C   0  0
    4.8740   -4.0545    0.0000 C   0  0
    4.1597   -3.6416    0.0000 O   0  0
    4.1601   -2.8166    0.0000 C   0  0
    3.4459   -2.4038    0.0000 C   0  0
    3.4463   -1.5788    0.0000 O   0  0
    2.7320   -1.1659    0.0000 C   0  0
    2.7324   -0.3409    0.0000 C   0  0
    2.0182    0.0719    0.0000 N   0  0
    2.0186    0.8969    0.0000 C   0  0
    1.3043    1.3098    0.0000 C   0  0
    2.7333    1.3091    0.0000 O   0  0
    1.3047    2.1348    0.0000 C   0  0
    0.5905    2.5477    0.0000 C   0  0
    0.5909    3.3727    0.0000 C   0  0
   -0.1234    3.7855    0.0000 C   0  0  2  0  0  0
   -1.4269    4.0668    0.0000 C   0  0
   -0.8751    3.4534    0.0000 S   0  0
    0.2110    5.3258    0.0000 N   0  0
   -0.3423    5.9428    0.0000 C   0  0
   -1.0993    5.6120    0.0000 N   0  0
   -0.1697    6.7527    0.0000 O   0  0
   -0.2041    4.6091    0.0000 C   0  0  1  0  0  0
    0.5928    4.3976    0.0000 H   0  0
   -1.0140    4.7857    0.0000 C   0  0  2  0  0  0
   -1.8109    4.9972    0.0000 H   0  0
 14 37  2  0
  4  5  1  0
 11 38  2  0
 10 19  1  1
  8 39  2  0
  5  6  1  0
 19 40  1  0
  7 20  1  1
 40 41  1  0
  6  7  1  0
 41 42  1  0
 20 21  1  0
 42 43  1  0
  3  4  1  0
 43 44  1  0
 21 22  1  0
 44 45  1  0
  8  9  1  0
 44 46  2  0
 21 23  1  0
 45 47  1  0
  9 10  1  0
 47 48  1  0
  5 24  2  0
 48 49  1  0
 10 11  1  0
 49 50  1  0
  4 25  1  1
 50 51  1  0
  7  8  1  0
 51 52  1  0
 25 26  1  0
 52 53  1  0
 12 13  1  0
 53 54  1  0
 26 27  2  0
 54 55  1  0
 13 14  1  0
 55 56  1  0
 27 28  1  0
 56 57  1  0
 14 15  1  0
 57 58  1  0
 28 29  2  0
 58 59  1  0
 11 12  1  0
 59 60  1  0
 29 30  1  0
 60 61  1  0
  1 15  1  0
 61 62  1  0
 30 31  2  0
 61 63  2  0
 31 26  1  0
 62 64  1  0
 64 65  1  0
  2 32  2  0
 65 66  1  0
 13 16  1  1
 67 66  1  6
 67 74  1  0
  1 33  1  1
  1  2  1  0
 76 68  1  0
 68 69  1  0
 67 69  1  0
 74 76  1  0
 33 34  1  0
 16 17  1  0
 34 35  1  0
  2  3  1  0
 34 36  1  0
 74 70  1  0
 70 71  1  0
 71 72  1  0
 76 72  1  0
 16 18  1  0
 71 73  2  0
 74 75  1  1
 76 77  1  1
M  END