
  SciTegic12201110432D

 13 15  0  0  0  0            999 V2000
    0.8380    0.8462    0.0000 C   0  0
    0.5985    1.6357    0.0000 C   0  0
    1.6414    0.6588    0.0000 C   0  0
    1.8808   -0.1307    0.0000 C   0  0
    1.3168   -0.7328    0.0000 C   0  0
    0.5134   -0.5454    0.0000 C   0  0
   -0.8212   -0.5191    0.0000 C   0  0
    0.2739    0.2441    0.0000 C   0  0
   -1.2086    0.7584    0.0000 C   0  0
   -0.5509    0.2604    0.0000 N   0  0
   -1.8855    0.2867    0.0000 N   0  0
   -1.6461   -0.5028    0.0000 N   0  0
   -0.1635   -1.0171    0.0000 S   0  0
  1  2  1  0
  1  3  2  0
  1  8  1  0
  3  4  1  0
  4  5  2  0
  5  6  1  0
  6  8  2  0
  6 13  1  0
  7 10  1  0
  7 12  2  0
  7 13  1  0
  8 10  1  0
  9 10  1  0
  9 11  2  0
 11 12  1  0
M  END