
          11280715242D 1   1.00000     0.00000     0

 44 48  0     0  0            999 V2000
    5.8417   -5.6125    0.0000 N   0  0  0  0  0  0           0  0  0
    5.3667   -4.3667    0.0000 N   0  0  3  0  0  0           0  0  0
    6.4875   -5.0917    0.0000 C   0  0  0  0  0  0           0  0  0
    6.1917   -4.3167    0.0000 N   0  0  0  0  0  0           0  0  0
    5.1542   -5.1625    0.0000 C   0  0  0  0  0  0           0  0  0
    1.2542   -2.9375    0.0000 C   0  0  0  0  0  0           0  0  0
   10.7542   -7.5667    0.0000 C   0  0  0  0  0  0           0  0  0
   10.7542   -6.7417    0.0000 C   0  0  0  0  0  0           0  0  0
    1.6667   -3.6500    0.0000 C   0  0  0  0  0  0           0  0  0
   10.0417   -7.9792    0.0000 C   0  0  0  0  0  0           0  0  0
    1.6667   -2.2250    0.0000 C   0  0  0  0  0  0           0  0  0
    4.9625   -3.6500    0.0000 C   0  0  0  0  0  0           0  0  0
    7.2000   -5.5042    0.0000 S   0  0  0  0  0  0           0  0  0
    2.4917   -3.6500    0.0000 C   0  0  0  0  0  0           0  0  0
   10.0417   -6.3292    0.0000 C   0  0  0  0  0  0           0  0  0
    9.3292   -7.5625    0.0000 O   0  0  0  0  0  0           0  0  0
    2.4917   -2.2167    0.0000 O   0  0  0  0  0  0           0  0  0
    2.9000   -4.3667    0.0000 C   0  0  0  0  0  0           0  0  0
   10.0417   -5.5000    0.0000 C   0  0  0  0  0  0           0  0  0
    2.8917   -2.9375    0.0000 C   0  0  0  0  0  0           0  0  0
    9.3292   -6.7375    0.0000 C   0  0  0  0  0  0           0  0  0
    4.1375   -3.6500    0.0000 C   0  0  0  0  0  0           0  0  0
   10.0417   -8.8042    0.0000 O   0  0  0  0  0  0           0  0  0
    1.2500   -1.5042    0.0000 O   0  0  0  0  0  0           0  0  0
    7.9125   -5.0917    0.0000 C   0  0  0  0  0  0           0  0  0
    8.6250   -5.5042    0.0000 C   0  0  0  0  0  0           0  0  0
    3.7167   -4.3667    0.0000 C   0  0  0  0  0  0           0  0  0
    3.7167   -2.9292    0.0000 C   0  0  0  0  0  0           0  0  0
    8.6167   -6.3250    0.0000 C   0  0  0  0  0  0           0  0  0
    9.3292   -5.0917    0.0000 C   0  0  0  0  0  0           0  0  0
    4.5667   -5.7417    0.0000 C   0  0  0  0  0  0           0  0  0
   11.4667   -7.9792    0.0000 C   0  0  0  0  0  0           0  0  0
    0.4292   -2.9417    0.0000 C   0  0  0  0  0  0           0  0  0
   11.4667   -6.3292    0.0000 C   0  0  0  0  0  0           0  0  0
    1.2542   -4.3625    0.0000 C   0  0  0  0  0  0           0  0  0
    3.7750   -5.5292    0.0000 C   0  0  0  0  0  0           0  0  0
    1.8167   -6.4792    0.0000 C   0  0  0  0  0  0           0  0  0
    2.3917   -5.9000    0.0000 C   0  0  0  0  0  0           0  0  0
    3.1917   -6.1125    0.0000 C   0  0  0  0  0  0           0  0  0
    0.4292   -4.3625    0.0000 C   0  0  0  0  0  0           0  0  0
    0.0167   -3.6542    0.0000 C   0  0  0  0  0  0           0  0  0
   12.1875   -7.5667    0.0000 C   0  0  0  0  0  0           0  0  0
   12.1792   -6.7375    0.0000 C   0  0  0  0  0  0           0  0  0
    1.0167   -6.2667    0.0000 C   0  0  0  0  0  0           0  0  0
  2  5  1  0     0  0
  3  1  1  0     0  0
  4  3  2  0     0  0
  5  1  2  0     0  0
  6  9  2  0     0  0
  7  8  2  0     0  0
  8 15  1  0     0  0
  9 14  1  0     0  0
 10  7  1  0     0  0
 11  6  1  0     0  0
 12  2  1  0     0  0
 13  3  1  0     0  0
 14 20  1  0     0  0
 15 19  1  0     0  0
 16 10  2  0     0  0
 17 11  2  0     0  0
 18 27  1  0     0  0
 19 30  2  0     0  0
 20 28  2  0     0  0
 21 29  1  0     0  0
 22 12  1  0     0  0
 23 10  1  0     0  0
 24 11  1  0     0  0
 25 13  1  0     0  0
 26 25  1  0     0  0
 27 22  2  0     0  0
 28 22  1  0     0  0
 29 26  2  0     0  0
 30 26  1  0     0  0
 31  5  1  0     0  0
 32  7  1  0     0  0
 33  6  1  0     0  0
 34  8  1  0     0  0
 35  9  1  0     0  0
 36 31  1  0     0  0
 37 38  1  0     0  0
 38 39  1  0     0  0
 39 36  1  0     0  0
 40 35  2  0     0  0
 41 40  1  0     0  0
 42 43  1  0     0  0
 43 34  2  0     0  0
 44 37  1  0     0  0
  2  4  1  0     0  0
 18 14  2  0     0  0
 15 21  2  0     0  0
 41 33  2  0     0  0
 42 32  2  0     0  0
M  END