
          02060813462D 1   1.00000     0.00000     0

 34 38  0     0  0            999 V2000
   -3.2601  -16.4681    0.0000 C   0  0  0  0  0  0           0  0  0
   -3.2612  -17.2956    0.0000 C   0  0  0  0  0  0           0  0  0
   -2.5463  -17.7085    0.0000 C   0  0  0  0  0  0           0  0  0
   -2.5481  -16.0554    0.0000 C   0  0  0  0  0  0           0  0  0
   -1.8335  -17.2947    0.0000 C   0  0  0  0  0  0           0  0  0
   -1.8327  -16.4645    0.0000 C   0  0  0  0  0  0           0  0  0
   -1.1804  -15.9416    0.0000 N   0  0  3  0  0  0           0  0  0
   -1.1790  -17.8149    0.0000 C   0  0  0  0  0  0           0  0  0
   -0.3673  -16.1219    0.0000 C   0  0  0  0  0  0           0  0  0
   -0.3650  -17.6269    0.0000 N   0  0  0  0  0  0           0  0  0
   -0.0067  -16.8725    0.0000 N   0  0  3  0  0  0           0  0  0
    0.1453  -15.4754    0.0000 O   0  0  0  0  0  0           0  0  0
   -1.3601  -18.6175    0.0000 C   0  0  3  0  0  0           0  0  0
    0.8184  -16.8707    0.0000 C   0  0  0  0  0  0           0  0  0
   -1.3675  -15.1381    0.0000 C   0  0  0  0  0  0           0  0  0
   -0.7655  -14.5772    0.0000 C   0  0  0  0  0  0           0  0  0
   -0.9521  -13.7743    0.0000 C   0  0  0  0  0  0           0  0  0
   -1.7423  -13.5339    0.0000 C   0  0  0  0  0  0           0  0  0
   -2.3459  -14.1026    0.0000 C   0  0  0  0  0  0           0  0  0
   -2.1562  -14.9034    0.0000 C   0  0  0  0  0  0           0  0  0
   -1.9305  -12.7306    0.0000 N   0  0  0  0  0  0           0  0  0
   -2.1451  -18.8562    0.0000 C   0  0  0  0  0  0           0  0  0
   -2.3263  -19.6580    0.0000 C   0  0  0  0  0  0           0  0  0
   -1.7215  -20.2170    0.0000 C   0  0  0  0  0  0           0  0  0
   -0.9326  -19.9687    0.0000 C   0  0  0  0  0  0           0  0  0
   -0.7552  -19.1675    0.0000 C   0  0  0  0  0  0           0  0  0
   -3.9747  -16.0558    0.0000 C   0  0  0  0  0  0           0  0  0
   -1.3289  -12.1659    0.0000 C   0  0  0  0  0  0           0  0  0
   -1.5170  -11.3626    0.0000 C   0  0  0  0  0  0           0  0  0
   -0.9155  -10.7980    0.0000 C   0  0  0  0  0  0           0  0  0
   -0.1071  -10.9558    0.0000 N   0  0  0  0  0  0           0  0  0
    0.2905  -10.2328    0.0000 C   0  0  0  0  0  0           0  0  0
   -0.2741   -9.6312    0.0000 C   0  0  0  0  0  0           0  0  0
   -1.0207   -9.9824    0.0000 N   0  0  0  0  0  0           0  0  0
 16 17  1  0     0  0
  5  8  1  0     0  0
 17 18  2  0     0  0
 18 19  1  0     0  0
  7  9  1  0     0  0
 19 20  2  0     0  0
 20 15  1  0     0  0
  6  4  2  0     0  0
 18 21  1  0     0  0
  8 10  2  0     0  0
 13 22  1  0     0  0
  4  1  1  0     0  0
 22 23  1  0     0  0
  9 11  1  0     0  0
 23 24  1  0     0  0
 10 11  1  0     0  0
 24 25  1  0     0  0
  1  2  2  0     0  0
 25 26  1  0     0  0
 26 13  1  0     0  0
  9 12  2  0     0  0
  1 27  1  0     0  0
 21 28  1  0     0  0
  8 13  1  0     0  0
 28 29  1  0     0  0
  5  6  1  0     0  0
 29 30  1  0     0  0
 30 31  1  0     0  0
 11 14  1  0     0  0
  2  3  1  0     0  0
  7 15  1  0     0  0
  6  7  1  0     0  0
 31 32  1  0     0  0
 32 33  2  0     0  0
 33 34  1  0     0  0
 34 30  2  0     0  0
 15 16  2  0     0  0
  3  5  2  0     0  0
M  END