
  CDK    6/4/10,11:42

 26 30  0  0  0  0  0  0  0  0999 V2000
   11.6018   -6.9841    0.0000 C   0  0  0  0  0  0  0  0  0  0  0  0
   11.4883   -6.0537    0.0000 C   0  0  0  0  0  0  0  0  0  0  0  0
   11.9448   -6.2225    0.0000 C   0  0  0  0  0  0  0  0  0  0  0  0
   12.1427   -5.6735    0.0000 C   0  0  0  0  0  0  0  0  0  0  0  0
   12.6566   -5.8363    0.0000 C   0  0  0  0  0  0  0  0  0  0  0  0
   12.4798   -4.9806    0.0000 C   0  0  0  0  0  0  0  0  0  0  0  0
   11.2889   -5.6779    0.0000 C   0  0  0  0  0  0  0  0  0  0  0  0
   11.1408   -4.8290    0.0000 C   0  0  0  0  0  0  0  0  0  0  0  0
   10.8718   -5.5445    0.0000 C   0  0  0  0  0  0  0  0  0  0  0  0
   11.8551   -4.4511    0.0000 C   0  0  0  0  0  0  0  0  0  0  0  0
   10.7719   -4.0911    0.0000 N   0  0  0  0  0  0  0  0  0  0  0  0
    8.4111   -7.3125    0.0000 C   0  0  0  0  0  0  0  0  0  0  0  0
    8.4099   -8.1398    0.0000 C   0  0  0  0  0  0  0  0  0  0  0  0
    9.1247   -8.5527    0.0000 C   0  0  0  0  0  0  0  0  0  0  0  0
    9.8412   -8.1394    0.0000 C   0  0  0  0  0  0  0  0  0  0  0  0
    9.8383   -7.3088    0.0000 C   0  0  0  0  0  0  0  0  0  0  0  0
    9.1229   -6.8997    0.0000 C   0  0  0  0  0  0  0  0  0  0  0  0
    9.1183   -6.0711    0.0000 N   0  0  0  0  0  0  0  0  0  0  0  0
    9.7842   -5.5841    0.0000 C   0  0  0  0  0  0  0  0  0  0  0  0
    9.5270   -4.8003    0.0000 C   0  0  0  0  0  0  0  0  0  0  0  0
    8.7019   -4.8027    0.0000 N   0  0  0  0  0  0  0  0  0  0  0  0
    8.4494   -5.5881    0.0000 C   0  0  0  0  0  0  0  0  0  0  0  0
   10.5696   -5.8367    0.0000 C   0  0  0  0  0  0  0  0  0  0  0  0
    9.9448   -4.0887    0.0000 C   0  0  0  0  0  0  0  0  0  0  0  0
    9.5376   -3.3712    0.0000 O   0  0  0  0  0  0  0  0  0  0  0  0
    7.6656   -5.8455    0.0000 C   0  0  0  0  0  0  0  0  0  0  0  0
  1  3  1  0  0  0  0 
 12 13  2  0  0  0  0 
  2  4  1  0  0  0  0 
 13 14  1  0  0  0  0 
  3  5  1  0  0  0  0 
 14 15  2  0  0  0  0 
  4  6  1  0  0  0  0 
 15 16  1  0  0  0  0 
  5  6  1  0  0  0  0 
 16 17  2  0  0  0  0 
 17 12  1  0  0  0  0 
 18 19  1  0  0  0  0 
  7  8  1  0  0  0  0 
  3  7  1  0  0  0  0 
  2  9  1  0  0  0  0 
  6 10  1  0  0  0  0 
 10  8  1  0  0  0  0 
 19 20  2  0  0  0  0 
 20 21  1  0  0  0  0 
 21 22  2  0  0  0  0 
 22 18  1  0  0  0  0 
 17 18  1  0  0  0  0 
  8  9  1  0  0  0  0 
 19 23  1  0  0  0  0 
 20 24  1  0  0  0  0 
 24 11  1  0  0  0  0 
  8 11  1  0  0  0  0 
 24 25  2  0  0  0  0 
  1  2  1  0  0  0  0 
 22 26  1  0  0  0  0 
M  END