
          02060813472D 1   1.00000     0.00000     0

 21 24  0     0  0            999 V2000
    0.4063   -4.2073    0.0000 N   0  0  0  0  0  0           0  0  0
    0.4050   -5.0348    0.0000 C   0  0  0  0  0  0           0  0  0
    1.1180   -5.4477    0.0000 N   0  0  0  0  0  0           0  0  0
    1.8372   -5.0343    0.0000 C   0  0  0  0  0  0           0  0  0
    1.8342   -4.2032    0.0000 C   0  0  0  0  0  0           0  0  0
    1.1160   -3.7945    0.0000 C   0  0  0  0  0  0           0  0  0
    1.1122   -2.9695    0.0000 N   0  0  3  0  0  0           0  0  0
    2.5465   -3.7872    0.0000 C   0  0  0  0  0  0           0  0  0
    2.5522   -5.4458    0.0000 N   0  0  3  0  0  0           0  0  0
    4.0113   -5.1220    0.0000 C   0  0  0  0  0  0           0  0  0
    4.3582   -5.8682    0.0000 C   0  0  0  0  0  0           0  0  0
    3.9951   -6.6067    0.0000 C   0  0  0  0  0  0           0  0  0
    3.1940   -6.7850    0.0000 C   0  0  0  0  0  0           0  0  0
    3.2033   -4.9311    0.0000 C   0  0  0  0  0  0           0  0  0
    2.5485   -6.2654    0.0000 C   0  0  0  0  0  0           0  0  0
   -0.3100   -5.4463    0.0000 C   0  0  3  0  0  0           0  0  0
   -1.1333   -5.4466    0.0000 C   0  0  0  0  0  0           0  0  0
   -0.7218   -6.1617    0.0000 C   0  0  0  0  0  0           0  0  0
    1.6951   -2.3855    0.0000 C   0  0  0  0  0  0           0  0  0
    1.1091   -1.8048    0.0000 C   0  0  0  0  0  0           0  0  0
    0.5284   -2.3908    0.0000 C   0  0  0  0  0  0           0  0  0
 10 11  1  0     0  0
  5  6  2  0     0  0
 11 12  1  0     0  0
  6  1  1  0     0  0
 12 13  1  0     0  0
  1  2  2  0     0  0
 10 14  1  0     0  0
 13 15  1  0     0  0
  6  7  1  0     0  0
 14  9  1  0     0  0
 15  9  1  0     0  0
  3  4  2  0     0  0
  2 16  1  0     0  0
 17 16  1  0     0  0
 18 17  1  0     0  0
 16 18  1  0     0  0
  5  8  1  0     0  0
  7 19  1  0     0  0
  4  9  1  0     0  0
  4  5  1  0     0  0
  2  3  1  0     0  0
 19 20  1  0     0  0
 20 21  1  0     0  0
 21  7  1  0     0  0
M  END