
  SciTegic04091415032D

 35 37  0  0  0  0            999 V2000
   14.9350  -23.8636    0.0000 C   0  0
   14.9339  -24.6873    0.0000 C   0  0
   15.6419  -25.1004    0.0000 C   0  0
   15.6401  -23.4547    0.0000 C   0  0
   16.3529  -23.8600    0.0000 C   0  0
   16.3536  -24.6831    0.0000 C   0  0
   17.0663  -25.0943    0.0000 N   0  0
   17.7787  -24.6794    0.0000 C   0  0
   17.7740  -23.8531    0.0000 C   0  0
   17.0607  -23.4498    0.0000 C   0  0
   14.2271  -23.4509    0.0000 C   0  0
   17.0564  -22.6285    0.0000 C   0  0
   17.7660  -22.2120    0.0000 O   0  0
   16.3424  -22.2195    0.0000 O   0  0
   18.4921  -25.0894    0.0000 C   0  0
   18.4953  -25.9107    0.0000 N   0  0
   19.2024  -24.6739    0.0000 O   0  0
   19.2087  -26.3165    0.0000 C   0  0  2  0  0  0
   19.2119  -27.1378    0.0000 C   0  0
   19.9189  -25.9052    0.0000 C   0  0
   20.6324  -26.3110    0.0000 C   0  0
   19.9253  -27.5478    0.0000 O   0  0
   18.5016  -27.5533    0.0000 O   0  0
   19.9285  -28.3691    0.0000 C   0  0
   20.6324  -27.1294    0.0000 C   0  0
   21.3409  -27.5392    0.0000 C   0  0
   22.0521  -27.1237    0.0000 C   0  0
   22.0463  -26.2982    0.0000 C   0  0
   21.3331  -25.8961    0.0000 C   0  0
   22.7661  -27.5327    0.0000 O   0  0
   13.5192  -23.8537    0.0000 C   0  0
   12.8089  -23.4425    0.0000 C   0  0
   11.3926  -23.4443    0.0000 C   0  0
   12.1027  -23.8518    0.0000 C   0  0
   10.6807  -23.8528    0.0000 C   0  0
  1  2  2  0
  2  3  1  0
  3  6  2  0
  5  4  2  0
  4  1  1  0
  5  6  1  0
  6  7  1  0
  7  8  2  0
  8  9  1  0
  9 10  2  0
 10  5  1  0
  1 11  1  0
 10 12  1  0
 12 13  2  0
 12 14  1  0
  8 15  1  0
 15 16  1  0
 15 17  2  0
 16 18  1  0
 18 19  1  1
 18 20  1  0
 20 21  1  0
 19 22  1  0
 19 23  2  0
 22 24  1  0
 21 25  2  0
 25 26  1  0
 26 27  2  0
 27 28  1  0
 28 29  2  0
 29 21  1  0
 27 30  1  0
 31 11  1  0
 31 32  1  0
 33 34  1  0
 34 32  1  0
 33 35  1  0
M  END