
  SciTegic06051315212D

 39 45  0  0  0  0            999 V2000
   13.8947  -10.4511    0.0000 C   0  0
   15.3015   -7.1852    0.0000 C   0  0
   14.6068  -10.8574    0.0000 C   0  0
   17.7941   -6.4073    0.0000 C   0  0
   15.3013   -8.0026    0.0000 N   0  0
   15.2998   -5.5475    0.0000 C   0  0
   16.0103   -6.7756    0.0000 N   0  0
   14.5945   -8.4110    0.0000 C   0  0  2  0  0  0
   15.9052   -4.2551    0.0000 C   0  0
   13.1809   -8.4069    0.0000 C   0  0
   13.8920   -9.6338    0.0000 N   0  0
   15.0181  -11.5609    0.0000 C   0  0
   13.8872   -7.9991    0.0000 C   0  0
   16.6274   -4.6323    0.0000 C   0  0
   17.8997   -4.9971    0.0000 C   0  0
   13.1893  -10.8621    0.0000 O   0  0
   17.4397   -5.6748    0.0000 C   0  0
   15.2146   -4.6906    0.0000 C   0  0
   17.3953   -4.3534    0.0000 N   0  0
   15.4245  -10.8527    0.0000 C   0  0
   14.5995   -9.2236    0.0000 C   0  0
   16.6551   -5.4501    0.0000 N   0  0
   15.8744   -3.4372    0.0000 C   0  0
   13.1803   -9.2251    0.0000 C   0  0
   18.7097   -5.0550    0.0000 C   0  0
   19.0667   -5.7847    0.0000 C   0  0
   14.4927   -4.3139    0.0000 C   0  0
   16.0074   -5.9528    0.0000 C   0  0
   14.5945   -6.7761    0.0000 N   0  0
   14.5956   -5.9565    0.0000 C   0  0
   18.6083   -6.4674    0.0000 C   0  0
   14.4573   -3.4950    0.0000 C   0  0
   15.1513   -3.0574    0.0000 C   0  0
   15.1184   -2.2394    0.0000 C   0  0
   14.3922   -1.8581    0.0000 C   0  0
   13.6976   -2.3008    0.0000 C   0  0
   13.7340   -3.1173    0.0000 C   0  0
   19.8820   -5.8404    0.0000 O   0  0
   20.2414   -6.5743    0.0000 C   0  0
  3 20  1  0
 24 11  1  0
 15 17  2  0
 11  1  1  0
 10 24  1  0
  4 31  2  0
  1  3  1  0
 14  9  1  0
 19 14  2  0
  6 30  1  0
  2  5  1  0
 13 10  1  0
 14 22  1  0
 26 25  2  0
 31 26  1  0
 21  8  1  0
  2  7  2  0
 30 29  2  0
  7 28  1  0
 20 12  1  0
 27 18  2  0
 29  2  1  0
  1 16  2  0
  9 23  2  0
 18  9  1  0
 25 15  1  0
 15 19  1  0
 32 27  1  0
 28  6  2  0
  8  5  1  1
 17  4  1  0
 11 21  1  0
 22 17  1  0
  8 13  1  0
 12  3  1  0
 28 22  1  0
 23 33  1  0
 32 33  1  0
 33 34  2  0
 34 35  1  0
 35 36  2  0
 36 37  1  0
 37 32  2  0
 26 38  1  0
 38 39  1  0
M  END