
  SciTegic12201609482D

 73 77  0  0  0  0            999 V2000
   -9.1193    2.9860    0.0000 N   0  0
   -7.8206    3.7381    0.0000 C   0  0  2  0  0  0
   -5.4813    3.5953    0.0000 O   0  0
   -6.5185    2.9917    0.0000 C   0  0
   -7.8260    5.2390    0.0000 C   0  0
  -10.4763    5.3576    0.0000 N   0  0
  -11.4856    6.4673    0.0000 C   0  0
  -10.7422    7.7701    0.0000 N   0  0
   -9.2734    7.4656    0.0000 C   0  0
   -9.1280    5.9855    0.0000 C   0  0
   -6.5130    1.4909    0.0000 N   0  0
   -5.2110    0.7445    0.0000 C   0  0  1  0  0  0
   -6.2427   -1.3598    0.0000 O   0  0
   -5.2054   -0.7563    0.0000 C   0  0
   -3.9122    1.4966    0.0000 C   0  0
   -1.2964    1.4973    0.0000 C   0  0
   -2.6111    0.7486    0.0000 C   0  0
   -2.6111   -0.7486    0.0000 C   0  0
   -1.2964   -1.4973    0.0000 C   0  0
   -6.4749   -7.5201    0.0000 N   0  0
   -7.7706   -8.2775    0.0000 C   0  0
   -8.8129   -7.6828    0.0000 N   0  0
   -7.7649   -9.4775    0.0000 N   0  0
   -3.9034   -1.5028    0.0000 N   0  0
   -3.8979   -3.0036    0.0000 C   0  0  2  0  0  0
   -1.5587   -3.1466    0.0000 O   0  0
   -2.5959   -3.7501    0.0000 C   0  0
   -5.1936   -3.7611    0.0000 C   0  0
   -5.1864   -5.2619    0.0000 C   0  0
   -6.4821   -6.0193    0.0000 C   0  0
   -2.5904   -5.2509    0.0000 N   0  0
   -1.2884   -5.9974    0.0000 C   0  0  2  0  0  0
    1.0508   -5.8433    0.0000 O   0  0
    0.0104   -5.2453    0.0000 C   0  0
   -1.2829   -7.4982    0.0000 C   0  0
    1.3708   -7.6189    0.0000 C   0  0
    0.0192   -8.2446    0.0000 C   0  0
    2.3586   -8.7119    0.0000 N   0  0
    0.1643   -9.7185    0.0000 C   0  0
    1.6296  -10.0152    0.0000 C   0  0
    2.1232  -11.4359    0.0000 C   0  0
    1.1121  -12.5705    0.0000 C   0  0
   -0.3531  -12.2738    0.0000 C   0  0
   -0.8431  -10.8352    0.0000 C   0  0
    0.0000   -0.7486    0.0000 C   0  0
    0.0000    0.7486    0.0000 C   0  0
    1.2964    1.4973    0.0000 C   0  0
    2.5929    0.7486    0.0000 C   0  0
    2.5929   -0.7486    0.0000 C   0  0
    1.2964   -1.4973    0.0000 C   0  0
    0.0085   -4.0453    0.0000 N   0  0
  -34.8588    3.0942    0.0000 N   0  0
  -33.8203    3.6956    0.0000 C   0  0
  -32.5191    2.9477    0.0000 C   0  0
  -31.2204    3.6999    0.0000 C   0  0
  -29.9191    2.9520    0.0000 O   0  0
  -28.6204    3.7041    0.0000 C   0  0
  -27.3192    2.9562    0.0000 C   0  0
  -26.0204    3.7084    0.0000 O   0  0
  -24.7192    2.9605    0.0000 C   0  0
  -23.4204    3.7126    0.0000 C   0  0
  -22.1192    2.9647    0.0000 O   0  0
  -20.8205    3.7169    0.0000 C   0  0
  -19.5192    2.9690    0.0000 C   0  0
  -18.2205    3.7211    0.0000 C   0  0
  -16.9193    2.9733    0.0000 N   0  0
  -15.6205    3.7254    0.0000 C   0  0
  -14.3193    2.9775    0.0000 C   0  0
  -15.6225    4.9254    0.0000 O   0  0
  -13.0205    3.7296    0.0000 O   0  0
  -11.7193    2.9818    0.0000 C   0  0
  -10.4206    3.7339    0.0000 C   0  0
  -10.4222    4.7339    0.0000 O   0  0
  4 11  1  0
 14 24  1  0
 27 31  1  0
  1  2  1  0
  2  4  1  0
  4  3  2  0
  2  5  1  1
  5 10  1  0
  6  7  1  0
  7  8  2  0
  8  9  1  0
  9 10  2  0
 10  6  1  0
 11 12  1  0
 12 14  1  0
 14 13  2  0
 12 15  1  6
 15 17  1  0
 16 17  2  0
 17 18  1  0
 18 19  2  0
 19 45  1  0
 46 16  1  0
 20 21  1  0
 21 22  1  0
 21 23  2  0
 24 25  1  0
 25 27  1  0
 27 26  2  0
 25 28  1  6
 28 29  1  0
 29 30  1  0
 30 20  1  0
 31 32  1  0
 32 34  1  0
 34 33  2  0
 32 35  1  6
 35 37  1  0
 36 37  2  0
 37 39  1  0
 38 36  1  0
 40 38  1  0
 39 40  2  0
 40 41  1  0
 41 42  2  0
 42 43  1  0
 43 44  2  0
 44 39  1  0
 45 46  1  0
 46 47  2  0
 47 48  1  0
 48 49  2  0
 49 50  1  0
 50 45  2  0
 34 51  1  0
 52 53  1  0
 53 54  1  0
 54 55  1  0
 55 56  1  0
 56 57  1  0
 57 58  1  0
 58 59  1  0
 59 60  1  0
 60 61  1  0
 61 62  1  0
 62 63  1  0
 63 64  1  0
 64 65  1  0
 65 66  1  0
 66 67  1  0
 67 68  1  0
 67 69  2  0
 68 70  1  0
 70 71  1  0
 71 72  1  0
 72  1  1  0
 72 73  2  0
M  END