
          11280715322D 1   1.00000     0.00000     0

 39 42  0     0  0            999 V2000
    1.9875   -4.5625    0.0000 C   0  0  0  0  0  0           0  0  0
    2.1917   -3.7667    0.0000 N   0  0  0  0  0  0           0  0  0
    1.5000   -3.3167    0.0000 C   0  0  0  0  0  0           0  0  0
    0.8667   -3.8417    0.0000 O   0  0  0  0  0  0           0  0  0
    1.1625   -4.6042    0.0000 C   0  0  0  0  0  0           0  0  0
    2.6042   -5.1042    0.0000 C   0  0  0  0  0  0           0  0  0
    1.3042   -0.0292    0.0000 C   0  0  0  0  0  0           0  0  0
    1.4542   -2.4917    0.0000 C   0  0  0  0  0  0           0  0  0
    1.3542   -0.8500    0.0000 C   0  0  0  0  0  0           0  0  0
    5.5750    0.2583    0.0000 C   0  0  0  0  0  0           0  0  0
    2.6542   -5.9292    0.0000 O   0  0  0  0  0  0           0  0  0
    0.5750    0.3375    0.0000 C   0  0  0  0  0  0           0  0  0
    1.9917    0.4333    0.0000 C   0  0  0  0  0  0           0  0  0
   -0.2208    1.5250    0.0000 N   0  0  0  0  0  0           0  0  0
    6.2625    0.7208    0.0000 O   0  0  0  0  0  0           0  0  0
    2.1417   -2.0375    0.0000 C   0  0  0  0  0  0           0  0  0
    0.7167   -2.1292    0.0000 C   0  0  0  0  0  0           0  0  0
    6.9417   -5.6042    0.0000 O   0  0  0  0  0  0           0  0  0
    0.6667   -1.3042    0.0000 C   0  0  0  0  0  0           0  0  0
    2.0917   -1.2167    0.0000 C   0  0  0  0  0  0           0  0  0
    3.2917   -4.6375    0.0000 N   0  0  0  0  0  0           0  0  0
    5.6250   -0.5625    0.0000 O   0  0  0  0  0  0           0  0  0
    6.8875   -4.7875    0.0000 C   0  0  3  0  0  0           0  0  0
    0.5167    1.1625    0.0000 C   0  0  0  0  0  0           0  0  0
    5.4625   -4.8917    0.0000 O   0  0  0  0  0  0           0  0  0
    4.8375    0.6250    0.0000 C   0  0  0  0  0  0           0  0  0
   -0.9083    1.0708    0.0000 C   0  0  0  0  0  0           0  0  0
    7.6792   -5.9667    0.0000 C   0  0  0  0  0  0           0  0  0
    2.7292    0.0708    0.0000 C   0  0  0  0  0  0           0  0  0
   -0.1125   -0.1167    0.0000 C   0  0  0  0  0  0           0  0  0
    4.0375   -4.9917    0.0000 C   0  0  0  0  0  0           0  0  0
    6.1417   -4.4292    0.0000 C   0  0  0  0  0  0           0  0  0
    4.7167   -4.5292    0.0000 C   0  0  0  0  0  0           0  0  0
    7.5667   -4.3167    0.0000 C   0  0  0  0  0  0           0  0  0
    4.1542    0.1625    0.0000 C   0  0  0  0  0  0           0  0  0
    3.4167    0.5333    0.0000 C   0  0  0  0  0  0           0  0  0
   -0.8583    0.2458    0.0000 C   0  0  0  0  0  0           0  0  0
    8.3667   -5.5042    0.0000 C   0  0  0  0  0  0           0  0  0
    8.3042   -4.6792    0.0000 C   0  0  0  0  0  0           0  0  0
  2  1  1  0     0  0
  3  2  2  0     0  0
  4  5  1  0     0  0
  5  1  2  0     0  0
  6  1  1  0     0  0
  7  9  1  0     0  0
  8  3  1  0     0  0
  9 19  2  0     0  0
 10 26  1  0     0  0
 11  6  2  0     0  0
 12  7  1  0     0  0
 13  7  2  0     0  0
 14 24  2  0     0  0
 15 10  2  0     0  0
 16  8  1  0     0  0
 17  8  2  0     0  0
 18 23  1  0     0  0
 19 17  1  0     0  0
 20 16  2  0     0  0
 21  6  1  0     0  0
 22 10  1  0     0  0
 23 32  1  0     0  0
 24 12  1  0     0  0
 25 33  1  0     0  0
 26 35  1  0     0  0
 27 37  2  0     0  0
 28 18  1  0     0  0
 29 13  1  0     0  0
 30 12  2  0     0  0
 31 21  1  0     0  0
 32 25  1  0     0  0
 33 31  1  0     0  0
 34 23  1  0     0  0
 35 36  1  0     0  0
 36 29  1  0     0  0
 37 30  1  0     0  0
 38 39  1  0     0  0
 39 34  1  0     0  0
  4  3  1  0     0  0
  9 20  1  0     0  0
 38 28  1  0     0  0
 27 14  1  0     0  0
M  END