
  Mrv0541 04051115152D          

 11 11  0  0  0  0            999 V2000
    0.0000   -1.3509    0.0000 C   0  0  0  0  0  0  0  0  0  0  0  0
   -0.7144   -0.9384    0.0000 C   0  0  0  0  0  0  0  0  0  0  0  0
   -0.7144   -0.1134    0.0000 C   0  0  0  0  0  0  0  0  0  0  0  0
    0.0000    0.2991    0.0000 C   0  0  0  0  0  0  0  0  0  0  0  0
    0.7145   -0.1134    0.0000 C   0  0  0  0  0  0  0  0  0  0  0  0
    0.7145   -0.9384    0.0000 C   0  0  0  0  0  0  0  0  0  0  0  0
    0.0000    1.1241    0.0000 S   0  0  0  0  0  0  0  0  0  0  0  0
    0.0000    1.9491    0.0000 O   0  0  0  0  0  0  0  0  0  0  0  0
   -0.8250    1.1241    0.0000 O   0  0  0  0  0  0  0  0  0  0  0  0
    0.8250    1.1241    0.0000 N   0  0  0  0  0  0  0  0  0  0  0  0
    0.0000   -2.1759    0.0000 F   0  0  0  0  0  0  0  0  0  0  0  0
  1  2  2  0  0  0  0
  1  6  1  0  0  0  0
  1 11  1  0  0  0  0
  2  3  1  0  0  0  0
  3  4  2  0  0  0  0
  4  5  1  0  0  0  0
  4  7  1  0  0  0  0
  5  6  2  0  0  0  0
  8  7  2  0  0  0  0
  9  7  2  0  0  0  0
 10  7  1  0  0  0  0
M  END