
  SciTegic12231509382D

 30 31  0  0  0  0            999 V2000
    4.1125   -4.5791    0.0000 C   0  0
    4.8249   -4.1666    0.0000 C   0  0
    5.5416   -4.5791    0.0000 C   0  0
    4.1125   -5.4041    0.0000 C   0  0
    5.5416   -5.4041    0.0000 C   0  0
    4.8249   -5.8250    0.0000 C   0  0
    6.2541   -4.1666    0.0000 C   0  0
    7.6791   -4.1541    0.0000 N   0  0
    3.3917   -5.8166    0.0000 O   0  0
    3.3999   -4.1666    0.0000 C   0  0
    6.2499   -3.3416    0.0000 O   0  0
   16.2540   -4.1374    0.0000 C   0  0
    2.6791   -4.5791    0.0000 O   0  0
   12.6791   -4.5624    0.0000 O   0  0
    6.9666   -4.5750    0.0000 C   0  0
    8.3999   -4.5666    0.0000 C   0  0
   15.5415   -4.5542    0.0000 C   0  0
   11.9665   -4.1499    0.0000 C   0  0
   13.3999   -4.1417    0.0000 C   0  0
   16.9665   -4.5542    0.0000 C   0  0
   16.2498   -3.3167    0.0000 C   0  0
    9.1124   -4.1541    0.0000 C   0  0
   14.8290   -4.1417    0.0000 C   0  0
   14.1123   -4.5542    0.0000 C   0  0
   11.2540   -4.5624    0.0000 C   0  0
    9.8290   -4.5666    0.0000 C   0  0
   10.5416   -4.1541    0.0000 C   0  0
   16.9540   -2.9042    0.0000 C   0  0
   17.6789   -4.1417    0.0000 C   0  0
   17.6789   -3.3167    0.0000 C   0  0
  2  1  1  0
  3  2  2  0
  4  1  2  0
  5  6  2  0
  6  4  1  0
  7  3  1  0
  8 15  1  0
  9  4  1  0
 10  1  1  0
 11  7  1  0
 12 17  1  0
 13 10  1  0
 14 18  1  0
 15  7  1  0
 16  8  1  0
 17 23  1  0
 18 25  1  0
 19 14  1  0
 20 12  2  0
 21 12  1  0
 22 16  1  0
 23 24  1  0
 24 19  1  0
 25 27  1  0
 26 22  1  0
 27 26  1  0
 28 21  2  0
 29 20  1  0
 30 28  1  0
  3  5  1  0
 30 29  2  0
M  END