
  Mrv0541 04051115152D          

 27 30  0  0  0  0            999 V2000
   -0.4430   -0.3859    0.0000 C   0  0  0  0  0  0  0  0  0  0  0  0
   -1.1574   -0.7984    0.0000 C   0  0  0  0  0  0  0  0  0  0  0  0
   -1.9421   -0.5435    0.0000 O   0  0  0  0  0  0  0  0  0  0  0  0
   -2.4270   -1.2109    0.0000 C   0  0  0  0  0  0  0  0  0  0  0  0
   -1.9421   -1.8784    0.0000 O   0  0  0  0  0  0  0  0  0  0  0  0
   -1.1574   -1.6234    0.0000 C   0  0  0  0  0  0  0  0  0  0  0  0
   -0.4430   -2.0359    0.0000 C   0  0  0  0  0  0  0  0  0  0  0  0
    0.2715   -1.6234    0.0000 C   0  0  0  0  0  0  0  0  0  0  0  0
    0.2715   -0.7984    0.0000 C   0  0  0  0  0  0  0  0  0  0  0  0
    0.9860   -0.3859    0.0000 C   0  0  0  0  0  0  0  0  0  0  0  0
    1.7397   -0.7215    0.0000 C   0  0  0  0  0  0  0  0  0  0  0  0
    1.9112   -1.5284    0.0000 C   0  0  0  0  0  0  0  0  0  0  0  0
    1.2981   -2.0805    0.0000 O   0  0  0  0  0  0  0  0  0  0  0  0
    2.6958   -1.7834    0.0000 O   0  0  0  0  0  0  0  0  0  0  0  0
    2.2917   -0.1084    0.0000 N   0  0  0  0  0  0  0  0  0  0  0  0
    1.0722    0.4346    0.0000 C   0  0  0  0  0  0  0  0  0  0  0  0
    1.8792    0.6061    0.0000 N   0  0  0  0  0  0  0  0  0  0  0  0
    0.4591    0.9866    0.0000 C   0  0  0  0  0  0  0  0  0  0  0  0
   -0.3255    0.7317    0.0000 C   0  0  0  0  0  0  0  0  0  0  0  0
   -0.9386    1.2837    0.0000 C   0  0  0  0  0  0  0  0  0  0  0  0
   -1.7232    1.0288    0.0000 C   0  0  0  0  0  0  0  0  0  0  0  0
   -2.3363    1.5808    0.0000 C   0  0  0  0  0  0  0  0  0  0  0  0
   -0.7671    2.0907    0.0000 C   0  0  0  0  0  0  0  0  0  0  0  0
   -1.3802    2.6427    0.0000 O   0  0  0  0  0  0  0  0  0  0  0  0
    0.0176    2.3456    0.0000 C   0  0  0  0  0  0  0  0  0  0  0  0
    0.6306    1.7936    0.0000 C   0  0  0  0  0  0  0  0  0  0  0  0
    1.4153    2.0485    0.0000 O   0  0  0  0  0  0  0  0  0  0  0  0
  2  1  2  0  0  0  0
  1  9  1  0  0  0  0
  2  3  1  0  0  0  0
  2  6  1  0  0  0  0
  4  3  1  0  0  0  0
  4  5  1  0  0  0  0
  6  5  1  0  0  0  0
  6  7  2  0  0  0  0
  8  7  1  0  0  0  0
  8  9  2  0  0  0  0
 10  9  1  0  0  0  0
 11 10  2  0  0  0  0
 16 10  1  0  0  0  0
 11 12  1  0  0  0  0
 11 15  1  0  0  0  0
 12 13  1  0  0  0  0
 12 14  2  0  0  0  0
 17 15  1  0  0  0  0
 16 17  2  0  0  0  0
 16 18  1  0  0  0  0
 19 18  2  0  0  0  0
 18 26  1  0  0  0  0
 19 20  1  0  0  0  0
 20 21  1  0  0  0  0
 23 20  2  0  0  0  0
 21 22  1  0  0  0  0
 23 24  1  0  0  0  0
 25 23  1  0  0  0  0
 25 26  2  0  0  0  0
 26 27  1  0  0  0  0
M  END