
  Mrv0541 04051115152D          

  7  7  0  0  0  0            999 V2000
    0.0018    1.4143    0.0000 C   0  0  0  0  0  0  0  0  0  0  0  0
    0.0018    0.5893    0.0000 C   0  0  0  0  0  0  0  0  0  0  0  0
    0.7162    0.1768    0.0000 C   0  0  0  0  0  0  0  0  0  0  0  0
   -0.7127    0.1768    0.0000 C   0  0  0  0  0  0  0  0  0  0  0  0
    0.7162   -0.6482    0.0000 C   0  0  0  0  0  0  0  0  0  0  0  0
    0.0018   -1.0607    0.0000 C   0  0  0  0  0  0  0  0  0  0  0  0
   -0.7127   -0.6482    0.0000 N   0  0  0  0  0  0  0  0  0  0  0  0
  1  2  1  0  0  0  0
  3  2  2  0  0  0  0
  4  2  1  0  0  0  0
  3  5  1  0  0  0  0
  4  7  2  0  0  0  0
  5  6  2  0  0  0  0
  6  7  1  0  0  0  0
M  END