
  SciTegic09081514192D

 30 33  0  0  0  0            999 V2000
   13.8955   -9.0101    0.0000 C   0  0
   14.8890   -7.8863    0.0000 C   0  0
   14.4126   -6.4640    0.0000 C   0  0
   12.9426   -6.1654    0.0000 C   0  0
   11.9489   -7.2892    0.0000 C   0  0
   12.4255   -8.7115    0.0000 C   0  0
   10.4787   -6.9882    0.0000 N   0  0
    9.4834   -8.1104    0.0000 C   0  0
    8.0139   -7.8095    0.0000 C   0  0
    7.5396   -6.3865    0.0000 N   0  0
    8.5350   -5.2643    0.0000 C   0  0
   10.0045   -5.5651    0.0000 C   0  0
   11.4338   -9.8380    0.0000 O   0  0
   11.8166  -10.9753    0.0000 C   0  0
    6.0699   -6.0824    0.0000 C   0  0
    5.5974   -4.6579    0.0000 C   0  0
    4.1277   -4.3539    0.0000 C   0  0
    3.6552   -2.9294    0.0000 N   0  0
    2.1855   -2.6254    0.0000 C   0  0
    1.7138   -1.2033    0.0000 C   0  0
    1.3877   -3.5218    0.0000 O   0  0
    2.5889    0.0182    0.0000 C   0  0
    1.7138    1.2033    0.0000 N   0  0
    0.2917   -0.7475    0.0000 C   0  0
    0.2917    0.7475    0.0000 C   0  0
   -1.0028    1.5132    0.0000 C   0  0
   -2.3155    0.7475    0.0000 C   0  0
   -2.3155   -0.7475    0.0000 C   0  0
   -1.0028   -1.5132    0.0000 C   0  0
    2.0825    2.3453    0.0000 C   0  0
  1  2  2  0
  2  3  1  0
  3  4  2  0
  4  5  1  0
  5  6  2  0
  6  1  1  0
  7  8  1  0
  7 12  1  0
  8  9  1  0
  9 10  1  0
 10 11  1  0
 11 12  1  0
  5  7  1  0
  6 13  1  0
 13 14  1  0
 10 15  1  0
 15 16  1  0
 16 17  1  0
 17 18  1  0
 18 19  1  0
 19 20  1  0
 19 21  2  0
 20 22  2  0
 22 23  1  0
 23 25  1  0
 24 20  1  0
 24 25  2  0
 25 26  1  0
 26 27  2  0
 27 28  1  0
 28 29  2  0
 29 24  1  0
 23 30  1  0
M  END