
          11280715002D 1   1.00000     0.00000     0

 33 37  0     0  0            999 V2000
    3.8875   -7.0250    0.0000 C   0  0  0  0  0  0           0  0  0
    3.4042   -7.6917    0.0000 N   0  0  3  0  0  0           0  0  0
    3.3917   -6.3542    0.0000 C   0  0  0  0  0  0           0  0  0
    2.6125   -6.6167    0.0000 C   0  0  0  0  0  0           0  0  0
    2.6167   -7.4417    0.0000 C   0  0  0  0  0  0           0  0  0
    3.6417   -5.5750    0.0000 C   0  0  0  0  0  0           0  0  0
    4.7125   -7.0167    0.0000 C   0  0  0  0  0  0           0  0  0
    4.4542   -5.4000    0.0000 C   0  0  0  0  0  0           0  0  0
    4.7042   -4.6125    0.0000 C   0  0  0  0  0  0           0  0  0
    3.6625   -8.4792    0.0000 C   0  0  0  0  0  0           0  0  0
    1.8917   -7.8625    0.0000 C   0  0  0  0  0  0           0  0  0
    1.8917   -6.2042    0.0000 C   0  0  0  0  0  0           0  0  0
    4.1500   -4.0042    0.0000 C   0  0  0  0  0  0           0  0  0
    5.4542   -4.2667    0.0000 O   0  0  0  0  0  0           0  0  0
    4.5542   -3.2875    0.0000 O   0  0  0  0  0  0           0  0  0
    3.0917   -4.9667    0.0000 C   0  0  0  0  0  0           0  0  0
    5.3625   -3.4542    0.0000 C   0  0  0  0  0  0           0  0  0
    5.2417   -7.4625    0.0000 O   0  0  0  0  0  0           0  0  0
    3.3375   -4.1875    0.0000 C   0  0  0  0  0  0           0  0  0
    4.4667   -8.6417    0.0000 C   0  0  0  0  0  0           0  0  0
    1.1792   -6.6250    0.0000 C   0  0  0  0  0  0           0  0  0
    5.1167   -6.3042    0.0000 O   0  0  0  0  0  0           0  0  0
    1.1792   -7.4500    0.0000 C   0  0  0  0  0  0           0  0  0
    6.0792   -8.9792    0.0000 C   0  0  0  0  0  0           0  0  0
    4.7250   -9.4292    0.0000 C   0  0  0  0  0  0           0  0  0
    5.0125   -8.0292    0.0000 C   0  0  0  0  0  0           0  0  0
    5.8167   -8.1917    0.0000 C   0  0  0  0  0  0           0  0  0
    5.5292   -9.5917    0.0000 C   0  0  0  0  0  0           0  0  0
    0.4667   -6.2125    0.0000 O   0  0  0  0  0  0           0  0  0
    6.8917   -9.1417    0.0000 O   0  0  0  0  0  0           0  0  0
    0.4667   -5.3875    0.0000 C   0  0  0  0  0  0           0  0  0
    7.1500   -9.9292    0.0000 C   0  0  0  0  0  0           0  0  0
   -0.2458   -4.9750    0.0000 C   0  0  0  0  0  0           0  0  0
  2  1  1  0     0  0
  3  1  2  0     0  0
  4  3  1  0     0  0
  5  2  1  0     0  0
  6  3  1  0     0  0
  7  1  1  0     0  0
  8  6  2  0     0  0
  9  8  1  0     0  0
 10  2  1  0     0  0
 11  5  2  0     0  0
 12  4  2  0     0  0
 13 19  1  0     0  0
 14  9  1  0     0  0
 15 13  1  0     0  0
 16  6  1  0     0  0
 17 14  1  0     0  0
 18  7  2  0     0  0
 19 16  2  0     0  0
 20 10  1  0     0  0
 21 12  1  0     0  0
 22  7  1  0     0  0
 23 11  1  0     0  0
 24 27  1  0     0  0
 25 20  2  0     0  0
 26 20  1  0     0  0
 27 26  2  0     0  0
 28 25  1  0     0  0
 29 21  1  0     0  0
 30 24  1  0     0  0
 31 29  1  0     0  0
 32 30  1  0     0  0
 33 31  1  0     0  0
  5  4  1  0     0  0
 23 21  2  0     0  0
  9 13  2  0     0  0
 24 28  2  0     0  0
 15 17  1  0     0  0
M  END