
  SciTegic11201309402D

 67 71  0  0  1  0            999 V2000
    5.3971  -10.9232    0.0000 N   0  0
    4.5892  -11.0939    0.0000 C   0  0
    2.8152   -5.9343    0.0000 N   0  0
    4.0353  -10.4818    0.0000 C   0  0  1  0  0  0
    4.2269   -6.7505    0.0000 C   0  0
    4.5517   -9.8363    0.0000 N   0  0
    4.6766   -7.4376    0.0000 N   0  0
    0.4997   -6.5506    0.0000 N   0  0
    1.9906   -5.8885    0.0000 C   0  0
    4.8515   -9.0617    0.0000 C   0  0
   -0.0208   -7.2003    0.0000 C   0  0
    3.5897   -6.2341    0.0000 C   0  0  2  0  0  0
    4.8973   -8.2372    0.0000 C   0  0  2  0  0  0
   -0.3581   -8.7952    0.0000 N   0  0
    1.1910   -6.1009    0.0000 C   0  0  2  0  0  0
   -0.1457   -9.5865    0.0000 C   0  0
    6.0092  -11.4729    0.0000 C   0  0  2  0  0  0
   -0.3206   -7.9706    0.0000 C   0  0  2  0  0  0
    5.7136   -8.1497    0.0000 C   0  0
    5.9218  -12.2933    0.0000 C   0  0
    0.3040  -10.2861    0.0000 C   0  0
    2.5403  -11.1439    0.0000 S   0  0
    1.7407  -11.1481    0.0000 S   0  0
    6.4007   -8.6453    0.0000 C   0  0
    0.9412  -10.7983    0.0000 C   0  0
    4.3268  -11.8810    0.0000 O   0  0
    4.8474   -6.1966    0.0000 O   0  0
    3.3399  -10.9315    0.0000 C   0  0
    1.8407   -5.2763    0.0000 O   0  0
   -0.7371   -6.7838    0.0000 O   0  0
    5.6594   -9.2367    0.0000 O   0  0
   -1.1244   -7.7957    0.0000 C   0  0
    0.8537   -5.3513    0.0000 C   0  0
   -0.9078   -9.9238    0.0000 O   0  0
    5.1639  -12.6306    0.0000 O   0  0
    6.2133   -9.2699    0.0000 O   0  0
    6.5881  -12.7805    0.0000 N   0  0
    4.0020   -5.5137    0.0000 C   0  0
    5.7344  -10.1611    0.0000 C   0  0
    7.2211   -8.5578    0.0000 N   0  0
   -1.8448   -8.1997    0.0000 C   0  0
   -3.2815   -9.0118    0.0000 C   0  0
    1.3410   -4.6766    0.0000 C   0  0
   -1.8448   -9.0243    0.0000 C   0  0
   -2.5569   -7.7832    0.0000 C   0  0
    8.7619  -12.5848    0.0000 N   0  0
   -2.5611   -9.4323    0.0000 C   0  0
   -3.2690   -8.1872    0.0000 C   0  0
    6.7255  -11.0607    0.0000 C   0  0
   -3.9936   -9.4241    0.0000 O   0  0
    6.5506  -10.2486    0.0000 C   0  0
    0.1749  -10.7067    0.0000 C   0  0
    1.4159  -11.4230    0.0000 C   0  0
    7.3460  -12.4432    0.0000 C   0  0
    8.0123  -12.9221    0.0000 C   0  0
    4.8266   -5.5137    0.0000 C   0  0
    3.5897   -4.7974    0.0000 C   0  0
   -3.9978  -10.2486    0.0000 C   0  0
    1.0037   -3.9271    0.0000 C   0  0
    2.1655   -4.7641    0.0000 C   0  0
   -3.2857  -10.6609    0.0000 C   0  0
    0.9995  -12.1351    0.0000 C   0  0
   -0.2374  -11.4230    0.0000 C   0  0
    1.4909   -3.2524    0.0000 C   0  0
    2.6486   -4.0978    0.0000 C   0  0
    2.3112   -3.3399    0.0000 C   0  0
    0.1749  -12.1351    0.0000 C   0  0
  2  1  1  0
  3 12  1  0
  4  2  1  6
  5  7  1  0
  6  4  1  0
  7 13  1  0
  8 11  1  0
  9  3  1  0
 10  6  1  0
 11 18  1  0
 12  5  1  0
 13 10  1  0
 14 16  1  0
 15  9  1  0
 16 21  1  0
 17  1  1  0
 18 14  1  0
 13 19  1  1
 17 20  1  1
 21 25  1  0
 22 28  1  0
 23 22  1  0
 24 19  1  0
 25 23  1  0
 26  2  2  0
 27  5  2  0
  4 28  1  0
 29  9  2  0
 30 11  2  0
 31 10  2  0
 18 32  1  6
 15 33  1  1
 34 16  2  0
 35 20  2  0
 36 24  2  0
 37 20  1  0
 12 38  1  1
 39  1  1  0
 40 24  1  0
 41 32  1  0
 42 48  2  0
 43 33  1  0
 44 41  1  0
 45 41  2  0
 46 55  1  0
 47 44  2  0
 48 45  1  0
 49 17  1  0
 50 42  1  0
 51 39  1  0
 52 25  1  0
 53 25  1  0
 54 37  1  0
 55 54  1  0
 56 38  1  0
 57 38  1  0
 58 50  1  0
 59 43  2  0
 60 43  1  0
 61 58  1  0
 62 53  1  0
 63 52  1  0
 64 59  1  0
 65 60  2  0
 66 65  1  0
 67 62  1  0
 49 51  1  0
 63 67  1  0
  8 15  1  0
 47 42  1  0
 64 66  2  0
M  END