
  SciTegic12231509382D

 32 34  0  0  0  0            999 V2000
    3.4972   -4.6543    0.0000 C   0  0
    3.4961   -5.4815    0.0000 C   0  0
    4.2104   -5.8943    0.0000 C   0  0
    4.9262   -5.4810    0.0000 C   0  0
    4.9235   -4.6509    0.0000 C   0  0
    4.2088   -4.2415    0.0000 C   0  0
    5.6366   -4.2359    0.0000 O   0  0
    6.3525   -4.6461    0.0000 C   0  0
    6.3509   -5.4685    0.0000 C   0  0
    7.0660   -5.8785    0.0000 C   0  0
    7.7800   -5.4636    0.0000 N   0  0
    7.7746   -4.6343    0.0000 C   0  0
    7.0590   -4.2280    0.0000 C   0  0
    8.4862   -4.2168    0.0000 C   0  0
    9.2035   -4.6244    0.0000 O   0  0
    8.4805   -3.3918    0.0000 N   0  0
    9.1921   -2.9744    0.0000 C   0  0
    2.7813   -5.8934    0.0000 N   0  0
    2.0672   -5.4802    0.0000 C   0  0
    1.3523   -5.8921    0.0000 O   0  0
    2.0679   -4.6552    0.0000 N   0  0
    1.3538   -4.2421    0.0000 C   0  0
    1.3567   -3.4163    0.0000 C   0  0
    0.6434   -3.0032    0.0000 C   0  0
   -0.0724   -3.4152    0.0000 C   0  0
   -0.0705   -4.2444    0.0000 C   0  0
    0.6434   -4.6538    0.0000 C   0  0
   -0.7871   -3.0030    0.0000 Cl  0  0
   -0.7839   -4.6588    0.0000 C   0  0
   -1.4971   -4.2482    0.0000 F   0  0
   -0.7816   -5.4838    0.0000 F   0  0
   -1.4633   -5.0668    0.0000 F   0  0
  3  4  2  0
 14 16  1  0
  7  8  1  0
 16 17  1  0
  2 18  1  0
  8  9  2  0
 18 19  1  0
  4  5  1  0
 19 20  2  0
  9 10  1  0
 19 21  1  0
  2  3  1  0
 21 22  1  0
 10 11  2  0
 22 23  2  0
  5  6  2  0
 23 24  1  0
 11 12  1  0
 24 25  2  0
  6  1  1  0
 25 26  1  0
 12 13  2  0
 26 27  2  0
 27 22  1  0
 13  8  1  0
 25 28  1  0
  1  2  2  0
 26 29  1  0
 12 14  1  0
 29 30  1  0
  5  7  1  0
 29 31  1  0
 14 15  2  0
 29 32  1  0
M  END