
  SciTegic05171617262D

 40 46  0  0  0  0            999 V2000
    4.4262   -2.2855    0.0000 N   0  0
    4.9397   -1.2009    0.0000 C   0  0
    6.4347   -1.0783    0.0000 N   0  0
    7.0761    0.2776    0.0000 C   0  0
    6.2225    1.5111    0.0000 C   0  0
    4.7275    1.3885    0.0000 C   0  0
    4.0896    0.0290    0.0000 C   0  0
    2.5889    0.0182    0.0000 C   0  0
    1.7138    1.2033    0.0000 N   0  0
    0.2917    0.7475    0.0000 C   0  0
   -1.0028    1.5132    0.0000 C   0  0
   -2.3155    0.7475    0.0000 C   0  0
   -2.3155   -0.7475    0.0000 C   0  0
   -3.6187   -1.4919    0.0000 N   0  0
   -3.6267   -2.9927    0.0000 C   0  0
   -4.9282   -3.7385    0.0000 C   0  0
   -4.9331   -5.2385    0.0000 C   0  0
   -3.6365   -5.9928    0.0000 C   0  0
   -2.3350   -5.2470    0.0000 C   0  0
   -2.3301   -3.7470    0.0000 C   0  0
   -3.6414   -7.4935    0.0000 N   0  0
   -4.9417   -8.2414    0.0000 C   0  0
   -4.9442   -9.7414    0.0000 C   0  0
   -3.6464  -10.4936    0.0000 O   0  0
   -2.3461   -9.7458    0.0000 C   0  0
   -2.3436   -8.2458    0.0000 C   0  0
   -1.0028   -1.5132    0.0000 N   0  0
    0.2917   -0.7475    0.0000 C   0  0
    1.7138   -1.2033    0.0000 N   0  0
    2.1852   -2.6281    0.0000 C   0  0
    3.6221   -3.0405    0.0000 C   0  0
    3.9838   -4.4963    0.0000 C   0  0
    2.9039   -5.5373    0.0000 C   0  0
    1.4624   -5.1227    0.0000 C   0  0
    1.1007   -3.6669    0.0000 C   0  0
    3.2656   -6.9940    0.0000 C   0  0
    2.4000   -7.8250    0.0000 N   0  0
    4.4893   -6.2434    0.0000 C   0  0
    5.2140   -7.5567    0.0000 C   0  0
    3.9007   -8.2814    0.0000 C   0  0
  1  2  1  0
  2  3  2  0
  3  4  1  0
  4  5  2  0
  5  6  1  0
  6  7  2  0
  2  7  1  0
  7  8  1  0
  8  9  2  0
  9 10  1  0
 10 11  2  0
 11 12  1  0
 12 13  2  0
 13 14  1  0
 14 15  1  0
 15 16  2  0
 16 17  1  0
 17 18  2  0
 18 19  1  0
 19 20  2  0
 15 20  1  0
 18 21  1  0
 21 22  1  0
 22 23  1  0
 23 24  1  0
 24 25  1  0
 25 26  1  0
 21 26  1  0
 13 27  1  0
 27 28  2  0
 10 28  1  0
 28 29  1  0
  8 29  1  0
 29 30  1  0
 30 31  2  0
 31 32  1  0
 32 33  2  0
 33 34  1  0
 34 35  2  0
 30 35  1  0
 33 36  1  0
 36 37  1  0
 36 38  1  0
 38 39  1  0
 39 40  1  0
 36 40  1  0
M  END