
  CDK    9/16/09,9:57

 22 23  0  0  0  0  0  0  0  0999 V2000
    5.5529  -16.9113    0.0000 C   0  0  0  0  0  0  0  0  0  0  0  0
    5.5775  -17.7359    0.0000 C   0  0  0  0  0  0  0  0  0  0  0  0
    6.3040  -18.1269    0.0000 N   0  0  0  0  0  0  0  0  0  0  0  0
    7.0058  -17.6932    0.0000 C   0  0  0  0  0  0  0  0  0  0  0  0
    7.7323  -18.0841    0.0000 N   0  0  0  0  0  0  0  0  0  0  0  0
    6.9812  -16.8686    0.0000 N   0  0  0  0  0  0  0  0  0  0  0  0
    8.4341  -17.6505    0.0000 C   0  0  0  0  0  0  0  0  0  0  0  0
    8.4095  -16.8258    0.0000 O   0  0  0  0  0  0  0  0  0  0  0  0
    4.8264  -16.5203    0.0000 C   0  0  0  0  0  0  0  0  0  0  0  0
    4.8017  -15.6957    0.0000 C   0  0  0  0  0  0  0  0  0  0  0  0
    5.2161  -14.4268    0.0000 C   0  0  0  0  0  0  0  0  0  0  0  0
    4.3870  -14.4258    0.0000 N   0  0  0  0  0  0  0  0  0  0  0  0
    4.1334  -15.2096    0.0000 C   0  0  0  0  0  0  0  0  0  0  0  0
    5.4677  -15.2112    0.0000 N   0  0  0  0  0  0  0  0  0  0  0  0
    9.1606  -18.0456    0.0000 C   0  0  0  0  0  0  0  0  0  0  0  0
    9.8625  -17.6077    0.0000 C   0  0  0  0  0  0  0  0  0  0  0  0
   10.5889  -17.9987    0.0000 C   0  0  0  0  0  0  0  0  0  0  0  0
   10.6100  -18.8213    0.0000 C   0  0  0  0  0  0  0  0  0  0  0  0
   11.3324  -19.2122    0.0000 C   0  0  0  0  0  0  0  0  0  0  0  0
   12.0367  -18.7820    0.0000 C   0  0  0  0  0  0  0  0  0  0  0  0
   12.0140  -17.9563    0.0000 C   0  0  0  0  0  0  0  0  0  0  0  0
   11.2869  -17.5609    0.0000 C   0  0  0  0  0  0  0  0  0  0  0  0
  4  6  2  0  0  0  0 
  1  2  1  0  0  0  0 
  5  7  1  0  0  0  0 
 12 13  1  0  0  0  0 
 13 10  2  0  0  0  0 
 10 14  1  0  0  0  0 
 14 11  2  0  0  0  0 
  3  4  1  0  0  0  0 
  7 15  1  0  0  0  0 
  7  8  2  0  0  0  0 
 15 16  1  0  0  0  0 
 16 17  1  0  0  0  0 
 17 18  1  0  0  0  0 
  1  9  1  0  0  0  0 
  4  5  1  0  0  0  0 
  9 10  1  0  0  0  0 
 11 12  1  0  0  0  0 
  2  3  1  0  0  0  0 
 17 22  1  0  0  0  0 
 18 19  1  0  0  0  0 
 19 20  1  0  0  0  0 
 20 21  1  0  0  0  0 
 21 22  1  0  0  0  0 
M  END