
  SciTegic04201611242D

 45 48  0  0  0  0            999 V2000
  -11.0049   10.0990    0.0000 C   0  0
   -9.5183   10.3727    0.0000 N   0  0
  -11.7275   11.3963    0.0000 N   0  0
   -9.3364   11.8777    0.0000 C   0  0  1  0  0  0
  -10.6876   12.4936    0.0000 C   0  0  2  0  0  0
   -9.0476   14.2712    0.0000 S   0  0
   -8.3208   12.9516    0.0000 C   0  0  1  0  0  0
  -10.5046   13.9701    0.0000 C   0  0
  -11.5163    9.0134    0.0000 O   0  0
   -6.8332   12.7535    0.0000 C   0  0
  -11.5920   12.9204    0.0000 H   0  0
   -8.4312   11.4527    0.0000 H   0  0
   -6.2600   11.3664    0.0000 C   0  0
   -4.7723   11.1683    0.0000 C   0  0
   -4.1991    9.7812    0.0000 C   0  0
   -2.7115    9.5831    0.0000 C   0  0
   -2.1383    8.1960    0.0000 N   0  5
   -1.9798   10.5343    0.0000 O   0  0
   -0.6506    7.9979    0.0000 S   0  0
   -0.0774    6.6109    0.0000 N   0  0
   -1.1083    9.1072    0.0000 O   0  0
    0.0810    8.9491    0.0000 O   0  0
    1.4102    6.4127    0.0000 C   0  0
    1.9824    5.0281    0.0000 C   0  0  2  0  0  0
    3.4400    4.6736    0.0000 C   0  0
    3.5533    3.1779    0.0000 C   0  0
    2.1749    2.6315    0.0000 C   0  0  1  0  0  0
    1.1949    3.7514    0.0000 C   0  0
    1.7138    1.2033    0.0000 N   0  0
    1.7138   -1.2033    0.0000 N   0  0
    2.5889    0.0182    0.0000 C   0  0
    0.2917   -0.7475    0.0000 C   0  0
    0.2917    0.7475    0.0000 C   0  0
   -1.0028    1.5132    0.0000 N   0  0
   -2.3155    0.7475    0.0000 C   0  0
   -2.3155   -0.7475    0.0000 N   0  0
   -1.0028   -1.5132    0.0000 C   0  0
   -0.9991   -2.7132    0.0000 N   0  0
    8.6532    6.3783    0.0000 N   0  3
    7.3532    7.1283    0.0000 C   0  0
    9.9532    7.1283    0.0000 C   0  0
    8.6563    4.8775    0.0000 C   0  0
    6.3138    6.5286    0.0000 C   0  0
   10.9926    6.5286    0.0000 C   0  0
    9.6964    4.2789    0.0000 C   0  0
  2  1  1  0
  3  1  1  0
  4  2  1  0
  5  3  1  0
  6  8  1  0
  7  4  1  0
  8  5  1  0
  9  1  2  0
  7 10  1  1
  5 11  1  6
  4 12  1  6
  5  4  1  0
  6  7  1  0
 10 13  1  0
 13 14  1  0
 14 15  1  0
 15 16  1  0
 16 17  1  0
 16 18  2  0
 17 19  1  0
 19 20  1  0
 19 21  2  0
 19 22  2  0
 20 23  1  0
 24 23  1  6
 24 25  1  0
 25 26  2  0
 26 27  1  0
 27 28  1  0
 28 24  1  0
 27 29  1  6
 29 33  1  0
 32 30  1  0
 30 31  2  0
 31 29  1  0
 32 33  2  0
 32 37  1  0
 33 34  1  0
 34 35  2  0
 35 36  1  0
 36 37  2  0
 37 38  1  0
 39 40  1  0
 39 41  1  0
 39 42  1  0
 40 43  1  0
 41 44  1  0
 42 45  1  0
M  CHG  2  17  -1  39   1
M  END