
          11280715092D 1   1.00000     0.00000     0

 31 35  0     0  0            999 V2000
    7.8500   -7.2292    0.0000 N   0  0  3  0  0  0           0  0  0
    8.2125   -7.7167    0.0000 C   0  0  0  0  0  0           0  0  0
    8.2042   -6.7417    0.0000 C   0  0  0  0  0  0           0  0  0
    8.7792   -6.9250    0.0000 C   0  0  0  0  0  0           0  0  0
    8.7792   -7.5167    0.0000 C   0  0  0  0  0  0           0  0  0
    3.3417   -5.6542    0.0000 C   0  0  0  0  0  0           0  0  0
    4.2417   -6.1792    0.0000 N   0  0  3  0  0  0           0  0  0
    3.6417   -6.1792    0.0000 C   0  0  0  0  0  0           0  0  0
    5.4500   -6.1875    0.0000 N   0  0  3  0  0  0           0  0  0
    2.7375   -5.6625    0.0000 C   0  0  0  0  0  0           0  0  0
    7.7792   -6.3125    0.0000 O   0  0  0  0  0  0           0  0  0
    7.9042   -8.2292    0.0000 O   0  0  0  0  0  0           0  0  0
    3.6375   -5.1292    0.0000 O   0  0  0  0  0  0           0  0  0
    4.5417   -6.7042    0.0000 C   0  0  0  0  0  0           0  0  0
    4.5417   -5.6542    0.0000 C   0  0  0  0  0  0           0  0  0
    2.4292   -5.1417    0.0000 O   0  0  0  0  0  0           0  0  0
    7.2500   -7.2292    0.0000 C   0  0  0  0  0  0           0  0  0
    5.1417   -6.7042    0.0000 C   0  0  0  0  0  0           0  0  0
    5.1500   -5.6625    0.0000 C   0  0  0  0  0  0           0  0  0
    9.3000   -7.8167    0.0000 C   0  0  0  0  0  0           0  0  0
    9.2917   -6.6250    0.0000 C   0  0  0  0  0  0           0  0  0
    3.3417   -6.7000    0.0000 C   0  0  0  0  0  0           0  0  0
    6.0500   -6.1917    0.0000 C   0  0  0  0  0  0           0  0  0
    2.7375   -6.7000    0.0000 C   0  0  0  0  0  0           0  0  0
    2.4375   -6.1792    0.0000 C   0  0  0  0  0  0           0  0  0
    3.3292   -4.6125    0.0000 C   0  0  0  0  0  0           0  0  0
    2.7292   -4.6167    0.0000 C   0  0  0  0  0  0           0  0  0
    6.9542   -6.7042    0.0000 C   0  0  0  0  0  0           0  0  0
    6.3500   -6.7125    0.0000 C   0  0  0  0  0  0           0  0  0
    9.8042   -6.9167    0.0000 C   0  0  0  0  0  0           0  0  0
    9.8167   -7.5167    0.0000 C   0  0  0  0  0  0           0  0  0
  2  1  1  0     0  0
  3  1  1  0     0  0
  4  3  1  0     0  0
  5  2  1  0     0  0
  6  8  2  0     0  0
  7 15  1  0     0  0
  8  7  1  0     0  0
  9 23  1  0     0  0
 10  6  1  0     0  0
 11  3  2  0     0  0
 12  2  2  0     0  0
 13  6  1  0     0  0
 14 18  1  0     0  0
 15 19  1  0     0  0
 16 10  1  0     0  0
 17  1  1  0     0  0
 18  9  1  0     0  0
 19  9  1  0     0  0
 20  5  1  0     0  0
 21  4  1  0     0  0
 22  8  1  0     0  0
 23 29  1  0     0  0
 24 22  2  0     0  0
 25 24  1  0     0  0
 26 13  1  0     0  0
 27 26  1  0     0  0
 28 17  1  0     0  0
 29 28  1  0     0  0
 30 21  2  0     0  0
 31 20  2  0     0  0
  5  4  2  0     0  0
 30 31  1  0     0  0
 14  7  1  0     0  0
 25 10  2  0     0  0
 16 27  1  0     0  0
M  END