
          11280715432D 1   1.00000     0.00000     0

 29 32  0     1  0            999 V2000
   -1.1208   -1.6042    0.0000 C   0  0  0  0  0  0           0  0  0
   -0.2958   -1.7000    0.0000 N   0  0  0  0  0  0           0  0  0
    0.0417   -0.9542    0.0000 C   0  0  0  0  0  0           0  0  0
   -1.6833   -2.2167    0.0000 N   0  0  0  0  0  0           0  0  0
   -0.5625   -0.4000    0.0000 C   0  0  0  0  0  0           0  0  0
   -1.2833   -0.8042    0.0000 S   0  0  0  0  0  0           0  0  0
   -2.4833   -2.0375    0.0000 C   0  0  0  0  0  0           0  0  0
    3.1167    0.3583    0.0000 C   0  0  0  0  0  0           0  0  0
    2.8667    1.1458    0.0000 C   0  0  0  0  0  0           0  0  0
   -0.4833    0.4250    0.0000 C   0  0  0  0  0  0           0  0  0
    0.8292   -0.7000    0.0000 C   0  0  0  0  0  0           0  0  0
   -3.0458   -2.6375    0.0000 O   0  0  0  0  0  0           0  0  0
    2.0500    1.1458    0.0000 C   0  0  0  0  0  0           0  0  0
    2.4417   -0.1167    0.0000 C   0  0  0  0  0  0           0  0  0
    1.7917    0.3583    0.0000 C   0  0  3  0  0  0           0  0  0
   -2.7208   -1.2417    0.0000 C   0  0  1  0  0  0           0  0  0
    1.0042    0.1000    0.0000 O   0  0  0  0  0  0           0  0  0
   -3.5125   -1.0542    0.0000 N   0  0  0  0  0  0           0  0  0
   -1.1500    0.9083    0.0000 C   0  0  0  0  0  0           0  0  0
    3.9167    0.1833    0.0000 C   0  0  0  0  0  0           0  0  0
    3.4167    1.7583    0.0000 C   0  0  0  0  0  0           0  0  0
   -2.1625   -0.6417    0.0000 C   0  0  0  0  0  0           0  0  0
   -1.0708    1.7333    0.0000 C   0  0  0  0  0  0           0  0  0
   -1.9125    0.5625    0.0000 C   0  0  0  0  0  0           0  0  0
    4.4792    0.7958    0.0000 C   0  0  0  0  0  0           0  0  0
    4.2167    1.5833    0.0000 C   0  0  0  0  0  0           0  0  0
   -2.5833    1.0583    0.0000 C   0  0  0  0  0  0           0  0  0
   -1.7458    2.2208    0.0000 C   0  0  0  0  0  0           0  0  0
   -2.5000    1.8833    0.0000 C   0  0  0  0  0  0           0  0  0
  2  1  2  0     0  0
  3  2  1  0     0  0
  4  1  1  0     0  0
  5  6  1  0     0  0
  6  1  1  0     0  0
  7  4  1  0     0  0
  8 14  1  0     0  0
  9 13  1  0     0  0
 10  5  1  0     0  0
 11  3  1  0     0  0
 12  7  2  0     0  0
 13 15  1  0     0  0
 14 15  1  0     0  0
 15 17  1  0     0  0
 16  7  1  0     0  0
 17 11  1  0     0  0
 18 16  1  0     0  0
 19 10  1  0     0  0
 20  8  1  0     0  0
 21  9  1  0     0  0
 16 22  1  1     0  0
 23 19  2  0     0  0
 24 19  1  0     0  0
 25 20  2  0     0  0
 26 21  2  0     0  0
 27 24  2  0     0  0
 28 23  1  0     0  0
 29 27  1  0     0  0
  5  3  2  0     0  0
 29 28  2  0     0  0
  9  8  2  0     0  0
 26 25  1  0     0  0
M  END