
          11280715072D 1   1.00000     0.00000     0

 39 42  0     0  0            999 V2000
    8.4542    0.2833    0.0000 C   0  0  0  0  0  0           0  0  0
    1.3167    0.1833    0.0000 C   0  0  0  0  0  0           0  0  0
    9.1792   -0.1125    0.0000 C   0  0  0  0  0  0           0  0  0
    0.6042   -0.2417    0.0000 C   0  0  0  0  0  0           0  0  0
    7.7417   -0.1542    0.0000 C   0  0  0  0  0  0           0  0  0
    2.0417   -0.2167    0.0000 C   0  0  0  0  0  0           0  0  0
    9.2000   -0.9375    0.0000 C   0  0  0  0  0  0           0  0  0
    0.6167   -1.0667    0.0000 C   0  0  0  0  0  0           0  0  0
    7.7750   -0.9792    0.0000 C   0  0  0  0  0  0           0  0  0
    2.0500   -1.0500    0.0000 C   0  0  0  0  0  0           0  0  0
    1.3417   -1.4667    0.0000 C   0  0  0  0  0  0           0  0  0
    8.5042   -1.3750    0.0000 C   0  0  0  0  0  0           0  0  0
    8.4292    1.1083    0.0000 C   0  0  0  0  0  0           0  0  0
    1.3000    1.0083    0.0000 C   0  0  0  0  0  0           0  0  0
    1.1792   -2.2792    0.0000 O   0  0  0  0  0  0           0  0  0
    8.7000   -2.1750    0.0000 O   0  0  0  0  0  0           0  0  0
    9.8292   -1.4667    0.0000 C   0  0  0  0  0  0           0  0  0
    0.0167   -1.6250    0.0000 C   0  0  0  0  0  0           0  0  0
    9.5250   -2.2292    0.0000 C   0  0  0  0  0  0           0  0  0
    0.3542   -2.3750    0.0000 C   0  0  0  0  0  0           0  0  0
    9.1292    1.5375    0.0000 O   0  0  0  0  0  0           0  0  0
    0.5792    1.4083    0.0000 O   0  0  0  0  0  0           0  0  0
   -0.1083    0.1625    0.0000 O   0  0  0  0  0  0           0  0  0
    9.8792    0.3208    0.0000 O   0  0  0  0  0  0           0  0  0
    7.0375    0.2583    0.0000 O   0  0  0  0  0  0           0  0  0
    2.7500    0.2000    0.0000 O   0  0  0  0  0  0           0  0  0
    2.7667   -1.4542    0.0000 O   0  0  0  0  0  0           0  0  0
    7.0792   -1.4167    0.0000 O   0  0  0  0  0  0           0  0  0
    2.0042    1.4333    0.0000 C   0  0  0  0  0  0           0  0  0
    7.7042    1.4958    0.0000 C   0  0  0  0  0  0           0  0  0
    3.4667   -0.2042    0.0000 C   0  0  0  0  0  0           0  0  0
    6.3292   -0.1542    0.0000 C   0  0  0  0  0  0           0  0  0
   10.6042   -0.0667    0.0000 C   0  0  0  0  0  0           0  0  0
   -0.8208   -0.2625    0.0000 C   0  0  0  0  0  0           0  0  0
    7.1042   -2.2417    0.0000 C   0  0  0  0  0  0           0  0  0
    2.7750   -2.2792    0.0000 C   0  0  0  0  0  0           0  0  0
    5.6042    0.2458    0.0000 C   0  0  0  0  0  0           0  0  0
    4.1792    0.2208    0.0000 C   0  0  0  0  0  0           0  0  0
    4.9000   -0.1792    0.0000 C   0  0  0  0  0  0           0  0  0
  2  6  1  0     0  0
  3  1  2  0     0  0
  4  2  2  0     0  0
  5  1  1  0     0  0
  6 26  1  0     0  0
  7  3  1  0     0  0
  8 11  2  0     0  0
  9  5  2  0     0  0
 10  6  2  0     0  0
 11 10  1  0     0  0
 12  9  1  0     0  0
 13  1  1  0     0  0
 14  2  1  0     0  0
 15 11  1  0     0  0
 16 12  1  0     0  0
 17  7  1  0     0  0
 18  8  1  0     0  0
 19 17  2  0     0  0
 20 15  1  0     0  0
 21 13  2  0     0  0
 22 14  2  0     0  0
 23  4  1  0     0  0
 24  3  1  0     0  0
 25  5  1  0     0  0
 26 31  1  0     0  0
 27 10  1  0     0  0
 28  9  1  0     0  0
 29 14  1  0     0  0
 30 13  1  0     0  0
 31 38  1  0     0  0
 32 25  1  0     0  0
 33 24  1  0     0  0
 34 23  1  0     0  0
 35 28  1  0     0  0
 36 27  1  0     0  0
 37 32  1  0     0  0
 38 39  1  0     0  0
 39 37  1  0     0  0
 12  7  2  0     0  0
 16 19  1  0     0  0
  8  4  1  0     0  0
 20 18  2  0     0  0
M  END