
  SciTegic12231509382D

 33 36  0  0  1  0            999 V2000
    8.3312   -5.1647    0.0000 F   0  0
    9.1510   -3.7301    0.0000 F   0  0
    9.4482   -4.8676    0.0000 F   0  0
    4.4577   -5.2774    0.0000 O   0  0
    0.7173   -1.8138    0.0000 O   0  0
    2.1417   -0.1640    0.0000 O   0  0
    5.1647   -4.0375    0.0000 N   0  0
    2.1417   -2.6439    0.0000 N   0  0
    7.3065   -2.8078    0.0000 N   0  0
    3.7506   -4.0375    0.0000 C   0  0  1  0  0  0
    4.4577   -4.4474    0.0000 C   0  0
    2.9411   -3.8633    0.0000 C   0  0
    3.4432   -4.8061    0.0000 C   0  0
    4.1502   -3.3202    0.0000 C   0  0
    2.8488   -3.0435    0.0000 C   0  0  1  0  0  0
    6.5994   -4.0375    0.0000 C   0  0
    3.6072   -2.7054    0.0000 C   0  0
    5.8821   -4.4474    0.0000 C   0  0
    6.5994   -3.2177    0.0000 C   0  0
    5.1647   -3.2177    0.0000 C   0  0
    8.0238   -4.0375    0.0000 C   0  0
    7.3065   -4.4474    0.0000 C   0  0
    5.8821   -2.8078    0.0000 C   0  0
    8.7411   -4.4474    0.0000 C   0  0
    2.1417   -1.8138    0.0000 C   0  0  2  0  0  0
    8.0238   -3.2177    0.0000 C   0  0
    3.9453   -5.4517    0.0000 C   0  0
    2.6233   -4.9188    0.0000 C   0  0
    1.4347   -1.3937    0.0000 C   0  0  1  0  0  0
    2.8488   -1.3937    0.0000 C   0  0
    1.4347   -0.5738    0.0000 C   0  0
    2.8488   -0.5738    0.0000 C   0  0
    0.0000   -1.3937    0.0000 C   0  0
  1 24  1  0
  2 24  1  0
  3 24  1  0
  4 11  2  0
 29  5  1  6
  5 33  1  0
  6 31  1  0
  6 32  1  0
  7 11  1  0
  7 18  1  0
  7 20  1  0
 15  8  1  6
 25  8  1  6
  9 19  1  0
  9 26  2  0
 10 11  1  6
 10 12  1  0
 10 13  1  0
 10 14  1  0
 12 15  1  0
 13 27  1  0
 13 28  1  0
 14 17  1  0
 15 17  1  0
 16 18  1  0
 16 19  2  0
 16 22  1  0
 19 23  1  0
 20 23  1  0
 21 22  2  0
 21 24  1  0
 21 26  1  0
 25 29  1  0
 25 30  1  0
 29 31  1  0
 30 32  1  0
M  END