
  CDK    9/16/09,10:2

 86 90  0  0  0  0  0  0  0  0999 V2000
    8.8187    0.1236    0.0000 C   0  0  0  0  0  0  0  0  0  0  0  0
    7.3899    0.1001    0.0000 O   0  0  0  0  0  0  0  0  0  0  0  0
    8.0989    0.5243    0.0000 C   0  0  0  0  0  0  0  0  0  0  0  0
    9.5258    0.5467    0.0000 C   0  0  0  0  0  0  0  0  0  0  0  0
    9.5129    1.3723    0.0000 C   0  0  0  0  0  0  0  0  0  0  0  0
   10.2188    1.7948    0.0000 C   0  0  0  0  0  0  0  0  0  0  0  0
   10.2050    2.6192    0.0000 O   0  0  0  0  0  0  0  0  0  0  0  0
    7.3631    1.7486    0.0000 C   0  0  0  0  0  0  0  0  0  0  0  0
    8.0571    2.9953    0.0000 O   0  0  0  0  0  0  0  0  0  0  0  0
    7.3503    2.5723    0.0000 C   0  0  0  0  0  0  0  0  0  0  0  0
    6.6195    3.8004    0.0000 C   0  0  0  0  0  0  0  0  0  0  0  0
    5.1887    3.7779    0.0000 O   0  0  0  0  0  0  0  0  0  0  0  0
    5.8976    4.2061    0.0000 C   0  0  0  0  0  0  0  0  0  0  0  0
    7.3264    4.2266    0.0000 C   0  0  0  0  0  0  0  0  0  0  0  0
    7.3135    5.0505    0.0000 C   0  0  0  0  0  0  0  0  0  0  0  0
    8.0134    5.4734    0.0000 C   0  0  0  0  0  0  0  0  0  0  0  0
    6.5915    5.4570    0.0000 C   0  0  0  0  0  0  0  0  0  0  0  0
    5.1638    5.4299    0.0000 C   0  0  0  0  0  0  0  0  0  0  0  0
    5.8578    6.6751    0.0000 O   0  0  0  0  0  0  0  0  0  0  0  0
    5.1509    6.2520    0.0000 C   0  0  0  0  0  0  0  0  0  0  0  0
    4.4549    5.0042    0.0000 C   0  0  0  0  0  0  0  0  0  0  0  0
    8.1362   -1.9519    0.0000 C   0  0  0  0  0  0  0  0  0  0  0  0
    8.1232   -1.1259    0.0000 C   0  0  0  0  0  0  0  0  0  0  0  0
    7.4035   -0.7252    0.0000 O   0  0  0  0  0  0  0  0  0  0  0  0
    8.8581   -2.3538    0.0000 C   0  0  0  0  0  0  0  0  0  0  0  0
    9.5670   -1.9295    0.0000 C   0  0  0  0  0  0  0  0  0  0  0  0
   10.2871   -2.3348    0.0000 C   0  0  0  0  0  0  0  0  0  0  0  0
   10.9977   -1.9014    0.0000 C   0  0  0  0  0  0  0  0  0  0  0  0
   10.9784   -1.0744    0.0000 C   0  0  0  0  0  0  0  0  0  0  0  0
   10.2508   -0.6802    0.0000 C   0  0  0  0  0  0  0  0  0  0  0  0
    9.5477   -1.1099    0.0000 C   0  0  0  0  0  0  0  0  0  0  0  0
   11.6856   -0.6511    0.0000 O   0  0  0  0  0  0  0  0  0  0  0  0
   12.4002   -1.0535    0.0000 P   0  0  0  0  0  0  0  0  0  0  0  0
   12.0073   -1.7647    0.0000 O   0  0  0  0  0  0  0  0  0  0  0  0
    7.4405   -3.1996    0.0000 C   0  0  0  0  0  0  0  0  0  0  0  0
    8.1625   -3.6015    0.0000 O   0  0  0  0  0  0  0  0  0  0  0  0
    6.7336   -3.6226    0.0000 C   0  0  0  0  0  0  0  0  0  0  0  0
    6.7466   -4.4488    0.0000 C   0  0  0  0  0  0  0  0  0  0  0  0
    6.0169   -3.2167    0.0000 N   0  0  0  0  0  0  0  0  0  0  0  0
    4.4200    6.6588    0.0000 N   0  0  0  0  0  0  0  0  0  0  0  0
    3.7273    5.4160    0.0000 O   0  0  0  0  0  0  0  0  0  0  0  0
    6.6304    2.9755    0.0000 N   0  0  0  0  0  0  0  0  0  0  0  0
    8.0849    1.3492    0.0000 N   0  0  0  0  0  0  0  0  0  0  0  0
   10.9384    1.3960    0.0000 N   0  0  0  0  0  0  0  0  0  0  0  0
    8.8306   -0.7014    0.0000 N   0  0  0  0  0  0  0  0  0  0  0  0
    7.4277   -2.3747    0.0000 N   0  0  0  0  0  0  0  0  0  0  0  0
   13.1209   -1.4537    0.0000 O   0  0  0  0  0  0  0  0  0  0  0  0
   12.8030   -0.3260    0.0000 O   0  0  0  0  0  0  0  0  0  0  0  0
    5.8847    5.0312    0.0000 N   0  0  0  0  0  0  0  0  0  0  0  0
    7.4675   -4.8500    0.0000 C   0  0  0  0  0  0  0  0  0  0  0  0
    7.4805   -5.6749    0.0000 C   0  0  0  0  0  0  0  0  0  0  0  0
    8.1754   -4.4263    0.0000 C   0  0  0  0  0  0  0  0  0  0  0  0
   -1.5600   -2.1772    0.0000 C   0  0  0  0  0  0  0  0  0  0  0  0
   -2.0869   -2.8104    0.0000 C   0  0  0  0  0  0  0  0  0  0  0  0
   -1.8012   -3.5837    0.0000 C   0  0  0  0  0  0  0  0  0  0  0  0
   -0.9916   -3.7299    0.0000 C   0  0  0  0  0  0  0  0  0  0  0  0
   -0.7062   -4.5028    0.0000 C   0  0  0  0  0  0  0  0  0  0  0  0
   -2.3432   -4.2143    0.0000 O   0  0  0  0  0  0  0  0  0  0  0  0
   -2.0555   -4.9941    0.0000 C   0  0  0  0  0  0  0  0  0  0  0  0
   -1.2444   -5.1377    0.0000 C   0  0  0  0  0  0  0  0  0  0  0  0
   -0.9612   -5.9096    0.0000 C   0  0  0  0  0  0  0  0  0  0  0  0
   -1.4931   -6.5425    0.0000 C   0  0  0  0  0  0  0  0  0  0  0  0
   -2.3046   -6.3960    0.0000 C   0  0  0  0  0  0  0  0  0  0  0  0
   -2.5832   -5.6201    0.0000 C   0  0  0  0  0  0  0  0  0  0  0  0
   -1.8431   -1.4023    0.0000 O   0  0  0  0  0  0  0  0  0  0  0  0
    0.3016   -4.8698    0.0000 C   0  0  0  0  0  0  0  0  0  0  0  0
    1.0183   -4.4531    0.0000 C   0  0  0  0  0  0  0  0  0  0  0  0
    1.7288   -5.6918    0.0000 C   0  0  0  0  0  0  0  0  0  0  0  0
    1.0130   -6.1044    0.0000 C   0  0  0  0  0  0  0  0  0  0  0  0
    0.2995   -5.6946    0.0000 C   0  0  0  0  0  0  0  0  0  0  0  0
    2.4430   -6.1048    0.0000 N   0  0  0  0  0  0  0  0  0  0  0  0
    3.1572   -6.5178    0.0000 C   0  0  0  0  0  0  0  0  0  0  0  0
    3.8713   -6.9309    0.0000 S   0  0  0  0  0  0  0  0  0  0  0  0
    1.0189   -3.6268    0.0000 C   0  0  0  0  0  0  0  0  0  0  0  0
   -0.4598   -3.0932    0.0000 C   0  0  0  0  0  0  0  0  0  0  0  0
    0.3058   -3.2144    0.0000 O   0  0  0  0  0  0  0  0  0  0  0  0
   -0.7397   -2.3234    0.0000 C   0  0  0  0  0  0  0  0  0  0  0  0
    1.7266   -4.8630    0.0000 C   0  0  0  0  0  0  0  0  0  0  0  0
    2.4468   -3.6278    0.0000 C   0  0  0  0  0  0  0  0  0  0  0  0
    3.1626   -3.2152    0.0000 C   0  0  0  0  0  0  0  0  0  0  0  0
    1.7331   -3.2139    0.0000 N   0  0  0  0  0  0  0  0  0  0  0  0
   -2.8376   -7.0257    0.0000 O   0  0  0  0  0  0  0  0  0  0  0  0
    3.8768   -3.6282    0.0000 C   0  0  0  0  0  0  0  0  0  0  0  0
    4.5915   -3.2162    0.0000 C   0  0  0  0  0  0  0  0  0  0  0  0
    5.3057   -3.6292    0.0000 C   0  0  0  0  0  0  0  0  0  0  0  0
    5.3051   -4.4542    0.0000 O   0  0  0  0  0  0  0  0  0  0  0  0
 11 42  1  0  0  0  0 
 10 42  1  0  0  0  0 
  8 43  1  0  0  0  0 
  3 43  1  0  0  0  0 
  6 44  1  0  0  0  0 
 23 45  1  0  0  0  0 
  1 45  1  0  0  0  0 
 22 46  1  0  0  0  0 
 35 46  1  0  0  0  0 
 33 47  1  0  0  0  0 
 33 48  1  0  0  0  0 
 18 49  1  0  0  0  0 
 13 49  1  0  0  0  0 
 38 50  1  0  0  0  0 
  6  7  2  0  0  0  0 
 50 51  1  0  0  0  0 
  8 10  1  0  0  0  0 
 50 52  1  0  0  0  0 
 10  9  2  0  0  0  0 
 11 13  1  0  0  0  0 
 13 12  2  0  0  0  0 
 11 14  1  6  0  0  0 
 14 15  1  0  0  0  0 
 15 16  1  0  0  0  0 
 15 17  1  0  0  0  0 
 18 20  1  0  0  0  0 
 20 19  2  0  0  0  0 
 18 21  1  1  0  0  0 
 22 23  1  0  0  0  0 
 23 24  2  0  0  0  0 
 22 25  1  6  0  0  0 
 25 26  1  0  0  0  0 
 26 27  2  0  0  0  0 
 27 28  1  0  0  0  0 
 28 29  2  0  0  0  0 
 29 30  1  0  0  0  0 
 30 31  2  0  0  0  0 
 31 26  1  0  0  0  0 
 29 32  1  0  0  0  0 
 32 33  1  0  0  0  0 
 33 34  2  0  0  0  0 
  1  3  1  0  0  0  0 
  3  2  2  0  0  0  0 
  1  4  1  6  0  0  0 
  4  5  1  0  0  0  0 
  5  6  1  0  0  0  0 
 35 36  2  0  0  0  0 
 37 35  1  0  0  0  0 
 53 77  1  0  0  0  0 
 77 75  2  0  0  0  0 
 75 56  1  0  0  0  0 
 55 54  2  0  0  0  0 
 54 53  1  0  0  0  0 
 55 56  1  0  0  0  0 
 55 58  1  0  0  0  0 
 56 57  2  0  0  0  0 
 57 60  1  0  0  0  0 
 59 58  1  0  0  0  0 
 59 60  2  0  0  0  0 
 60 61  1  0  0  0  0 
 61 62  2  0  0  0  0 
 62 63  1  0  0  0  0 
 63 64  2  0  0  0  0 
 64 59  1  0  0  0  0 
 53 65  2  0  0  0  0 
 66 67  2  0  0  0  0 
 67 78  1  0  0  0  0 
 78 68  2  0  0  0  0 
 68 69  1  0  0  0  0 
 69 70  2  0  0  0  0 
 70 66  1  0  0  0  0 
 57 66  1  0  0  0  0 
 68 71  1  0  0  0  0 
 71 72  2  0  0  0  0 
 72 73  2  0  0  0  0 
 67 74  1  0  0  0  0 
 74 76  2  0  0  0  0 
 79 80  1  0  0  0  0 
 74 81  1  0  0  0  0 
 79 81  1  0  0  0  0 
 63 82  1  0  0  0  0 
 37 38  1  6  0  0  0 
 80 83  1  0  0  0  0 
 37 39  1  0  0  0  0 
 83 84  1  0  0  0  0 
 20 40  1  0  0  0  0 
 84 85  1  0  0  0  0 
 85 39  1  0  0  0  0 
 21 41  1  0  0  0  0 
 85 86  2  0  0  0  0 
M  END