
          11280716012D 1   1.00000     0.00000     0

 66 71  0     1  0            999 V2000
   -0.7480   -7.0716    0.0000 C   0  0  2  0  0  0           0  0  0
   -1.4768   -6.6851    0.0000 C   0  0  2  0  0  0           0  0  0
   -2.1712   -7.1227    0.0000 C   0  0  1  0  0  0           0  0  0
   -2.1441   -7.9430    0.0000 C   0  0  1  0  0  0           0  0  0
   -1.4152   -8.3296    0.0000 C   0  0  2  0  0  0           0  0  0
   -0.7136   -7.8959    0.0000 O   0  0  0  0  0  0           0  0  0
   -0.0500   -6.6317    0.0000 C   0  0  0  0  0  0           0  0  0
    0.6799   -7.0162    0.0000 O   0  0  0  0  0  0           0  0  0
   -1.5076   -5.8606    0.0000 O   0  0  0  0  0  0           0  0  0
   -2.9000   -6.7361    0.0000 O   0  0  0  0  0  0           0  0  0
   -2.8440   -8.3799    0.0000 O   0  0  0  0  0  0           0  0  0
   -1.3881   -9.1542    0.0000 O   0  0  0  0  0  0           0  0  0
   -0.6604   -9.5429    0.0000 C   0  0  2  0  0  0           0  0  0
   -0.6310  -10.3707    0.0000 C   0  0  1  0  0  0           0  0  0
    0.0926  -10.7594    0.0000 C   0  0  2  0  0  0           0  0  0
    0.7956  -10.3270    0.0000 O   0  0  0  0  0  0           0  0  0
    0.7704   -9.5014    0.0000 C   0  0  1  0  0  0           0  0  0
    0.0420   -9.1082    0.0000 C   0  0  1  0  0  0           0  0  0
    0.1166  -11.5841    0.0000 O   0  0  0  0  0  0           0  0  0
   -1.3315  -10.8064    0.0000 O   0  0  0  0  0  0           0  0  0
    1.4723   -9.0680    0.0000 C   0  0  0  0  0  0           0  0  0
    2.1987   -9.4592    0.0000 O   0  0  0  0  0  0           0  0  0
    0.0177   -8.2836    0.0000 O   0  0  0  0  0  0           0  0  0
    2.2686  -11.9195    0.0000 C   0  0  2  0  0  0           0  0  0
    1.5398  -11.5329    0.0000 C   0  0  2  0  0  0           0  0  0
    0.8454  -11.9707    0.0000 C   0  0  1  0  0  0           0  0  0
    0.8725  -12.7910    0.0000 C   0  0  1  0  0  0           0  0  0
    1.6013  -13.1776    0.0000 C   0  0  2  0  0  0           0  0  0
    2.3031  -12.7439    0.0000 O   0  0  0  0  0  0           0  0  0
    2.9665  -11.4797    0.0000 C   0  0  0  0  0  0           0  0  0
    3.6965  -11.8640    0.0000 O   0  0  0  0  0  0           0  0  0
    1.5090  -10.7086    0.0000 O   0  0  0  0  0  0           0  0  0
    0.1727  -13.2278    0.0000 O   0  0  0  0  0  0           0  0  0
    1.6286  -14.0021    0.0000 O   0  0  0  0  0  0           0  0  0
    2.3562  -14.3909    0.0000 C   0  0  2  0  0  0           0  0  0
    2.3856  -15.2185    0.0000 C   0  0  1  0  0  0           0  0  0
    3.1092  -15.6073    0.0000 C   0  0  2  0  0  0           0  0  0
    3.8121  -15.1749    0.0000 O   0  0  0  0  0  0           0  0  0
    3.7869  -14.3494    0.0000 C   0  0  1  0  0  0           0  0  0
    3.0587  -13.9562    0.0000 C   0  0  1  0  0  0           0  0  0
    3.1332  -16.4319    0.0000 O   0  0  0  0  0  0           0  0  0
    1.6852  -15.6544    0.0000 O   0  0  0  0  0  0           0  0  0
    4.4889  -13.9159    0.0000 C   0  0  0  0  0  0           0  0  0
    5.2153  -14.3071    0.0000 O   0  0  0  0  0  0           0  0  0
    3.0343  -13.1315    0.0000 O   0  0  0  0  0  0           0  0  0
    3.8594  -16.8235    0.0000 C   0  0  2  0  0  0           0  0  0
    3.8780  -17.6528    0.0000 C   0  0  2  0  0  0           0  0  0
    4.6000  -18.0442    0.0000 O   0  0  0  0  0  0           0  0  0
    5.3047  -17.6146    0.0000 C   0  0  1  0  0  0           0  0  0
    5.2826  -16.7889    0.0000 C   0  0  2  0  0  0           0  0  0
    4.5558  -16.3929    0.0000 C   0  0  2  0  0  0           0  0  0
    4.5332  -15.5683    0.0000 O   0  0  0  0  0  0           0  0  0
    5.9862  -16.3581    0.0000 O   0  0  0  0  0  0           0  0  0
    3.1738  -18.0827    0.0000 N   0  0  0  0  0  0           0  0  0
    6.0294  -18.0088    0.0000 C   0  0  0  0  0  0           0  0  0
    6.0504  -18.8335    0.0000 O   0  0  0  0  0  0           0  0  0
    3.1940  -18.9074    0.0000 C   0  0  0  0  0  0           0  0  0
    2.4900  -19.3374    0.0000 C   0  0  0  0  0  0           0  0  0
    3.9185  -19.3022    0.0000 O   0  0  0  0  0  0           0  0  0
    1.7655  -18.9425    0.0000 O   0  0  0  0  0  0           0  0  0
    1.0614  -19.3724    0.0000 C   0  0  0  0  0  0           0  0  0
    0.3402  -18.9765    0.0000 C   0  0  0  0  0  0           0  0  0
   -0.3635  -19.4057    0.0000 C   0  0  0  0  0  0           0  0  0
   -0.3437  -20.2313    0.0000 C   0  0  0  0  0  0           0  0  0
    0.3857  -20.6259    0.0000 C   0  0  0  0  0  0           0  0  0
    1.0864  -20.1943    0.0000 C   0  0  0  0  0  0           0  0  0
 49 55  1  1     0  0
 24 29  1  0     0  0
 55 56  1  0     0  0
 25 26  1  0     0  0
 26 27  1  0     0  0
 27 28  1  0     0  0
 28 29  1  0     0  0
  1  7  1  1     0  0
 24 30  1  1     0  0
  1  2  1  0     0  0
 30 31  1  0     0  0
  7  8  1  0     0  0
 25 32  1  6     0  0
 26 19  1  1     0  0
  1  6  1  0     0  0
 27 33  1  1     0  0
 13 18  1  0     0  0
 28 34  1  6     0  0
 14 15  1  0     0  0
 35 34  1  1     0  0
 35 36  1  0     0  0
 15 16  1  0     0  0
 16 17  1  0     0  0
 17 18  1  0     0  0
  2  9  1  6     0  0
 15 19  1  6     0  0
 35 40  1  0     0  0
 36 37  1  0     0  0
 37 38  1  0     0  0
 38 39  1  0     0  0
 39 40  1  0     0  0
  2  3  1  0     0  0
 37 41  1  6     0  0
 14 20  1  1     0  0
 36 42  1  1     0  0
  3 10  1  1     0  0
 39 43  1  1     0  0
 17 21  1  1     0  0
 43 44  1  0     0  0
  3  4  1  0     0  0
 40 45  1  6     0  0
 21 22  1  0     0  0
 46 41  1  1     0  0
 46 47  1  0     0  0
  4 11  1  1     0  0
 18 23  1  6     0  0
 24 25  1  0     0  0
  4  5  1  0     0  0
  5 12  1  6     0  0
 54 57  1  0     0  0
 46 51  1  0     0  0
 57 58  1  0     0  0
 47 48  1  0     0  0
 48 49  1  0     0  0
 49 50  1  0     0  0
 50 51  1  0     0  0
 57 59  2  0     0  0
  5  6  1  0     0  0
 58 60  1  0     0  0
 51 52  1  1     0  0
 60 61  1  0     0  0
 13 12  1  1     0  0
 61 62  2  0     0  0
 50 53  1  6     0  0
 62 63  1  0     0  0
 13 14  1  0     0  0
 63 64  2  0     0  0
 47 54  1  6     0  0
 64 65  1  0     0  0
 65 66  2  0     0  0
 66 61  1  0     0  0
M  END