
  Mrv0541 05251413502D          

 27 30  0  0  0  0            999 V2000
    4.3648    0.1910    0.0000 C   0  0  0  0  0  0  0  0  0  0  0  0
    4.3637   -0.6421    0.0000 C   0  0  0  0  0  0  0  0  0  0  0  0
    5.0763   -1.0538    0.0000 C   0  0  0  0  0  0  0  0  0  0  0  0
    5.0745    0.6020    0.0000 C   0  0  0  0  0  0  0  0  0  0  0  0
    5.7877    0.1874    0.0000 C   0  0  0  0  0  0  0  0  0  0  0  0
    5.7881   -0.6421    0.0000 C   0  0  0  0  0  0  0  0  0  0  0  0
    6.5762   -0.8980    0.0000 C   0  0  0  0  0  0  0  0  0  0  0  0
    7.0631   -0.2275    0.0000 C   0  0  0  0  0  0  0  0  0  0  0  0
    6.5757    0.4463    0.0000 N   0  0  0  0  0  0  0  0  0  0  0  0
    5.0765   -1.8763    0.0000 F   0  0  0  0  0  0  0  0  0  0  0  0
    7.8856   -0.2272    0.0000 C   0  0  0  0  0  0  0  0  0  0  0  0
    3.6509   -1.0528    0.0000 O   0  0  0  0  0  0  0  0  0  0  0  0
    3.6503   -1.8753    0.0000 C   0  0  0  0  0  0  0  0  0  0  0  0
    3.6491   -3.5190    0.0000 N   0  0  0  0  0  0  0  0  0  0  0  0
    4.3641   -3.1038    0.0000 C   0  0  0  0  0  0  0  0  0  0  0  0
    4.3615   -2.2834    0.0000 N   0  0  0  0  0  0  0  0  0  0  0  0
    2.9365   -3.1063    0.0000 N   0  0  0  0  0  0  0  0  0  0  0  0
    2.9380   -2.2804    0.0000 C   0  0  0  0  0  0  0  0  0  0  0  0
    2.1528   -2.0237    0.0000 C   0  0  0  0  0  0  0  0  0  0  0  0
    1.6662   -2.6912    0.0000 C   0  0  0  0  0  0  0  0  0  0  0  0
    2.1505   -3.3601    0.0000 C   0  0  0  0  0  0  0  0  0  0  0  0
    1.9001   -1.2410    0.0000 C   0  0  0  0  0  0  0  0  0  0  0  0
    0.8436   -2.6897    0.0000 O   0  0  0  0  0  0  0  0  0  0  0  0
    0.4336   -1.9767    0.0000 C   0  0  0  0  0  0  0  0  0  0  0  0
   -0.3921   -1.9753    0.0000 C   0  0  1  0  0  0  0  0  0  0  0  0
   -0.8045   -1.2621    0.0000 C   0  0  0  0  0  0  0  0  0  0  0  0
   -0.8021   -2.6869    0.0000 O   0  0  0  0  0  0  0  0  0  0  0  0
  1  2  2  0  0  0  0
  2  3  1  0  0  0  0
  3  6  2  0  0  0  0
  5  4  2  0  0  0  0
  4  1  1  0  0  0  0
  5  6  1  0  0  0  0
  6  7  1  0  0  0  0
  7  8  2  0  0  0  0
  8  9  1  0  0  0  0
  9  5  1  0  0  0  0
  3 10  1  0  0  0  0
  8 11  1  0  0  0  0
  2 12  1  0  0  0  0
 12 13  1  0  0  0  0
 13 18  1  0  0  0  0
 17 14  1  0  0  0  0
 14 15  2  0  0  0  0
 15 16  1  0  0  0  0
 16 13  2  0  0  0  0
 17 18  1  0  0  0  0
 18 19  2  0  0  0  0
 19 20  1  0  0  0  0
 20 21  2  0  0  0  0
 21 17  1  0  0  0  0
 19 22  1  0  0  0  0
 20 23  1  0  0  0  0
 23 24  1  0  0  0  0
 24 25  1  0  0  0  0
 25 26  1  0  0  0  0
 25 27  1  6  0  0  0
M  END