
  SciTegic04301217482D

 39 42  0  0  0  0            999 V2000
    4.2264    0.8630    0.0000 N   0  0
    4.2484    0.0401    0.0000 N   0  0
    4.9707   -0.3509    0.0000 C   0  0
    4.9254    1.3004    0.0000 C   0  0
    4.9923   -1.1721    0.0000 C   0  0
    4.2872   -1.6025    0.0000 C   0  0
    4.3083   -2.4265    0.0000 C   0  0
    5.0338   -2.8211    0.0000 C   0  0
    5.7396   -2.3856    0.0000 C   0  0
    5.7150   -1.5631    0.0000 C   0  0
    5.6525    0.9049    0.0000 C   0  0
    5.6743    0.0809    0.0000 C   0  0
    6.3948   -0.3099    0.0000 C   0  0
    7.0981    0.1187    0.0000 C   0  0
    7.0762    0.9426    0.0000 C   0  0
    6.3511    1.3379    0.0000 C   0  0
    4.9004    2.1250    0.0000 O   0  0
    5.0564   -3.6458    0.0000 O   0  0
    4.3535   -4.0776    0.0000 C   0  0
    6.4659   -2.7768    0.0000 O   0  0
    6.4903   -3.6015    0.0000 C   0  0
   -2.9181    0.8417    0.0000 C   0  0
   -2.9193    0.0143    0.0000 C   0  0
   -2.2044   -0.3985    0.0000 C   0  0
   -1.4880    0.0148    0.0000 C   0  0
   -1.4909    0.8453    0.0000 C   0  0
   -2.2062    1.2545    0.0000 C   0  0
   -3.6327    1.2540    0.0000 N   0  0
   -3.6341   -0.3976    0.0000 O   0  0
   -4.3470    0.8414    0.0000 C   0  0
   -5.0616    1.2537    0.0000 O   0  0
   -0.7779    1.2605    0.0000 C   0  0  2  0  0  0
   -0.0619    0.8507    0.0000 C   0  0
    0.6510    1.2659    0.0000 N   0  0
   -0.7811    2.0855    0.0000 O   0  0
    1.3670    0.8561    0.0000 C   0  0
    2.0799    1.2713    0.0000 C   0  0
    2.7959    0.8615    0.0000 C   0  0
    3.5089    1.2767    0.0000 C   0  0
  8  9  1  0
 18 19  1  0
 11  4  1  0
  9 20  1  0
  9 10  2  0
 20 21  1  0
 10  5  1  0
  3  5  1  0
 22 23  2  0
 11 12  1  0
 23 24  1  0
  1  2  1  0
 24 25  2  0
 25 26  1  0
  5  6  2  0
 26 27  2  0
 27 22  1  0
  1  4  1  0
 22 28  1  0
  6  7  1  0
 23 29  1  0
  2  3  2  0
 28 30  1  0
 11 16  1  0
 30 31  2  0
 12 13  1  0
 26 32  1  0
 13 14  1  0
 32 33  1  0
 14 15  1  0
 33 34  1  0
 15 16  1  0
 32 35  1  1
  7  8  2  0
 34 36  1  0
  4 17  2  0
 36 37  1  0
  3 12  1  0
 37 38  1  0
  8 18  1  0
 38 39  1  0
 39  1  1  0
M  END