
          02060813472D 1   1.00000     0.00000     0

 29 31  0     1  0            999 V2000
    8.9917   -6.8167    0.0000 C   0  0  0  0  0  0           0  0  0
    8.9917   -7.6417    0.0000 O   0  0  0  0  0  0           0  0  0
    9.7037   -8.0500    0.0000 C   0  0  0  0  0  0           0  0  0
   10.4157   -7.6417    0.0000 C   0  0  0  0  0  0           0  0  0
   10.4157   -6.8167    0.0000 N   0  0  3  0  0  0           0  0  0
    9.7037   -6.4000    0.0000 C   0  0  0  0  0  0           0  0  0
   11.1314   -6.4063    0.0000 C   0  0  0  0  0  0           0  0  0
   11.8446   -6.8209    0.0000 C   0  0  0  0  0  0           0  0  0
   11.1338   -5.5813    0.0000 O   0  0  0  0  0  0           0  0  0
   12.5603   -6.4104    0.0000 C   0  0  2  0  0  0           0  0  0
   13.2743   -6.8302    0.0000 C   0  0  0  0  0  0           0  0  0
   13.9878   -6.4233    0.0000 N   0  0  0  0  0  0           0  0  0
   12.5648   -5.5855    0.0000 C   0  0  0  0  0  0           0  0  0
   13.2814   -5.1812    0.0000 C   0  0  3  0  0  0           0  0  0
   13.9948   -5.6018    0.0000 C   0  0  0  0  0  0           0  0  0
   14.7117   -5.1965    0.0000 C   0  0  0  0  0  0           0  0  0
   14.7215   -4.3690    0.0000 C   0  0  0  0  0  0           0  0  0
   14.0081   -3.9484    0.0000 C   0  0  0  0  0  0           0  0  0
   13.2849   -4.3554    0.0000 C   0  0  0  0  0  0           0  0  0
   14.7000   -6.8396    0.0000 C   0  0  3  0  0  0           0  0  0
   15.4167   -6.4310    0.0000 C   0  0  0  0  0  0           0  0  0
   13.2688   -7.6552    0.0000 O   0  0  0  0  0  0           0  0  0
   16.1292   -6.0125    0.0000 N   0  0  0  0  0  0           0  0  0
   15.4125   -7.2500    0.0000 C   0  0  0  0  0  0           0  0  0
   13.9833   -7.2458    0.0000 C   0  0  0  0  0  0           0  0  0
   13.9792   -8.0708    0.0000 C   0  0  0  0  0  0           0  0  0
   15.4083   -8.0750    0.0000 C   0  0  0  0  0  0           0  0  0
   14.6918   -8.4839    0.0000 N   0  0  3  0  0  0           0  0  0
   14.6890   -9.3089    0.0000 C   0  0  0  0  0  0           0  0  0
  5  7  1  0     0  0
  1  2  1  0     0  0
  7  8  1  0     0  0
  1  6  1  0     0  0
  7  9  2  0     0  0
 14 19  1  0     0  0
 15 16  1  0     0  0
 16 17  1  0     0  0
 17 18  1  0     0  0
 18 19  1  0     0  0
  2  3  1  0     0  0
 20 12  1  0     0  0
  8 10  1  0     0  0
 20 21  1  0     0  0
 10 11  1  0     0  0
 11 22  2  0     0  0
  3  4  1  0     0  0
 21 23  3  0     0  0
  4  5  1  0     0  0
 20 24  1  0     0  0
 11 12  1  0     0  0
 20 25  1  0     0  0
 14 13  1  0     0  0
 25 26  1  0     0  0
 26 28  1  0     0  0
  5  6  1  0     0  0
 24 27  1  0     0  0
 10 13  1  1     0  0
 27 28  1  0     0  0
 14 15  1  0     0  0
 28 29  1  0     0  0
M  END