
  CDK    9/16/09,10:4

 27 29  0  0  0  0  0  0  0  0999 V2000
    9.2167    3.1000    0.0000 C   0  0  0  0  0  0  0  0  0  0  0  0
    9.9311    3.5125    0.0000 N   0  0  0  0  0  0  0  0  0  0  0  0
    8.5022    3.5125    0.0000 N   0  0  0  0  0  0  0  0  0  0  0  0
    9.2167    2.2750    0.0000 S   0  0  0  0  0  0  0  0  0  0  0  0
    7.7877    3.1000    0.0000 C   0  0  0  0  0  0  0  0  0  0  0  0
    7.0738    3.5156    0.0000 C   0  0  0  0  0  0  0  0  0  0  0  0
    6.3598    3.1038    0.0000 C   0  0  0  0  0  0  0  0  0  0  0  0
    6.3594    2.2779    0.0000 C   0  0  0  0  0  0  0  0  0  0  0  0
    7.0789    1.8656    0.0000 C   0  0  0  0  0  0  0  0  0  0  0  0
    7.7899    2.2798    0.0000 C   0  0  0  0  0  0  0  0  0  0  0  0
   10.6456    3.1000    0.0000 C   0  0  0  0  0  0  0  0  0  0  0  0
   10.6431    2.2739    0.0000 C   0  0  0  0  0  0  0  0  0  0  0  0
   11.3567    1.8615    0.0000 C   0  0  0  0  0  0  0  0  0  0  0  0
   11.3553    3.5120    0.0000 C   0  0  0  0  0  0  0  0  0  0  0  0
   12.0695    3.1033    0.0000 C   0  0  0  0  0  0  0  0  0  0  0  0
   12.0731    2.2755    0.0000 C   0  0  0  0  0  0  0  0  0  0  0  0
   12.7886    1.8648    0.0000 S   0  0  0  0  0  0  0  0  0  0  0  0
   13.5000    1.4542    0.0000 N   0  0  0  0  0  0  0  0  0  0  0  0
   13.2002    2.5798    0.0000 O   0  0  0  0  0  0  0  0  0  0  0  0
   12.3802    1.1480    0.0000 O   0  0  0  0  0  0  0  0  0  0  0  0
   13.5001    0.6292    0.0000 C   0  0  0  0  0  0  0  0  0  0  0  0
   12.8356    0.1406    0.0000 N   0  0  0  0  0  0  0  0  0  0  0  0
   13.0906   -0.6440    0.0000 O   0  0  0  0  0  0  0  0  0  0  0  0
   13.9157   -0.6439    0.0000 C   0  0  0  0  0  0  0  0  0  0  0  0
   14.1704    0.1407    0.0000 C   0  0  0  0  0  0  0  0  0  0  0  0
   14.4007   -1.3113    0.0000 C   0  0  0  0  0  0  0  0  0  0  0  0
    7.0818    1.0406    0.0000 F   0  0  0  0  0  0  0  0  0  0  0  0
 13 16  2  0  0  0  0 
  6  7  1  0  0  0  0 
 15 14  2  0  0  0  0 
 14 11  1  0  0  0  0 
 15 16  1  0  0  0  0 
  1  4  2  0  0  0  0 
  7  8  2  0  0  0  0 
 16 17  1  0  0  0  0 
  8  9  1  0  0  0  0 
 17 18  1  0  0  0  0 
  3  5  1  0  0  0  0 
 17 19  2  0  0  0  0 
  9 10  2  0  0  0  0 
 17 20  2  0  0  0  0 
 10  5  1  0  0  0  0 
 18 21  1  0  0  0  0 
 21 22  2  0  0  0  0 
  1  3  1  0  0  0  0 
  2 11  1  0  0  0  0 
  5  6  2  0  0  0  0 
 11 12  2  0  0  0  0 
 22 23  1  0  0  0  0 
 23 24  1  0  0  0  0 
 24 25  2  0  0  0  0 
 25 21  1  0  0  0  0 
  1  2  1  0  0  0  0 
 24 26  1  0  0  0  0 
 12 13  1  0  0  0  0 
  9 27  1  0  0  0  0 
M  END