
          05080814032D 1   1.00000     0.00000     0

 29 33  0     1  0            999 V2000
   -5.7467  -16.6444    0.0000 C   0  0  0  0  0  0           0  0  0
   -5.7467  -17.4739    0.0000 C   0  0  0  0  0  0           0  0  0
   -5.0324  -17.8864    0.0000 N   0  0  3  0  0  0           0  0  0
   -4.3134  -17.4739    0.0000 C   0  0  0  0  0  0           0  0  0
   -4.3134  -16.6444    0.0000 C   0  0  0  0  0  0           0  0  0
   -5.0324  -16.2275    0.0000 O   0  0  0  0  0  0           0  0  0
   -5.0335  -18.7113    0.0000 C   0  0  0  0  0  0           0  0  0
   -4.3197  -19.1247    0.0000 C   0  0  0  0  0  0           0  0  0
   -4.3209  -19.9496    0.0000 C   0  0  0  0  0  0           0  0  0
   -3.6071  -20.3630    0.0000 O   0  0  0  0  0  0           0  0  0
   -2.8921  -19.9516    0.0000 C   0  0  0  0  0  0           0  0  0
   -2.1809  -20.3663    0.0000 C   0  0  0  0  0  0           0  0  0
   -2.1836  -18.7164    0.0000 C   0  0  0  0  0  0           0  0  0
   -2.8951  -19.1296    0.0000 C   0  0  0  0  0  0           0  0  0
   -1.4649  -19.1297    0.0000 C   0  0  0  0  0  0           0  0  0
   -1.4664  -19.9577    0.0000 C   0  0  0  0  0  0           0  0  0
   -0.0340  -19.1325    0.0000 C   0  0  0  0  0  0           0  0  0
   -0.7509  -18.7149    0.0000 C   0  0  1  0  0  0           0  0  0
   -0.0356  -19.9606    0.0000 N   0  0  3  0  0  0           0  0  0
   -0.7544  -20.3664    0.0000 C   0  0  2  0  0  0           0  0  0
   -0.5904  -21.1754    0.0000 C   0  0  0  0  0  0           0  0  0
    0.2296  -21.2695    0.0000 C   0  0  0  0  0  0           0  0  0
    0.5724  -20.5186    0.0000 C   0  0  0  0  0  0           0  0  0
   -0.7504  -17.8900    0.0000 C   0  0  0  0  0  0           0  0  0
   -1.4711  -20.7735    0.0000 H   0  0  0  0  0  0           0  0  0
   -0.0859  -17.4033    0.0000 S   0  0  0  0  0  0           0  0  0
   -0.3403  -16.6186    0.0000 C   0  0  0  0  0  0           0  0  0
   -1.1653  -16.6181    0.0000 C   0  0  0  0  0  0           0  0  0
   -1.4205  -17.4025    0.0000 C   0  0  0  0  0  0           0  0  0
 13 14  2  0     0  0
 14 11  1  0     0  0
 15 16  2  0     0  0
  3  7  1  0     0  0
  1  2  1  0     0  0
  7  8  1  0     0  0
  1  6  1  0     0  0
 15 18  1  0     0  0
 16 20  1  0     0  0
 19 17  1  0     0  0
 17 18  1  0     0  0
 19 20  1  0     0  0
  8  9  1  0     0  0
  2  3  1  0     0  0
  9 10  1  0     0  0
  3  4  1  0     0  0
 10 11  1  0     0  0
 20 21  1  0     0  0
 21 22  1  0     0  0
 22 23  1  0     0  0
 23 19  1  0     0  0
  4  5  1  0     0  0
 18 24  1  6     0  0
 11 12  2  0     0  0
 20 25  1  1     0  0
 24 26  1  0     0  0
 12 16  1  0     0  0
  5  6  1  0     0  0
 15 13  1  0     0  0
 26 27  1  0     0  0
 27 28  2  0     0  0
 28 29  1  0     0  0
 29 24  2  0     0  0
M  END