
          11280715152D 1   1.00000     0.00000     0

 31 34  0     0  0            999 V2000
    1.7042   -6.4792    0.0000 O   0  0  0  0  0  0           0  0  0
    2.6167   -5.6417    0.0000 C   0  0  3  0  0  0           0  0  0
    2.8542   -4.7625    0.0000 C   0  0  3  0  0  0           0  0  0
    1.2542   -5.6875    0.0000 C   0  0  3  0  0  0           0  0  0
    2.0625   -5.2250    0.0000 C   0  0  3  0  0  0           0  0  0
    4.4542   -6.2542    0.0000 C   0  0  0  0  0  0           0  0  0
    3.4125   -6.2542    0.0000 N   0  0  0  0  0  0           0  0  0
    3.4417   -4.6417    0.0000 C   0  0  0  0  0  0           0  0  0
    4.9667   -6.5542    0.0000 N   0  0  0  0  0  0           0  0  0
    6.2417   -4.2750    0.0000 C   0  0  0  0  0  0           0  0  0
    3.9292   -6.5542    0.0000 N   0  0  0  0  0  0           0  0  0
    2.8917   -6.5542    0.0000 C   0  0  0  0  0  0           0  0  0
    4.4542   -5.6542    0.0000 O   0  0  0  0  0  0           0  0  0
    1.0917   -5.1042    0.0000 C   0  0  0  0  0  0           0  0  0
    1.7542   -4.7042    0.0000 C   0  0  0  0  0  0           0  0  0
    6.2292   -3.6667    0.0000 O   0  0  0  0  0  0           0  0  0
    5.2042   -4.2792    0.0000 C   0  0  0  0  0  0           0  0  0
    5.7250   -4.5750    0.0000 C   0  0  0  0  0  0           0  0  0
    3.6375   -4.0667    0.0000 C   0  0  0  0  0  0           0  0  0
    4.6167   -4.4000    0.0000 C   0  0  0  0  0  0           0  0  0
    5.4917   -6.2542    0.0000 C   0  0  0  0  0  0           0  0  0
    6.7625   -4.5667    0.0000 O   0  0  0  0  0  0           0  0  0
    4.2250   -3.9500    0.0000 C   0  0  0  0  0  0           0  0  0
    4.9917   -3.2625    0.0000 C   0  0  0  0  0  0           0  0  0
    5.3917   -3.7125    0.0000 C   0  0  0  0  0  0           0  0  0
    4.4042   -3.3792    0.0000 C   0  0  0  0  0  0           0  0  0
    5.4875   -5.6542    0.0000 C   0  0  0  0  0  0           0  0  0
    6.0042   -6.5542    0.0000 C   0  0  0  0  0  0           0  0  0
    6.5292   -6.2542    0.0000 C   0  0  0  0  0  0           0  0  0
    6.0042   -5.3542    0.0000 C   0  0  0  0  0  0           0  0  0
    6.5292   -5.6542    0.0000 C   0  0  0  0  0  0           0  0  0
  2  4  1  0     0  0
  3  5  1  0     0  0
  4  1  1  0     0  0
  5  1  1  0     0  0
  6 11  1  0     0  0
  7 12  2  0     0  0
  8  3  1  0     0  0
  9  6  1  0     0  0
 10 18  1  0     0  0
 11  7  1  0     0  0
 12  2  1  0     0  0
 13  6  2  0     0  0
 14  4  1  0     0  0
 15  5  1  0     0  0
 16 10  2  0     0  0
 17 20  1  0     0  0
 18 17  1  0     0  0
 19  8  1  0     0  0
 20 23  2  0     0  0
 21  9  1  0     0  0
 22 10  1  0     0  0
 23 19  1  0     0  0
 24 26  2  0     0  0
 25 24  1  0     0  0
 26 23  1  0     0  0
 27 21  1  0     0  0
 28 21  2  0     0  0
 29 28  1  0     0  0
 30 27  2  0     0  0
 31 29  2  0     0  0
 14 15  1  0     0  0
  3  2  1  0     0  0
 17 25  2  0     0  0
 31 30  1  0     0  0
M  END