
  SciTegic02271515152D

 33 36  0  0  0  0            999 V2000
   12.4215  -14.0160    0.0000 C   0  0
   12.4204  -14.8356    0.0000 C   0  0
   13.1284  -15.2445    0.0000 C   0  0
   13.8381  -14.8351    0.0000 C   0  0
   13.8353  -14.0124    0.0000 C   0  0
   13.1267  -13.6072    0.0000 C   0  0
   11.7137  -13.6076    0.0000 C   0  0
   11.0061  -14.0164    0.0000 N   0  0
   14.5424  -15.2406    0.0000 C   0  0
   14.6292  -16.0532    0.0000 C   0  0
   15.4288  -16.2219    0.0000 N   0  0
   15.8363  -15.5135    0.0000 C   0  0
   15.2885  -14.9071    0.0000 S   0  0
   10.2983  -13.6079    0.0000 C   0  0
    9.5907  -14.0167    0.0000 O   0  0
   10.2981  -12.7908    0.0000 C   0  0  2  0  0  0
   10.9645  -12.3113    0.0000 C   0  0
   10.7118  -11.5342    0.0000 C   0  0  2  0  0  0
    9.8946  -11.5344    0.0000 C   0  0
    9.6423  -12.3116    0.0000 N   0  0
    8.8649  -12.5633    0.0000 C   0  0
    8.6941  -13.3624    0.0000 O   0  0
   11.1920  -10.8729    0.0000 O   0  0
   14.0227  -16.6010    0.0000 C   0  0
    8.2581  -12.0142    0.0000 C   0  0  2  0  0  0
    8.4309  -11.2178    0.0000 C   0  0
    7.8281  -10.6697    0.0000 C   0  0
    7.0475  -10.9167    0.0000 C   0  0
    6.8733  -11.7172    0.0000 C   0  0
    7.4796  -12.2708    0.0000 N   0  0
    7.3086  -13.0699    0.0000 C   0  0
    6.5310  -13.3213    0.0000 O   0  0
    7.9151  -13.6175    0.0000 C   0  0
  1  2  2  0
  2  3  1  0
  3  4  2  0
  4  5  1  0
  5  6  2  0
  6  1  1  0
  1  7  1  0
  7  8  1  0
  9 10  2  0
 10 11  1  0
 11 12  2  0
 12 13  1  0
 13  9  1  0
  4  9  1  0
  8 14  1  0
 14 15  2  0
 16 14  1  1
 16 17  1  0
 17 18  1  0
 18 19  1  0
 19 20  1  0
 20 16  1  0
 20 21  1  0
 25 21  1  1
 21 22  2  0
 18 23  1  6
 10 24  1  0
 25 26  1  0
 25 30  1  0
 26 27  1  0
 27 28  1  0
 28 29  1  0
 29 30  1  0
 30 31  1  0
 31 32  2  0
 31 33  1  0
M  END