
          05270816392D 1   1.00000     0.00000     0

 34 39  0     1  0            999 V2000
   -3.9158   -9.7670    0.0000 C   0  0  0  0  0  0           0  0  0
   -3.9170  -10.5901    0.0000 C   0  0  0  0  0  0           0  0  0
   -2.4925   -9.7631    0.0000 C   0  0  0  0  0  0           0  0  0
   -3.2015   -9.3543    0.0000 C   0  0  0  0  0  0           0  0  0
   -2.4893  -10.5896    0.0000 C   0  0  0  0  0  0           0  0  0
   -3.2007  -11.0041    0.0000 C   0  0  0  0  0  0           0  0  0
   -3.2020  -11.8263    0.0000 C   0  0  0  0  0  0           0  0  0
   -2.4891  -12.2401    0.0000 C   0  0  0  0  0  0           0  0  0
   -4.5329  -11.1422    0.0000 N   0  0  0  0  0  0           0  0  0
   -3.9865  -12.0808    0.0000 C   0  0  0  0  0  0           0  0  0
   -1.7746  -11.0018    0.0000 C   0  0  2  0  0  0           0  0  0
   -1.7738  -11.8297    0.0000 C   0  0  2  0  0  0           0  0  0
   -1.0604  -12.2405    0.0000 N   0  0  3  0  0  0           0  0  0
   -0.3432  -11.8281    0.0000 C   0  0  0  0  0  0           0  0  0
   -0.3441  -11.0003    0.0000 C   0  0  1  0  0  0           0  0  0
   -1.0621  -10.5848    0.0000 C   0  0  0  0  0  0           0  0  0
   -1.7829  -12.6501    0.0000 H   0  0  0  0  0  0           0  0  0
   -1.7829  -10.1750    0.0000 H   0  0  0  0  0  0           0  0  0
   -1.0606  -13.0655    0.0000 C   0  0  0  0  0  0           0  0  0
    0.3704  -10.5878    0.0000 C   0  0  0  0  0  0           0  0  0
    0.3704   -9.7628    0.0000 O   0  0  0  0  0  0           0  0  0
    1.0848  -11.0003    0.0000 N   0  0  3  0  0  0           0  0  0
    1.0798  -11.8305    0.0000 C   0  0  0  0  0  0           0  0  0
    1.7901  -12.2429    0.0000 C   0  0  0  0  0  0           0  0  0
    2.5070  -11.8340    0.0000 N   0  0  3  0  0  0           0  0  0
    2.5089  -11.0080    0.0000 C   0  0  0  0  0  0           0  0  0
    1.7940  -10.5911    0.0000 C   0  0  0  0  0  0           0  0  0
    3.2199  -12.2491    0.0000 C   0  0  0  0  0  0           0  0  0
    3.2119  -13.0730    0.0000 C   0  0  0  0  0  0           0  0  0
    3.9239  -13.4881    0.0000 C   0  0  0  0  0  0           0  0  0
    4.6409  -13.0782    0.0000 C   0  0  0  0  0  0           0  0  0
    4.6414  -12.2490    0.0000 C   0  0  0  0  0  0           0  0  0
    3.9288  -11.8376    0.0000 N   0  0  0  0  0  0           0  0  0
   -4.2809  -12.8515    0.0000 O   0  0  0  0  0  0           0  0  0
 14 15  1  0     0  0
 15 16  1  0     0  0
  6  7  1  0     0  0
 12 17  1  1     0  0
  7  8  1  0     0  0
 11 18  1  6     0  0
  8 12  1  0     0  0
 13 19  1  0     0  0
  3  4  2  0     0  0
 15 20  1  1     0  0
  2  9  1  0     0  0
 20 21  2  0     0  0
  4  1  1  0     0  0
 20 22  1  0     0  0
 22 23  1  0     0  0
  7 10  2  0     0  0
  9 10  1  0     0  0
 11 12  1  0     0  0
  5  6  2  0     0  0
  2  6  1  0     0  0
 22 27  1  0     0  0
 23 24  1  0     0  0
 24 25  1  0     0  0
 25 26  1  0     0  0
 26 27  1  0     0  0
 25 28  1  0     0  0
  5  3  1  0     0  0
 28 29  2  0     0  0
  1  2  2  0     0  0
 29 30  1  0     0  0
  5 11  1  0     0  0
 30 31  2  0     0  0
 11 16  1  0     0  0
 31 32  1  0     0  0
 12 13  1  0     0  0
 32 33  2  0     0  0
 33 28  1  0     0  0
 13 14  1  0     0  0
 10 34  1  0     0  0
M  END