
          11280714582D 1   1.00000     0.00000     0

 21 21  0     0  0            999 V2000
    4.8667   -0.4667    0.0000 S   0  0  3  0  0  0           0  0  0
    4.8667   -3.7667    0.0000 C   0  0  0  0  0  0           0  0  0
    4.8667   -1.2917    0.0000 C   0  0  0  0  0  0           0  0  0
    5.5875   -4.1792    0.0000 N   0  0  0  0  0  0           0  0  0
    5.6917   -0.4667    0.0000 O   0  0  0  0  0  0           0  0  0
    4.0417   -0.4667    0.0000 O   0  0  0  0  0  0           0  0  0
    6.3000   -5.4167    0.0000 C   0  0  0  0  0  0           0  0  0
    4.8667   -2.9417    0.0000 C   0  0  0  0  0  0           0  0  0
    4.8667   -6.2500    0.0000 C   0  0  0  0  0  0           0  0  0
    4.8667    0.3583    0.0000 N   0  0  0  0  0  0           0  0  0
    6.3000   -6.2500    0.0000 N   0  0  0  0  0  0           0  0  0
    4.1542   -4.1792    0.0000 O   0  0  0  0  0  0           0  0  0
    7.0125   -5.0042    0.0000 O   0  0  0  0  0  0           0  0  0
    4.8667   -5.4167    0.0000 O   0  0  0  0  0  0           0  0  0
    5.5875   -1.7042    0.0000 C   0  0  0  0  0  0           0  0  0
    4.1542   -1.7042    0.0000 C   0  0  0  0  0  0           0  0  0
    4.1542   -2.5292    0.0000 C   0  0  0  0  0  0           0  0  0
    5.5875   -2.5292    0.0000 C   0  0  0  0  0  0           0  0  0
    5.5875   -5.0042    0.0000 C   0  0  0  0  0  0           0  0  0
    5.5875   -6.6625    0.0000 C   0  0  0  0  0  0           0  0  0
    4.1542   -6.6625    0.0000 O   0  0  0  0  0  0           0  0  0
  2  8  1  0     0  0
  3  1  1  0     0  0
  4  2  1  0     0  0
  5  1  2  0     0  0
  6  1  2  0     0  0
  7 19  1  0     0  0
  8 17  1  0     0  0
  9 20  1  0     0  0
 10  1  1  0     0  0
 11  7  1  0     0  0
 12  2  2  0     0  0
 13  7  2  0     0  0
 14  9  2  0     0  0
 15  3  2  0     0  0
 16  3  1  0     0  0
 17 16  2  0     0  0
 18 15  1  0     0  0
 19  4  1  0     0  0
 20 11  1  0     0  0
 21  9  1  0     0  0
 18  8  2  0     0  0
M  END