
  SciTegic11161111432D

 33 38  0  0  0  0            999 V2000
   18.8382   -8.0349    0.0000 C   0  0
   19.6632   -8.0355    0.0000 C   0  0  2  0  0  0
   20.0722   -8.7544    0.0000 C   0  0  1  0  0  0
   19.6557   -9.4663    0.0000 C   0  0  2  0  0  0
   20.0601  -10.1798    0.0000 C   0  0  2  0  0  0
   20.8827  -10.1877    0.0000 C   0  0  1  0  0  0
   21.2991   -9.4759    0.0000 C   0  0
   20.8931   -8.7561    0.0000 C   0  0
   18.8279   -9.4634    0.0000 C   0  0
   18.4205   -8.7509    0.0000 C   0  0
   17.6026   -8.7463    0.0000 C   0  0
   17.1856   -9.4526    0.0000 C   0  0
   17.5929  -10.1691    0.0000 C   0  0
   18.4172  -10.1754    0.0000 C   0  0
   19.1286  -10.5886    0.0000 O   0  0
   20.0799   -7.3188    0.0000 N   0  0
   19.0689   -8.8782    0.0000 C   0  0
   19.0729   -7.6849    0.0000 C   0  0
   20.4810   -8.0349    0.0000 O   0  0
   21.2904  -10.9055    0.0000 N   0  0
   17.1744  -10.8807    0.0000 O   0  0
   20.0554  -11.0062    0.0000 H   0  0
   22.1177  -10.9124    0.0000 C   0  0
   22.5254  -11.6341    0.0000 C   0  0
   22.5372  -10.2015    0.0000 O   0  0
   22.1048  -12.3415    0.0000 C   0  0
   22.5118  -13.0627    0.0000 C   0  0
   23.3440  -13.0700    0.0000 C   0  0
   23.7635  -12.3500    0.0000 C   0  0
   23.3500  -11.6357    0.0000 C   0  0
   22.0919  -13.7775    0.0000 I   0  0
   20.7159   -6.7911    0.0000 C   0  0
   20.3776   -7.6173    0.0000 H   0  0
  5 15  1  0
  4  5  1  0
  2 16  1  0
  5  6  1  0
  4 17  1  1
  6  7  1  0
 17 18  1  0
 18 16  1  0
  7  8  1  0
  3 19  1  1
  9 10  2  0
  6 20  1  1
 13 21  1  0
  1 10  1  0
  5 22  1  1
  1  2  1  0
 20 23  1  0
  9  4  1  0
 23 24  1  0
  3  2  1  0
 23 25  2  0
  3  4  1  0
 24 26  2  0
  9 14  1  0
 26 27  1  0
 10 11  1  0
 27 28  2  0
 11 12  2  0
 28 29  1  0
 12 13  1  0
 29 30  2  0
 30 24  1  0
 13 14  2  0
 27 31  1  0
  3  8  1  0
 16 32  1  0
 14 15  1  0
  2 33  1  6
M  ISO  1  31 125
M  END