
          05270816392D 1   1.00000     0.00000     0

 33 38  0     1  0            999 V2000
   -4.7866  -22.3763    0.0000 C   0  0  0  0  0  0           0  0  0
   -4.7880  -23.1993    0.0000 C   0  0  0  0  0  0           0  0  0
   -3.3633  -22.3723    0.0000 C   0  0  0  0  0  0           0  0  0
   -4.0724  -21.9635    0.0000 C   0  0  0  0  0  0           0  0  0
   -3.3602  -23.1989    0.0000 C   0  0  0  0  0  0           0  0  0
   -4.0716  -23.6133    0.0000 C   0  0  0  0  0  0           0  0  0
   -4.0729  -24.4355    0.0000 C   0  0  0  0  0  0           0  0  0
   -3.3599  -24.8493    0.0000 C   0  0  0  0  0  0           0  0  0
   -5.4039  -23.7514    0.0000 N   0  0  0  0  0  0           0  0  0
   -4.8574  -24.6900    0.0000 C   0  0  0  0  0  0           0  0  0
   -2.6454  -23.6110    0.0000 C   0  0  2  0  0  0           0  0  0
   -2.6447  -24.4389    0.0000 C   0  0  2  0  0  0           0  0  0
   -1.9312  -24.8498    0.0000 N   0  0  0  0  0  0           0  0  0
   -1.2141  -24.4374    0.0000 C   0  0  0  0  0  0           0  0  0
   -1.2150  -23.6095    0.0000 C   0  0  1  0  0  0           0  0  0
   -1.9330  -23.1940    0.0000 C   0  0  0  0  0  0           0  0  0
   -2.6538  -25.2593    0.0000 H   0  0  0  0  0  0           0  0  0
   -2.6538  -22.7843    0.0000 H   0  0  0  0  0  0           0  0  0
   -0.5005  -23.1970    0.0000 C   0  0  0  0  0  0           0  0  0
   -0.5005  -22.3720    0.0000 O   0  0  0  0  0  0           0  0  0
    0.2140  -23.6095    0.0000 N   0  0  3  0  0  0           0  0  0
    0.2089  -24.4398    0.0000 C   0  0  0  0  0  0           0  0  0
    0.9193  -24.8522    0.0000 C   0  0  0  0  0  0           0  0  0
    1.6362  -24.4432    0.0000 N   0  0  3  0  0  0           0  0  0
    1.6382  -23.6172    0.0000 C   0  0  0  0  0  0           0  0  0
    0.9231  -23.2003    0.0000 C   0  0  0  0  0  0           0  0  0
    2.3491  -24.8583    0.0000 C   0  0  0  0  0  0           0  0  0
    2.3411  -25.6823    0.0000 C   0  0  0  0  0  0           0  0  0
    3.0531  -26.0974    0.0000 C   0  0  0  0  0  0           0  0  0
    3.7702  -25.6874    0.0000 C   0  0  0  0  0  0           0  0  0
    3.7707  -24.8582    0.0000 C   0  0  0  0  0  0           0  0  0
    3.0580  -24.4468    0.0000 N   0  0  0  0  0  0           0  0  0
   -5.1519  -25.4607    0.0000 Br  0  0  0  0  0  0           0  0  0
 13 14  1  0     0  0
 14 15  1  0     0  0
 15 16  1  0     0  0
  6  7  1  0     0  0
 12 17  1  1     0  0
  7  8  1  0     0  0
 11 18  1  6     0  0
  8 12  1  0     0  0
 15 19  1  1     0  0
  3  4  2  0     0  0
 19 20  2  0     0  0
  2  9  1  0     0  0
 19 21  1  0     0  0
 21 22  1  0     0  0
  4  1  1  0     0  0
  7 10  2  0     0  0
  9 10  1  0     0  0
 11 12  1  0     0  0
  5  6  2  0     0  0
 21 26  1  0     0  0
 22 23  1  0     0  0
 23 24  1  0     0  0
 24 25  1  0     0  0
 25 26  1  0     0  0
  2  6  1  0     0  0
 24 27  1  0     0  0
 27 28  2  0     0  0
  5  3  1  0     0  0
 28 29  1  0     0  0
  1  2  2  0     0  0
 29 30  2  0     0  0
  5 11  1  0     0  0
 30 31  1  0     0  0
 11 16  1  0     0  0
 31 32  2  0     0  0
 32 27  1  0     0  0
 12 13  1  0     0  0
 10 33  1  0     0  0
M  END