
          11280714442D 1   1.00000     0.00000     0

 17 17  0     0  0            999 V2000
    5.0917   -1.0500    0.0000 C   0  0  0  0  0  0           0  0  0
    5.8250   -1.4292    0.0000 O   0  0  0  0  0  0           0  0  0
    8.6792   -1.3000    0.0000 N   0  0  0  0  0  0           0  0  0
    5.0542   -0.2292    0.0000 O   0  0  0  0  0  0           0  0  0
    9.3750   -0.8542    0.0000 C   0  0  3  0  0  0           0  0  0
    4.4000   -1.4917    0.0000 C   0  0  3  0  0  0           0  0  0
    7.2542   -1.3667    0.0000 C   0  0  3  0  0  0           0  0  0
    6.5167   -0.9875    0.0000 C   0  0  0  0  0  0           0  0  0
    7.9500   -0.9167    0.0000 C   0  0  0  0  0  0           0  0  0
    7.2917   -2.1917    0.0000 O   0  0  0  0  0  0           0  0  0
   10.1042   -1.2375    0.0000 C   0  0  0  0  0  0           0  0  0
    9.3417   -0.0292    0.0000 C   0  0  0  0  0  0           0  0  0
    9.6250   -1.6417    0.0000 C   0  0  0  0  0  0           0  0  0
    3.6292   -1.1917    0.0000 C   0  0  0  0  0  0           0  0  0
    4.3500   -2.3167    0.0000 C   0  0  0  0  0  0           0  0  0
    3.5542   -2.5292    0.0000 C   0  0  0  0  0  0           0  0  0
    3.1042   -1.8292    0.0000 C   0  0  0  0  0  0           0  0  0
  2  1  1  0     0  0
  3  9  1  0     0  0
  4  1  2  0     0  0
  5  3  1  0     0  0
  6  1  1  0     0  0
  7  8  1  0     0  0
  8  2  1  0     0  0
  9  7  1  0     0  0
 10  7  1  0     0  0
 11  5  1  0     0  0
 12  5  1  0     0  0
 13  5  1  0     0  0
 14  6  1  0     0  0
 15  6  1  0     0  0
 16 15  1  0     0  0
 17 14  1  0     0  0
 16 17  1  0     0  0
M  END