
  SciTegic01161211252D

 54 60  0  0  0  0            999 V2000
   15.3024  -15.0157    0.0000 C   0  0
   15.7103  -14.3007    0.0000 C   0  0
   15.2954  -13.5876    0.0000 C   0  0
   15.7033  -12.8725    0.0000 C   0  0
   16.5283  -12.8669    0.0000 C   0  0
   16.9434  -13.5800    0.0000 C   0  0
   16.5354  -14.2951    0.0000 C   0  0
   16.9504  -15.0081    0.0000 O   0  0
   16.5424  -15.7232    0.0000 C   0  0
   16.9574  -16.4363    0.0000 C   0  0
   16.5494  -17.1513    0.0000 C   0  0
   15.7244  -17.1570    0.0000 C   0  0
   15.3094  -16.4439    0.0000 C   0  0
   15.7173  -15.7288    0.0000 C   0  0
    8.1613  -13.0620    0.0000 C   0  0  2  0  0  0
    8.4210  -13.8279    0.0000 C   0  0
    9.2470  -13.8100    0.0000 C   0  0  1  0  0  0
    9.4847  -13.0228    0.0000 O   0  0
    8.7981  -12.5409    0.0000 N   0  0
    9.9855  -14.1760    0.0000 C   0  0
    9.1773  -14.6348    0.0000 H   0  0
    7.4367  -13.4614    0.0000 C   0  0
    7.4380  -14.2941    0.0000 C   0  0
    6.7139  -14.6899    0.0000 C   0  0
    8.1485  -14.6987    0.0000 C   0  0
    7.7242  -12.3442    0.0000 C   0  0
    6.9028  -12.2622    0.0000 C   0  0
    8.7913  -11.7268    0.0000 C   0  0
    9.4978  -11.3009    0.0000 C   0  0
   10.2183  -11.6996    0.0000 C   0  0
   10.1864  -10.0493    0.0000 C   0  0
    9.4799  -10.4751    0.0000 C   0  0
   11.4104  -14.0777    0.0000 C   0  0
   11.3598  -14.8996    0.0000 S   0  0
   12.8115  -14.0240    0.0000 C   0  0
   12.8187  -14.8474    0.0000 C   0  0
   13.5327  -15.2524    0.0000 C   0  0
   14.2426  -14.8367    0.0000 C   0  0
   14.2381  -14.0100    0.0000 C   0  0
   13.5209  -13.6023    0.0000 C   0  0
   13.5405  -16.0818    0.0000 C   0  0
   14.1752  -16.6061    0.0000 O   0  0
   10.9108  -10.4494    0.0000 C   0  0
   10.9241  -11.2713    0.0000 C   0  0
   11.6413  -11.6687    0.0000 C   0  0
   12.3457  -11.2456    0.0000 C   0  0
   12.3283  -10.4207    0.0000 C   0  0
   11.6106  -10.0270    0.0000 C   0  0
   10.6695  -13.7148    0.0000 N   0  0
    6.5628  -11.5111    0.0000 O   0  0
   12.0943  -13.6163    0.0000 N   0  0
   12.7966  -16.4317    0.0000 O   0  0
   16.9359  -12.1517    0.0000 O   0  0
   16.9644  -17.8644    0.0000 O   0  0
 11 12  1  0
 12 13  2  0
 13 14  1  0
  9 14  1  0
  1 14  2  0
 15 16  1  0
 16 17  1  0
 17 18  1  0
 18 19  1  0
 19 15  1  0
 17 20  1  1
 17 21  1  6
 15 22  1  1
 22 23  1  0
 23 24  1  0
 23 25  1  0
 15 26  1  6
 26 27  1  0
 19 28  1  0
 28 29  1  0
 29 30  2  0
 30 44  1  0
 43 31  1  0
 31 32  2  0
 32 29  1  0
 33 34  2  0
 35 36  2  0
 36 37  1  0
 37 38  2  0
 38 39  1  0
 39 40  2  0
 40 35  1  0
 38  1  1  0
 37 41  1  0
 41 42  2  0
  1  2  1  0
 43 44  1  0
  2  3  1  0
 44 45  2  0
  3  4  2  0
 45 46  1  0
  4  5  1  0
 46 47  2  0
  5  6  2  0
 47 48  1  0
 48 43  2  0
  6  7  1  0
  2  7  2  0
  7  8  1  0
  8  9  1  0
  9 10  2  0
 10 11  1  0
 33 51  1  0
 51 35  1  0
 41 52  1  0
 27 50  1  0
  5 53  1  0
 20 49  1  0
 49 33  1  0
 11 54  2  0
M  END