
  SciTegic12011114592D

 29 33  0  0  0  0            999 V2000
    4.9958   -0.8838    0.0000 N   0  0
    5.7115   -0.4737    0.0000 C   0  0
    5.7144    0.3529    0.0000 N   0  0
    4.9955    0.7677    0.0000 C   0  0
    4.9950    1.5934    0.0000 N   0  0
    5.7102    2.0069    0.0000 C   0  0
    6.4253   -0.8890    0.0000 S   0  0
    7.1418   -0.4786    0.0000 C   0  0
    7.8512   -0.8970    0.0000 C   0  0
    8.5673   -0.4872    0.0000 C   0  0
    8.5706    0.3393    0.0000 C   0  0
    7.8518    0.7545    0.0000 C   0  0
    7.1387    0.3424    0.0000 C   0  0
    9.2865    0.7507    0.0000 N   0  0
   10.0008    0.3364    0.0000 C   0  0
   10.7167    0.7478    0.0000 C   0  0
    9.9991   -0.4893    0.0000 O   0  0
   11.5392    0.7493    0.0000 C   0  0
   11.1279    1.4652    0.0000 C   0  0
    6.4966    1.7585    0.0000 C   0  0
    6.9762    2.4308    0.0000 C   0  0
    6.4850    3.0946    0.0000 N   0  0
    5.7019    2.8325    0.0000 N   0  0
    7.8019    2.4380    0.0000 C   0  0
    3.5076    0.6067    0.0000 C   0  0
    3.0261   -0.0550    0.0000 C   0  0
    3.5067   -0.7173    0.0000 C   0  0
    4.2852   -0.4650    0.0000 N   0  0
    4.2858    0.3534    0.0000 C   0  0
  5  6  1  0
 11 14  1  0
  2  3  1  0
 14 15  1  0
  2  7  1  0
 15 16  1  0
 15 17  2  0
 18 16  1  0
 19 18  1  0
 16 19  1  0
  7  8  1  0
  3  4  2  0
 22 23  1  0
  8  9  2  0
 20 21  2  0
  4 29  1  0
  9 10  1  0
  1  2  2  0
  6 20  1  0
 21 22  1  0
 23  6  2  0
 10 11  2  0
 21 24  1  0
 28 29  1  0
  4  5  1  0
 11 12  1  0
 26 27  2  0
 28  1  1  0
 12 13  2  0
 13  8  1  0
 25 26  1  0
 27 28  1  0
 29 25  2  0
M  END