
  SciTegic09171211542D

 92 90  0  0  0  0            999 V2000
   -2.2627   -0.0750    0.0000 O   0  0
   -1.8460   -0.7918    0.0000 S   0  0
   -1.4336   -0.0725    0.0000 O   0  0
   -1.7257   -4.4986    0.0000 O   0  0
   -2.5511   -4.4978    0.0000 S   0  0
   -2.1392   -5.2131    0.0000 O   0  0
    0.0057   -4.1901    0.0000 O   0  0
   -0.4079   -4.9040    0.0000 S   0  0
    0.4171   -4.9053    0.0000 O   0  0
    0.6070   -2.5380    0.0000 O   0  0
    1.0167   -3.2564    0.0000 S   0  0
    1.4339   -2.5424    0.0000 O   0  0
   -4.3819   -2.7576    0.0000 O   0  0
   -3.9636   -2.0464    0.0000 S   0  0
   -4.7886   -2.0397    0.0000 O   0  0
   -1.8378   -3.2607    0.0000 C   0  0  1  0  0  0
   -1.1231   -3.6730    0.0000 C   0  0  1  0  0  0
   -0.4135   -3.2603    0.0000 C   0  0  1  0  0  0
   -0.4113   -2.4394    0.0000 C   0  0  2  0  0  0
   -1.1260   -2.0271    0.0000 O   0  0
   -1.8429   -2.4356    0.0000 C   0  0  2  0  0  0
   -2.5559   -2.0191    0.0000 C   0  0
   -3.2481   -2.4654    0.0000 O   0  0
   -3.9526   -1.2221    0.0000 O   0  5
   -1.1216   -4.4981    0.0000 O   0  0
    0.3011   -3.6726    0.0000 O   0  0
   -2.5509   -3.6755    0.0000 O   0  0
    1.7303   -3.6721    0.0000 O   0  5
   -0.4049   -5.7344    0.0000 O   0  5
   -3.2615   -4.9155    0.0000 O   0  5
   -0.4087   -1.6093    0.0000 H   0  0
    0.2996   -2.0330    0.0000 O   0  0
   -1.9354    1.4860    0.0000 O   0  0
   -1.1401    1.2671    0.0000 S   0  0
   -1.3481    2.0653    0.0000 O   0  0
   -1.2110    2.7300    0.0000 O   0  0
   -0.4157    2.5110    0.0000 S   0  0
   -0.6238    3.3092    0.0000 O   0  0
   -1.1269   -1.2051    0.0000 O   0  0
   -0.4134   -0.7907    0.0000 C   0  0  2  0  0  0
    0.2984   -1.2051    0.0000 C   0  0  1  0  0  0
    1.0098   -0.7943    0.0000 C   0  0  2  0  0  0
    1.0118    0.0312    0.0000 O   0  0
    0.2963    0.4440    0.0000 C   0  0  1  0  0  0
   -0.4211    0.0314    0.0000 C   0  0  1  0  0  0
    0.2970    1.2691    0.0000 C   0  0
   -1.1373    0.4412    0.0000 O   0  0
    1.7239   -1.2076    0.0000 O   0  0
   -0.4172    1.6822    0.0000 O   0  0
    0.2982    2.9193    0.0000 O   0  5
    1.0104   -1.6183    0.0000 H   0  0
   -0.3150    1.2690    0.0000 O   0  5
    2.4377    0.0292    0.0000 C   0  0
    2.4377   -0.7959    0.0000 C   0  0  1  0  0  0
    3.1498   -1.2043    0.0000 C   0  0
    3.1498    0.4458    0.0000 C   0  0
    3.8619    0.0292    0.0000 C   0  0  1  0  0  0
    3.8584   -0.7959    0.0000 C   0  0  1  0  0  0
    4.5672   -1.2092    0.0000 C   0  0
    5.2841   -0.8020    0.0000 C   0  0
    4.5742    0.4409    0.0000 C   0  0  2  0  0  0
    5.2837    0.0206    0.0000 C   0  0  2  0  0  0
    5.3006    1.6670    0.0000 C   0  0
    4.5795    1.2633    0.0000 C   0  0
    6.0101    1.2466    0.0000 C   0  0  1  0  0  0
    6.0012    0.4249    0.0000 C   0  0  1  0  0  0
    6.7798    0.1625    0.0000 C   0  0
    7.2701    0.8221    0.0000 C   0  0
    6.7942    1.4919    0.0000 C   0  0  2  0  0  0
    3.8546    0.8543    0.0000 C   0  0
    4.5671   -0.3833    0.0000 H   0  0
    5.2755    0.8459    0.0000 H   0  0
    5.9964   -0.4000    0.0000 H   0  0
    6.0048    2.0752    0.0000 C   0  0
    7.0578    2.2738    0.0000 C   0  0  1  0  0  0
    7.8666    2.4366    0.0000 C   0  0
    6.5123    2.8929    0.0000 C   0  0
    8.4120    1.8175    0.0000 C   0  0
    9.2208    1.9803    0.0000 C   0  0
    9.7662    1.3611    0.0000 C   0  0
   10.5751    1.5239    0.0000 C   0  0
    9.5028    0.5793    0.0000 C   0  0
    7.6174    1.4959    0.0000 H   0  0
    3.8504   -1.6168    0.0000 H   0  0
   -2.5559   -1.2089    0.0000 O   0  5
    3.0000   -2.7187    0.0000 Na  0  3
    4.0000   -2.6875    0.0000 Na  0  3
    4.9687   -2.6875    0.0000 Na  0  3
    5.9062   -2.6250    0.0000 Na  0  3
    6.7188   -2.6250    0.0000 Na  0  3
    7.5313   -2.5625    0.0000 Na  0  3
    8.2812   -2.5625    0.0000 Na  0  3
 42 43  1  0
 43 44  1  0
 44 45  1  0
  5  4  2  0
 44 46  1  1
 17 25  1  1
 45 47  1  6
 41 32  1  1
  6  5  2  0
 42 48  1  0
 18 26  1  1
 46 49  1  0
 49 37  1  0
 16 17  1  0
 37 50  1  0
 16 27  1  6
 42 51  1  1
 47 34  1  0
 26 11  1  0
 34 52  1  0
 53 54  1  0
 11 28  1  0
 25  8  1  0
 11 10  2  0
 53 56  1  0
 54 55  1  0
 55 58  1  0
 57 56  1  0
 57 58  1  0
  8 29  1  0
 27  5  1  0
 12 11  2  0
  5 30  1  0
 57 61  1  0
 58 59  1  0
 59 60  1  0
 60 62  1  0
 61 62  1  0
  2  1  2  0
 19 31  1  1
  3  2  2  0
 19 32  1  0
 61 64  1  0
 62 66  1  0
 65 63  1  0
 63 64  1  0
 65 66  1  0
 34 33  2  0
 35 34  2  0
  8  7  2  0
 16 21  1  0
 17 18  1  0
 66 67  1  0
 67 68  1  0
 68 69  1  0
 69 65  1  0
 54 48  1  1
 37 36  2  0
 57 70  1  1
 38 37  2  0
 61 71  1  6
 18 19  1  0
 62 72  1  1
 19 20  1  0
 66 73  1  6
 20 21  1  0
 65 74  1  1
 14 13  2  0
 69 75  1  0
 21 22  1  1
 75 76  1  0
 40 39  1  1
 75 77  1  6
 40 41  1  0
 76 78  1  0
 15 14  2  0
 78 79  1  0
 22 23  1  0
 79 80  1  0
 23 14  1  0
 80 81  1  0
  9  8  2  0
 80 82  1  0
 14 24  1  0
 69 83  1  6
 40 45  1  0
 58 84  1  6
 39  2  1  0
 41 42  1  0
  2 85  1  0
M  CHG  8  24  -1  28  -1  29  -1  30  -1  50  -1  52  -1  85  -1  86   1
M  CHG  6  87   1  88   1  89   1  90   1  91   1  92   1
M  END