
  SciTegic06051313552D

 57 63  0  0  0  0            999 V2000
   15.3892   -8.7774    0.0000 C   0  0
   15.8377  -10.0222    0.0000 N   0  0
   16.0656   -9.2375    0.0000 N   0  0
   15.0209  -10.0478    0.0000 C   0  0
   14.7471   -9.2813    0.0000 N   0  0
   13.9480   -9.1365    0.0000 N   0  0
   13.4220   -9.7573    0.0000 C   0  0
   13.7005  -10.5253    0.0000 C   0  0
   14.4988  -10.6665    0.0000 C   0  0
   13.1747  -11.1509    0.0000 N   0  0
   12.3701  -11.0058    0.0000 C   0  0
   11.8451  -11.6274    0.0000 C   0  0
   12.1201  -12.3973    0.0000 N   0  0
   12.9253  -12.5419    0.0000 C   0  0
   13.4556  -11.9167    0.0000 C   0  0
   11.5919  -13.0208    0.0000 C   0  0
   11.8678  -13.7900    0.0000 C   0  0
   11.3372  -14.4123    0.0000 C   0  0
   11.6125  -15.1808    0.0000 C   0  0
   12.4174  -15.3271    0.0000 C   0  0
   12.9463  -14.6986    0.0000 C   0  0
   12.6681  -13.9324    0.0000 C   0  0
   10.5356  -14.2653    0.0000 C   0  0
   10.2620  -13.4941    0.0000 C   0  0
    9.4590  -13.3467    0.0000 C   0  0
    8.9287  -13.9697    0.0000 C   0  0
    9.2071  -14.7425    0.0000 C   0  0
   10.0094  -14.8862    0.0000 C   0  0
    8.1247  -13.8236    0.0000 Cl  0  0
   15.3614   -7.9607    0.0000 N   0  0
   16.0548   -7.5283    0.0000 S   0  0
   16.7760   -7.9125    0.0000 C   0  0
   15.6346   -6.8204    0.0000 O   0  0
   16.4557   -6.8080    0.0000 O   0  0
   16.7783   -8.7434    0.0000 C   0  0
   17.4903   -9.1430    0.0000 C   0  0
   18.1938   -8.7254    0.0000 C   0  0
   18.1808   -7.9040    0.0000 C   0  0
   17.4682   -7.5082    0.0000 C   0  0
   17.5030   -9.9624    0.0000 N   0  3
   18.2157  -10.3623    0.0000 O   0  0
   16.8004  -10.3796    0.0000 O   0  5
   18.9072   -9.1240    0.0000 N   0  0
   19.6091   -8.7055    0.0000 C   0  0  2  0  0  0
   20.3224   -9.1042    0.0000 C   0  0
   21.0244   -8.6857    0.0000 C   0  0
   21.7377   -9.0844    0.0000 N   0  0
   19.5976   -7.8884    0.0000 C   0  0
   20.2996   -7.4700    0.0000 S   0  0
   21.7429   -9.9050    0.0000 C   0  0
   22.4332   -8.6675    0.0000 C   0  0
   20.2881   -6.6529    0.0000 C   0  0
   20.9919   -6.2361    0.0000 C   0  0
   20.9808   -5.4198    0.0000 C   0  0
   20.2669   -5.0203    0.0000 C   0  0
   19.5627   -5.4432    0.0000 C   0  0
   19.5772   -6.2581    0.0000 C   0  0
  1  5  1  0
  4  2  2  0
  2  3  1  0
  3  1  2  0
  4  5  1  0
  5  6  1  0
  6  7  2  0
  7  8  1  0
  8  9  2  0
  9  4  1  0
  8 10  1  0
 10 11  1  0
 10 15  1  0
 11 12  1  0
 12 13  1  0
 13 14  1  0
 14 15  1  0
 13 16  1  0
 16 17  1  0
 17 18  2  0
 18 19  1  0
 19 20  2  0
 20 21  1  0
 21 22  2  0
 22 17  1  0
 23 24  2  0
 24 25  1  0
 25 26  2  0
 26 27  1  0
 27 28  2  0
 28 23  1  0
 18 23  1  0
 26 29  1  0
  1 30  1  0
 30 31  1  0
 31 32  1  0
 31 33  2  0
 34 31  2  0
 32 35  2  0
 35 36  1  0
 36 37  2  0
 37 38  1  0
 38 39  2  0
 39 32  1  0
 40 41  2  0
 40 42  1  0
 36 40  1  0
 37 43  1  0
 43 44  1  0
 44 45  1  0
 45 46  1  0
 46 47  1  0
 44 48  1  1
 48 49  1  0
 47 50  1  0
 47 51  1  0
 49 52  1  0
 52 53  2  0
 53 54  1  0
 54 55  2  0
 55 56  1  0
 56 57  2  0
 57 52  1  0
M  CHG  2  40   1  42  -1
M  END