


 11 11  0     0  0  0  0  0  0999 V2000
    4.1287    0.0000    0.0000 O   0  0  0  0  0  0  0  0  0  0  0  0
    0.4129   -0.7143    0.0000 N   0  0  0  0  0  0  0  0  0  0  0  0
    1.2386   -0.7143    0.0000 C   0  0  0  0  0  0  0  0  0  0  0  0
    2.8900   -0.7143    0.0000 C   0  0  0  0  0  0  0  0  0  0  0  0
    1.6514    0.0000    0.0000 C   0  0  0  0  0  0  0  0  0  0  0  0
    1.6514   -1.4285    0.0000 C   0  0  0  0  0  0  0  0  0  0  0  0
    2.4772    0.0000    0.0000 C   0  0  0  0  0  0  0  0  0  0  0  0
    2.4772   -1.4285    0.0000 C   0  0  0  0  0  0  0  0  0  0  0  0
    3.7158   -0.7143    0.0000 C   0  0  0  0  0  0  0  0  0  0  0  0
    0.0000    0.0000    0.0000 C   0  0  0  0  0  0  0  0  0  0  0  0
    0.0000   -1.4285    0.0000 C   0  0  0  0  0  0  0  0  0  0  0  0
  1  9  2  0  0  0  0
  2  3  1  0  0  0  0
  2 10  1  0  0  0  0
  2 11  1  0  0  0  0
  3  5  2  0  0  0  0
  3  6  1  0  0  0  0
  4  7  2  0  0  0  0
  4  8  1  0  0  0  0
  4  9  1  0  0  0  0
  5  7  1  0  0  0  0
  6  8  2  0  0  0  0
M  END