
  SciTegic04091414152D

 41 45  0  0  0  0            999 V2000
   30.5143  -10.0150    0.0000 C   0  0
   29.6972  -10.0021    0.0000 C   0  0
   29.4305  -10.7747    0.0000 C   0  0
   30.0858  -11.2673    0.0000 N   0  0
   30.7521  -10.7956    0.0000 N   0  0
   30.0774  -12.0821    0.0000 C   0  0
   29.3623  -12.4799    0.0000 C   0  0
   29.3503  -13.2962    0.0000 C   0  0
   30.0526  -13.7157    0.0000 C   0  0
   30.7685  -13.3129    0.0000 C   0  0
   30.7770  -12.4979    0.0000 C   0  0
   31.0067   -9.3609    0.0000 C   0  0
   31.8178   -9.4602    0.0000 O   0  0
   30.6871   -8.6087    0.0000 O   0  0
   28.6532  -11.0129    0.0000 C   0  0
   28.0555  -10.4540    0.0000 C   0  0
   27.2747  -10.6926    0.0000 C   0  0
   27.0905  -11.4896    0.0000 C   0  0
   27.6931  -12.0478    0.0000 C   0  0
   28.4716  -11.8063    0.0000 C   0  0
   28.6366  -13.6943    0.0000 Cl  0  0
   26.3094  -11.7298    0.0000 C   0  0
   25.7108  -11.1734    0.0000 N   0  0
   30.0420  -14.5328    0.0000 Cl  0  0
   24.9297  -11.4136    0.0000 C   0  0
   24.3312  -10.8572    0.0000 S   0  0
   24.7471  -12.2101    0.0000 C   0  0
   23.9658  -12.4471    0.0000 C   0  0
   23.7831  -13.2429    0.0000 C   0  0
   24.3819  -13.8002    0.0000 C   0  0
   25.1663  -13.5563    0.0000 C   0  0
   25.3453  -12.7611    0.0000 C   0  0
   26.1254  -12.5176    0.0000 Cl  0  0
   24.2043  -14.5989    0.0000 C   0  0
   23.4530  -14.9204    0.0000 O   0  0
   23.5266  -15.7343    0.0000 C   0  0
   24.3234  -15.9158    0.0000 C   0  0
   24.7421  -15.2141    0.0000 C   0  0
   22.9093  -16.2728    0.0000 C   0  0
   22.1359  -16.0090    0.0000 O   0  0
   23.0676  -17.0745    0.0000 O   0  0
  1  2  1  0
  2  3  2  0
  3  4  1  0
  4  5  1  0
  5  1  2  0
  6  7  2  0
  7  8  1  0
  8  9  2  0
  9 10  1  0
 10 11  2  0
 11  6  1  0
  4  6  1  0
 12 13  1  0
 12 14  2  0
  1 12  1  0
 15 16  2  0
 16 17  1  0
 17 18  2  0
 18 19  1  0
 19 20  2  0
 20 15  1  0
  3 15  1  0
  8 21  1  0
 18 22  1  0
 22 23  1  0
  9 24  1  0
 23 25  1  0
 25 26  2  0
 25 27  1  0
 27 28  2  0
 28 29  1  0
 29 30  2  0
 30 31  1  0
 31 32  2  0
 32 27  1  0
 32 33  1  0
 34 35  1  0
 35 36  1  0
 36 37  2  0
 37 38  1  0
 38 34  2  0
 30 34  1  0
 39 40  1  0
 39 41  2  0
 36 39  1  0
M  END