
  SciTegic11081110012D

 32 35  0  0  0  0            999 V2000
   15.7499   -3.4162    0.0000 C   0  0
   15.3225   -2.7106    0.0000 C   0  0
   14.4976   -2.7231    0.0000 C   0  0
   14.1001   -3.4412    0.0000 N   0  0
   14.5192   -4.1469    0.0000 C   0  0
   15.3441   -4.1344    0.0000 C   0  0
    8.8291   -3.3292    0.0000 C   0  0
    9.6541   -3.3292    0.0000 C   0  0
    9.9109   -2.5451    0.0000 C   0  0  1  0  0  0
    9.2416   -2.0583    0.0000 N   0  0
    8.5766   -2.5451    0.0000 C   0  0
    9.2404   -1.2333    0.0000 C   0  0
    8.5253   -0.8219    0.0000 C   0  0
    8.5271    0.0031    0.0000 C   0  0
    7.8128    0.4144    0.0000 C   0  0
    7.0980    0.0008    0.0000 C   0  0
    7.1019   -0.8285    0.0000 C   0  0
    7.8167   -1.2361    0.0000 C   0  0
   10.6959   -2.2912    0.0000 C   0  0
   11.3082   -2.8441    0.0000 N   0  0
   10.6917   -1.4625    0.0000 O   0  0
   12.0932   -2.5903    0.0000 C   0  0
   12.7055   -3.1431    0.0000 C   0  0
   13.4905   -2.8893    0.0000 C   0  0
   16.5748   -3.4037    0.0000 C   0  0
   16.9945   -4.1109    0.0000 C   0  0
   17.8187   -4.0988    0.0000 C   0  0
   18.2211   -3.3776    0.0000 C   0  0
   17.7934   -2.6672    0.0000 C   0  0
   16.9706   -2.6828    0.0000 C   0  0
   16.5438   -1.9768    0.0000 Cl  0  0
   16.5916   -4.8308    0.0000 Cl  0  0
 15 16  2  0
  2  1  1  0
 16 17  1  0
  3  4  1  0
 17 18  2  0
 18 13  1  0
  4  5  1  0
  9 19  1  1
  8  9  1  0
 19 20  1  0
  9 10  1  0
 19 21  2  0
 10 11  1  0
 20 22  1  0
 11  7  1  0
 22 23  1  0
  5  6  1  0
 23 24  1  0
 24  4  1  0
 10 12  1  0
  1 25  1  0
  6  1  1  0
 25 26  2  0
 12 13  1  0
 26 27  1  0
  7  8  1  0
 27 28  2  0
 13 14  2  0
 28 29  1  0
  2  3  1  0
 29 30  2  0
 30 25  1  0
 14 15  1  0
 30 31  1  0
 26 32  1  0
M  END