
  SciTegic12091219252D

 21 24  0  0  1  0            999 V2000
    2.8167   -1.9750    0.0000 C   0  0  1  0  0  0
    1.5833   -1.2750    0.0000 C   0  0
    2.1917   -0.9250    0.0000 C   0  0
    2.8167   -1.2750    0.0000 C   0  0
    1.5833   -1.9750    0.0000 C   0  0
    2.1917   -2.3250    0.0000 C   0  0
    3.4333   -2.3250    0.0000 N   0  0
    0.9625   -0.9083    0.0000 C   0  0
    3.4333   -0.9250    0.0000 C   0  0
    0.3542   -1.2583    0.0000 C   0  0
    0.9625   -2.3250    0.0000 C   0  0
    4.0542   -1.9750    0.0000 C   0  0
    4.0542   -1.2750    0.0000 C   0  0
    0.3542   -1.9750    0.0000 C   0  0
    0.9625   -0.2000    0.0000 O   0  0
    2.1917   -0.2167    0.0000 C   0  0
   -0.2583   -0.9083    0.0000 O   0  0
    3.4333   -3.0167    0.0000 C   0  0
    2.8167    0.1333    0.0000 C   0  0
    3.4333   -0.2167    0.0000 C   0  0
    2.8250   -2.7583    0.0000 H   0  0
  2  5  2  0
  3  4  2  0
  4  1  1  0
  5  6  1  0
  6  1  1  0
  7  1  1  0
  8  2  1  0
  9  4  1  0
 10 14  1  0
 11  5  1  0
 12  7  1  0
 13 12  1  0
 14 11  2  0
 15  8  1  0
 16  3  1  0
 17 10  1  0
 18  7  1  0
 19 20  1  0
 20  9  2  0
  1 21  1  1
  2  3  1  0
 13  9  1  0
 19 16  2  0
 10  8  2  0
M  END