
  CDK    9/16/09,10:0

 22 23  0  0  0  0  0  0  0  0999 V2000
   -4.8138  -14.4596    0.0000 C   0  0  0  0  0  0  0  0  0  0  0  0
   -4.8151  -15.2872    0.0000 C   0  0  0  0  0  0  0  0  0  0  0  0
   -4.1021  -15.7001    0.0000 C   0  0  0  0  0  0  0  0  0  0  0  0
   -3.3829  -15.2867    0.0000 C   0  0  0  0  0  0  0  0  0  0  0  0
   -3.3861  -14.4557    0.0000 C   0  0  0  0  0  0  0  0  0  0  0  0
   -4.1041  -14.0468    0.0000 C   0  0  0  0  0  0  0  0  0  0  0  0
   -2.6736  -14.0396    0.0000 C   0  0  0  0  0  0  0  0  0  0  0  0
   -1.9571  -14.4485    0.0000 C   0  0  0  0  0  0  0  0  0  0  0  0
   -2.6777  -13.2147    0.0000 O   0  0  0  0  0  0  0  0  0  0  0  0
   -1.8643  -15.2684    0.0000 C   0  0  0  0  0  0  0  0  0  0  0  0
   -1.0565  -15.4360    0.0000 N   0  0  0  0  0  0  0  0  0  0  0  0
   -0.6480  -14.7198    0.0000 C   0  0  0  0  0  0  0  0  0  0  0  0
   -1.2026  -14.1092    0.0000 N   0  0  0  0  0  0  0  0  0  0  0  0
   -5.5301  -15.6986    0.0000 Cl  0  0  0  0  0  0  0  0  0  0  0  0
   -1.0347  -13.3015    0.0000 C   0  0  0  0  0  0  0  0  0  0  0  0
    0.1769  -14.7344    0.0000 S   0  0  0  0  0  0  0  0  0  0  0  0
    0.5766  -15.4561    0.0000 C   0  0  0  0  0  0  0  0  0  0  0  0
    1.4014  -15.4707    0.0000 C   0  0  0  0  0  0  0  0  0  0  0  0
    1.8012  -16.1924    0.0000 C   0  0  0  0  0  0  0  0  0  0  0  0
    2.6260  -16.2070    0.0000 N   0  0  0  0  0  0  0  0  0  0  0  0
    3.0257  -16.9287    0.0000 C   0  0  0  0  0  0  0  0  0  0  0  0
    3.0511  -15.5001    0.0000 C   0  0  0  0  0  0  0  0  0  0  0  0
  5  6  2  0  0  0  0 
  6  1  1  0  0  0  0 
 10 11  1  0  0  0  0 
 11 12  2  0  0  0  0 
 12 13  1  0  0  0  0 
 13  8  1  0  0  0  0 
  1  2  2  0  0  0  0 
  2 14  1  0  0  0  0 
  5  7  1  0  0  0  0 
 13 15  1  0  0  0  0 
  3  4  2  0  0  0  0 
 12 16  1  0  0  0  0 
  7  8  1  0  0  0  0 
 16 17  1  0  0  0  0 
 17 18  1  0  0  0  0 
  7  9  1  0  0  0  0 
 18 19  1  0  0  0  0 
  8 10  2  0  0  0  0 
 19 20  1  0  0  0  0 
  4  5  1  0  0  0  0 
 20 21  1  0  0  0  0 
  2  3  1  0  0  0  0 
 20 22  1  0  0  0  0 
M  END