
  SciTegic01161211252D

 31 34  0  0  0  0            999 V2000
    7.1350   -0.4113    0.0000 N   0  0
    7.7968    0.0820    0.0000 C   0  0
    7.5322    0.8638    0.0000 C   0  0
    6.7068    0.8537    0.0000 N   0  0
    6.4616    0.0663    0.0000 C   0  0
    5.7472   -0.3394    0.0000 C   0  0
    5.0362    0.0812    0.0000 C   0  0
    4.3185   -0.3243    0.0000 C   0  0
    4.3107   -1.1501    0.0000 C   0  0
    5.0265   -1.5689    0.0000 C   0  0
    5.7412   -1.1610    0.0000 C   0  0
    7.9363    1.5835    0.0000 C   0  0
    8.7612    1.5935    0.0000 N   0  0
    7.5152    2.2930    0.0000 O   0  0
    9.1651    2.3129    0.0000 N   0  0
    9.9920    2.3176    0.0000 C   0  0
   10.3959    3.0311    0.0000 C   0  0
    9.9787    3.7398    0.0000 C   0  0
    9.1526    3.7335    0.0000 C   0  0
    8.7446    3.0103    0.0000 C   0  0
    7.1473   -1.2342    0.0000 C   0  0
    6.4362   -1.6548    0.0000 C   0  0
    6.4459   -2.4789    0.0000 C   0  0
    7.1659   -2.8835    0.0000 C   0  0
    7.8776   -2.4579    0.0000 C   0  0
    7.8644   -1.6351    0.0000 C   0  0
    3.5932   -1.5572    0.0000 Cl  0  0
    7.1771   -3.7084    0.0000 Cl  0  0
    5.0444    0.9061    0.0000 Cl  0  0
    8.5845   -0.1634    0.0000 C   0  0
    8.7658   -0.9682    0.0000 O   0  0
 13 15  1  0
 15 16  1  0
  7  8  1  0
  3  4  1  0
  8  9  2  0
  4  5  2  0
  9 10  1  0
 15 20  1  0
 16 17  1  0
 17 18  1  0
 18 19  1  0
 19 20  1  0
  5  1  1  0
 10 11  2  0
 21 22  2  0
 11  6  1  0
 22 23  1  0
  5  6  1  0
 23 24  2  0
  1  2  1  0
 24 25  1  0
  3 12  1  0
 25 26  2  0
 26 21  1  0
  1 21  1  0
  9 27  1  0
 12 13  1  0
 24 28  1  0
  6  7  2  0
  7 29  1  0
 12 14  2  0
  2 30  1  0
  2  3  2  0
 30 31  1  0
M  END