
  SciTegic01161211252D

 35 37  0  0  0  0            999 V2000
    3.0042   -3.0542    0.0000 N   0  0
    2.4375   -2.4625    0.0000 C   0  0  1  0  0  0
    2.8542   -3.8667    0.0000 C   0  0
    3.5792   -4.2542    0.0000 C   0  0
    4.1792   -3.6917    0.0000 N   0  0
    1.6167   -2.5667    0.0000 C   0  0  1  0  0  0
    3.8250   -2.9500    0.0000 C   0  0
    2.5875   -1.6500    0.0000 O   0  0
   -0.5500    0.6958    0.0000 P   0  0
    0.8792    0.6958    0.0000 P   0  0
    0.1625    0.2833    0.0000 O   0  0
   -4.8458    0.6958    0.0000 P   0  0
    1.8542   -1.2542    0.0000 C   0  0  1  0  0  0
    1.2625   -1.8250    0.0000 C   0  0  1  0  0  0
    3.6042   -5.0792    0.0000 C   0  0
    2.1542   -4.2917    0.0000 N   0  0
    2.9042   -5.5042    0.0000 N   0  0
    1.7500   -0.4417    0.0000 C   0  0
    2.1792   -5.1167    0.0000 C   0  0
    0.9875   -0.1250    0.0000 O   0  0
   -0.3375   -0.1042    0.0000 O   0  0
    1.4625    1.2750    0.0000 O   0  0
   -5.5500    0.2833    0.0000 O   0  0
   -4.6250   -0.1042    0.0000 O   0  0
   -1.2708    0.2833    0.0000 C   0  0
   -4.1208    0.2833    0.0000 C   0  0
   -0.5500    1.5208    0.0000 O   0  0
    0.8792    1.5208    0.0000 O   0  0
   -4.8458    1.5208    0.0000 O   0  0
    1.2250   -3.2917    0.0000 O   0  0
    4.3292   -5.4750    0.0000 N   0  0
    0.4500   -1.6750    0.0000 O   0  0
   -3.4083    0.6958    0.0000 C   0  0
   -1.9833    0.6958    0.0000 C   0  0
   -2.6958    0.2833    0.0000 O   0  0
  2  1  1  1
  3  1  1  0
  4  3  2  0
  5  7  2  0
  6  2  1  0
  7  1  1  0
  8  2  1  0
  9 11  1  0
 10 20  1  0
 11 10  1  0
 12 26  1  0
 13  8  1  0
 14  6  1  0
 15  4  1  0
 16  3  1  0
 17 19  1  0
 13 18  1  1
 19 16  2  0
 20 18  1  0
 21  9  1  0
 22 10  1  0
 23 12  1  0
 24 12  1  0
 25  9  1  0
 26 33  1  0
 27  9  2  0
 28 10  2  0
 29 12  2  0
  6 30  1  6
 31 15  1  0
 14 32  1  6
 33 35  1  0
 34 25  1  0
 35 34  1  0
  5  4  1  0
 14 13  1  0
 17 15  2  0
M  END