
  Mrv0541 04051115152D          

 26 28  0  0  0  0            999 V2000
    1.3386    1.9965    0.0000 C   0  0  0  0  0  0  0  0  0  0  0  0
    2.0530    2.4090    0.0000 C   0  0  0  0  0  0  0  0  0  0  0  0
    2.7675    1.9965    0.0000 C   0  0  0  0  0  0  0  0  0  0  0  0
    2.7675    1.1715    0.0000 C   0  0  0  0  0  0  0  0  0  0  0  0
    2.0530    0.7590    0.0000 C   0  0  0  0  0  0  0  0  0  0  0  0
    1.3386    1.1715    0.0000 C   0  0  0  0  0  0  0  0  0  0  0  0
    0.6241    0.7590    0.0000 C   0  0  0  0  0  0  0  0  0  0  0  0
    0.6241   -0.0660    0.0000 C   0  0  1  0  0  0  0  0  0  0  0  0
    1.2915   -0.5509    0.0000 C   0  0  0  0  0  0  0  0  0  0  0  0
    1.0366   -1.3356    0.0000 O   0  0  0  0  0  0  0  0  0  0  0  0
    0.2116   -1.3356    0.0000 C   0  0  0  0  0  0  0  0  0  0  0  0
   -0.0433   -0.5509    0.0000 C   0  0  2  0  0  0  0  0  0  0  0  0
   -0.2733   -2.0030    0.0000 O   0  0  0  0  0  0  0  0  0  0  0  0
   -0.8280   -0.2960    0.0000 C   0  0  0  0  0  0  0  0  0  0  0  0
   -1.4411   -0.8480    0.0000 C   0  0  0  0  0  0  0  0  0  0  0  0
   -1.2695   -1.6550    0.0000 C   0  0  0  0  0  0  0  0  0  0  0  0
   -1.8826   -2.2070    0.0000 C   0  0  0  0  0  0  0  0  0  0  0  0
   -2.6672   -1.9521    0.0000 C   0  0  0  0  0  0  0  0  0  0  0  0
   -2.8388   -1.1451    0.0000 C   0  0  0  0  0  0  0  0  0  0  0  0
   -2.2257   -0.5931    0.0000 C   0  0  0  0  0  0  0  0  0  0  0  0
   -3.6234   -0.8902    0.0000 O   0  0  0  0  0  0  0  0  0  0  0  0
   -4.2365   -1.4422    0.0000 C   0  0  0  0  0  0  0  0  0  0  0  0
   -3.2803   -2.5041    0.0000 O   0  0  0  0  0  0  0  0  0  0  0  0
    3.4820    2.4090    0.0000 O   0  0  0  0  0  0  0  0  0  0  0  0
    2.0530    3.2340    0.0000 O   0  0  0  0  0  0  0  0  0  0  0  0
    2.7675    3.6465    0.0000 C   0  0  0  0  0  0  0  0  0  0  0  0
  1  2  2  0  0  0  0
  1  6  1  0  0  0  0
  2  3  1  0  0  0  0
  2 25  1  0  0  0  0
  3  4  2  0  0  0  0
  3 24  1  0  0  0  0
  4  5  1  0  0  0  0
  5  6  2  0  0  0  0
  6  7  1  0  0  0  0
  8  7  1  1  0  0  0
  8  9  1  0  0  0  0
 12  8  1  0  0  0  0
  9 10  1  0  0  0  0
 11 10  1  0  0  0  0
 11 12  1  0  0  0  0
 11 13  2  0  0  0  0
 12 14  1  6  0  0  0
 14 15  1  0  0  0  0
 15 16  2  0  0  0  0
 15 20  1  0  0  0  0
 16 17  1  0  0  0  0
 17 18  2  0  0  0  0
 18 19  1  0  0  0  0
 18 23  1  0  0  0  0
 19 20  2  0  0  0  0
 19 21  1  0  0  0  0
 22 21  1  0  0  0  0
 26 25  1  0  0  0  0
M  END