
  Mrv0541 09061315232D          

 41 44  0  0  0  0            999 V2000
    3.0667   -6.5042    0.0000 S   0  0  0  0  0  0  0  0  0  0  0  0
    3.7917   -6.0875    0.0000 N   0  0  0  0  0  0  0  0  0  0  0  0
    7.3792   -4.0167    0.0000 N   0  0  0  0  0  0  0  0  0  0  0  0
    2.3500   -6.9167    0.0000 C   0  0  0  0  0  0  0  0  0  0  0  0
    8.7167   -4.1625    0.0000 N   0  0  0  0  0  0  0  0  0  0  0  0
    7.5542   -4.8250    0.0000 C   0  0  0  0  0  0  0  0  0  0  0  0
    8.1000   -3.6042    0.0000 C   0  0  0  0  0  0  0  0  0  0  0  0
    3.7917   -5.2542    0.0000 C   0  0  0  0  0  0  0  0  0  0  0  0
    6.9917   -7.6167    0.0000 C   0  0  0  0  0  0  0  0  0  0  0  0
    8.3750   -4.9042    0.0000 C   0  0  0  0  0  0  0  0  0  0  0  0
    7.8042   -7.7792    0.0000 C   0  0  0  0  0  0  0  0  0  0  0  0
    3.4875   -7.2250    0.0000 O   0  0  0  0  0  0  0  0  0  0  0  0
    2.6542   -5.7792    0.0000 O   0  0  0  0  0  0  0  0  0  0  0  0
    6.6625   -3.6000    0.0000 C   0  0  0  0  0  0  0  0  0  0  0  0
    7.2750   -6.2167    0.0000 N   0  0  0  0  0  0  0  0  0  0  0  0
    6.7292   -6.8375    0.0000 C   0  0  0  0  0  0  0  0  0  0  0  0
    4.5042   -4.8417    0.0000 C   0  0  0  0  0  0  0  0  0  0  0  0
    7.0125   -5.4417    0.0000 C   0  0  0  0  0  0  0  0  0  0  0  0
    2.3500   -7.7417    0.0000 C   0  0  0  0  0  0  0  0  0  0  0  0
    3.0750   -4.8417    0.0000 O   0  0  0  0  0  0  0  0  0  0  0  0
    8.3500   -7.1667    0.0000 O   0  0  0  0  0  0  0  0  0  0  0  0
    4.5042   -4.0167    0.0000 C   0  0  0  0  0  0  0  0  0  0  0  0
    5.2167   -5.2542    0.0000 C   0  0  0  0  0  0  0  0  0  0  0  0
    5.9375   -4.0167    0.0000 C   0  0  0  0  0  0  0  0  0  0  0  0
    8.0667   -8.5667    0.0000 O   0  0  0  0  0  0  0  0  0  0  0  0
    3.0667   -8.1667    0.0000 Cl  0  0  0  0  0  0  0  0  0  0  0  0
    5.2167   -3.6042    0.0000 C   0  0  0  0  0  0  0  0  0  0  0  0
    5.9375   -4.8417    0.0000 C   0  0  0  0  0  0  0  0  0  0  0  0
    1.6375   -6.5042    0.0000 C   0  0  0  0  0  0  0  0  0  0  0  0
    6.4417   -8.2292    0.0000 C   0  0  0  0  0  0  0  0  0  0  0  0
    8.1792   -2.7792    0.0000 C   0  0  0  0  0  0  0  0  0  0  0  0
    5.9250   -6.6667    0.0000 C   0  0  0  0  0  0  0  0  0  0  0  0
    1.6375   -8.1542    0.0000 C   0  0  0  0  0  0  0  0  0  0  0  0
    7.5125   -2.2917    0.0000 C   0  0  0  0  0  0  0  0  0  0  0  0
    7.5917   -1.4667    0.0000 C   0  0  0  0  0  0  0  0  0  0  0  0
    0.9167   -6.9167    0.0000 C   0  0  0  0  0  0  0  0  0  0  0  0
    5.6417   -8.0667    0.0000 C   0  0  0  0  0  0  0  0  0  0  0  0
    6.9250   -0.9875    0.0000 C   0  0  0  0  0  0  0  0  0  0  0  0
    0.9167   -7.7417    0.0000 C   0  0  0  0  0  0  0  0  0  0  0  0
    5.3792   -7.2875    0.0000 C   0  0  0  0  0  0  0  0  0  0  0  0
    0.2030   -8.1556    0.0000 H   0  0  0  0  0  0  0  0  0  0  0  0
  2  1  1  0  0  0  0
  3 14  1  0  0  0  0
  4  1  1  0  0  0  0
  5  7  2  0  0  0  0
  6  3  1  0  0  0  0
  7  3  1  0  0  0  0
  8  2  1  0  0  0  0
  9 16  1  0  0  0  0
 10  6  2  0  0  0  0
 11  9  1  0  0  0  0
 12  1  2  0  0  0  0
 13  1  2  0  0  0  0
 14 24  1  0  0  0  0
 15 18  1  0  0  0  0
 16 15  1  0  0  0  0
 17  8  1  0  0  0  0
 18  6  1  0  0  0  0
 19  4  1  0  0  0  0
 20  8  2  0  0  0  0
 21 11  2  0  0  0  0
 22 17  2  0  0  0  0
 23 17  1  0  0  0  0
 24 28  1  0  0  0  0
 25 11  1  0  0  0  0
 26 19  1  0  0  0  0
 27 22  1  0  0  0  0
 28 23  2  0  0  0  0
 29  4  2  0  0  0  0
 30  9  2  0  0  0  0
 31  7  1  0  0  0  0
 32 16  2  0  0  0  0
 33 19  2  0  0  0  0
 34 31  1  0  0  0  0
 35 34  1  0  0  0  0
 36 29  1  0  0  0  0
 37 40  2  0  0  0  0
 38 35  1  0  0  0  0
 39 36  2  0  0  0  0
 40 32  1  0  0  0  0
 33 39  1  0  0  0  0
 27 24  2  0  0  0  0
 10  5  1  0  0  0  0
 37 30  1  0  0  0  0
 39 41  1  0  0  0  0
M  ISO  1  41   3
M  END