
  SciTegic02011310452D

 25 27  0  0  0  0            999 V2000
   17.9316  -10.0049    0.0000 C   0  0
   17.9304  -10.8330    0.0000 N   0  0
   18.6459  -11.2463    0.0000 C   0  0
   19.3629  -10.8325    0.0000 N   0  0
   19.3601  -10.0013    0.0000 C   0  0
   18.6441   -9.5917    0.0000 C   0  0
   20.0737   -9.5857    0.0000 N   0  0
   20.7903   -9.9959    0.0000 C   0  0
   20.7901  -10.8193    0.0000 C   0  0
   21.5060  -11.2294    0.0000 C   0  0
   22.2205  -10.8137    0.0000 C   0  0
   22.2147   -9.9837    0.0000 C   0  0
   21.4983   -9.5774    0.0000 C   0  0
   18.6457  -12.0721    0.0000 N   0  0
   19.3607  -12.4850    0.0000 C   0  0
   19.3563  -13.3091    0.0000 C   0  0
   20.0705  -13.7220    0.0000 C   0  0
   20.7867  -13.3093    0.0000 C   0  0
   20.7843  -12.4792    0.0000 C   0  0
   20.0695  -12.0700    0.0000 C   0  0
   21.5042  -13.7206    0.0000 C   0  0
   21.5052  -14.5464    0.0000 O   0  0
   22.2190  -13.3071    0.0000 O   0  0
   21.4887   -8.7522    0.0000 C   0  0
   21.4813   -7.9265    0.0000 N   0  0
  1  2  2  0
  2  3  1  0
  3  4  2  0
  4  5  1  0
  5  6  2  0
  6  1  1  0
  5  7  1  0
  7  8  1  0
  8  9  2  0
  9 10  1  0
 10 11  2  0
 11 12  1  0
 12 13  2  0
 13  8  1  0
  3 14  1  0
 14 15  1  0
 15 16  2  0
 16 17  1  0
 17 18  2  0
 18 19  1  0
 19 20  2  0
 20 15  1  0
 21 22  1  0
 21 23  2  0
 18 21  1  0
 24 25  3  0
 13 24  1  0
M  END