
          11280715382D 1   1.00000     0.00000     0

 28 30  0     0  0            999 V2000
   -2.8375   -0.0417    0.0000 C   0  0  0  0  0  0           0  0  0
   -3.5625    0.3833    0.0000 C   0  0  0  0  0  0           0  0  0
   -4.2708   -0.0292    0.0000 C   0  0  0  0  0  0           0  0  0
   -2.8375   -0.8667    0.0000 C   0  0  0  0  0  0           0  0  0
   -0.7083    0.3833    0.0000 C   0  0  0  0  0  0           0  0  0
    2.8500    2.4583    0.0000 C   0  0  0  0  0  0           0  0  0
    0.0042    0.7958    0.0000 C   0  0  0  0  0  0           0  0  0
   -3.5625    1.2083    0.0000 C   0  0  0  0  0  0           0  0  0
   -3.5625   -1.2667    0.0000 C   0  0  3  0  0  0           0  0  0
   -2.1333    0.3708    0.0000 C   0  0  0  0  0  0           0  0  0
    2.1292    2.0458    0.0000 C   0  0  0  0  0  0           0  0  0
   -1.4208   -0.0417    0.0000 C   0  0  0  0  0  0           0  0  0
    2.8417    3.2833    0.0000 O   0  0  0  0  0  0           0  0  0
   -4.2708   -0.8542    0.0000 C   0  0  0  0  0  0           0  0  0
   -2.8500    1.6333    0.0000 C   0  0  0  0  0  0           0  0  0
   -4.2833    1.6083    0.0000 C   0  0  0  0  0  0           0  0  0
    0.7167    1.2083    0.0000 C   0  0  0  0  0  0           0  0  0
    2.1417    1.2208    0.0000 C   0  0  0  0  0  0           0  0  0
    1.4167    2.4583    0.0000 C   0  0  0  0  0  0           0  0  0
    3.5667    2.0583    0.0000 O   0  0  0  0  0  0           0  0  0
    0.7125    2.0333    0.0000 C   0  0  0  0  0  0           0  0  0
    1.4375    0.8083    0.0000 C   0  0  0  0  0  0           0  0  0
   -4.2958    2.4333    0.0000 C   0  0  0  0  0  0           0  0  0
   -2.8625    2.4458    0.0000 C   0  0  0  0  0  0           0  0  0
   -3.5833    2.8583    0.0000 C   0  0  0  0  0  0           0  0  0
   -3.9750   -1.9792    0.0000 C   0  0  0  0  0  0           0  0  0
   -3.1500   -1.9792    0.0000 C   0  0  0  0  0  0           0  0  0
   -3.5875    3.6833    0.0000 C   0  0  0  0  0  0           0  0  0
  2  1  1  0     0  0
  3  2  2  0     0  0
  4  1  2  0     0  0
  5 12  1  0     0  0
  6 11  1  0     0  0
  7  5  3  0     0  0
  8  2  1  0     0  0
  9  4  1  0     0  0
 10  1  1  0     0  0
 11 18  2  0     0  0
 12 10  2  0     0  0
 13  6  2  0     0  0
 14  9  1  0     0  0
 15  8  2  0     0  0
 16  8  1  0     0  0
 17  7  1  0     0  0
 18 22  1  0     0  0
 19 21  2  0     0  0
 20  6  1  0     0  0
 21 17  1  0     0  0
 22 17  2  0     0  0
 23 16  2  0     0  0
 24 15  1  0     0  0
 25 23  1  0     0  0
 26  9  1  0     0  0
 27  9  1  0     0  0
 28 25  1  0     0  0
  3 14  1  0     0  0
 24 25  2  0     0  0
 11 19  1  0     0  0
M  END