
  SciTegic04091415032D

 37 40  0  0  0  0            999 V2000
   14.1013  -10.9536    0.0000 C   0  0
   14.1002  -11.7732    0.0000 C   0  0
   14.8082  -12.1821    0.0000 C   0  0
   14.8064  -10.5448    0.0000 C   0  0
   15.5151  -10.9500    0.0000 C   0  0
   15.5158  -11.7690    0.0000 C   0  0
   16.2243  -12.1761    0.0000 N   0  0
   16.9326  -11.7653    0.0000 C   0  0
   16.9279  -10.9432    0.0000 C   0  0
   16.2188  -10.5398    0.0000 C   0  0
   13.3975  -10.5410    0.0000 C   0  0
   16.2144   -9.7226    0.0000 C   0  0
   16.9200   -9.3103    0.0000 O   0  0
   15.5046   -9.3178    0.0000 O   0  0
   17.6419  -12.1711    0.0000 C   0  0
   17.6451  -12.9883    0.0000 N   0  0
   18.3480  -11.7598    0.0000 O   0  0
   18.3544  -13.3942    0.0000 C   0  0  2  0  0  0
   18.3575  -14.2113    0.0000 C   0  0
   19.0605  -12.9828    0.0000 C   0  0
   19.7698  -13.3887    0.0000 C   0  0
   19.0668  -14.6172    0.0000 O   0  0
   17.6514  -14.6227    0.0000 O   0  0
   19.0700  -15.4344    0.0000 C   0  0
   19.7698  -14.2029    0.0000 C   0  0
   20.4783  -14.6086    0.0000 C   0  0
   21.1854  -14.1972    0.0000 C   0  0
   21.1796  -13.3758    0.0000 C   0  0
   20.4705  -12.9738    0.0000 C   0  0
   21.8952  -14.6021    0.0000 O   0  0
   13.4063   -9.7241    0.0000 C   0  0
   12.7033   -9.3116    0.0000 C   0  0
   11.9931   -9.7148    0.0000 C   0  0
   11.9902  -10.5349    0.0000 C   0  0
   12.6938  -10.9437    0.0000 C   0  0
   11.2797  -10.9372    0.0000 Cl  0  0
   12.7104   -8.4934    0.0000 Cl  0  0
  1  2  2  0
  2  3  1  0
  3  6  2  0
  5  4  2  0
  4  1  1  0
  5  6  1  0
  6  7  1  0
  7  8  2  0
  8  9  1  0
  9 10  2  0
 10  5  1  0
  1 11  1  0
 10 12  1  0
 12 13  2  0
 12 14  1  0
  8 15  1  0
 15 16  1  0
 15 17  2  0
 16 18  1  0
 18 19  1  1
 18 20  1  0
 20 21  1  0
 19 22  1  0
 19 23  2  0
 22 24  1  0
 21 25  2  0
 25 26  1  0
 26 27  2  0
 27 28  1  0
 28 29  2  0
 29 21  1  0
 27 30  1  0
 11 31  2  0
 31 32  1  0
 32 33  2  0
 33 34  1  0
 34 35  2  0
 35 11  1  0
 34 36  1  0
 32 37  1  0
M  END