
  SciTegic01161211232D

 31 34  0  0  0  0            999 V2000
   10.9517   -8.8780    0.0000 C   0  0
   11.6135   -8.3847    0.0000 N   0  0
   11.3489   -7.6029    0.0000 C   0  0
   10.5235   -7.6129    0.0000 C   0  0
   10.2782   -8.4004    0.0000 N   0  0
    9.5639   -8.8061    0.0000 C   0  0
    8.8528   -8.3855    0.0000 C   0  0
    8.1352   -8.7909    0.0000 C   0  0
    8.1274   -9.6168    0.0000 C   0  0
    8.8432  -10.0355    0.0000 C   0  0
    9.5579   -9.6277    0.0000 C   0  0
   11.7530   -6.8831    0.0000 C   0  0
   12.5779   -6.8732    0.0000 N   0  0
   11.3319   -6.1737    0.0000 O   0  0
   12.9817   -6.1537    0.0000 N   0  0
   13.8086   -6.1490    0.0000 C   0  0
   14.2126   -5.4355    0.0000 C   0  0
   13.7953   -4.7269    0.0000 C   0  0
   12.9692   -4.7331    0.0000 C   0  0
   12.5613   -5.4563    0.0000 C   0  0
   10.9639   -9.7008    0.0000 C   0  0
   10.2529  -10.1214    0.0000 C   0  0
   10.2626  -10.9456    0.0000 C   0  0
   10.9826  -11.3502    0.0000 C   0  0
   11.6943  -10.9245    0.0000 C   0  0
   11.6811  -10.1018    0.0000 C   0  0
    7.4098  -10.0239    0.0000 Cl  0  0
   12.3893   -9.6787    0.0000 Cl  0  0
   10.9937  -12.1751    0.0000 Cl  0  0
   10.0304   -6.9515    0.0000 C   0  0
    9.2110   -7.0477    0.0000 C   0  0
 13 15  1  0
 15 16  1  0
  7  8  1  0
  3  4  2  0
  8  9  2  0
  4  5  1  0
  9 10  1  0
 15 20  1  0
 16 17  1  0
 17 18  1  0
 18 19  1  0
 19 20  1  0
  5  1  1  0
 10 11  2  0
 21 22  2  0
 11  6  1  0
 22 23  1  0
  5  6  1  0
 23 24  2  0
  1  2  2  0
 24 25  1  0
  3 12  1  0
 25 26  2  0
 26 21  1  0
  1 21  1  0
  9 27  1  0
 12 13  1  0
 26 28  1  0
  6  7  2  0
 24 29  1  0
 12 14  2  0
  4 30  1  0
  2  3  1  0
 30 31  1  0
M  END