
          11280715452D 1   1.00000     0.00000     0

 19 21  0     0  0            999 V2000
    1.9167   -1.3750    0.0000 N   0  0  0  0  0  0           0  0  0
   -0.9250    0.2750    0.0000 C   0  0  3  0  0  0           0  0  0
   -1.6458   -0.1375    0.0000 O   0  0  0  0  0  0           0  0  0
   -0.9208    1.1000    0.0000 O   0  0  0  0  0  0           0  0  0
   -0.2208   -0.1375    0.0000 C   0  0  0  0  0  0           0  0  0
    1.2125   -0.9625    0.0000 C   0  0  0  0  0  0           0  0  0
    0.5042    0.2750    0.0000 C   0  0  0  0  0  0           0  0  0
    1.2167   -0.1375    0.0000 C   0  0  0  0  0  0           0  0  0
   -2.3458    1.1125    0.0000 C   0  0  3  0  0  0           0  0  0
    2.6375   -0.9667    0.0000 C   0  0  0  0  0  0           0  0  0
   -0.2208   -0.9625    0.0000 C   0  0  0  0  0  0           0  0  0
   -2.3500    0.2833    0.0000 C   0  0  0  0  0  0           0  0  0
   -1.6333    1.5208    0.0000 C   0  0  0  0  0  0           0  0  0
    0.5042   -1.3792    0.0000 C   0  0  0  0  0  0           0  0  0
    1.9167    0.2625    0.0000 C   0  0  0  0  0  0           0  0  0
    3.3500   -1.3792    0.0000 N   0  0  0  0  0  0           0  0  0
    2.6375   -0.1417    0.0000 C   0  0  0  0  0  0           0  0  0
   -2.5625    1.9125    0.0000 C   0  0  0  0  0  0           0  0  0
   -3.1458    0.9000    0.0000 C   0  0  0  0  0  0           0  0  0
  2  5  1  0     0  0
  3  2  1  0     0  0
  4  2  1  0     0  0
  5 11  2  0     0  0
  6  1  1  0     0  0
  7  8  2  0     0  0
  8  6  1  0     0  0
  9 13  1  0     0  0
 10  1  2  0     0  0
 11 14  1  0     0  0
 12  3  1  0     0  0
 13  4  1  0     0  0
 14  6  2  0     0  0
 15 17  2  0     0  0
 16 10  1  0     0  0
 17 10  1  0     0  0
 18  9  1  0     0  0
 19  9  1  0     0  0
  8 15  1  0     0  0
  5  7  1  0     0  0
  9 12  1  0     0  0
M  END