
  SciTegic12211612162D

 40 42  0  0  0  0            999 V2000
    1.2990   -0.7500    0.0000 C   0  0  1  0  0  0
    1.2990    0.7500    0.0000 C   0  0  1  0  0  0
    0.0000    1.5000    0.0000 C   0  0  2  0  0  0
    5.2007   -1.4909    0.0000 C   0  0
    0.0000   -1.5000    0.0000 O   0  0
    3.8990   -0.7455    0.0000 C   0  0
   -1.2990    0.7500    0.0000 C   0  0  1  0  0  0
    6.4972   -0.7364    0.0000 C   0  0
   -1.2990   -0.7500    0.0000 C   0  0  1  0  0  0
    2.6003   -1.4977    0.0000 O   0  0
    3.8939    0.7546    0.0000 C   0  0
    6.4920    0.7636    0.0000 C   0  0
    5.2091   -2.9917    0.0000 C   0  0
    5.1903    1.5091    0.0000 C   0  0
    4.1730   -3.5972    0.0000 O   0  0
    6.5125   -3.7357    0.0000 C   0  0
    2.3383    1.3500    0.0000 O   0  0
    0.0000    2.7000    0.0000 O   0  0
   -2.3383    1.3500    0.0000 O   0  0
    7.5385   -1.3328    0.0000 O   0  0
    7.8243   -5.9805    0.0000 C   0  0
   10.4328   -7.4625    0.0000 C   0  0
    6.5208   -5.2365    0.0000 C   0  0
   -2.6003   -1.4978    0.0000 C   0  0
    5.1862    2.7091    0.0000 O   0  0
    9.1390   -8.2215    0.0000 C   0  0
   10.4224   -5.9625    0.0000 C   0  0
    7.8348   -7.4805    0.0000 C   0  0
    9.1181   -5.2215    0.0000 C   0  0
   11.4762   -8.0552    0.0000 O   0  0
   -3.6387   -0.8963    0.0000 O   0  0
    9.1464   -9.7223    0.0000 N   0  0
    7.8508  -10.4799    0.0000 C   0  0
    7.8581  -11.9807    0.0000 C   0  0
    6.8084   -9.8853    0.0000 O   0  0
    6.5626  -12.7383    0.0000 C   0  0
    6.5699  -14.2391    0.0000 C   0  0
    5.2743  -14.9967    0.0000 C   0  0
    5.2817  -16.4975    0.0000 C   0  0
    4.2458  -17.1032    0.0000 S   0  0
  2  1  1  0
  3  2  1  0
  4  6  2  0
  5  1  1  0
  6 10  1  0
  7  9  1  0
  8  4  1  0
  9  5  1  0
  1 10  1  6
 11  6  1  0
 12 14  1  0
 13  4  1  0
 14 11  2  0
 15 13  2  0
 16 13  1  0
  2 17  1  1
  3 18  1  6
  7 19  1  1
 20  8  1  0
 21 23  1  0
 22 27  1  0
 23 16  1  0
  9 24  1  6
 25 14  1  0
 26 28  1  0
 27 29  2  0
 28 21  2  0
 29 21  1  0
 30 22  1  0
 31 24  1  0
  3  7  1  0
 12  8  2  0
 22 26  2  0
 26 32  1  0
 32 33  1  0
 33 34  1  0
 33 35  2  0
 34 36  1  0
 36 37  1  0
 37 38  1  0
 38 39  1  0
 39 40  1  0
M  END