
          11280715222D 1   1.00000     0.00000     0

 20 22  0     0  0            999 V2000
    9.7421  -11.7305    0.0000 C   0  0  0  0  0  0           0  0  0
    9.7409  -12.5577    0.0000 C   0  0  0  0  0  0           0  0  0
   10.4556  -12.9704    0.0000 C   0  0  0  0  0  0           0  0  0
   10.4538  -11.3178    0.0000 C   0  0  0  0  0  0           0  0  0
   11.1690  -11.7269    0.0000 C   0  0  0  0  0  0           0  0  0
   11.1739  -12.5577    0.0000 C   0  0  0  0  0  0           0  0  0
   11.9656  -12.8099    0.0000 N   0  0  0  0  0  0           0  0  0
   12.4501  -12.1348    0.0000 C   0  0  0  0  0  0           0  0  0
   11.9577  -11.4656    0.0000 N   0  0  0  0  0  0           0  0  0
   13.2749  -12.1299    0.0000 C   0  0  0  0  0  0           0  0  0
   13.6915  -12.8418    0.0000 O   0  0  0  0  0  0           0  0  0
   13.6830  -11.4132    0.0000 N   0  0  3  0  0  0           0  0  0
   14.5051  -11.4135    0.0000 C   0  0  0  0  0  0           0  0  0
   14.9132  -10.7009    0.0000 C   0  0  0  0  0  0           0  0  0
   14.5001   -9.9865    0.0000 N   0  0  3  0  0  0           0  0  0
   13.6743   -9.9894    0.0000 C   0  0  0  0  0  0           0  0  0
   13.2617  -10.7067    0.0000 C   0  0  0  0  0  0           0  0  0
   14.9110   -9.2714    0.0000 C   0  0  0  0  0  0           0  0  0
   10.4513  -10.4930    0.0000 C   0  0  0  0  0  0           0  0  0
    9.0277  -11.3183    0.0000 F   0  0  0  0  0  0           0  0  0
  4  1  2  0     0  0
  8 10  1  0     0  0
  5  6  2  0     0  0
 10 11  2  0     0  0
 10 12  1  0     0  0
 12 13  1  0     0  0
  2  3  2  0     0  0
  3  6  1  0     0  0
  1  2  1  0     0  0
  5  4  1  0     0  0
  6  7  1  0     0  0
 12 17  1  0     0  0
 13 14  1  0     0  0
 14 15  1  0     0  0
 15 16  1  0     0  0
 16 17  1  0     0  0
  7  8  1  0     0  0
 15 18  1  0     0  0
  8  9  2  0     0  0
  4 19  1  0     0  0
  9  5  1  0     0  0
  1 20  1  0     0  0
M  END