
          11280715492D 1   1.00000     0.00000     0

 22 24  0     0  0            999 V2000
    1.4865  -23.7114    0.0000 O   0  0  0  0  0  0           0  0  0
    2.1992  -24.1270    0.0000 C   0  0  0  0  0  0           0  0  0
   -2.0792  -21.6458    0.0000 C   0  0  3  0  0  0           0  0  0
   -2.0792  -22.4708    0.0000 C   0  0  0  0  0  0           0  0  0
   -1.3671  -22.8792    0.0000 C   0  0  0  0  0  0           0  0  0
   -0.6551  -22.4708    0.0000 N   0  0  3  0  0  0           0  0  0
   -0.6551  -21.6458    0.0000 C   0  0  0  0  0  0           0  0  0
   -1.3671  -21.2292    0.0000 C   0  0  0  0  0  0           0  0  0
   -2.7948  -21.2354    0.0000 C   0  0  0  0  0  0           0  0  0
   -3.5081  -21.6500    0.0000 C   0  0  0  0  0  0           0  0  0
   -4.2625  -21.3168    0.0000 C   0  0  0  0  0  0           0  0  0
   -4.8127  -21.9315    0.0000 N   0  0  0  0  0  0           0  0  0
   -4.3981  -22.6448    0.0000 C   0  0  0  0  0  0           0  0  0
   -3.5917  -22.4708    0.0000 N   0  0  0  0  0  0           0  0  0
    0.0587  -22.8844    0.0000 C   0  0  0  0  0  0           0  0  0
    0.0575  -23.7094    0.0000 C   0  0  0  0  0  0           0  0  0
    0.7714  -24.1229    0.0000 C   0  0  0  0  0  0           0  0  0
    2.1936  -24.9511    0.0000 C   0  0  0  0  0  0           0  0  0
    2.9055  -25.3666    0.0000 C   0  0  0  0  0  0           0  0  0
    3.6227  -24.9571    0.0000 C   0  0  0  0  0  0           0  0  0
    3.6237  -24.1279    0.0000 C   0  0  0  0  0  0           0  0  0
    2.9112  -23.7161    0.0000 C   0  0  0  0  0  0           0  0  0
  3  8  1  0     0  0
  4  5  1  0     0  0
  5  6  1  0     0  0
 11 12  1  0     0  0
 12 13  1  0     0  0
 13 14  2  0     0  0
 14 10  1  0     0  0
  6  7  1  0     0  0
  6 15  1  0     0  0
  7  8  1  0     0  0
 15 16  1  0     0  0
 16 17  1  0     0  0
 17  1  1  0     0  0
  3  9  1  0     0  0
  2 18  2  0     0  0
  1  2  1  0     0  0
 18 19  1  0     0  0
  9 10  1  0     0  0
 19 20  2  0     0  0
 10 11  2  0     0  0
 20 21  1  0     0  0
  3  4  1  0     0  0
 21 22  2  0     0  0
 22  2  1  0     0  0
M  END