
  SciTegic02271514512D

 33 37  0  0  0  0            999 V2000
    7.0156   -5.2141    0.0000 N   0  0
    5.1945   -6.3809    0.0000 C   0  0
    5.9892   -6.1895    0.0000 N   0  0
    6.2209   -5.4055    0.0000 C   0  0
    5.6577   -4.8130    0.0000 C   0  0
    4.8630   -5.0044    0.0000 C   0  0
    4.6314   -5.7884    0.0000 N   0  0
    5.8893   -4.0290    0.0000 F   0  0
    4.2145   -8.2555    0.0000 C   0  0
    4.1925   -7.4383    0.0000 C   0  0
    3.4738   -7.0488    0.0000 C   0  0
    2.7771   -7.4764    0.0000 C   0  0
    2.7991   -8.2936    0.0000 C   0  0
    3.5178   -8.6831    0.0000 N   0  0
    4.9985   -8.4871    0.0000 N   0  0
    4.9629   -7.1649    0.0000 C   0  0
    5.4610   -7.8131    0.0000 C   0  0
    2.0584   -7.0869    0.0000 Cl  0  0
    7.5786   -5.8065    0.0000 C   0  0  1  0  0  0
    7.3437   -6.5908    0.0000 C   0  0
    7.9028   -7.1819    0.0000 C   0  0
    8.6986   -6.9946    0.0000 C   0  0
    8.9322   -6.2105    0.0000 C   0  0  2  0  0  0
    8.3701   -5.6138    0.0000 C   0  0
    9.7274   -6.0219    0.0000 N   0  0
   10.2883   -6.6162    0.0000 C   0  0
   10.0541   -7.3991    0.0000 O   0  0
   11.0800   -6.4285    0.0000 C   0  0
   11.6999   -6.9609    0.0000 N   0  0
   12.3979   -6.5357    0.0000 C   0  0
   12.2092   -5.7406    0.0000 N   0  0
   11.3947   -5.6744    0.0000 C   0  0
   11.6336   -7.7754    0.0000 C   0  0
  2  3  1  0
  3  4  2  0
  4  5  1  0
  5  6  2  0
  6  7  1  0
  2  7  2  0
  5  8  1  0
  9 10  1  0
 10 11  2  0
 11 12  1  0
 12 13  2  0
 13 14  1  0
  9 14  2  0
 16 17  2  0
 15 17  1  0
  9 15  1  0
 10 16  1  0
 12 18  1  0
  2 16  1  0
  1  4  1  0
 19  1  1  6
 19 20  1  0
 19 24  1  0
 20 21  1  0
 21 22  1  0
 22 23  1  0
 23 24  1  0
 23 25  1  6
 25 26  1  0
 26 27  2  0
 28 29  1  0
 29 30  1  0
 30 31  2  0
 31 32  1  0
 32 28  2  0
 26 28  1  0
 29 33  1  0
M  END