
          11280714572D 1   1.00000     0.00000     0

 20 22  0     0  0            999 V2000
    4.0667   -8.8917    0.0000 C   0  0  0  0  0  0           0  0  0
    4.8167   -8.5500    0.0000 C   0  0  0  0  0  0           0  0  0
    5.3750   -9.1625    0.0000 N   0  0  0  0  0  0           0  0  0
    4.1542   -9.7042    0.0000 C   0  0  0  0  0  0           0  0  0
    4.9667   -9.8792    0.0000 C   0  0  0  0  0  0           0  0  0
    3.3500   -8.4792    0.0000 C   0  0  0  0  0  0           0  0  0
    4.9875   -7.7417    0.0000 O   0  0  0  0  0  0           0  0  0
    1.2042   -9.7292    0.0000 C   0  0  0  0  0  0           0  0  0
    0.4917  -10.1417    0.0000 N   0  0  3  0  0  0           0  0  0
    2.6375   -8.9000    0.0000 C   0  0  0  0  0  0           0  0  0
    1.9167  -10.1417    0.0000 C   0  0  0  0  0  0           0  0  0
    1.2042   -8.9000    0.0000 C   0  0  0  0  0  0           0  0  0
    1.9167   -8.4875    0.0000 C   0  0  0  0  0  0           0  0  0
    2.6417   -9.7250    0.0000 C   0  0  0  0  0  0           0  0  0
    3.6125  -10.3167    0.0000 C   0  0  0  0  0  0           0  0  0
    5.2167  -10.6542    0.0000 C   0  0  0  0  0  0           0  0  0
   -0.2208   -9.7292    0.0000 C   0  0  0  0  0  0           0  0  0
    0.4917  -10.9667    0.0000 C   0  0  0  0  0  0           0  0  0
    3.8667  -11.1000    0.0000 C   0  0  0  0  0  0           0  0  0
    4.6750  -11.2667    0.0000 C   0  0  0  0  0  0           0  0  0
  2  1  1  0     0  0
  3  2  1  0     0  0
  4  1  1  0     0  0
  5  4  2  0     0  0
  6  1  2  0     0  0
  7  2  2  0     0  0
  8 11  1  0     0  0
  9  8  1  0     0  0
 10  6  1  0     0  0
 11 14  2  0     0  0
 12 13  1  0     0  0
 13 10  2  0     0  0
 14 10  1  0     0  0
 15  4  1  0     0  0
 16  5  1  0     0  0
 17  9  1  0     0  0
 18  9  1  0     0  0
 19 15  2  0     0  0
 20 19  1  0     0  0
  3  5  1  0     0  0
  8 12  2  0     0  0
 16 20  2  0     0  0
M  END