
  SciTegic03161210572D

 36 37  0  0  0  0            999 V2000
   21.8583  -10.1958    0.0000 F   0  0
   22.2750  -10.9125    0.0000 C   0  0
   22.6873  -10.1933    0.0000 F   0  0
   21.9667  -12.0375    0.0000 F   0  0
   21.5583  -11.3250    0.0000 C   0  0
   21.1455  -12.0349    0.0000 F   0  0
   20.4292  -10.1958    0.0000 F   0  0
   20.8458  -10.9125    0.0000 C   0  0
   21.2582  -10.1933    0.0000 F   0  0
   20.5375  -12.0375    0.0000 F   0  0
   20.1292  -11.3250    0.0000 C   0  0
   19.7163  -12.0349    0.0000 F   0  0
   19.0000  -10.1958    0.0000 F   0  0
   19.4167  -10.9125    0.0000 C   0  0
   19.8290  -10.1933    0.0000 F   0  0
   19.1083  -12.0375    0.0000 F   0  0
   18.7000  -11.3250    0.0000 C   0  0
   18.2871  -12.0349    0.0000 F   0  0
   17.2750  -11.3292    0.0000 N   0  0
   17.9895  -10.9167    0.0000 C   0  0
   17.9895  -10.0917    0.0000 O   0  0
   22.9908  -11.3292    0.0000 C   0  0
   23.7052  -10.9167    0.0000 N   0  0
   22.9908  -12.1542    0.0000 O   0  0
   24.4197  -11.3292    0.0000 O   0  0
   16.5605  -10.9167    0.0000 C   0  0
   16.3951  -10.1107    0.0000 N   0  0
   15.5758  -10.0142    0.0000 C   0  0
   15.2308  -10.7636    0.0000 C   0  0
   15.8369  -11.3232    0.0000 S   0  0
   15.1741   -9.2992    0.0000 C   0  0
   15.5973   -8.5897    0.0000 C   0  0
   15.1945   -7.8706    0.0000 C   0  0
   14.3686   -7.8598    0.0000 C   0  0
   13.9473   -8.5740    0.0000 C   0  0
   14.3525   -9.2902    0.0000 C   0  0
 20 21  2  0
 17 14  1  0
 14 11  1  0
 11  8  1  0
  8  5  1  0
  5  2  1  0
 14 13  1  0
  2 22  1  0
 15 14  1  0
 22 23  1  0
  9  8  1  0
 22 24  2  0
  5  4  1  0
 23 25  1  0
  6  5  1  0
 19 26  1  0
 26 27  2  0
 17 16  1  0
 18 17  1  0
 11 10  1  0
 27 28  1  0
 28 29  2  0
 29 30  1  0
 30 26  1  0
 12 11  1  0
  2  1  1  0
 31 32  2  0
  3  2  1  0
 32 33  1  0
 19 20  1  0
 33 34  2  0
 20 17  1  0
 34 35  1  0
  8  7  1  0
 35 36  2  0
 36 31  1  0
 28 31  1  0
M  END