
  SciTegic11201309402D

 27 28  0  0  1  0            999 V2000
    1.7042   -0.7667    0.0000 N   0  0
    0.9917   -0.3542    0.0000 C   0  0
    7.4167   -1.7792    0.0000 P   0  0
    0.9917    0.4708    0.0000 N   0  0
    6.5917   -1.7792    0.0000 O   0  0
    8.2417   -1.7792    0.0000 O   0  0
    5.7667   -1.7792    0.0000 P   0  0
    1.7042   -2.4792    0.0000 C   0  0  1  0  0  0
    9.0667   -1.7792    0.0000 P   0  0
    2.4167   -0.3542    0.0000 C   0  0
    2.4167    0.4708    0.0000 C   0  0
    1.7042    0.8833    0.0000 C   0  0
    2.7125   -2.0625    0.0000 O   0  0
    2.2292   -3.3042    0.0000 C   0  0
    7.4125   -0.9542    0.0000 O   0  0
    0.2792   -0.7667    0.0000 O   0  0
    3.2042   -3.3042    0.0000 C   0  0
    4.9417   -1.7792    0.0000 O   0  0
    5.7625   -0.9542    0.0000 O   0  0
    9.0625   -0.9542    0.0000 O   0  0
    3.7042   -2.5000    0.0000 C   0  0  2  0  0  0
    7.4125   -2.6042    0.0000 O   0  0
    4.1167   -1.7792    0.0000 C   0  0
    5.7625   -2.6042    0.0000 O   0  0
    9.0625   -2.6042    0.0000 O   0  0
    9.8917   -1.7792    0.0000 O   0  0
    1.7042    1.7083    0.0000 N   0  0
  2  1  1  0
  3  5  1  0
  4  2  1  0
  5  7  1  0
  6  3  1  0
  7 18  1  0
  8  1  1  1
  9  6  1  0
 10  1  1  0
 11 10  2  0
 12 11  1  0
 13  8  1  0
  8 14  1  0
 15  3  2  0
 16  2  2  0
 17 14  2  0
 18 23  1  0
 19  7  2  0
 20  9  2  0
 21 13  1  0
 22  3  1  0
 21 23  1  1
 24  7  1  0
 25  9  1  0
 26  9  1  0
 27 12  1  0
 12  4  2  0
 21 17  1  0
M  END