
          11280714442D 1   1.00000     0.00000     0

 26 28  0     0  0            999 V2000
    8.3542   -7.2292    0.0000 C   0  0  0  0  0  0           0  0  0
    9.0625   -6.8167    0.0000 C   0  0  0  0  0  0           0  0  0
    7.6417   -6.8250    0.0000 C   0  0  0  0  0  0           0  0  0
    8.3625   -8.0542    0.0000 C   0  0  0  0  0  0           0  0  0
    9.0542   -5.9917    0.0000 C   0  0  0  0  0  0           0  0  0
    7.6375   -6.0000    0.0000 C   0  0  0  0  0  0           0  0  0
    9.8417   -7.0667    0.0000 N   0  0  0  0  0  0           0  0  0
    8.3417   -5.5875    0.0000 C   0  0  0  0  0  0           0  0  0
   10.3167   -6.4042    0.0000 C   0  0  0  0  0  0           0  0  0
    9.8292   -5.7292    0.0000 C   0  0  0  0  0  0           0  0  0
    7.6500   -8.4667    0.0000 O   0  0  0  0  0  0           0  0  0
    6.2125   -6.8292    0.0000 N   0  0  0  0  0  0           0  0  0
    6.9167   -5.5917    0.0000 C   0  0  3  0  0  0           0  0  0
    6.2042   -6.0042    0.0000 C   0  0  0  0  0  0           0  0  0
    9.0792   -8.4625    0.0000 N   0  0  0  0  0  0           0  0  0
    4.0667   -7.2250    0.0000 C   0  0  0  0  0  0           0  0  0
    6.9125   -4.7667    0.0000 O   0  0  0  0  0  0           0  0  0
    3.3542   -6.8042    0.0000 C   0  0  0  0  0  0           0  0  0
    4.7792   -6.8167    0.0000 C   0  0  0  0  0  0           0  0  0
    5.4917   -7.2375    0.0000 C   0  0  3  0  0  0           0  0  0
    3.3625   -5.9875    0.0000 C   0  0  0  0  0  0           0  0  0
    2.6417   -7.2167    0.0000 C   0  0  0  0  0  0           0  0  0
    5.4792   -8.0625    0.0000 C   0  0  0  0  0  0           0  0  0
    1.9292   -6.8042    0.0000 C   0  0  0  0  0  0           0  0  0
    2.6542   -5.5667    0.0000 C   0  0  0  0  0  0           0  0  0
    1.9292   -5.9750    0.0000 C   0  0  0  0  0  0           0  0  0
  2  1  1  0     0  0
  3  1  2  0     0  0
  4  1  1  0     0  0
  5  2  2  0     0  0
  6  3  1  0     0  0
  7  2  1  0     0  0
  8  6  2  0     0  0
  9  7  1  0     0  0
 10  5  1  0     0  0
 11  4  2  0     0  0
 12 14  1  0     0  0
 13  6  1  0     0  0
 14 13  1  0     0  0
 15  4  1  0     0  0
 16 19  1  0     0  0
 17 13  1  0     0  0
 18 16  1  0     0  0
 19 20  1  0     0  0
 20 12  1  0     0  0
 21 18  2  0     0  0
 22 18  1  0     0  0
 23 20  1  0     0  0
 24 22  2  0     0  0
 25 21  1  0     0  0
 26 24  1  0     0  0
  8  5  1  0     0  0
  9 10  2  0     0  0
 25 26  2  0     0  0
M  END