
  SciTegic02271515152D

 29 31  0  0  0  0            999 V2000
   13.3543   -8.1966    0.0000 C   0  0
   13.3531   -9.0162    0.0000 C   0  0
   14.0612   -9.4251    0.0000 C   0  0
   14.7709   -9.0157    0.0000 C   0  0
   14.7680   -8.1930    0.0000 C   0  0
   14.0594   -7.7878    0.0000 C   0  0
   12.6465   -7.7882    0.0000 C   0  0
   11.9389   -8.1970    0.0000 N   0  0
   15.4752   -9.4213    0.0000 C   0  0
   15.5619  -10.2338    0.0000 C   0  0
   16.3615  -10.4025    0.0000 N   0  0
   16.7690   -9.6941    0.0000 C   0  0
   16.2212   -9.0877    0.0000 S   0  0
   11.2311   -7.7886    0.0000 C   0  0
   10.5235   -8.1973    0.0000 O   0  0
   11.2309   -6.9714    0.0000 C   0  0  2  0  0  0
   11.8973   -6.4919    0.0000 C   0  0
   11.6446   -5.7148    0.0000 C   0  0  2  0  0  0
   10.8273   -5.7150    0.0000 C   0  0
   10.5751   -6.4923    0.0000 N   0  0
    9.7976   -6.7439    0.0000 C   0  0
    9.1909   -6.1964    0.0000 C   0  0
    9.6268   -7.5430    0.0000 O   0  0
    8.4135   -6.4481    0.0000 C   0  0
   12.1247   -5.0535    0.0000 O   0  0
    7.8068   -5.9006    0.0000 C   0  0
    8.2427   -7.2472    0.0000 C   0  0
    7.6189   -6.6572    0.0000 C   0  0
   14.0610  -10.2423    0.0000 C   0  0
  1  2  2  0
  2  3  1  0
  3  4  2  0
  4  5  1  0
  5  6  2  0
  6  1  1  0
  1  7  1  0
  7  8  1  0
  9 10  2  0
 10 11  1  0
 11 12  2  0
 12 13  1  0
 13  9  1  0
  4  9  1  0
  8 14  1  0
 14 15  2  0
 16 14  1  1
 16 17  1  0
 17 18  1  0
 18 19  1  0
 19 20  1  0
 20 16  1  0
 20 21  1  0
 21 22  1  0
 21 23  2  0
 22 24  1  0
 18 25  1  6
 24 26  1  0
 24 27  1  0
 24 28  1  0
  3 29  1  0
M  END