
  Mrv0541 04051115152D          

 17 19  0  0  0  0            999 V2000
    1.9580    0.3457    0.0000 C   0  0  0  0  0  0  0  0  0  0  0  0
    1.7031    1.1303    0.0000 C   0  0  0  0  0  0  0  0  0  0  0  0
    0.8961    1.3019    0.0000 C   0  0  0  0  0  0  0  0  0  0  0  0
    0.3441    0.6888    0.0000 C   0  0  0  0  0  0  0  0  0  0  0  0
    0.5990   -0.0959    0.0000 C   0  0  0  0  0  0  0  0  0  0  0  0
   -0.4809    0.6888    0.0000 C   0  0  0  0  0  0  0  0  0  0  0  0
   -0.0684   -0.5808    0.0000 N   0  0  0  0  0  0  0  0  0  0  0  0
   -0.0684   -1.4058    0.0000 C   0  0  0  0  0  0  0  0  0  0  0  0
   -0.7829   -1.8183    0.0000 O   0  0  0  0  0  0  0  0  0  0  0  0
    0.6461   -1.8183    0.0000 C   0  0  0  0  0  0  0  0  0  0  0  0
   -0.7359   -0.0959    0.0000 C   0  0  0  0  0  0  0  0  0  0  0  0
   -1.0330    1.3019    0.0000 C   0  0  0  0  0  0  0  0  0  0  0  0
   -1.5428   -0.2674    0.0000 C   0  0  0  0  0  0  0  0  0  0  0  0
   -1.8399    1.1303    0.0000 C   0  0  0  0  0  0  0  0  0  0  0  0
   -2.0949    0.3457    0.0000 C   0  0  0  0  0  0  0  0  0  0  0  0
    1.4060   -0.2674    0.0000 C   0  0  0  0  0  0  0  0  0  0  0  0
    1.6609   -1.0520    0.0000 O   0  0  0  0  0  0  0  0  0  0  0  0
  2  1  1  0  0  0  0
 16  1  1  0  0  0  0
  2  3  1  0  0  0  0
  3  4  1  0  0  0  0
  5  4  2  0  0  0  0
  6  4  1  0  0  0  0
  5  7  1  0  0  0  0
  5 16  1  0  0  0  0
  6 11  1  0  0  0  0
  6 12  2  0  0  0  0
  8  7  1  0  0  0  0
 11  7  1  0  0  0  0
  8  9  2  0  0  0  0
  8 10  1  0  0  0  0
 11 13  2  0  0  0  0
 12 14  1  0  0  0  0
 15 13  1  0  0  0  0
 15 14  2  0  0  0  0
 16 17  2  0  0  0  0
M  END