
          11280715422D 1   1.00000     0.00000     0

 29 32  0     0  0            999 V2000
   -0.5333   -0.0417    0.0000 C   0  0  0  0  0  0           0  0  0
    0.4542    0.8500    0.0000 N   0  0  0  0  0  0           0  0  0
    0.7917    0.0958    0.0000 C   0  0  0  0  0  0           0  0  0
   -0.3625    0.7625    0.0000 C   0  0  0  0  0  0           0  0  0
    0.1792   -0.4542    0.0000 S   0  0  0  0  0  0           0  0  0
    1.6000   -0.0750    0.0000 C   0  0  0  0  0  0           0  0  0
   -1.2458   -0.4542    0.0000 C   0  0  0  0  0  0           0  0  0
    1.8542   -0.8542    0.0000 N   0  0  0  0  0  0           0  0  0
   -1.2458   -1.2875    0.0000 C   0  0  0  0  0  0           0  0  0
    2.6542   -1.0375    0.0000 N   0  0  3  0  0  0           0  0  0
   -0.9208    1.3833    0.0000 C   0  0  0  0  0  0           0  0  0
   -1.9708   -0.0500    0.0000 C   0  0  0  0  0  0           0  0  0
   -1.9708   -1.7000    0.0000 C   0  0  0  0  0  0           0  0  0
    2.1542    0.5458    0.0000 O   0  0  0  0  0  0           0  0  0
   -1.7208    1.2000    0.0000 C   0  0  0  0  0  0           0  0  0
   -0.6500    2.1625    0.0000 C   0  0  0  0  0  0           0  0  0
   -2.6833   -1.2875    0.0000 C   0  0  0  0  0  0           0  0  0
   -0.5250   -1.7000    0.0000 Cl  0  0  0  0  0  0           0  0  0
   -2.6833   -0.4542    0.0000 C   0  0  0  0  0  0           0  0  0
   -2.0208    2.6000    0.0000 C   0  0  0  0  0  0           0  0  0
   -2.2625    1.8125    0.0000 C   0  0  0  0  0  0           0  0  0
   -1.2000    2.7833    0.0000 C   0  0  0  0  0  0           0  0  0
   -3.3875   -1.7000    0.0000 Cl  0  0  0  0  0  0           0  0  0
   -2.5625    3.2125    0.0000 Cl  0  0  0  0  0  0           0  0  0
    3.2125   -0.4167    0.0000 C   0  0  0  0  0  0           0  0  0
    2.9125   -1.8167    0.0000 C   0  0  0  0  0  0           0  0  0
    4.0167   -0.6000    0.0000 C   0  0  0  0  0  0           0  0  0
    3.7167   -2.0000    0.0000 C   0  0  0  0  0  0           0  0  0
    4.2750   -1.3875    0.0000 C   0  0  0  0  0  0           0  0  0
  2  4  1  0     0  0
  3  5  1  0     0  0
  4  1  2  0     0  0
  5  1  1  0     0  0
  6  3  1  0     0  0
  7  1  1  0     0  0
  8  6  1  0     0  0
  9  7  1  0     0  0
 10  8  1  0     0  0
 11  4  1  0     0  0
 12  7  2  0     0  0
 13  9  2  0     0  0
 14  6  2  0     0  0
 15 11  1  0     0  0
 16 11  2  0     0  0
 17 19  2  0     0  0
 18  9  1  0     0  0
 19 12  1  0     0  0
 20 22  2  0     0  0
 21 15  2  0     0  0
 22 16  1  0     0  0
 23 17  1  0     0  0
 24 20  1  0     0  0
 25 10  1  0     0  0
 26 10  1  0     0  0
 27 25  1  0     0  0
 28 26  1  0     0  0
 29 28  1  0     0  0
  3  2  2  0     0  0
 17 13  1  0     0  0
 20 21  1  0     0  0
 29 27  1  0     0  0
M  END