
  SciTegic12171313032D

 25 27  0  0  0  0            999 V2000
   16.3465  -22.8070    0.0000 C   0  0
   16.3454  -23.6266    0.0000 C   0  0
   17.0534  -24.0355    0.0000 N   0  0
   17.7631  -23.6261    0.0000 C   0  0
   17.7603  -22.8034    0.0000 C   0  0
   17.0516  -22.3982    0.0000 N   0  0
   18.4714  -24.0336    0.0000 N   0  0
   18.4664  -22.3922    0.0000 N   0  0
   18.4634  -21.5750    0.0000 C   0  0  1  0  0  0
   19.1695  -21.1637    0.0000 C   0  0
   17.7541  -21.1691    0.0000 C   0  0
   19.8740  -21.5732    0.0000 C   0  0
   20.5797  -21.1626    0.0000 C   0  0
   20.5771  -20.3445    0.0000 C   0  0
   19.8629  -19.9388    0.0000 C   0  0
   19.1601  -20.3517    0.0000 C   0  0
   15.6408  -22.3988    0.0000 C   0  0
   15.6419  -21.5805    0.0000 C   0  0
   14.9350  -21.1721    0.0000 C   0  0
   14.2264  -21.5809    0.0000 C   0  0
   14.2292  -22.4024    0.0000 C   0  0
   14.9368  -22.8070    0.0000 C   0  0
   13.5211  -22.8114    0.0000 C   0  0
   12.8119  -22.4055    0.0000 O   0  0
   13.5242  -23.6286    0.0000 O   0  0
  1  2  2  0
  2  3  1  0
  3  4  2  0
  4  5  1  0
  5  6  2  0
  6  1  1  0
  4  7  1  0
  5  8  1  0
  8  9  1  0
  9 10  1  0
  9 11  1  6
 10 12  1  0
 12 13  1  0
 13 14  1  0
 14 15  1  0
 15 16  1  0
 16 10  1  0
 17 18  2  0
 18 19  1  0
 19 20  2  0
 20 21  1  0
 21 22  2  0
 22 17  1  0
  1 17  1  0
 23 24  1  0
 23 25  2  0
 21 23  1  0
M  END