
          11280714522D 1   1.00000     0.00000     0

 31 35  0     0  0            999 V2000
    1.6167   -0.7042    0.0000 C   0  0  0  0  0  0           0  0  0
    1.7667    0.3833    0.0000 N   0  0  0  0  0  0           0  0  0
    1.3625   -0.1542    0.0000 N   0  0  0  0  0  0           0  0  0
    2.3292   -0.0417    0.0000 N   0  0  0  0  0  0           0  0  0
    2.2125   -0.6292    0.0000 N   0  0  0  0  0  0           0  0  0
   -2.1708    1.3250    0.0000 N   0  0  0  0  0  0           0  0  0
    1.3167   -1.2250    0.0000 C   0  0  0  0  0  0           0  0  0
   -1.5333    0.5083    0.0000 C   0  0  0  0  0  0           0  0  0
   -2.0000    0.1333    0.0000 C   0  0  0  0  0  0           0  0  0
   -1.6125    1.0958    0.0000 C   0  0  0  0  0  0           0  0  0
    0.8000   -1.5167    0.0000 C   0  0  0  0  0  0           0  0  0
   -2.5583    0.3583    0.0000 C   0  0  0  0  0  0           0  0  0
   -2.6458    0.9583    0.0000 C   0  0  0  0  0  0           0  0  0
    0.2792   -1.2125    0.0000 C   0  0  0  0  0  0           0  0  0
   -1.8458   -0.4500    0.0000 O   0  0  0  0  0  0           0  0  0
   -0.2375   -1.5042    0.0000 C   0  0  0  0  0  0           0  0  0
    0.2917   -0.6125    0.0000 C   0  0  0  0  0  0           0  0  0
   -1.2583   -0.2917    0.0000 C   0  0  0  0  0  0           0  0  0
   -0.7458   -0.6000    0.0000 C   0  0  0  0  0  0           0  0  0
   -0.7583   -1.2000    0.0000 C   0  0  0  0  0  0           0  0  0
   -0.2250   -0.3042    0.0000 C   0  0  0  0  0  0           0  0  0
   -0.9750    0.2875    0.0000 C   0  0  0  0  0  0           0  0  0
    1.8375   -1.5292    0.0000 C   0  0  0  0  0  0           0  0  0
    0.7917   -2.1167    0.0000 C   0  0  0  0  0  0           0  0  0
   -1.1500    1.4708    0.0000 C   0  0  0  0  0  0           0  0  0
   -3.2000    1.1833    0.0000 C   0  0  0  0  0  0           0  0  0
   -0.5083    0.6583    0.0000 C   0  0  0  0  0  0           0  0  0
   -3.2833    1.7708    0.0000 C   0  0  0  0  0  0           0  0  0
    1.3042   -2.4250    0.0000 C   0  0  0  0  0  0           0  0  0
    1.8292   -2.1292    0.0000 C   0  0  0  0  0  0           0  0  0
   -0.5958    1.2458    0.0000 C   0  0  0  0  0  0           0  0  0
  2  3  2  0     0  0
  3  1  1  0     0  0
  4  5  1  0     0  0
  5  1  2  0     0  0
  6 13  1  0     0  0
  7  1  1  0     0  0
  8  9  2  0     0  0
  9 15  1  0     0  0
 10  8  1  0     0  0
 11  7  2  0     0  0
 12  9  1  0     0  0
 13 12  2  0     0  0
 14 11  1  0     0  0
 15 18  1  0     0  0
 16 14  2  0     0  0
 17 14  1  0     0  0
 18 19  1  0     0  0
 19 21  1  0     0  0
 20 16  1  0     0  0
 21 17  2  0     0  0
 22  8  1  0     0  0
 23  7  1  0     0  0
 24 11  1  0     0  0
 25 10  1  0     0  0
 26 13  1  0     0  0
 27 22  1  0     0  0
 28 26  1  0     0  0
 29 30  1  0     0  0
 30 23  2  0     0  0
 31 27  1  0     0  0
  2  4  1  0     0  0
 29 24  2  0     0  0
 20 19  2  0     0  0
  6 10  2  0     0  0
 25 31  1  0     0  0
M  END