
  SciTegic12231509382D

 34 38  0  0  0  0            999 V2000
   -4.2045    0.9625    0.0000 C   0  0
   -4.2057    0.1350    0.0000 C   0  0
   -3.4882   -0.2780    0.0000 C   0  0
   -3.4902    1.3753    0.0000 C   0  0
   -2.7766    0.9666    0.0000 C   0  0
   -2.7763    0.1399    0.0000 C   0  0
   -1.9896   -0.1178    0.0000 N   0  0
   -1.5058    0.5537    0.0000 C   0  0
   -1.9908    1.2194    0.0000 N   0  0
   -1.5842    1.9354    0.0000 C   0  0
   -0.7592    1.9421    0.0000 C   0  0
   -0.3434    1.2259    0.0000 C   0  0
    0.4807    1.2323    0.0000 C   0  0
    0.8882    1.9490    0.0000 C   0  0
    0.4650    2.6653    0.0000 C   0  0
   -0.3576    2.6550    0.0000 C   0  0
    1.7131    1.9569    0.0000 F   0  0
   -0.6808    0.5545    0.0000 N   0  0
   -0.2675   -0.1621    0.0000 C   0  0
   -0.6814   -0.8761    0.0000 C   0  0
   -0.2720   -1.5905    0.0000 C   0  0
    0.5533   -1.5943    0.0000 N   0  0
    0.9676   -0.8769    0.0000 C   0  0
    0.5564   -0.1603    0.0000 C   0  0
    0.9636   -2.3082    0.0000 C   0  0
    1.7886   -2.3107    0.0000 C   0  0
    2.1989   -3.0246    0.0000 C   0  0
    1.7840   -3.7369    0.0000 C   0  0
    2.1935   -4.4502    0.0000 C   0  0
    3.0195   -4.4533    0.0000 C   0  0
    3.4341   -3.7364    0.0000 C   0  0
    3.0219   -3.0218    0.0000 C   0  0
    3.4308   -5.1712    0.0000 O   0  0
    4.2558   -5.1725    0.0000 C   0  0
 16 11  1  0
  6  7  1  0
 14 17  1  0
  7  8  2  0
  8 18  1  0
  8  9  1  0
 18 19  1  0
 19 20  1  0
  9  5  1  0
  4  1  1  0
  9 10  1  0
  5  6  1  0
 10 11  1  0
 19 24  1  0
 20 21  1  0
 21 22  1  0
 22 23  1  0
 23 24  1  0
 22 25  1  0
 11 12  2  0
 25 26  1  0
  2  3  1  0
 26 27  1  0
 12 13  1  0
 27 28  2  0
  3  6  2  0
 28 29  1  0
 13 14  2  0
 29 30  2  0
  1  2  2  0
 30 31  1  0
 14 15  1  0
 31 32  2  0
 32 27  1  0
  5  4  2  0
 30 33  1  0
 15 16  2  0
 33 34  1  0
M  END