
  SciTegic01161211232D

 21 23  0  0  0  0            999 V2000
   -2.1508  -24.5640    0.0000 C   0  0
   -2.1520  -25.3911    0.0000 C   0  0
   -1.4374  -25.8038    0.0000 C   0  0
   -1.4392  -24.1513    0.0000 C   0  0
   -0.7240  -24.5604    0.0000 C   0  0
   -0.7191  -25.3911    0.0000 C   0  0
    0.0726  -25.6433    0.0000 C   0  0
    0.5569  -24.9683    0.0000 C   0  0
    0.0647  -24.2990    0.0000 N   0  0
   -2.8666  -25.8029    0.0000 C   0  0
   -3.5805  -25.3899    0.0000 C   0  0  2  0  0  0
   -3.5994  -24.5630    0.0000 N   0  0
   -4.3890  -24.3247    0.0000 C   0  0
   -4.8596  -25.0020    0.0000 O   0  0
   -4.3608  -25.6589    0.0000 C   0  0
   -4.6603  -23.5459    0.0000 O   0  0
    0.4690  -26.3663    0.0000 C   0  0
    1.2935  -26.3846    0.0000 C   0  0
    1.7217  -25.6797    0.0000 N   0  0
    2.5463  -25.6980    0.0000 C   0  0
    1.3253  -24.9564    0.0000 C   0  0
  2 10  1  0
  5  6  1  0
 11 10  1  1
 11 12  1  0
  2  3  1  0
  3  6  2  0
  1  2  2  0
 12 13  1  0
 13 14  1  0
 14 15  1  0
 15 11  1  0
  5  4  2  0
 13 16  2  0
  6  7  1  0
  7 17  1  0
  7  8  2  0
 17 18  1  0
  8  9  1  0
 18 19  1  0
  9  5  1  0
 19 20  1  0
  4  1  1  0
 19 21  1  0
M  END