
  SciTegic04091416292D

 18 20  0  0  0  0            999 V2000
   14.4323  -18.1323    0.0000 C   0  0
   14.6634  -18.9185    0.0000 C   0  0
   15.4583  -19.1101    0.0000 C   0  0
   14.9926  -17.5404    0.0000 C   0  0
   15.7871  -17.7282    0.0000 C   0  0
   16.0249  -18.5163    0.0000 C   0  0
   16.4631  -17.2585    0.0000 N   0  0
   17.1188  -17.7562    0.0000 C   0  0
   16.8506  -18.5341    0.0000 C   0  0
   17.3872  -19.1518    0.0000 C   0  0
   18.1948  -18.9974    0.0000 N   0  0
   18.4630  -18.2195    0.0000 C   0  0
   17.9235  -17.5960    0.0000 C   0  0
   18.7299  -19.6151    0.0000 C   0  0
   18.4625  -20.3873    0.0000 C   0  0
   19.5323  -19.4605    0.0000 O   0  0
   14.1000  -19.5105    0.0000 N   0  0
   13.3057  -19.3185    0.0000 C   0  0
  1  2  2  0
  2  3  1  0
  3  6  2  0
  5  4  2  0
  4  1  1  0
  5  6  1  0
  6  9  1  0
  8  7  1  0
  7  5  1  0
  8  9  2  0
  8 13  1  0
  9 10  1  0
 10 11  1  0
 11 12  1  0
 12 13  1  0
 11 14  1  0
 14 15  1  0
 14 16  2  0
  2 17  1  0
 17 18  1  0
M  END