
          11280715262D 1   1.00000     0.00000     0

 35 39  0     1  0            999 V2000
    2.8375    0.1875    0.0000 N   0  0  3  0  0  0           0  0  0
    1.5292    0.4958    0.0000 C   0  0  2  0  0  0           0  0  0
    1.5917   -0.3292    0.0000 C   0  0  2  0  0  0           0  0  0
    0.7792    0.8583    0.0000 C   0  0  3  0  0  0           0  0  0
    3.5917    0.6083    0.0000 C   0  0  0  0  0  0           0  0  0
    2.2917    0.8208    0.0000 C   0  0  0  0  0  0           0  0  0
    2.4042   -0.5250    0.0000 C   0  0  0  0  0  0           0  0  0
    0.9167   -0.8000    0.0000 C   0  0  0  0  0  0           0  0  0
    4.3042    0.1958    0.0000 C   0  0  0  0  0  0           0  0  0
    0.1000    0.3833    0.0000 C   0  0  0  0  0  0           0  0  0
    5.0167    0.6083    0.0000 C   0  0  0  0  0  0           0  0  0
    3.5917    1.4333    0.0000 N   0  0  0  0  0  0           0  0  0
    0.9917    1.6583    0.0000 C   0  0  0  0  0  0           0  0  0
   -0.0208    1.0708    0.0000 C   0  0  0  0  0  0           0  0  0
    0.1667   -0.4500    0.0000 C   0  0  0  0  0  0           0  0  0
    0.9125   -1.6250    0.0000 O   0  0  0  0  0  0           0  0  0
    5.7292    0.1958    0.0000 C   0  0  0  0  0  0           0  0  0
    5.7292   -0.6292    0.0000 O   0  0  0  0  0  0           0  0  0
    5.0167    1.4333    0.0000 C   0  0  0  0  0  0           0  0  0
    0.4042    2.2375    0.0000 C   0  0  0  0  0  0           0  0  0
    1.7917    1.8708    0.0000 C   0  0  0  0  0  0           0  0  0
   -0.2250    1.8833    0.0000 C   0  0  0  0  0  0           0  0  0
   -0.6083    0.4958    0.0000 C   0  0  0  0  0  0           0  0  0
    6.4500    0.6083    0.0000 C   0  0  0  0  0  0           0  0  0
    6.4417   -1.0417    0.0000 C   0  0  0  0  0  0           0  0  0
    5.7292    1.8458    0.0000 C   0  0  0  0  0  0           0  0  0
    2.0042    2.6750    0.0000 C   0  0  0  0  0  0           0  0  0
    0.6167    3.0458    0.0000 C   0  0  0  0  0  0           0  0  0
   -1.0250    2.0958    0.0000 C   0  0  0  0  0  0           0  0  0
   -1.4083    0.7083    0.0000 C   0  0  0  0  0  0           0  0  0
    6.4500    1.4333    0.0000 C   0  0  0  0  0  0           0  0  0
    1.4167    3.2583    0.0000 C   0  0  0  0  0  0           0  0  0
   -1.6208    1.5125    0.0000 C   0  0  0  0  0  0           0  0  0
    1.5250    1.3208    0.0000 H   0  0  0  0  0  0           0  0  0
    1.8042   -1.1250    0.0000 H   0  0  0  0  0  0           0  0  0
  2  6  1  0     0  0
  3  7  1  0     0  0
  4  2  1  0     0  0
  5  1  1  0     0  0
  6  1  1  0     0  0
  7  1  1  0     0  0
  8  3  1  0     0  0
  9  5  1  0     0  0
 10  4  1  0     0  0
 11  9  1  0     0  0
 12  5  2  0     0  0
 13  4  1  0     0  0
 14  4  1  0     0  0
 15  8  1  0     0  0
 16  8  2  0     0  0
 17 11  1  0     0  0
 18 17  1  0     0  0
 19 11  2  0     0  0
 20 13  1  0     0  0
 21 13  2  0     0  0
 22 14  2  0     0  0
 23 14  1  0     0  0
 24 17  2  0     0  0
 25 18  1  0     0  0
 26 19  1  0     0  0
 27 21  1  0     0  0
 28 20  2  0     0  0
 29 22  1  0     0  0
 30 23  2  0     0  0
 31 26  2  0     0  0
 32 27  2  0     0  0
 33 30  1  0     0  0
  2 34  1  1     0  0
  3 35  1  1     0  0
  3  2  1  0     0  0
 10 15  1  0     0  0
 24 31  1  0     0  0
 29 33  2  0     0  0
 28 32  1  0     0  0
M  END