
  SciTegic04191613082D

171180  0  0  1  0            999 V2000
   -7.0379    7.4908    0.0000 C   0  0
   -7.6216    6.1090    0.0000 C   0  0  2  0  0  0
   -7.9153    4.6380    0.0000 N   0  0
   -7.9068    3.1380    0.0000 C   0  0
   -9.1000    3.0099    0.0000 O   0  0
   -7.5966    1.6705    0.0000 C   0  0  2  0  0  0
   -9.0381    1.2123    0.0000 C   0  0
   -9.3605   -0.2535    0.0000 C   0  0
  -10.7908   -0.7081    0.0000 C   0  0
  -11.1132   -2.1739    0.0000 N   0  0
  -12.5435   -2.6285    0.0000 C   0  0
  -13.4299   -1.8196    0.0000 N   0  0
  -12.8013   -3.8005    0.0000 N   0  0
   -6.9973    0.2954    0.0000 N   0  0
   -6.1335   -0.9309    0.0000 C   0  0
   -5.0405   -1.9582    0.0000 C   0  0  1  0  0  0
   -3.7631   -2.7445    0.0000 N   0  0
   -2.3535   -3.2575    0.0000 C   0  0
   -2.6478   -4.4209    0.0000 O   0  0
   -0.8696   -3.4763    0.0000 C   0  0  1  0  0  0
    0.6280   -3.3919    0.0000 N   0  0
    2.0780   -3.0077    0.0000 C   0  0
    3.4210   -2.3395    0.0000 C   0  0  2  0  0  0
    3.7393   -3.8182    0.0000 C   0  0
    5.2391   -3.7629    0.0000 C   0  0
    6.0377   -5.0336    0.0000 C   0  0
    5.3374   -6.3610    0.0000 N   0  0
    6.1360   -7.6317    0.0000 C   0  0
    5.5760   -8.6931    0.0000 N   0  0
    7.3351   -7.5864    0.0000 N   0  0
    4.6019   -1.4147    0.0000 N   0  0
    5.5726   -0.2711    0.0000 C   0  0
    6.2931    1.0445    0.0000 C   0  0  2  0  0  0
    7.6853    0.4532    0.0000 C   0  0
    7.8688   -1.0364    0.0000 C   0  0
    9.2565   -1.6357    0.0000 C   0  0
    9.4380   -3.1217    0.0000 C   0  0
   10.8158   -3.7073    0.0000 C   0  0
   10.9972   -5.1934    0.0000 C   0  0
    9.8010   -6.0938    0.0000 C   0  0
    8.4232   -5.5082    0.0000 C   0  0
    8.2417   -4.0222    0.0000 C   0  0
    6.8639   -3.4365    0.0000 C   0  0
    6.6715   -1.9359    0.0000 C   0  0
    6.7341    2.4782    0.0000 N   0  0
    6.8774    3.9714    0.0000 C   0  0
    8.0774    3.9781    0.0000 O   0  0
    6.7173    5.4628    0.0000 C   0  0  2  0  0  0
    8.2145    5.2477    0.0000 C   0  0
    8.7733    3.8548    0.0000 C   0  0
   10.2420    4.1600    0.0000 C   0  0
   11.2407    3.0408    0.0000 C   0  0
   10.7708    1.6163    0.0000 C   0  0
    9.3022    1.3110    0.0000 C   0  0
    8.3035    2.4302    0.0000 C   0  0
    6.2602    6.8915    0.0000 N   0  0
    5.5248    8.1988    0.0000 C   0  0
    6.5125    8.8805    0.0000 O   0  0
    4.5623    9.3513    0.0000 C   0  0  2  0  0  0
    3.3469   10.2305    0.0000 C   0  0
    1.9907   10.8714    0.0000 N   0  0
    0.5399   11.2522    0.0000 C   0  0
   -0.9563   11.3599    0.0000 C   0  0
   -2.4467   11.1908    0.0000 C   0  0
   -3.8807   10.7508    0.0000 C   0  0
   -5.2094   10.0548    0.0000 C   0  0
   -6.3876    9.1264    0.0000 N   0  0
   -7.3752    7.9974    0.0000 C   0  0  2  0  0  0
   -8.1385    6.7061    0.0000 C   0  0
   -8.6515    5.2966    0.0000 N   0  0
   -8.8968    3.8168    0.0000 C   0  0
   -8.8660    2.3171    0.0000 C   0  0
   -9.8596    2.2044    0.0000 O   0  0
   -8.5602    0.8486    0.0000 N   0  0
   -7.9897   -0.5387    0.0000 C   0  0  2  0  0  0
   -9.3311   -1.2381    0.0000 C   0  0
   -9.3966   -2.7375    0.0000 C   0  0
  -10.4606   -3.2923    0.0000 O   0  0
   -8.3843   -3.3819    0.0000 O   0  0
   -7.1740   -1.7975    0.0000 C   0  0
   -8.1166   -2.5402    0.0000 O   0  0
   -6.1409   -2.8851    0.0000 N   0  0
   -4.9256   -3.7643    0.0000 C   0  0  2  0  0  0
   -5.0853   -5.2646    0.0000 C   0  0
   -6.4543   -5.8775    0.0000 C   0  0
   -7.6697   -4.9983    0.0000 C   0  0
   -7.5159   -3.5062    0.0000 C   0  0
   -3.5694   -4.4052    0.0000 C   0  0
   -2.1185   -4.7859    0.0000 N   0  0
   -0.6224   -4.8936    0.0000 C   0  0  1  0  0  0
   -0.5943   -6.4062    0.0000 C   0  0
   -1.8794   -7.1815    0.0000 C   0  0
   -1.8540   -8.6788    0.0000 C   0  0
   -3.1564   -9.4485    0.0000 C   0  0
   -4.4647   -8.7208    0.0000 C   0  0
   -5.7489   -9.4903    0.0000 C   0  0
   -7.0573   -8.7626    0.0000 C   0  0
   -7.0814   -7.2655    0.0000 C   0  0
   -5.7972   -6.4961    0.0000 C   0  0
   -4.4888   -7.2238    0.0000 C   0  0
   -3.2046   -6.4543    0.0000 C   0  0
    0.8680   -4.7246    0.0000 C   0  0
    2.3020   -4.2846    0.0000 N   0  0
    3.6308   -3.5885    0.0000 C   0  0  1  0  0  0
    4.4510   -4.8597    0.0000 C   0  0
    3.7665   -6.1954    0.0000 C   0  0
    4.5801   -7.4565    0.0000 C   0  0
    3.8957   -8.7921    0.0000 N   0  0
    4.7093  -10.0533    0.0000 C   0  0
    4.1620  -11.1212    0.0000 N   0  0
    5.9078   -9.9936    0.0000 N   0  0
    4.8090   -2.6602    0.0000 C   0  0
    5.6355   -3.5302    0.0000 O   0  0
    5.7965   -1.5312    0.0000 N   0  0
    6.5598   -0.2399    0.0000 C   0  0  1  0  0  0
    7.4640   -0.6671    0.0000 C   0  0
    7.0729    1.1697    0.0000 C   0  0
    7.3182    2.6495    0.0000 N   0  0
    7.2874    4.1491    0.0000 C   0  0
    6.9815    5.6176    0.0000 C   0  0
    6.4111    7.0049    0.0000 C   0  0
    7.4740    7.5618    0.0000 O   0  0
    5.5954    8.2638    0.0000 N   0  0
    8.2336    0.8650    0.0000 O   0  0
    1.1127   -5.8994    0.0000 O   0  0
   -3.9798   -5.5328    0.0000 O   0  0
   -9.6473    5.2043    0.0000 C   0  0
   -9.2235    7.2188    0.0000 O   0  0
   -8.7612    8.5938    0.0000 C   0  0
   -8.6258   10.0877    0.0000 C   0  0
   -7.1632   10.4206    0.0000 C   0  0
   -5.7532   10.8940    0.0000 O   0  0
   -4.4519   10.5346    0.0000 C   0  0
   -3.8381   10.5669    0.0000 C   0  0
   -2.4344   11.0958    0.0000 C   0  0
   -5.1066    9.7663    0.0000 C   0  0
   -6.1879    8.7267    0.0000 N   0  0
   -5.7231   10.5536    0.0000 O   0  0
    0.7361   12.4360    0.0000 O   0  0
    6.5613   -0.9510    0.0000 O   0  0
    2.4306   -3.9435    0.0000 O   0  0
   -0.9406   -4.9872    0.0000 C   0  0
    0.3220   -5.7986    0.0000 C   0  0
    0.2516   -7.2977    0.0000 C   0  0
    1.5141   -8.1091    0.0000 N   0  0
    1.4437   -9.6083    0.0000 C   0  0
    0.3773  -10.1585    0.0000 N   0  0
    2.4532  -10.2570    0.0000 N   0  0
   -5.4961   -3.4005    0.0000 C   0  0
   -6.7618   -4.2071    0.0000 C   0  0
   -7.2139   -5.6382    0.0000 C   0  0
   -8.7019   -5.4424    0.0000 N   0  0
   -9.6162   -6.6326    0.0000 C   0  0
   -9.1572   -7.7414    0.0000 N   0  0
  -10.8059   -6.4761    0.0000 N   0  0
   -6.8886   -1.5866    0.0000 O   0  0
   -9.0682    6.5508    0.0000 C   0  0
  -10.1662    5.5277    0.0000 N   0  0
  -11.6016    5.9660    0.0000 C   0  0  1  0  0  0
  -12.6996    4.9429    0.0000 C   0  0
  -14.1350    5.3813    0.0000 C   0  0
  -15.2330    4.3581    0.0000 C   0  0
  -16.6683    4.7965    0.0000 C   0  0
  -17.5462    3.9784    0.0000 N   0  0
  -11.9422    7.4277    0.0000 C   0  0
  -13.0902    7.7770    0.0000 O   0  0
  -11.0659    8.2476    0.0000 O   0  0
   -9.3381    7.7201    0.0000 O   0  0
   -4.4360   -4.6362    0.0000 H   0  0
   -8.3259    7.6873    0.0000 H   0  0
    5.2275    8.6047    0.0000 H   0  0
  2  1  1  0
  2  3  1  0
  3  4  1  0
  4  5  2  0
  4  6  1  0
  6  7  1  1
  7  8  1  0
  8  9  1  0
  9 10  1  0
 10 11  1  0
 11 12  1  0
 11 13  2  0
  6 14  1  0
 14 15  1  0
 15 16  1  0
 16 17  1  0
 18 17  1  0
 18 19  2  0
 20 18  1  0
 21 20  1  0
 22 21  1  0
 23 22  1  0
 23 24  1  1
 24 25  1  0
 25 26  1  0
 26 27  1  0
 27 28  1  0
 28 29  2  0
 28 30  1  0
 31 23  1  0
 32 31  1  0
 33 32  1  0
 33 34  1  1
 34 35  1  0
 35 36  2  0
 36 37  1  0
 37 38  2  0
 38 39  1  0
 39 40  2  0
 40 41  1  0
 41 42  2  0
 42 37  1  0
 42 43  1  0
 43 44  2  0
 44 35  1  0
 45 33  1  0
 46 45  1  0
 46 47  2  0
 48 46  1  0
 48 49  1  1
 49 50  1  0
 50 51  2  0
 51 52  1  0
 52 53  2  0
 53 54  1  0
 54 55  2  0
 55 50  1  0
 56 48  1  0
 57 56  1  0
 57 58  2  0
 59 57  1  0
 59 60  1  0
 60 61  1  0
 62 61  1  0
 63 62  1  0
 63 64  2  0
 64 65  1  0
 66 65  1  0
 67 66  1  0
 67 68  1  0
 68 69  1  0
 70 69  1  0
 71 70  1  0
 72 71  1  0
 72 73  2  0
 74 72  1  0
 75 74  1  0
 75 76  1  1
 76 77  1  0
 77 78  2  0
 77 79  1  0
 80 75  1  0
 80 81  2  0
 82 80  1  0
 83 82  1  0
 83 84  1  0
 84 85  1  0
 85 86  1  0
 86 87  1  0
 87 82  1  0
 83 88  1  0
 89 88  1  0
 90 89  1  0
 90 91  1  6
 91 92  1  0
 93 92  1  0
 94 93  2  0
 95 94  1  0
 96 95  2  0
 97 96  1  0
 98 97  2  0
 99 98  1  0
100 99  2  0
 95100  1  0
101100  1  0
 92101  2  0
 90102  1  0
102103  1  0
103104  1  0
104105  1  6
105106  1  0
106107  1  0
107108  1  0
108109  1  0
109110  2  0
109111  1  0
104112  1  0
112113  2  0
112114  1  0
114115  1  0
115116  1  6
115117  1  0
117118  1  0
118119  1  0
119120  1  0
120121  1  0
121122  2  0
121123  1  0
123 59  1  0
117124  2  0
102125  2  0
 88126  2  0
 70127  1  0
 69128  2  0
 68129  1  0
129130  1  0
130131  1  0
131 67  1  0
 66132  2  0
 65133  2  0
133134  1  0
134135  2  0
135 63  1  0
134136  1  0
136137  1  0
137  1  1  0
136138  2  0
 62139  2  0
 32140  2  0
 22141  2  0
 20142  1  1
142143  1  0
143144  1  0
144145  1  0
145146  1  0
146147  1  0
146148  2  0
 16149  1  1
149150  1  0
150151  1  0
151152  1  0
152153  1  0
153154  1  0
153155  2  0
 15156  2  0
  2157  1  6
157158  1  0
159158  1  1
159160  1  0
160161  1  0
161162  1  0
162163  1  0
163164  1  0
159165  1  0
165166  2  0
165167  1  0
157168  2  0
 83169  1  6
 68170  1  1
 59171  1  1
M  END