
  SciTegic01161211222D

 21 23  0  0  0  0            999 V2000
   -0.1208    1.1000    0.0000 N   0  0
    1.6125    0.4708    0.0000 C   0  0  2  0  0  0
    0.5167    0.4708    0.0000 C   0  0
    1.9542   -0.5625    0.0000 C   0  0  1  0  0  0
    2.0042   -1.9917    0.0000 C   0  0
    2.3917   -1.2625    0.0000 O   0  0
    2.3167    0.8833    0.0000 C   0  0
    1.3292    0.0708    0.0000 C   0  0
    0.3667   -0.1792    0.0000 C   0  0
    1.1792   -2.0167    0.0000 O   0  0
   -0.4208   -0.0292    0.0000 C   0  0
    2.5417   -2.6667    0.0000 C   0  0
    2.3167    1.7083    0.0000 O   0  0
   -0.0750   -0.5292    0.0000 C   0  0
    3.0417    0.4708    0.0000 O   0  0
    2.2125   -3.4667    0.0000 C   0  0
    3.3917   -2.5417    0.0000 C   0  0
    3.0417   -0.3542    0.0000 C   0  0
    2.7417   -4.1500    0.0000 C   0  0
    3.9250   -3.2167    0.0000 C   0  0
    3.6000   -4.0292    0.0000 C   0  0
  2  3  1  0
  3  1  1  0
  4  8  1  0
  5  6  1  0
  4  6  1  1
  2  7  1  1
  8  9  1  0
  9  1  1  0
 10  5  2  0
 11  3  1  0
 12  5  1  0
 13  7  2  0
 14  9  1  0
 15  7  1  0
 16 12  2  0
 17 12  1  0
 18 15  1  0
 19 16  1  0
 20 17  2  0
 21 20  1  0
 14 11  1  0
  4  2  1  0
 21 19  2  0
M  END