
  SciTegic11201309402D

 37 40  0  0  0  0            999 V2000
    3.1708  -14.0042    0.0000 C   0  0
    3.1708  -14.8292    0.0000 C   0  0
    3.8829  -15.2375    0.0000 C   0  0  1  0  0  0
    3.8829  -13.5875    0.0000 C   0  0
    4.5949  -14.0042    0.0000 C   0  0  1  0  0  0
    4.5914  -14.8292    0.0000 C   0  0  1  0  0  0
    5.3001  -15.2424    0.0000 C   0  0  2  0  0  0
    6.0169  -14.8352    0.0000 C   0  0
    5.2955  -16.0674    0.0000 O   0  0
    3.4625  -15.9500    0.0000 C   0  0
    4.2875  -15.9500    0.0000 C   0  0  2  0  0  0
    3.7266  -14.3270    0.0000 H   0  0
    5.3071  -13.5924    0.0000 C   0  0  2  0  0  0
    6.0228  -14.0111    0.0000 C   0  0  2  0  0  0
    6.7366  -11.1039    0.0000 C   0  0
    6.0219  -11.5229    0.0000 C   0  0
    6.0307  -12.3557    0.0000 C   0  0
    5.3079  -12.7655    0.0000 C   0  0
    6.1748  -13.0953    0.0000 H   0  0
    5.3041  -11.1163    0.0000 C   0  0
    5.2974  -10.2913    0.0000 C   0  0  2  0  0  0
    4.4889   -9.0676    0.0000 O   0  0
    3.6806   -8.9076    0.0000 C   0  0
    3.2739   -9.6231    0.0000 C   0  0
    3.8309  -10.2271    0.0000 C   0  0
    3.3389   -8.1502    0.0000 O   0  0
    4.5875  -13.1792    0.0000 C   0  0
    3.6683  -11.0359    0.0000 C   0  0
    6.0085   -9.8730    0.0000 O   0  0
    3.8319  -16.6378    0.0000 O   0  0
    4.1997  -17.3762    0.0000 C   0  0
    3.7440  -18.0640    0.0000 C   0  0
    6.7333  -14.4208    0.0000 O   0  0
    6.4292  -13.2917    0.0000 C   0  0
    4.5796   -9.8846    0.0000 C   0  0  1  0  0  0
    5.4145   -9.3341    0.0000 H   0  0
    6.1630  -15.7478    0.0000 H   0  0
 13 18  1  0
 15 16  1  0
 16 17  1  0
 17 18  1  0
  8 14  1  0
 13 19  1  6
  3  6  1  0
 16 20  2  0
  7  9  1  0
 20 21  1  0
  5  4  1  0
 35 21  1  0
 35 22  1  0
  3 10  1  1
  5  6  1  0
  3 11  1  0
  9 11  1  0
 22 23  1  0
 23 24  1  0
 24 25  2  0
 25 35  1  0
 23 26  2  0
  6 12  1  6
  5 27  1  1
 13 14  1  0
 25 28  1  0
  1  2  1  0
 21 29  1  1
  1  4  1  0
 11 30  1  6
  2  3  1  0
 30 31  1  0
  5 13  1  0
 31 32  1  0
  6  7  1  0
 14 33  1  6
  7  8  1  0
 14 34  1  0
 35 36  1  1
  7 37  1  1
M  END