
          11280715132D 1   1.00000     0.00000     0

 39 42  0     1  0            999 V2000
    3.3917   -3.3542    0.0000 C   0  0  1  0  0  0           0  0  0
    4.0750   -3.7667    0.0000 C   0  0  1  0  0  0           0  0  0
    2.7042   -3.7542    0.0000 C   0  0  2  0  0  0           0  0  0
    4.0750   -4.5542    0.0000 C   0  0  2  0  0  0           0  0  0
    2.6875   -4.5417    0.0000 C   0  0  1  0  0  0           0  0  0
    3.3917   -2.5667    0.0000 C   0  0  0  0  0  0           0  0  0
    3.3792   -4.9417    0.0000 C   0  0  2  0  0  0           0  0  0
    4.7625   -3.3750    0.0000 O   0  0  0  0  0  0           0  0  0
    4.7667   -2.5792    0.0000 C   0  0  2  0  0  0           0  0  0
    4.7500   -4.9542    0.0000 O   0  0  0  0  0  0           0  0  0
    5.4417   -4.5625    0.0000 C   0  0  0  0  0  0           0  0  0
    2.0042   -4.9417    0.0000 C   0  0  3  0  0  0           0  0  0
    4.0792   -2.1792    0.0000 C   0  0  0  0  0  0           0  0  0
    2.0042   -3.3542    0.0000 C   0  0  2  0  0  0           0  0  0
    2.7042   -2.1667    0.0000 O   0  0  0  0  0  0           0  0  0
    3.3792   -4.1500    0.0000 O   0  0  0  0  0  0           0  0  0
    5.5542   -2.5792    0.0000 C   0  0  0  0  0  0           0  0  0
    5.4417   -3.7667    0.0000 O   0  0  0  0  0  0           0  0  0
    1.3292   -4.5417    0.0000 C   0  0  0  0  0  0           0  0  0
    6.1167   -4.9542    0.0000 N   0  0  0  0  0  0           0  0  0
    1.3292   -3.7542    0.0000 C   0  0  0  0  0  0           0  0  0
    4.0667   -2.9750    0.0000 C   0  0  0  0  0  0           0  0  0
    3.3792   -5.7292    0.0000 O   0  0  0  0  0  0           0  0  0
    2.7000   -2.9625    0.0000 C   0  0  0  0  0  0           0  0  0
    5.9542   -1.8917    0.0000 C   0  0  0  0  0  0           0  0  0
    9.5500   -3.7667    0.0000 C   0  0  0  0  0  0           0  0  0
    8.1792   -4.5625    0.0000 C   0  0  0  0  0  0           0  0  0
    2.0042   -2.5667    0.0000 O   0  0  0  0  0  0           0  0  0
    9.5500   -4.5625    0.0000 C   0  0  0  0  0  0           0  0  0
    8.8542   -3.3750    0.0000 C   0  0  0  0  0  0           0  0  0
    8.8542   -4.9542    0.0000 C   0  0  0  0  0  0           0  0  0
    8.1750   -3.7667    0.0000 C   0  0  0  0  0  0           0  0  0
    6.8125   -4.5625    0.0000 C   0  0  0  0  0  0           0  0  0
   10.2292   -3.3667    0.0000 O   0  0  0  0  0  0           0  0  0
    4.7667   -1.7917    0.0000 C   0  0  0  0  0  0           0  0  0
    1.6000   -5.6167    0.0000 C   0  0  0  0  0  0           0  0  0
    2.2417   -5.7792    0.0000 C   0  0  0  0  0  0           0  0  0
    7.5000   -4.9542    0.0000 C   0  0  0  0  0  0           0  0  0
    2.6792   -5.2417    0.0000 H   0  0  0  0  0  0           0  0  0
  2  1  1  0     0  0
  3  1  1  0     0  0
  4  2  1  0     0  0
  5  3  1  0     0  0
  6  1  1  0     0  0
  7  5  1  0     0  0
  8  2  1  0     0  0
  9 13  1  0     0  0
  4 10  1  1     0  0
 11 10  1  0     0  0
 12  5  1  0     0  0
 13  6  1  0     0  0
 14  3  1  0     0  0
 15  6  2  0     0  0
  1 16  1  6     0  0
  9 17  1  6     0  0
 18 11  2  0     0  0
 19 21  1  0     0  0
 20 11  1  0     0  0
 21 14  1  0     0  0
  2 22  1  1     0  0
  7 23  1  1     0  0
  3 24  1  1     0  0
 25 17  2  0     0  0
 26 30  1  0     0  0
 27 38  1  0     0  0
 14 28  1  6     0  0
 29 31  1  0     0  0
 30 32  2  0     0  0
 31 27  2  0     0  0
 32 27  1  0     0  0
 33 20  1  0     0  0
 34 26  1  0     0  0
  9 35  1  1     0  0
 36 12  1  0     0  0
 37 12  1  0     0  0
 38 33  1  0     0  0
  5 39  1  6     0  0
  9  8  1  0     0  0
  7  4  1  0     0  0
 19 12  1  0     0  0
 26 29  2  0     0  0
M  END