
  SciTegic01161211242D

 40 44  0  0  0  0            999 V2000
   15.7869   -8.3672    0.0000 C   0  0
   16.6128   -8.3662    0.0000 C   0  0
   16.8693   -9.1508    0.0000 C   0  0
   16.2000   -9.6375    0.0000 N   0  0
   15.5349   -9.1508    0.0000 N   0  0
   17.0276   -7.6569    0.0000 C   0  0
   17.8537   -7.6641    0.0000 C   0  0
   18.2712   -6.9535    0.0000 C   0  0
   17.8637   -6.2351    0.0000 C   0  0
   17.0345   -6.2318    0.0000 C   0  0
   16.6207   -6.9431    0.0000 C   0  0
   15.3956   -7.6461    0.0000 C   0  0
   15.8305   -6.9436    0.0000 C   0  0
   15.4396   -6.2180    0.0000 C   0  0
   14.6141   -6.1935    0.0000 C   0  0
   14.1810   -6.9007    0.0000 C   0  0
   14.5743   -7.6235    0.0000 C   0  0
   14.2216   -5.4679    0.0000 Cl  0  0
   16.1987  -10.4625    0.0000 C   0  0
   15.4836  -10.8739    0.0000 N   0  0
   15.4824  -11.6989    0.0000 S   0  0
   14.7673  -12.1103    0.0000 C   0  0
   14.0559  -11.6943    0.0000 C   0  0
   13.3413  -12.1050    0.0000 C   0  0
   13.3396  -12.9309    0.0000 C   0  0
   14.0584  -13.3443    0.0000 C   0  0
   14.7701  -12.9312    0.0000 C   0  0
   15.8875  -12.4083    0.0000 O   0  0
   16.1917  -11.2792    0.0000 O   0  0
   12.6250  -13.3432    0.0000 Cl  0  0
   16.9126  -10.8761    0.0000 N   0  0
   17.6277  -10.4647    0.0000 C   0  0
   18.3415  -10.8783    0.0000 C   0  0
   19.0566  -10.4669    0.0000 C   0  0
   19.7704  -10.8804    0.0000 C   0  0
   20.4855  -10.4690    0.0000 N   0  0
   21.2375  -10.8024    0.0000 C   0  0
   21.7905  -10.1901    0.0000 C   0  0
   21.3790   -9.4750    0.0000 C   0  0
   20.5719   -9.6454    0.0000 C   0  0
  4 19  1  0
  9 10  1  0
 19 20  2  0
  5  1  2  0
 20 21  1  0
 10 11  2  0
 21 22  1  0
 11  6  1  0
 22 23  2  0
  2  6  1  0
 23 24  1  0
  1  2  1  0
 24 25  2  0
 25 26  1  0
 12 13  2  0
 26 27  2  0
 27 22  1  0
  6  7  2  0
 21 28  2  0
 13 14  1  0
 21 29  2  0
  2  3  1  0
 25 30  1  0
 14 15  2  0
 19 31  1  0
  7  8  1  0
 31 32  1  0
 15 16  1  0
 32 33  1  0
  3  4  1  0
 33 34  1  0
 16 17  2  0
 34 35  1  0
 17 12  1  0
 35 36  1  0
 36 37  1  0
  1 12  1  0
  8  9  2  0
 15 18  1  0
  4  5  1  0
 37 38  1  0
 38 39  1  0
 39 40  1  0
 40 36  1  0
M  END