
  CDK    6/4/10,11:41

 35 38  0  0  0  0  0  0  0  0999 V2000
   -4.2389  -18.3500    0.0000 C   0  0  0  0  0  0  0  0  0  0  0  0
   -4.2401  -19.1773    0.0000 C   0  0  0  0  0  0  0  0  0  0  0  0
   -3.5253  -19.5902    0.0000 C   0  0  0  0  0  0  0  0  0  0  0  0
   -2.8088  -19.1769    0.0000 C   0  0  0  0  0  0  0  0  0  0  0  0
   -2.8117  -18.3463    0.0000 C   0  0  0  0  0  0  0  0  0  0  0  0
   -3.5271  -17.9372    0.0000 C   0  0  0  0  0  0  0  0  0  0  0  0
   -2.0988  -17.9311    0.0000 C   0  0  0  0  0  0  0  0  0  0  0  0
   -1.3828  -18.3409    0.0000 N   0  0  0  0  0  0  0  0  0  0  0  0
   -2.1019  -17.1061    0.0000 O   0  0  0  0  0  0  0  0  0  0  0  0
   -1.2897  -19.1600    0.0000 N   0  0  0  0  0  0  0  0  0  0  0  0
   -0.4821  -19.3285    0.0000 C   0  0  0  0  0  0  0  0  0  0  0  0
   -0.0723  -18.6124    0.0000 C   0  0  0  0  0  0  0  0  0  0  0  0
   -0.6267  -18.0015    0.0000 C   0  0  0  0  0  0  0  0  0  0  0  0
   -0.4580  -17.1939    0.0000 O   0  0  0  0  0  0  0  0  0  0  0  0
   -0.1437  -20.0809    0.0000 C   0  0  0  0  0  0  0  0  0  0  0  0
    0.7522  -18.6021    0.0000 N   0  0  0  0  0  0  0  0  0  0  0  0
    1.1739  -19.3112    0.0000 N   0  0  0  0  0  0  0  0  0  0  0  0
    1.9988  -19.3006    0.0000 C   0  0  0  0  0  0  0  0  0  0  0  0
    2.4157  -20.0099    0.0000 C   0  0  0  0  0  0  0  0  0  0  0  0
    3.2399  -19.9997    0.0000 C   0  0  0  0  0  0  0  0  0  0  0  0
    3.6440  -19.2794    0.0000 C   0  0  0  0  0  0  0  0  0  0  0  0
    3.2179  -18.5680    0.0000 C   0  0  0  0  0  0  0  0  0  0  0  0
    2.3952  -18.5817    0.0000 C   0  0  0  0  0  0  0  0  0  0  0  0
    4.4689  -19.2677    0.0000 S   0  0  0  0  0  0  0  0  0  0  0  0
    5.2917  -19.2667    0.0000 N   0  0  0  0  0  0  0  0  0  0  0  0
    4.4626  -18.4428    0.0000 O   0  0  0  0  0  0  0  0  0  0  0  0
    4.4776  -20.0927    0.0000 O   0  0  0  0  0  0  0  0  0  0  0  0
    5.7051  -19.9806    0.0000 C   0  0  0  0  0  0  0  0  0  0  0  0
    5.2905  -20.6935    0.0000 N   0  0  0  0  0  0  0  0  0  0  0  0
    5.7032  -21.4069    0.0000 C   0  0  0  0  0  0  0  0  0  0  0  0
    6.5291  -21.4063    0.0000 C   0  0  0  0  0  0  0  0  0  0  0  0
    6.9405  -20.6862    0.0000 C   0  0  0  0  0  0  0  0  0  0  0  0
    6.5254  -19.9757    0.0000 N   0  0  0  0  0  0  0  0  0  0  0  0
   -4.9549  -19.5893    0.0000 Cl  0  0  0  0  0  0  0  0  0  0  0  0
    5.7032  -18.5517    0.0000 C   0  0  0  0  0  0  0  0  0  0  0  0
 16 17  2  0  0  0  0 
 17 18  1  0  0  0  0 
  7  9  2  0  0  0  0 
 18 19  2  0  0  0  0 
  8 10  1  0  0  0  0 
 19 20  1  0  0  0  0 
  4  5  1  0  0  0  0 
 20 21  2  0  0  0  0 
  2  3  1  0  0  0  0 
 21 22  1  0  0  0  0 
  5  6  2  0  0  0  0 
 22 23  2  0  0  0  0 
 23 18  1  0  0  0  0 
  6  1  1  0  0  0  0 
 21 24  1  0  0  0  0 
 10 11  2  0  0  0  0 
 24 25  1  0  0  0  0 
 11 12  1  0  0  0  0 
 24 26  2  0  0  0  0 
 12 13  1  0  0  0  0 
 24 27  2  0  0  0  0 
 13  8  1  0  0  0  0 
 25 28  1  0  0  0  0 
  1  2  2  0  0  0  0 
 28 29  2  0  0  0  0 
 13 14  2  0  0  0  0 
 29 30  1  0  0  0  0 
  5  7  1  0  0  0  0 
 30 31  2  0  0  0  0 
 11 15  1  0  0  0  0 
 31 32  1  0  0  0  0 
  3  4  2  0  0  0  0 
 32 33  2  0  0  0  0 
 33 28  1  0  0  0  0 
 12 16  1  0  0  0  0 
  2 34  1  0  0  0  0 
  7  8  1  0  0  0  0 
 25 35  1  0  0  0  0 
M  END