
  SciTegic12231509382D

 19 20  0  0  0  0            999 V2000
   15.4803  -14.5881    0.0000 N   0  0
   15.4790  -15.4156    0.0000 C   0  0
   16.1919  -15.8285    0.0000 C   0  0
   16.9112  -15.4152    0.0000 C   0  0
   16.9080  -14.5840    0.0000 C   0  0
   16.1900  -14.1753    0.0000 C   0  0
   16.1860  -13.3503    0.0000 N   0  0
   17.6204  -14.1680    0.0000 C   0  0
   18.3370  -14.5770    0.0000 N   0  3
   18.4294  -15.3923    0.0000 C   0  0
   19.2372  -15.5598    0.0000 C   0  0
   19.6461  -14.8433    0.0000 S   0  0
   19.0910  -14.2330    0.0000 C   0  0
   14.7640  -15.8271    0.0000 C   0  0
   17.8199  -15.9483    0.0000 C   0  0
   19.5764  -16.3117    0.0000 C   0  0
   19.0948  -16.9816    0.0000 C   0  0
   19.4340  -17.7335    0.0000 O   0  0
   19.2567  -13.4249    0.0000 C   0  0
  9 10  1  0
  1  2  2  0
  4  5  1  0
  5  6  2  0
 10 11  2  0
 11 12  1  0
 12 13  1  0
 13  9  2  0
  6  1  1  0
  2 14  1  0
  2  3  1  0
 10 15  1  0
  6  7  1  0
 11 16  1  0
 16 17  1  0
  5  8  1  0
 17 18  1  0
  3  4  2  0
 13 19  1  0
  8  9  1  0
M  CHG  1   9   1
M  END