
  SciTegic04091414152D

 33 37  0  0  0  0            999 V2000
    5.4915   -2.2616    0.0000 C   0  0
    4.8669   -2.7987    0.0000 C   0  0  2  0  0  0
    5.0222   -3.6052    0.0000 C   0  0
    5.8150   -3.8518    0.0000 N   0  3
    6.4256   -3.3368    0.0000 C   0  0
    6.2708   -2.5238    0.0000 C   0  0
    5.0958   -2.9832    0.0000 C   0  0
    5.8993   -3.1692    0.0000 C   0  0
    4.0879   -2.5272    0.0000 O   0  0
    2.6669   -2.3549    0.0000 C   0  0
    2.1215   -2.9787    0.0000 C   0  0
    3.3322   -2.8527    0.0000 C   0  0
    1.9062   -2.0305    0.0000 C   0  0
    1.6774   -1.2366    0.0000 C   0  0
    2.1592   -0.5635    0.0000 C   0  0
    2.9810   -0.5292    0.0000 C   0  0
    3.5285   -1.1462    0.0000 C   0  0
    3.3881   -1.9616    0.0000 C   0  0
    1.3002   -2.9080    0.0000 C   0  0
    0.9745   -3.6696    0.0000 C   0  0
    1.5982   -4.2148    0.0000 C   0  0
    2.3093   -3.7899    0.0000 C   0  0
    3.2344   -3.6718    0.0000 O   0  0
    5.8710   -4.6749    0.0000 C   0  0
    6.6118   -5.0380    0.0000 C   0  0
    6.6676   -5.8611    0.0000 O   0  0
    7.2966   -4.5781    0.0000 N   0  0
    8.0373   -4.9412    0.0000 C   0  0
    8.0902   -5.7617    0.0000 C   0  0
    8.8301   -6.1248    0.0000 N   0  0
    9.5160   -5.6647    0.0000 C   0  0
    9.4571   -4.8375    0.0000 C   0  0
    8.7168   -4.4782    0.0000 N   0  0
  1  2  1  0
  1  6  1  0
  2  3  1  0
  3  4  1  0
  4  5  1  0
  5  6  1  0
  1  7  1  0
  4  8  1  0
  7  8  1  0
  2  9  1  6
 11 10  1  0
 10 12  1  0
 13 14  1  0
 14 15  1  0
 15 16  1  0
 13 10  1  0
 16 17  1  0
 10 18  1  0
 17 18  1  0
 11 19  2  0
 19 20  1  0
 20 21  2  0
 21 22  1  0
 22 11  1  0
 12 23  2  0
 12  9  1  0
  4 24  1  0
 24 25  1  0
 25 26  2  0
 25 27  1  0
 27 28  1  0
 28 29  2  0
 29 30  1  0
 30 31  2  0
 31 32  1  0
 32 33  2  0
 33 28  1  0
M  CHG  1   4   1
M  END