
  SciTegic06271217572D

 25 26  0  0  0  0            999 V2000
   -4.1505  -11.4194    0.0000 S   0  0
   -3.7382  -12.1339    0.0000 O   0  0
   -3.3255  -11.4196    0.0000 O   0  0
   -4.8639   -9.3541    0.0000 C   0  0
   -4.8651  -10.1815    0.0000 C   0  0
   -4.1503  -10.5944    0.0000 C   0  0
   -3.4338  -10.1810    0.0000 C   0  0
   -3.4367   -9.3505    0.0000 C   0  0
   -4.1521   -8.9414    0.0000 C   0  0
   -2.7238   -8.9353    0.0000 C   0  0
   -2.0078   -9.3451    0.0000 C   0  0
   -2.7269   -8.1103    0.0000 O   0  0
   -1.2948   -8.9299    0.0000 S   0  0
   -0.5788   -9.3397    0.0000 C   0  0
   -0.5788  -10.1636    0.0000 N   0  0
    0.1363  -10.5733    0.0000 C   0  0
    0.8502  -10.1581    0.0000 C   0  0
    0.8445   -9.3288    0.0000 C   0  0
    0.1287   -8.9228    0.0000 N   0  0
   -5.5799  -10.5934    0.0000 Cl  0  0
   -4.8650  -11.8317    0.0000 N   0  0
    1.5668  -10.5669    0.0000 C   0  0
    1.5710  -11.3919    0.0000 C   0  0
    2.2876  -11.8008    0.0000 C   0  0
    2.2918  -12.6258    0.0000 C   0  0
 11 13  1  0
  2  1  2  0
 13 14  1  0
  7  8  1  0
 14 15  2  0
  4  5  2  0
 15 16  1  0
  8  9  2  0
 16 17  2  0
  9  4  1  0
 17 18  1  0
  1  3  2  0
 18 19  2  0
 19 14  1  0
  8 10  1  0
  5 20  1  0
  6  1  1  0
  5  6  1  0
  1 21  1  0
 10 11  1  0
 17 22  1  0
 22 23  1  0
 10 12  2  0
 23 24  1  0
  6  7  2  0
 24 25  1  0
M  END