
  SciTegic10041313212D

 38 40  0  0  1  0            999 V2000
   -1.8539   -5.1527    0.0000 C   0  0
   -2.6787   -5.1797    0.0000 C   0  0
   -2.9081   -5.9726    0.0000 C   0  0
   -2.2248   -6.4357    0.0000 N   0  0
   -1.5734   -5.9289    0.0000 C   0  0
   -0.7755   -6.1387    0.0000 P   0  0
    0.0194   -6.3277    0.0000 O   0  0
   -0.9758   -6.9389    0.0000 O   0  0
   -0.5671   -5.3404    0.0000 O   0  0
    0.1518   -4.9343    0.0000 C   0  0
    0.4423   -7.0359    0.0000 C   0  0
    0.8617   -5.3562    0.0000 C   0  0
    1.5795   -4.9512    0.0000 C   0  0
    1.5878   -4.1254    0.0000 C   0  0
    0.8723   -3.7062    0.0000 C   0  0
    0.1574   -4.1136    0.0000 C   0  0
    0.0375   -7.7529    0.0000 C   0  0
    0.4598   -8.4607    0.0000 C   0  0
    1.2855   -8.4490    0.0000 C   0  0
    1.6872   -7.7235    0.0000 C   0  0
    1.2626   -7.0187    0.0000 C   0  0
   -2.1977   -7.2602    0.0000 C   0  0
   -2.8983   -7.6959    0.0000 C   0  0  1  0  0  0
   -3.6258   -7.3071    0.0000 N   0  0
   -2.8712   -8.5204    0.0000 C   0  0
   -3.5718   -8.9561    0.0000 C   0  0
   -3.5447   -9.7807    0.0000 C   0  0
   -4.2453  -10.2164    0.0000 C   0  0
   -4.2183  -11.0408    0.0000 N   0  0
   -1.4701   -7.6490    0.0000 O   0  0
    1.7095   -9.1568    0.0000 N   0  0
    2.3056   -3.7188    0.0000 N   0  0
    3.0167   -4.1371    0.0000 C   0  0
    3.7345   -3.7304    0.0000 C   0  0
    3.0099   -4.9620    0.0000 O   0  0
    1.3084   -9.8777    0.0000 C   0  0
    1.7323  -10.5855    0.0000 C   0  0
    0.4835   -9.8909    0.0000 O   0  0
  6  9  1  0
 18 19  2  0
  4  5  1  0
 19 20  1  0
  9 10  1  0
 20 21  2  0
 21 11  1  0
  5  1  1  0
  4 22  1  0
  7 11  1  0
 22 23  1  0
  1  2  1  0
 23 24  1  0
 10 12  2  0
 23 25  1  6
  5  6  1  0
 25 26  1  0
 12 13  1  0
 26 27  1  0
 27 28  1  0
 13 14  2  0
 28 29  1  0
  6  7  1  0
 22 30  2  0
 14 15  1  0
 19 31  1  0
  2  3  1  0
 14 32  1  0
 15 16  2  0
 32 33  1  0
 16 10  1  0
 33 34  1  0
  6  8  2  0
 33 35  2  0
 11 17  2  0
 31 36  1  0
  3  4  1  0
 36 37  1  0
 17 18  1  0
 36 38  2  0
M  END