
  SciTegic04191613082D

186197  0  0  1  0            999 V2000
  -10.8692   -6.6078    0.0000 C   0  0
  -12.3575   -6.7954    0.0000 C   0  0  1  0  0  0
  -13.7774   -7.2787    0.0000 N   0  0
  -15.0711   -8.0380    0.0000 C   0  0
  -16.1854   -9.0422    0.0000 C   0  0  2  0  0  0
  -17.3045   -8.0246    0.0000 C   0  0
  -16.9861   -6.5579    0.0000 C   0  0
  -15.5610   -6.0980    0.0000 C   0  0
  -15.2535   -4.6167    0.0000 C   0  0
  -16.3649   -3.6137    0.0000 C   0  0
  -17.7895   -4.0748    0.0000 C   0  0
  -18.1026   -5.5387    0.0000 C   0  0
  -18.9009   -3.0718    0.0000 C   0  0
  -18.5878   -1.6079    0.0000 C   0  0
  -17.1633   -1.1469    0.0000 C   0  0
  -16.0518   -2.1498    0.0000 C   0  0
  -17.0748  -10.2501    0.0000 N   0  0
  -17.7028  -11.6123    0.0000 C   0  0
  -18.0437  -13.0730    0.0000 C   0  0  1  0  0  0
  -18.0836  -14.5725    0.0000 N   0  0
  -17.8209  -16.0493    0.0000 C   0  0
  -18.9772  -16.3703    0.0000 O   0  0
  -17.2844  -17.4510    0.0000 C   0  0  1  0  0  0
  -17.8816  -16.0750    0.0000 N   0  0
  -18.2075  -14.6108    0.0000 C   0  0
  -18.2505  -13.1114    0.0000 C   0  0  2  0  0  0
  -18.0089  -11.6310    0.0000 N   0  0
  -17.4916  -10.2231    0.0000 C   0  0
  -18.5735   -9.7040    0.0000 O   0  0
  -16.7171   -8.9385    0.0000 C   0  0  2  0  0  0
  -17.5205   -8.3431    0.0000 C   0  0
  -15.7135   -7.8237    0.0000 N   0  0
  -14.5171   -6.9189    0.0000 C   0  0
  -13.1710   -6.2570    0.0000 C   0  0  1  0  0  0
  -11.7240   -5.8617    0.0000 N   0  0
  -10.2284   -5.7475    0.0000 C   0  0
  -10.2057   -4.5477    0.0000 O   0  0
   -8.7382   -5.9183    0.0000 C   0  0  2  0  0  0
   -8.4266   -4.4380    0.0000 C   0  0
   -7.0005   -3.9704    0.0000 C   0  0
   -6.6803   -2.4931    0.0000 C   0  0
   -5.2573   -2.0282    0.0000 C   0  0
   -4.9486   -0.5633    0.0000 C   0  0
   -3.5256   -0.0984    0.0000 C   0  0
   -2.4112   -1.0984    0.0000 C   0  0
   -2.7198   -2.5633    0.0000 C   0  0
   -4.1429   -3.0282    0.0000 C   0  0
   -4.4515   -4.4931    0.0000 C   0  0
   -5.8867   -4.9716    0.0000 C   0  0
   -7.3072   -6.3681    0.0000 N   0  0
   -5.9872   -7.0806    0.0000 C   0  0
   -4.8259   -8.0300    0.0000 C   0  0  2  0  0  0
   -3.8653   -9.1820    0.0000 N   0  0
   -3.1400  -10.4950    0.0000 C   0  0
   -2.6763  -11.9216    0.0000 C   0  0  2  0  0  0
   -2.4910  -13.4101    0.0000 N   0  0
   -2.5908  -14.9068    0.0000 C   0  0
   -2.9720  -16.3575    0.0000 C   0  0  1  0  0  0
   -3.6208  -17.7099    0.0000 N   0  0
   -4.5139  -18.9151    0.0000 C   0  0
   -5.6189  -19.9294    0.0000 C   0  0  2  0  0  0
   -6.8959  -20.7164    0.0000 N   0  0
   -8.2988  -21.2474    0.0000 C   0  0
   -9.7768  -21.5033    0.0000 C   0  0
   -9.1692  -21.5107    0.0000 C   0  0
   -9.7638  -21.3742    0.0000 C   0  0
   -8.3022  -21.0371    0.0000 C   0  0
   -6.9384  -20.4125    0.0000 N   0  0
   -5.7282  -19.5263    0.0000 C   0  0
   -4.7212  -18.4146    0.0000 C   0  0  2  0  0  0
   -3.9586  -17.1229    0.0000 N   0  0
   -3.4716  -15.7041    0.0000 C   0  0
   -2.3030  -15.9769    0.0000 O   0  0
   -3.2802  -14.2164    0.0000 C   0  0  2  0  0  0
   -1.7682  -14.2596    0.0000 C   0  0
   -0.9802  -12.9823    0.0000 C   0  0
    0.5200  -13.0251    0.0000 C   0  0
    1.3080  -11.7478    0.0000 N   0  0
    2.8082  -11.7906    0.0000 C   0  0
    3.4383  -10.7693    0.0000 N   0  0
    3.3780  -12.8467    0.0000 N   0  0
   -3.3921  -12.7206    0.0000 N   0  0
   -3.8029  -11.2779    0.0000 C   0  0
   -4.4957   -9.9475    0.0000 C   0  0  1  0  0  0
   -5.4421   -8.7838    0.0000 N   0  0
   -6.6034   -7.8343    0.0000 C   0  0
   -6.0521   -7.0001    0.0000 O   0  0
   -7.9321   -7.1381    0.0000 C   0  0  2  0  0  0
   -6.9208   -6.0134    0.0000 C   0  0
   -7.8449   -4.8308    0.0000 C   0  0
   -7.7936   -3.3308    0.0000 C   0  0
   -8.7178   -2.1483    0.0000 N   0  0
   -8.1566   -0.7563    0.0000 C   0  0
   -8.8955    0.1892    0.0000 N   0  0
   -6.9683   -0.5888    0.0000 N   0  0
   -9.3737   -6.7236    0.0000 N   0  0
   -3.0231   -9.6020    0.0000 C   0  0
   -1.5622   -9.2584    0.0000 C   0  0
   -0.6632   -8.0566    0.0000 C   0  0
    0.6769   -8.7324    0.0000 N   0  0
    1.9327   -7.9105    0.0000 C   0  0
    1.8653   -6.7124    0.0000 N   0  0
    3.0041   -8.4509    0.0000 N   0  0
   -2.6880  -10.8342    0.0000 O   0  0
   -3.2691  -18.8379    0.0000 C   0  0
   -2.4024  -18.0079    0.0000 O   0  0
   -2.9115  -20.2955    0.0000 N   0  0
   -1.4707  -20.7156    0.0000 C   0  0  1  0  0  0
   -1.1132  -22.1732    0.0000 C   0  0
    0.3277  -22.5933    0.0000 C   0  0
    0.6852  -24.0509    0.0000 C   0  0
    2.1260  -24.4710    0.0000 C   0  0
    2.4119  -25.6365    0.0000 N   0  0
   -0.3847  -19.6797    0.0000 C   0  0
    0.7670  -20.0169    0.0000 O   0  0
   -0.6681  -18.5137    0.0000 O   0  0
   -7.9800  -21.9837    0.0000 O   0  0
  -11.2634  -21.4103    0.0000 C   0  0
  -12.7438  -21.1631    0.0000 C   0  0
  -14.1255  -20.5794    0.0000 C   0  0
  -15.3718  -19.7447    0.0000 N   0  0
  -16.4376  -18.6892    0.0000 C   0  0
  -14.6955  -21.6354    0.0000 O   0  0
  -11.2765  -21.4749    0.0000 C   0  0
   -8.0353  -22.2120    0.0000 O   0  0
   -4.7042  -21.1343    0.0000 C   0  0
   -5.2847  -22.5183    0.0000 C   0  0
   -4.3794  -23.7143    0.0000 C   0  0
   -4.9625  -25.0964    0.0000 C   0  0
   -6.4509  -25.2824    0.0000 C   0  0
   -7.3563  -24.0865    0.0000 C   0  0
   -6.7732  -22.7044    0.0000 C   0  0
   -3.7707  -19.5841    0.0000 O   0  0
   -1.8143  -17.3312    0.0000 C   0  0
   -0.4030  -16.8204    0.0000 C   0  0
    0.7464  -17.7842    0.0000 C   0  0
    2.1558  -17.2708    0.0000 C   0  0
    2.4159  -15.7935    0.0000 C   0  0
    1.2665  -14.8297    0.0000 C   0  0
   -0.1429  -15.3431    0.0000 C   0  0
   -1.4064  -15.1000    0.0000 O   0  0
   -1.2002  -11.5908    0.0000 C   0  0  2  0  0  0
   -0.8423  -10.4454    0.0000 C   0  0
   -0.3869  -12.4731    0.0000 O   0  0
   -2.2227  -10.0969    0.0000 O   0  0
   -2.3795   -8.9197    0.0000 C   0  0
   -1.8622   -7.5117    0.0000 C   0  0
   -2.8228   -6.3597    0.0000 C   0  0
   -4.3008   -6.6156    0.0000 C   0  0
   -5.3194   -6.0835    0.0000 O   0  0
  -13.7093   -4.8432    0.0000 C   0  0
  -12.7623   -3.6789    0.0000 C   0  0
  -13.2963   -2.2763    0.0000 C   0  0
  -12.3493   -1.1119    0.0000 N   0  0
  -12.8833    0.2907    0.0000 C   0  0
  -12.1261    1.2217    0.0000 N   0  0
  -14.0681    0.4813    0.0000 N   0  0
  -15.0417   -6.0676    0.0000 O   0  0
  -19.7601  -13.0138    0.0000 C   0  0
  -20.5936  -14.2618    0.0000 C   0  0
  -22.0907  -14.1672    0.0000 C   0  0
  -22.9212  -15.4163    0.0000 C   0  0
  -22.2548  -16.7601    0.0000 C   0  0
  -20.7578  -16.8548    0.0000 C   0  0
  -19.9272  -15.6057    0.0000 C   0  0
  -19.3983  -14.7591    0.0000 O   0  0
  -19.5435  -12.8771    0.0000 C   0  0
  -20.1201  -11.4914    0.0000 C   0  0
  -21.6072  -11.2950    0.0000 C   0  0
  -22.1807   -9.9089    0.0000 C   0  0
  -21.2671   -8.7192    0.0000 C   0  0
  -19.7800   -8.9156    0.0000 C   0  0
  -19.2065  -10.3017    0.0000 C   0  0
  -18.8378  -11.2227    0.0000 O   0  0
  -15.7801   -7.0699    0.0000 O   0  0
  -12.6946   -5.3209    0.0000 C   0  0
  -11.5955   -4.2989    0.0000 C   0  0
  -11.9301   -2.8359    0.0000 C   0  0
  -10.8309   -1.8139    0.0000 N   0  0
  -11.1655   -0.3509    0.0000 C   0  0
  -12.3124    0.0020    0.0000 N   0  0
  -10.4332    0.3301    0.0000 N   0  0
  -10.8980   -5.4082    0.0000 O   0  0
   -1.8586  -12.4971    0.0000 H   0  0
   -5.0878   -7.0649    0.0000 H   0  0
  -17.6623  -16.5252    0.0000 H   0  0
  2  1  1  0
  3  2  1  0
  4  3  1  0
  5  4  1  0
  5  6  1  1
  6  7  1  0
  8  7  1  0
  9  8  2  0
 10  9  1  0
 10 11  1  0
 12 11  1  0
  7 12  2  0
 11 13  2  0
 13 14  1  0
 14 15  2  0
 15 16  1  0
 16 10  2  0
 17  5  1  0
 18 17  1  0
 19 18  1  0
 20 19  1  0
 21 20  1  0
 21 22  2  0
 23 21  1  0
 24 23  1  0
 25 24  1  0
 26 25  1  0
 27 26  1  0
 28 27  1  0
 28 29  2  0
 30 28  1  0
 30 31  1  6
 32 30  1  0
 33 32  1  0
 34 33  1  0
 35 34  1  0
 36 35  1  0
 36 37  2  0
 38 36  1  0
 38 39  1  6
 39 40  1  0
 40 41  2  0
 41 42  1  0
 42 43  2  0
 43 44  1  0
 44 45  2  0
 45 46  1  0
 46 47  2  0
 47 42  1  0
 47 48  1  0
 48 49  2  0
 49 40  1  0
 38 50  1  0
 50 51  1  0
 52 51  1  0
 52 53  1  0
 53 54  1  0
 54 55  1  0
 55 56  1  0
 56 57  1  0
 57 58  1  0
 58 59  1  0
 59 60  1  0
 61 60  1  0
 62 61  1  0
 62 63  1  0
 63 64  1  0
 64 65  2  0
 65 66  1  0
 66 67  1  0
 67 68  1  0
 68 69  1  0
 70 69  1  0
 70 71  1  0
 71 72  1  0
 72 73  2  0
 72 74  1  0
 74 75  1  1
 75 76  1  0
 76 77  1  0
 77 78  1  0
 78 79  1  0
 79 80  2  0
 79 81  1  0
 74 82  1  0
 82 83  1  0
 83 84  1  0
 84 85  1  0
 86 85  1  0
 86 87  2  0
 88 86  1  0
 88 89  1  1
 89 90  1  0
 90 91  1  0
 91 92  1  0
 92 93  1  0
 93 94  2  0
 93 95  1  0
 96 88  1  0
  1 96  1  0
 84 97  1  1
 97 98  1  0
 98 99  1  0
 99100  1  0
100101  1  0
101102  1  0
101103  2  0
 83104  2  0
 70105  1  6
105106  2  0
105107  1  0
108107  1  6
108109  1  0
109110  1  0
110111  1  0
111112  1  0
112113  1  0
108114  1  0
114115  2  0
114116  1  0
 67117  2  0
 66118  2  0
118119  1  0
119120  1  0
120121  1  0
122121  1  0
 23122  1  0
120123  2  0
119124  2  0
124 64  1  0
 63125  2  0
 61126  1  1
126127  1  0
128127  1  0
129128  2  0
130129  1  0
131130  2  0
132131  1  0
127132  2  0
 60133  2  0
 58134  1  6
134135  1  0
135136  2  0
136137  1  0
137138  2  0
138139  1  0
139140  2  0
140135  1  0
 57141  2  0
 55142  1  0
142143  1  6
142144  1  0
 54145  2  0
146 53  1  0
147146  1  0
148147  1  0
149148  1  0
 52149  1  0
 51150  2  0
 34151  1  6
151152  1  0
152153  1  0
153154  1  0
154155  1  0
155156  2  0
155157  1  0
 33158  2  0
 26159  1  1
159160  1  0
161160  1  0
162161  2  0
163162  1  0
164163  2  0
165164  1  0
160165  2  0
 25166  2  0
 19167  1  1
167168  1  0
168169  2  0
169170  1  0
170171  2  0
171172  1  0
172173  2  0
173168  1  0
 18174  2  0
  4175  2  0
  2176  1  1
176177  1  0
177178  1  0
178179  1  0
179180  1  0
180181  1  0
180182  2  0
  1183  2  0
 55184  1  6
 52185  1  6
 23186  1  1
M  END