
          11280714582D 1   1.00000     0.00000     0

 29 31  0     1  0            999 V2000
   -0.0875   -0.1167    0.0000 S   0  0  3  0  0  0           0  0  0
    2.1250   -0.1292    0.0000 S   0  0  3  0  0  0           0  0  0
   -0.8708    1.7833    0.0000 C   0  0  2  0  0  0           0  0  0
    0.0667    0.4583    0.0000 N   0  0  3  0  0  0           0  0  0
   -0.8708    1.1833    0.0000 C   0  0  0  0  0  0           0  0  0
   -0.3458    2.0833    0.0000 N   0  0  3  0  0  0           0  0  0
   -0.3500    0.8833    0.0000 C   0  0  1  0  0  0           0  0  0
   -1.3875    2.0833    0.0000 C   0  0  0  0  0  0           0  0  0
    0.6500    0.6083    0.0000 C   0  0  0  0  0  0           0  0  0
    1.6375    0.3375    0.0000 N   0  0  3  0  0  0           0  0  0
    1.0667    0.1833    0.0000 C   0  0  0  0  0  0           0  0  0
   -0.6875   -0.1167    0.0000 O   0  0  0  0  0  0           0  0  0
    0.5125   -0.1167    0.0000 O   0  0  0  0  0  0           0  0  0
    1.5292   -0.5042    0.0000 O   0  0  0  0  0  0           0  0  0
    2.6542    0.0875    0.0000 O   0  0  0  0  0  0           0  0  0
    0.1750    1.1833    0.0000 C   0  0  0  0  0  0           0  0  0
    0.1750    1.7833    0.0000 C   0  0  0  0  0  0           0  0  0
   -1.3875    2.6833    0.0000 C   0  0  0  0  0  0           0  0  0
   -0.3458    2.6833    0.0000 C   0  0  0  0  0  0           0  0  0
   -0.8708    2.9958    0.0000 C   0  0  0  0  0  0           0  0  0
   -0.2458   -0.7042    0.0000 C   0  0  0  0  0  0           0  0  0
    2.5000   -0.6292    0.0000 C   0  0  0  0  0  0           0  0  0
   -1.9083    1.7833    0.0000 C   0  0  0  0  0  0           0  0  0
    1.6292    1.0208    0.0000 C   0  0  0  0  0  0           0  0  0
   -1.9083    2.9833    0.0000 C   0  0  0  0  0  0           0  0  0
   -2.4250    2.0833    0.0000 C   0  0  0  0  0  0           0  0  0
   -2.4250    2.6833    0.0000 C   0  0  0  0  0  0           0  0  0
   -1.3875    1.4833    0.0000 H   0  0  0  0  0  0           0  0  0
   -0.7708    0.3708    0.0000 H   0  0  0  0  0  0           0  0  0
  2 10  1  0     0  0
  3  5  1  0     0  0
  4  1  1  0     0  0
  5  7  1  0     0  0
  6 17  1  0     0  0
  7  4  1  0     0  0
  8  3  1  0     0  0
  9  4  1  0     0  0
 10 11  1  0     0  0
 11  9  1  0     0  0
 12  1  2  0     0  0
 13  1  2  0     0  0
 14  2  2  0     0  0
 15  2  2  0     0  0
 16  7  1  0     0  0
 17 16  1  0     0  0
 18  8  1  0     0  0
 19  6  1  0     0  0
 20 19  1  0     0  0
 21  1  1  0     0  0
 22  2  1  0     0  0
 23  8  2  0     0  0
 24 10  1  0     0  0
 25 18  2  0     0  0
 26 23  1  0     0  0
 27 26  2  0     0  0
  3 28  1  6     0  0
  7 29  1  6     0  0
  3  6  1  0     0  0
 20 18  1  0     0  0
 27 25  1  0     0  0
M  END