
          11280715012D 1   1.00000     0.00000     0

 40 43  0     1  0            999 V2000
   14.2792  -12.0417    0.0000 N   0  0  0  0  0  0           0  0  0
   14.7750  -12.3917    0.0000 C   0  0  0  0  0  0           0  0  0
   13.8000  -12.3917    0.0000 C   0  0  1  0  0  0           0  0  0
   15.8917  -11.5000    0.0000 C   0  0  0  0  0  0           0  0  0
   15.8917  -12.1000    0.0000 C   0  0  0  0  0  0           0  0  0
   15.3750  -12.3917    0.0000 C   0  0  0  0  0  0           0  0  0
   14.5792  -12.9667    0.0000 O   0  0  0  0  0  0           0  0  0
   13.2000  -12.3917    0.0000 C   0  0  0  0  0  0           0  0  0
   13.9792  -12.9667    0.0000 C   0  0  0  0  0  0           0  0  0
   17.4167   -8.8167    0.0000 C   0  0  0  0  0  0           0  0  0
   15.3667  -11.2000    0.0000 C   0  0  0  0  0  0           0  0  0
   16.4042  -11.2000    0.0000 C   0  0  0  0  0  0           0  0  0
   12.9000  -11.8750    0.0000 O   0  0  0  0  0  0           0  0  0
   14.8500  -10.3000    0.0000 N   0  0  0  0  0  0           0  0  0
   17.9292   -8.5167    0.0000 O   0  0  0  0  0  0           0  0  0
   12.8917  -12.9125    0.0000 N   0  0  0  0  0  0           0  0  0
   16.9042   -8.5250    0.0000 O   0  0  0  0  0  0           0  0  0
   16.4042  -12.3917    0.0000 C   0  0  0  0  0  0           0  0  0
   15.3667  -10.6000    0.0000 C   0  0  0  0  0  0           0  0  0
   15.3750  -13.0000    0.0000 C   0  0  0  0  0  0           0  0  0
   17.4167   -9.4125    0.0000 C   0  0  0  0  0  0           0  0  0
   14.3292  -10.6042    0.0000 C   0  0  0  0  0  0           0  0  0
   10.5000  -11.8625    0.0000 C   0  0  3  0  0  0           0  0  0
   16.4000  -10.6042    0.0000 C   0  0  0  0  0  0           0  0  0
   14.8500  -11.5000    0.0000 C   0  0  0  0  0  0           0  0  0
   12.2917  -12.9125    0.0000 C   0  0  0  0  0  0           0  0  0
   11.1000  -11.8625    0.0000 C   0  0  0  0  0  0           0  0  0
   10.2000  -12.3792    0.0000 C   0  0  0  0  0  0           0  0  0
   10.2042  -11.3375    0.0000 C   0  0  0  0  0  0           0  0  0
   16.9042   -9.7125    0.0000 C   0  0  0  0  0  0           0  0  0
   16.9125  -10.3042    0.0000 C   0  0  0  0  0  0           0  0  0
   12.0000  -12.3875    0.0000 C   0  0  0  0  0  0           0  0  0
   11.4000  -12.3875    0.0000 C   0  0  0  0  0  0           0  0  0
   14.3292  -11.2000    0.0000 C   0  0  0  0  0  0           0  0  0
   16.4167  -13.0000    0.0000 C   0  0  0  0  0  0           0  0  0
   15.8917  -13.3000    0.0000 C   0  0  0  0  0  0           0  0  0
    9.6042  -11.3375    0.0000 C   0  0  0  0  0  0           0  0  0
    9.5917  -12.3750    0.0000 C   0  0  0  0  0  0           0  0  0
    9.3042  -11.8500    0.0000 C   0  0  0  0  0  0           0  0  0
   13.7917  -11.8000    0.0000 H   0  0  0  0  0  0           0  0  0
  2  1  2  0     0  0
  3  1  1  0     0  0
  4  5  1  0     0  0
  5  6  2  0     0  0
  6  2  1  0     0  0
  7  2  1  0     0  0
  8  3  1  0     0  0
  9  3  1  0     0  0
 10 21  1  0     0  0
 11  4  1  0     0  0
 12  4  2  0     0  0
 13  8  2  0     0  0
 14 19  2  0     0  0
 15 10  2  0     0  0
 16  8  1  0     0  0
 17 10  1  0     0  0
 18  5  1  0     0  0
 19 11  1  0     0  0
 20  6  1  0     0  0
 21 30  1  0     0  0
 22 34  2  0     0  0
 23 27  1  0     0  0
 24 12  1  0     0  0
 25 11  2  0     0  0
 26 16  1  0     0  0
 27 33  1  0     0  0
 28 23  1  0     0  0
 29 23  1  0     0  0
 30 31  1  0     0  0
 31 24  1  0     0  0
 32 26  1  0     0  0
 33 32  1  0     0  0
 34 25  1  0     0  0
 35 36  1  0     0  0
 36 20  2  0     0  0
 37 29  1  0     0  0
 38 28  1  0     0  0
 39 37  1  0     0  0
  3 40  1  1     0  0
  9  7  1  0     0  0
 35 18  2  0     0  0
 14 22  1  0     0  0
 39 38  1  0     0  0
M  END