
          11280715252D 1   1.00000     0.00000     0

 60 63  0     1  0            999 V2000
    1.0000   -2.9167    0.0000 C   0  0  1  0  0  0           0  0  0
    3.1417   -2.5042    0.0000 C   0  0  1  0  0  0           0  0  0
    0.2875   -2.5042    0.0000 C   0  0  0  0  0  0           0  0  0
    3.8542   -2.9167    0.0000 C   0  0  0  0  0  0           0  0  0
    1.7167   -2.5042    0.0000 C   0  0  1  0  0  0           0  0  0
    2.4292   -2.9167    0.0000 C   0  0  1  0  0  0           0  0  0
   -0.4333   -2.9167    0.0000 N   0  0  0  0  0  0           0  0  0
    4.5750   -2.5042    0.0000 N   0  0  0  0  0  0           0  0  0
   -1.1458   -2.5042    0.0000 C   0  0  2  0  0  0           0  0  0
    5.2875   -2.9167    0.0000 C   0  0  2  0  0  0           0  0  0
   -1.8583   -2.9167    0.0000 C   0  0  0  0  0  0           0  0  0
    6.0042   -2.5042    0.0000 C   0  0  0  0  0  0           0  0  0
    3.1417   -1.6792    0.0000 O   0  0  0  0  0  0           0  0  0
    1.0000   -3.7417    0.0000 O   0  0  0  0  0  0           0  0  0
    3.8542   -3.7417    0.0000 O   0  0  0  0  0  0           0  0  0
    0.2875   -1.6792    0.0000 O   0  0  0  0  0  0           0  0  0
   -1.8583   -3.7417    0.0000 O   0  0  0  0  0  0           0  0  0
    6.0042   -1.6792    0.0000 O   0  0  0  0  0  0           0  0  0
    6.7167   -2.9167    0.0000 N   0  0  0  0  0  0           0  0  0
   -2.5708   -2.5042    0.0000 N   0  0  0  0  0  0           0  0  0
    2.4292   -3.7417    0.0000 O   0  0  0  0  0  0           0  0  0
    1.7167   -1.6792    0.0000 O   0  0  0  0  0  0           0  0  0
    0.2875   -4.1542    0.0000 C   0  0  0  0  0  0           0  0  0
    3.8542   -1.2667    0.0000 C   0  0  0  0  0  0           0  0  0
    5.2875   -3.7417    0.0000 C   0  0  3  0  0  0           0  0  0
   -1.1458   -1.6792    0.0000 C   0  0  3  0  0  0           0  0  0
    0.2875   -4.9792    0.0000 C   0  0  0  0  0  0           0  0  0
    3.8542   -0.4417    0.0000 C   0  0  0  0  0  0           0  0  0
    0.2792   -6.6250    0.0000 C   0  0  0  0  0  0           0  0  0
    3.8625    1.2083    0.0000 C   0  0  0  0  0  0           0  0  0
    3.8542    2.0333    0.0000 C   0  0  0  0  0  0           0  0  0
    0.2792   -7.4500    0.0000 C   0  0  0  0  0  0           0  0  0
    4.5750    2.4583    0.0000 C   0  0  0  0  0  0           0  0  0
   -0.4333   -7.8625    0.0000 C   0  0  0  0  0  0           0  0  0
    4.5750    0.7958    0.0000 C   0  0  0  0  0  0           0  0  0
    1.0000   -6.2042    0.0000 C   0  0  0  0  0  0           0  0  0
    3.1417    0.7958    0.0000 C   0  0  0  0  0  0           0  0  0
    3.1417   -0.0292    0.0000 C   0  0  0  0  0  0           0  0  0
    0.9917   -5.3792    0.0000 C   0  0  0  0  0  0           0  0  0
   -0.4333   -6.2125    0.0000 C   0  0  0  0  0  0           0  0  0
   -0.4333   -5.3875    0.0000 C   0  0  0  0  0  0           0  0  0
    4.5750   -0.0292    0.0000 C   0  0  0  0  0  0           0  0  0
    4.5667    3.2750    0.0000 C   0  0  0  0  0  0           0  0  0
   -0.4333   -8.6875    0.0000 C   0  0  0  0  0  0           0  0  0
   -3.2833   -2.9167    0.0000 C   0  0  0  0  0  0           0  0  0
    7.4292   -2.5042    0.0000 C   0  0  0  0  0  0           0  0  0
   -1.8583   -1.2667    0.0000 C   0  0  0  0  0  0           0  0  0
   -0.4333   -1.2667    0.0000 C   0  0  0  0  0  0           0  0  0
    4.5750   -4.1542    0.0000 C   0  0  0  0  0  0           0  0  0
    6.0042   -4.1542    0.0000 C   0  0  0  0  0  0           0  0  0
   -1.1458   -9.1000    0.0000 C   0  0  0  0  0  0           0  0  0
    0.2875   -9.0917    0.0000 C   0  0  0  0  0  0           0  0  0
    5.2875    3.6833    0.0000 C   0  0  0  0  0  0           0  0  0
    3.8625    3.6833    0.0000 C   0  0  0  0  0  0           0  0  0
    0.2917   -9.9167    0.0000 C   0  0  0  0  0  0           0  0  0
    5.2875    4.5042    0.0000 C   0  0  0  0  0  0           0  0  0
    3.8542    4.5000    0.0000 C   0  0  0  0  0  0           0  0  0
   -1.1458   -9.9167    0.0000 C   0  0  0  0  0  0           0  0  0
   -0.4250  -10.3292    0.0000 C   0  0  0  0  0  0           0  0  0
    4.5667    4.9167    0.0000 C   0  0  0  0  0  0           0  0  0
  2  6  1  0     0  0
  3  1  1  0     0  0
  4  2  1  0     0  0
  5  1  1  0     0  0
  6  5  1  0     0  0
  7  3  1  0     0  0
  8  4  1  0     0  0
  9  7  1  0     0  0
 10  8  1  0     0  0
 11  9  1  0     0  0
 12 10  1  0     0  0
  2 13  1  1     0  0
  1 14  1  1     0  0
 15  4  2  0     0  0
 16  3  2  0     0  0
 17 11  2  0     0  0
 18 12  2  0     0  0
 19 12  1  0     0  0
 20 11  1  0     0  0
  6 21  1  6     0  0
  5 22  1  6     0  0
 23 14  1  0     0  0
 24 13  1  0     0  0
 10 25  1  6     0  0
  9 26  1  6     0  0
 27 23  1  0     0  0
 28 24  1  0     0  0
 29 40  2  0     0  0
 30 35  2  0     0  0
 31 30  1  0     0  0
 32 29  1  0     0  0
 33 31  1  0     0  0
 34 32  1  0     0  0
 35 42  1  0     0  0
 36 39  2  0     0  0
 37 38  2  0     0  0
 38 28  1  0     0  0
 39 27  1  0     0  0
 40 41  1  0     0  0
 41 27  2  0     0  0
 42 28  2  0     0  0
 43 33  1  0     0  0
 44 34  1  0     0  0
 45 20  1  0     0  0
 46 19  1  0     0  0
 47 26  1  0     0  0
 48 26  1  0     0  0
 49 25  1  0     0  0
 50 25  1  0     0  0
 51 44  2  0     0  0
 52 44  1  0     0  0
 53 43  2  0     0  0
 54 43  1  0     0  0
 55 52  2  0     0  0
 56 53  1  0     0  0
 57 54  2  0     0  0
 58 51  1  0     0  0
 59 55  1  0     0  0
 60 57  1  0     0  0
 36 29  1  0     0  0
 37 30  1  0     0  0
 58 59  2  0     0  0
 56 60  2  0     0  0
M  END