
  Mrv0541 04051115152D          

 29 31  0  0  0  0            999 V2000
    0.8422   -2.0391    0.0000 N   0  0  0  0  0  0  0  0  0  0  0  0
    1.5567   -1.6266    0.0000 C   0  0  0  0  0  0  0  0  0  0  0  0
    1.5567   -0.8016    0.0000 N   0  0  0  0  0  0  0  0  0  0  0  0
    0.8422   -0.3891    0.0000 C   0  0  0  0  0  0  0  0  0  0  0  0
    0.1278   -0.8016    0.0000 C   0  0  0  0  0  0  0  0  0  0  0  0
    0.1278   -1.6266    0.0000 C   0  0  0  0  0  0  0  0  0  0  0  0
    0.8422    0.4359    0.0000 N   0  0  0  0  0  0  0  0  0  0  0  0
    1.5567    1.6734    0.0000 C   0  0  0  0  0  0  0  0  0  0  0  0
    0.8422    2.0859    0.0000 C   0  0  0  0  0  0  0  0  0  0  0  0
    0.8422    2.9109    0.0000 C   0  0  0  0  0  0  0  0  0  0  0  0
    1.5567    3.3234    0.0000 C   0  0  0  0  0  0  0  0  0  0  0  0
    2.2712    2.9109    0.0000 C   0  0  0  0  0  0  0  0  0  0  0  0
    2.2712    2.0859    0.0000 C   0  0  0  0  0  0  0  0  0  0  0  0
    1.5567    4.1484    0.0000 S   0  0  0  0  0  0  0  0  0  0  0  0
    1.5567    4.9734    0.0000 O   0  0  0  0  0  0  0  0  0  0  0  0
    0.7317    4.1484    0.0000 O   0  0  0  0  0  0  0  0  0  0  0  0
    2.3817    4.1484    0.0000 N   0  0  0  0  0  0  0  0  0  0  0  0
   -0.5867   -0.3891    0.0000 N   0  3  0  0  0  0  0  0  0  0  0  0
   -1.3012   -0.8016    0.0000 O   0  5  0  0  0  0  0  0  0  0  0  0
   -0.5867    0.4359    0.0000 O   0  0  0  0  0  0  0  0  0  0  0  0
   -0.5867   -2.0391    0.0000 N   0  0  0  0  0  0  0  0  0  0  0  0
   -0.5867   -2.8641    0.0000 C   0  0  0  0  0  0  0  0  0  0  0  0
   -1.3012   -3.2766    0.0000 C   0  0  0  0  0  0  0  0  0  0  0  0
   -1.3012   -4.1016    0.0000 C   0  0  0  0  0  0  0  0  0  0  0  0
   -2.0157   -4.5141    0.0000 C   0  0  0  0  0  0  0  0  0  0  0  0
   -2.7301   -4.1016    0.0000 C   0  0  0  0  0  0  0  0  0  0  0  0
   -2.7301   -3.2766    0.0000 C   0  0  0  0  0  0  0  0  0  0  0  0
   -2.0157   -2.8641    0.0000 C   0  0  0  0  0  0  0  0  0  0  0  0
    1.5567    0.8484    0.0000 C   0  0  0  0  0  0  0  0  0  0  0  0
  2  1  2  0  0  0  0
  6  1  1  0  0  0  0
  2  3  1  0  0  0  0
  4  3  2  0  0  0  0
  4  5  1  0  0  0  0
  4  7  1  0  0  0  0
  5  6  2  0  0  0  0
  5 18  1  0  0  0  0
  6 21  1  0  0  0  0
 29  7  1  0  0  0  0
  8  9  2  0  0  0  0
 13  8  1  0  0  0  0
 29  8  1  0  0  0  0
 10  9  1  0  0  0  0
 10 11  2  0  0  0  0
 11 12  1  0  0  0  0
 11 14  1  0  0  0  0
 12 13  2  0  0  0  0
 15 14  2  0  0  0  0
 16 14  2  0  0  0  0
 17 14  1  0  0  0  0
 18 19  1  0  0  0  0
 18 20  2  0  0  0  0
 22 21  1  0  0  0  0
 22 23  1  0  0  0  0
 23 24  2  0  0  0  0
 23 28  1  0  0  0  0
 24 25  1  0  0  0  0
 25 26  2  0  0  0  0
 26 27  1  0  0  0  0
 27 28  2  0  0  0  0
M  CHG  2  18   1  19  -1
M  END