
  SciTegic12231509382D

 42 44  0  0  0  0            999 V2000
    3.5375   -7.6000    0.0000 C   0  0
    2.9875   -6.9875    0.0000 N   0  0
    3.4000   -6.2750    0.0000 N   0  0
    4.2917   -7.2667    0.0000 C   0  0
    4.2042   -6.4417    0.0000 C   0  0
    5.0042   -7.6792    0.0000 N   0  3
   -0.2958   -7.3292    0.0000 N   0  3
    5.5917   -4.8667    0.0000 N   0  0
   -0.7583   -4.7167    0.0000 C   0  0
   -0.5833   -5.2917    0.0000 N   0  0
    5.6667   -3.9042    0.0000 N   0  0
   -1.3583   -4.7167    0.0000 C   0  0
    5.9792   -4.4167    0.0000 C   0  0
    2.3542   -4.6917    0.0000 C   0  0
   -1.0708   -5.6417    0.0000 C   0  0
   -1.5583   -5.2792    0.0000 N   0  0
    2.1667   -7.0750    0.0000 C   0  0
    5.0292   -4.6417    0.0000 C   0  0
    5.0792   -4.0417    0.0000 C   0  0
    0.5250   -7.2417    0.0000 C   0  0
    3.3667   -8.4042    0.0000 O   0  0
    5.7167   -7.2667    0.0000 O   0  5
   -0.7833   -6.6667    0.0000 O   0  5
    5.0042   -8.5042    0.0000 O   0  0
   -0.5875   -8.1042    0.0000 O   0  0
    2.3792   -5.2917    0.0000 N   0  0
    1.8292   -7.8292    0.0000 C   0  0
    1.6792   -6.4042    0.0000 C   0  0
    0.8542   -6.4917    0.0000 C   0  0
    1.0125   -7.9125    0.0000 C   0  0
    2.8792   -4.3917    0.0000 N   0  0
    1.8292   -4.3917    0.0000 N   0  0
    4.8167   -5.8917    0.0000 C   0  0
   -0.2458   -4.4167    0.0000 C   0  0
    0.2792   -4.7042    0.0000 S   0  0
    5.8917   -3.3542    0.0000 C   0  0
   -1.7083   -4.2292    0.0000 C   0  0
    4.4417   -4.6792    0.0000 C   0  0
    1.3167   -4.7042    0.0000 C   0  0
    3.3917   -4.6917    0.0000 C   0  0
    0.7917   -4.4042    0.0000 C   0  0
    3.9167   -4.3917    0.0000 C   0  0
  2  1  1  0
  3  2  1  0
  4  1  1  0
  5  4  1  0
  6  4  1  0
  7 20  1  0
  9 34  1  0
 10  9  1  0
 11 13  1  0
 12  9  2  0
 13  8  2  0
 14 31  1  0
 15 10  2  0
 16 12  1  0
 17  2  1  0
 18  8  1  0
 19 18  2  0
 20 29  1  0
 21  1  2  0
 22  6  1  0
 23  7  1  0
 24  6  2  0
 25  7  2  0
 26 14  1  0
 27 17  2  0
 28 17  1  0
 29 28  2  0
 30 27  1  0
 31 40  1  0
 32 14  2  0
 33  5  1  0
 34 35  1  0
 35 41  1  0
 36 11  1  0
 37 12  1  0
 38 18  1  0
 39 32  1  0
 40 42  1  0
 41 39  1  0
 42 38  1  0
  5  3  2  0
 20 30  2  0
 11 19  1  0
 16 15  1  0
M  CHG  4   6   1   7   1  22  -1  23  -1
M  END