
  SciTegic06051313522D

 30 33  0  0  0  0            999 V2000
   17.1805   -1.4693    0.0000 S   0  0
   17.8939   -1.8837    0.0000 N   0  0
   17.8922   -2.7078    0.0000 C   0  0
   18.6089   -1.4741    0.0000 C   0  0
   19.3223   -1.8885    0.0000 C   0  0
   20.0373   -1.4788    0.0000 C   0  0
   20.0411   -0.6511    0.0000 C   0  0
   19.3278   -0.2366    0.0000 C   0  0
   18.6106   -0.6500    0.0000 N   0  0
   19.3206   -2.7126    0.0000 C   0  0
   18.6121   -3.1341    0.0000 N   0  0
   19.3106   -5.2090    0.0000 C   0  0
   19.3212   -4.3814    0.0000 C   0  0
   18.6113   -3.9611    0.0000 C   0  0
   17.8907   -4.3686    0.0000 C   0  0
   17.8823   -5.1927    0.0000 C   0  0
   18.5923   -5.6129    0.0000 N   0  0
   20.0915   -5.4710    0.0000 N   0  0
   20.1063   -4.1327    0.0000 C   0  0
   20.5842   -4.8085    0.0000 C   0  0
   16.4649   -1.8799    0.0000 C   0  0
   16.5917   -0.8791    0.0000 O   0  0
   17.5876   -0.7500    0.0000 O   0  0
   21.4064   -4.8179    0.0000 C   0  0
   21.8098   -5.5389    0.0000 C   0  0
   22.6339   -5.5492    0.0000 C   0  0
   23.0558   -4.8391    0.0000 C   0  0
   22.6475   -4.1173    0.0000 C   0  0
   21.8246   -4.1106    0.0000 C   0  0
   23.8808   -4.8479    0.0000 F   0  0
  1  2  1  0
  2  3  1  0
  4  5  1  0
  5  6  2  0
  6  7  1  0
  7  8  2  0
  8  9  1  0
  4  9  2  0
 12 13  1  0
 13 14  2  0
 14 15  1  0
 15 16  2  0
 16 17  1  0
 12 17  2  0
 19 20  2  0
 18 20  1  0
 12 18  1  0
 13 19  1  0
 11 14  1  0
 10 11  1  0
  5 10  1  0
  2  4  1  0
  1 21  1  0
  1 22  2  0
  1 23  2  0
 24 25  2  0
 25 26  1  0
 26 27  2  0
 27 28  1  0
 28 29  2  0
 29 24  1  0
 20 24  1  0
 27 30  1  0
M  END