
  CDK    9/16/09,9:44

 21 23  0  0  0  0  0  0  0  0999 V2000
   -1.8046  -16.4204    0.0000 C   0  0  0  0  0  0  0  0  0  0  0  0
   -1.8058  -17.2474    0.0000 C   0  0  0  0  0  0  0  0  0  0  0  0
   -1.0913  -17.6601    0.0000 C   0  0  0  0  0  0  0  0  0  0  0  0
   -0.3753  -17.2469    0.0000 C   0  0  0  0  0  0  0  0  0  0  0  0
   -0.3782  -16.4168    0.0000 C   0  0  0  0  0  0  0  0  0  0  0  0
   -1.0931  -16.0079    0.0000 C   0  0  0  0  0  0  0  0  0  0  0  0
   -2.5189  -16.0083    0.0000 C   0  0  0  0  0  0  0  0  0  0  0  0
   -3.2328  -16.4208    0.0000 C   0  0  0  0  0  0  0  0  0  0  0  0
   -3.9833  -16.0872    0.0000 N   0  0  0  0  0  0  0  0  0  0  0  0
   -4.5349  -16.7002    0.0000 C   0  0  0  0  0  0  0  0  0  0  0  0
   -4.1224  -17.4142    0.0000 N   0  0  0  0  0  0  0  0  0  0  0  0
   -3.3159  -17.2425    0.0000 C   0  0  0  0  0  0  0  0  0  0  0  0
    0.3318  -16.0019    0.0000 C   0  0  0  0  0  0  0  0  0  0  0  0
    1.0473  -16.4137    0.0000 O   0  0  0  0  0  0  0  0  0  0  0  0
    1.7578  -16.0022    0.0000 C   0  0  0  0  0  0  0  0  0  0  0  0
    1.7589  -15.1774    0.0000 C   0  0  0  0  0  0  0  0  0  0  0  0
    1.0434  -14.7656    0.0000 C   0  0  0  0  0  0  0  0  0  0  0  0
    0.3267  -15.1787    0.0000 N   0  0  0  0  0  0  0  0  0  0  0  0
    2.4718  -16.4145    0.0000 C   0  0  0  0  0  0  0  0  0  0  0  0
    0.4540  -14.1758    0.0000 C   0  0  0  0  0  0  0  0  0  0  0  0
    1.6241  -14.1758    0.0000 C   0  0  0  0  0  0  0  0  0  0  0  0
  5  6  2  0  0  0  0 
  9 10  2  0  0  0  0 
 10 11  1  0  0  0  0 
 11 12  1  0  0  0  0 
 12  8  2  0  0  0  0 
 13 14  1  0  0  0  0 
  6  1  1  0  0  0  0 
  1  2  2  0  0  0  0 
  1  7  1  0  0  0  0 
  3  4  2  0  0  0  0 
  7  8  1  0  0  0  0 
  8  9  1  0  0  0  0 
 13 18  2  0  0  0  0 
 14 15  1  0  0  0  0 
 15 16  1  0  0  0  0 
 16 17  1  0  0  0  0 
 17 18  1  0  0  0  0 
  5 13  1  0  0  0  0 
 15 19  1  0  0  0  0 
  4  5  1  0  0  0  0 
 17 20  1  0  0  0  0 
  2  3  1  0  0  0  0 
 17 21  1  0  0  0  0 
M  END