
          11280715042D 1   1.00000     0.00000     0

 41 44  0     0  0            999 V2000
    7.9042   -2.6750    0.0000 C   0  0  0  0  0  0           0  0  0
    0.7667   -0.9917    0.0000 N   0  0  3  0  0  0           0  0  0
    5.7542   -2.2542    0.0000 C   0  0  0  0  0  0           0  0  0
    8.6167   -2.2667    0.0000 C   0  0  0  0  0  0           0  0  0
    7.1917   -2.2625    0.0000 N   0  0  3  0  0  0           0  0  0
    0.7667   -0.1667    0.0000 C   0  0  0  0  0  0           0  0  0
    5.0292   -3.4875    0.0000 C   0  0  0  0  0  0           0  0  0
    6.4667   -2.6750    0.0000 C   0  0  0  0  0  0           0  0  0
    5.0417   -2.6625    0.0000 C   0  0  3  0  0  0           0  0  0
    2.9042   -2.2375    0.0000 N   0  0  3  0  0  0           0  0  0
    5.7417   -3.9000    0.0000 C   0  0  0  0  0  0           0  0  0
    1.4792   -1.4042    0.0000 C   0  0  3  0  0  0           0  0  0
    5.7417   -4.7250    0.0000 C   0  0  0  0  0  0           0  0  0
    5.7667   -1.4292    0.0000 N   0  0  0  0  0  0           0  0  0
    4.3292   -2.2500    0.0000 C   0  0  0  0  0  0           0  0  0
    9.3292   -2.6875    0.0000 C   0  0  0  0  0  0           0  0  0
    8.6167   -1.4500    0.0000 C   0  0  0  0  0  0           0  0  0
    2.1917   -1.0000    0.0000 C   0  0  0  0  0  0           0  0  0
    1.4792   -2.2375    0.0000 C   0  0  0  0  0  0           0  0  0
    5.0292   -5.1375    0.0000 C   0  0  0  0  0  0           0  0  0
    7.8917   -3.5000    0.0000 O   0  0  0  0  0  0           0  0  0
    9.3292   -1.0375    0.0000 C   0  0  0  0  0  0           0  0  0
   10.0417   -2.2792    0.0000 C   0  0  0  0  0  0           0  0  0
   10.0417   -1.4542    0.0000 C   0  0  0  0  0  0           0  0  0
    1.4792    0.2458    0.0000 O   0  0  0  0  0  0           0  0  0
    4.3167   -3.8917    0.0000 C   0  0  0  0  0  0           0  0  0
    3.6167   -2.6542    0.0000 C   0  0  0  0  0  0           0  0  0
    4.3167   -4.7167    0.0000 C   0  0  0  0  0  0           0  0  0
    2.9042   -1.4125    0.0000 C   0  0  0  0  0  0           0  0  0
    2.1792   -2.6500    0.0000 C   0  0  0  0  0  0           0  0  0
    6.4542   -5.1375    0.0000 Cl  0  0  0  0  0  0           0  0  0
    5.0292   -5.9625    0.0000 Cl  0  0  0  0  0  0           0  0  0
    9.3292   -0.2125    0.0000 Cl  0  0  0  0  0  0           0  0  0
   10.7542   -2.7000    0.0000 Cl  0  0  0  0  0  0           0  0  0
    0.0542   -1.4000    0.0000 C   0  0  0  0  0  0           0  0  0
    6.4792   -1.0250    0.0000 O   0  0  0  0  0  0           0  0  0
    7.1917   -1.4375    0.0000 C   0  0  0  0  0  0           0  0  0
    0.0542    0.2500    0.0000 C   0  0  0  0  0  0           0  0  0
    7.1917   -0.6167    0.0000 C   0  0  0  0  0  0           0  0  0
   -0.6583   -0.9917    0.0000 C   0  0  0  0  0  0           0  0  0
   -0.6583   -0.1667    0.0000 C   0  0  0  0  0  0           0  0  0
  2 12  1  0     0  0
  3  8  1  0     0  0
  4  1  1  0     0  0
  5  1  1  0     0  0
  6  2  1  0     0  0
  7  9  1  0     0  0
  8  5  1  0     0  0
  9  3  1  0     0  0
 10 27  1  0     0  0
 11  7  1  0     0  0
 12 19  1  0     0  0
 13 11  2  0     0  0
 14  3  2  0     0  0
 15  9  1  0     0  0
 16  4  2  0     0  0
 17  4  1  0     0  0
 18 29  1  0     0  0
 19 30  1  0     0  0
 20 28  2  0     0  0
 21  1  2  0     0  0
 22 17  2  0     0  0
 23 16  1  0     0  0
 24 22  1  0     0  0
 25  6  2  0     0  0
 26  7  2  0     0  0
 27 15  1  0     0  0
 28 26  1  0     0  0
 29 10  1  0     0  0
 30 10  1  0     0  0
 31 13  1  0     0  0
 32 20  1  0     0  0
 33 22  1  0     0  0
 34 23  1  0     0  0
 35  2  1  0     0  0
 36 14  1  0     0  0
 37  5  1  0     0  0
 38  6  1  0     0  0
 39 36  1  0     0  0
 40 35  1  0     0  0
 41 40  1  0     0  0
 23 24  2  0     0  0
 13 20  1  0     0  0
 18 12  1  0     0  0
 41 38  1  0     0  0
M  END