
  SciTegic12101218362D

 25 25  0  0  0  0            999 V2000
    6.1284    0.4125    0.0000 C   0  0
    8.2719    0.8250    0.0000 C   0  0
    8.2719    1.6500    0.0000 C   0  0
    7.5574    0.4125    0.0000 C   0  0
    7.5574    2.0625    0.0000 C   0  0
    6.8429    0.8250    0.0000 C   0  0
    5.4139    1.6500    0.0000 C   0  0
    6.1284    2.0625    0.0000 C   0  0
    3.2705    2.8876    0.0000 C   0  0
    2.5560    3.3001    0.0000 C   0  0
    2.5560    1.6500    0.0000 C   0  0
    3.9849    0.8250    0.0000 C   0  0
    5.4139    0.8250    0.0000 C   0  0
    6.8429    1.6500    0.0000 C   0  0
    3.2705    2.0625    0.0000 C   0  0
    1.8415    2.0625    0.0000 C   0  0
    1.8415    2.8876    0.0000 C   0  0
    3.9849    1.6500    0.0000 C   0  0
    1.1270    1.6500    0.0000 C   0  0
    1.1270    0.8250    0.0000 N   0  0
    4.6995    0.4125    0.0000 N   0  0
    1.1270    3.3001    0.0000 O   0  0
    4.6995    2.0625    0.0000 O   0  0
    0.4125    2.0625    0.0000 O   0  0
    0.0000    0.0000    0.0000 Cl  0  0
  1 13  1  0
  2  3  2  0
  2  4  1  0
  3  5  1  0
  4  6  2  0
  5 14  2  0
  6 14  1  0
  7  8  1  0
  7 13  1  0
  8 14  1  0
  9 10  2  0
  9 15  1  0
 10 17  1  0
 11 15  2  0
 11 16  1  0
 12 18  1  0
 12 21  1  0
 13 21  1  0
 15 18  1  0
 16 17  2  0
 16 19  1  0
 17 22  1  0
 18 23  1  0
 19 20  1  0
 19 24  2  0
M  END