
  SciTegic11201309402D

 24 27  0  0  0  0            999 V2000
    1.4817   -0.6391    0.0000 C   0  0
    2.2939   -0.4939    0.0000 C   0  0
    2.5742    0.2820    0.0000 C   0  0
    3.3863    0.4272    0.0000 O   0  0
    2.0423    0.9127    0.0000 C   0  0
    1.2302    0.7675    0.0000 C   0  0
    0.6984    1.3982    0.0000 C   0  0
   -0.1137    1.2530    0.0000 C   0  0
   -0.3940    0.4771    0.0000 C   0  0  2  0  0  0
    0.1378   -0.1536    0.0000 C   0  0  1  0  0  0
    0.9499   -0.0084    0.0000 C   0  0  1  0  0  0
   -0.1425   -0.9295    0.0000 C   0  0
   -0.9546   -1.0748    0.0000 C   0  0
   -1.4864   -0.4440    0.0000 C   0  0  1  0  0  0
   -1.2061    0.3319    0.0000 C   0  0  1  0  0  0
   -1.8575    0.8382    0.0000 C   0  0
   -2.5403    0.3753    0.0000 C   0  0
   -2.3110   -0.4172    0.0000 C   0  0  2  0  0  0
   -2.8174   -1.0686    0.0000 O   0  0
   -1.8463   -1.1864    0.0000 C   0  0
    0.6696   -0.7843    0.0000 C   0  0
   -0.9666    1.3028    0.0000 H   0  0
    0.7824   -0.9181    0.0000 H   0  0
   -1.0386    1.2416    0.0000 H   0  0
  1  2  1  0
  1 11  1  0
  2  3  1  0
  3  4  2  0
  3  5  1  0
  5  6  2  0
  6  7  1  0
 11  6  1  0
  7  8  1  0
  9  8  1  0
  9 10  1  0
 15  9  1  0
 11 10  1  0
 10 12  1  0
 11 21  1  1
 12 13  1  0
 13 14  1  0
 14 15  1  0
 14 18  1  0
 14 20  1  1
 15 16  1  0
 16 17  1  0
 17 18  1  0
 18 19  1  1
 15 22  1  6
 10 23  1  6
  9 24  1  1
M  END