
  CDK    9/16/09,9:45

 32 34  0  0  0  0  0  0  0  0999 V2000
   10.9110    2.3283    0.0000 C   0  0  0  0  0  0  0  0  0  0  0  0
   10.9097    1.5007    0.0000 C   0  0  0  0  0  0  0  0  0  0  0  0
   11.6227    1.0879    0.0000 C   0  0  0  0  0  0  0  0  0  0  0  0
   11.6207    2.7411    0.0000 C   0  0  0  0  0  0  0  0  0  0  0  0
   12.3389    2.3323    0.0000 C   0  0  0  0  0  0  0  0  0  0  0  0
   12.3395    1.5053    0.0000 C   0  0  0  0  0  0  0  0  0  0  0  0
   13.1262    1.2502    0.0000 C   0  0  0  0  0  0  0  0  0  0  0  0
   13.6118    1.9197    0.0000 C   0  0  0  0  0  0  0  0  0  0  0  0
   13.1252    2.5883    0.0000 N   0  0  0  0  0  0  0  0  0  0  0  0
   14.4358    1.9198    0.0000 C   0  0  0  0  0  0  0  0  0  0  0  0
   14.8482    1.2040    0.0000 C   0  0  0  0  0  0  0  0  0  0  0  0
   15.6724    1.2042    0.0000 C   0  0  0  0  0  0  0  0  0  0  0  0
   16.0852    1.9196    0.0000 C   0  0  0  0  0  0  0  0  0  0  0  0
   15.6677    2.6361    0.0000 C   0  0  0  0  0  0  0  0  0  0  0  0
   14.8449    2.6322    0.0000 C   0  0  0  0  0  0  0  0  0  0  0  0
   16.9100    1.9212    0.0000 F   0  0  0  0  0  0  0  0  0  0  0  0
   13.3816    0.4658    0.0000 C   0  0  0  0  0  0  0  0  0  0  0  0
   12.8299   -0.1476    0.0000 C   0  0  0  0  0  0  0  0  0  0  0  0
   12.0229    0.0234    0.0000 O   0  0  0  0  0  0  0  0  0  0  0  0
   13.0853   -0.9320    0.0000 N   0  0  0  0  0  0  0  0  0  0  0  0
   12.5337   -1.5455    0.0000 C   0  0  0  0  0  0  0  0  0  0  0  0
   13.8924   -1.1030    0.0000 C   0  0  0  0  0  0  0  0  0  0  0  0
   11.7267   -1.3744    0.0000 C   0  0  0  0  0  0  0  0  0  0  0  0
   11.1750   -1.9879    0.0000 C   0  0  0  0  0  0  0  0  0  0  0  0
   10.3680   -1.8168    0.0000 C   0  0  0  0  0  0  0  0  0  0  0  0
    9.8163   -2.4303    0.0000 C   0  0  0  0  0  0  0  0  0  0  0  0
    9.0093   -2.2592    0.0000 C   0  0  0  0  0  0  0  0  0  0  0  0
   14.4440   -0.4896    0.0000 C   0  0  0  0  0  0  0  0  0  0  0  0
   15.2511   -0.6606    0.0000 C   0  0  0  0  0  0  0  0  0  0  0  0
   15.8027   -0.0472    0.0000 C   0  0  0  0  0  0  0  0  0  0  0  0
   16.6098   -0.2182    0.0000 C   0  0  0  0  0  0  0  0  0  0  0  0
   17.1614    0.3952    0.0000 C   0  0  0  0  0  0  0  0  0  0  0  0
  8 10  1  0  0  0  0 
  5  4  2  0  0  0  0 
 13 16  1  0  0  0  0 
  6  7  1  0  0  0  0 
  7 17  1  0  0  0  0 
  7  8  2  0  0  0  0 
 17 18  1  0  0  0  0 
  8  9  1  0  0  0  0 
 18 19  2  0  0  0  0 
  9  5  1  0  0  0  0 
 18 20  1  0  0  0  0 
  4  1  1  0  0  0  0 
 20 21  1  0  0  0  0 
  5  6  1  0  0  0  0 
 20 22  1  0  0  0  0 
 10 11  2  0  0  0  0 
 21 23  1  0  0  0  0 
 23 24  1  0  0  0  0 
 11 12  1  0  0  0  0 
 24 25  1  0  0  0  0 
  2  3  1  0  0  0  0 
 25 26  1  0  0  0  0 
 12 13  2  0  0  0  0 
 26 27  1  0  0  0  0 
  3  6  2  0  0  0  0 
 22 28  1  0  0  0  0 
 13 14  1  0  0  0  0 
 28 29  1  0  0  0  0 
  1  2  2  0  0  0  0 
 29 30  1  0  0  0  0 
 14 15  2  0  0  0  0 
 30 31  1  0  0  0  0 
 15 10  1  0  0  0  0 
 31 32  1  0  0  0  0 
M  END