
  SciTegic12091613532D

 38 42  0  0  0  0            999 V2000
   -2.6111    0.7486    0.0000 C   0  0
   -2.6111   -0.7486    0.0000 C   0  0
   -1.2964   -1.4973    0.0000 C   0  0
   -1.2964    1.4973    0.0000 C   0  0
    0.0000    0.7486    0.0000 C   0  0
    0.0000   -0.7486    0.0000 C   0  0
    1.2964   -1.4973    0.0000 C   0  0
    2.5929   -0.7486    0.0000 C   0  0
    2.5929    0.7486    0.0000 C   0  0
    1.2964    1.4973    0.0000 O   0  0
    1.2964   -2.6973    0.0000 O   0  0
    3.8942   -1.4964    0.0000 C   0  0
    3.8963   -2.6964    0.0000 O   0  0
    5.1929   -0.7441    0.0000 N   0  0
    6.4942   -1.4919    0.0000 C   0  0
    7.7928   -0.7396    0.0000 C   0  0
    9.0941   -1.4873    0.0000 C   0  0
   10.3928   -0.7351    0.0000 N   0  0
   11.6941   -1.4828    0.0000 C   0  0
   12.9928   -0.7305    0.0000 C   0  0
   11.6962   -2.6828    0.0000 O   0  0
   14.5801    1.0547    0.0000 N   0  0
   13.1135    0.7276    0.0000 C   0  0
   15.3363   -0.2330    0.0000 C   0  0
   14.3396   -1.3474    0.0000 C   0  0
   14.7940   -2.7811    0.0000 C   0  0
   16.2830   -3.0854    0.0000 C   0  0
   17.2796   -1.9711    0.0000 C   0  0
   16.8116   -0.5252    0.0000 C   0  0
   15.1793    2.4279    0.0000 S   0  0
   16.6706    2.5967    0.0000 C   0  0
   14.4666    3.3933    0.0000 O   0  0
   13.9869    2.2935    0.0000 O   0  0
   17.5620    1.3903    0.0000 C   0  0
   19.0525    1.5590    0.0000 C   0  0
   19.6516    2.9342    0.0000 C   0  0
   18.7602    4.1406    0.0000 C   0  0
   17.2698    3.9719    0.0000 C   0  0
  1  2  2  0
  2  3  1  0
  3  6  2  0
  5  4  2  0
  4  1  1  0
  5  6  1  0
  5 10  1  0
  6  7  1  0
  7  8  1  0
  8  9  2  0
  9 10  1  0
  7 11  2  0
  8 12  1  0
 12 13  2  0
 12 14  1  0
 14 15  1  0
 15 16  1  0
 16 17  1  0
 17 18  1  0
 18 19  1  0
 19 20  1  0
 19 21  2  0
 20 25  1  0
 24 22  1  0
 22 23  1  0
 23 20  2  0
 24 25  2  0
 25 26  1  0
 26 27  2  0
 27 28  1  0
 28 29  2  0
 29 24  1  0
 22 30  1  0
 30 31  1  0
 30 32  2  0
 30 33  2  0
 31 34  2  0
 34 35  1  0
 35 36  2  0
 36 37  1  0
 37 38  2  0
 38 31  1  0
M  END