
          11280715192D 1   1.00000     0.00000     0

 25 26  0     0  0            999 V2000
    1.2792   -3.6000    0.0000 C   0  0  0  0  0  0           0  0  0
    0.4542   -3.6000    0.0000 N   0  0  0  0  0  0           0  0  0
   -0.3708   -3.6000    0.0000 C   0  0  0  0  0  0           0  0  0
    1.7667   -4.2542    0.0000 N   0  0  0  0  0  0           0  0  0
    1.7625   -2.9250    0.0000 N   0  0  0  0  0  0           0  0  0
   -0.7833   -4.3125    0.0000 C   0  0  0  0  0  0           0  0  0
   -0.7833   -2.8875    0.0000 C   0  0  0  0  0  0           0  0  0
    2.5500   -4.0000    0.0000 C   0  0  3  0  0  0           0  0  0
    6.8167   -4.4292    0.0000 N   0  0  0  0  0  0           0  0  0
    7.4875   -4.9042    0.0000 C   0  0  3  0  0  0           0  0  0
    2.5417   -3.1750    0.0000 C   0  0  0  0  0  0           0  0  0
    6.0667   -4.7667    0.0000 C   0  0  0  0  0  0           0  0  0
    5.3917   -4.2875    0.0000 C   0  0  3  0  0  0           0  0  0
   -0.3708   -2.1750    0.0000 Cl  0  0  0  0  0  0           0  0  0
   -0.3708   -5.0292    0.0000 Cl  0  0  0  0  0  0           0  0  0
    3.9750   -4.1417    0.0000 O   0  0  0  0  0  0           0  0  0
    5.4792   -3.4667    0.0000 O   0  0  0  0  0  0           0  0  0
    3.2167   -4.4792    0.0000 C   0  0  0  0  0  0           0  0  0
   -2.0208   -3.6042    0.0000 C   0  0  0  0  0  0           0  0  0
    4.6417   -4.6250    0.0000 C   0  0  0  0  0  0           0  0  0
   -1.6083   -2.8917    0.0000 C   0  0  0  0  0  0           0  0  0
   -1.6083   -4.3125    0.0000 C   0  0  0  0  0  0           0  0  0
    7.4042   -5.7292    0.0000 C   0  0  0  0  0  0           0  0  0
    8.2375   -4.5667    0.0000 C   0  0  0  0  0  0           0  0  0
    6.8500   -5.4292    0.0000 C   0  0  0  0  0  0           0  0  0
  2  1  1  0     0  0
  3  2  1  0     0  0
  4  1  1  0     0  0
  5  1  2  0     0  0
  6  3  2  0     0  0
  7  3  1  0     0  0
  8  4  1  0     0  0
  9 12  1  0     0  0
 10  9  1  0     0  0
 11  5  1  0     0  0
 12 13  1  0     0  0
 13 20  1  0     0  0
 14  7  1  0     0  0
 15  6  1  0     0  0
 16 18  1  0     0  0
 17 13  1  0     0  0
 18  8  1  0     0  0
 19 21  1  0     0  0
 20 16  1  0     0  0
 21  7  2  0     0  0
 22  6  1  0     0  0
 23 10  1  0     0  0
 24 10  1  0     0  0
 25 10  1  0     0  0
 11  8  1  0     0  0
 19 22  2  0     0  0
M  END