
  SciTegic04191613082D

176186  0  0  1  0            999 V2000
    2.5289    5.8149    0.0000 C   0  0
    3.5277    4.6947    0.0000 N   0  0
    3.0579    3.2693    0.0000 C   0  0
    3.8564    2.3736    0.0000 N   0  0
    1.8830    3.0252    0.0000 N   0  0
    2.9988    7.2403    0.0000 C   0  0
    2.0000    8.3606    0.0000 C   0  0
    2.4736    9.7971    0.0000 C   0  0  1  0  0  0
    1.1050   10.4111    0.0000 C   0  0
   -0.1120   11.2880    0.0000 N   0  0
   -1.1275   12.3920    0.0000 C   0  0  2  0  0  0
   -1.9000   13.6778    0.0000 C   0  0
   -2.8049   13.2521    0.0000 O   0  0
   -2.3979   15.0927    0.0000 N   0  0
   -2.6008   16.5790    0.0000 C   0  0  2  0  0  0
   -4.1125   16.5300    0.0000 C   0  0
   -4.6783   15.4717    0.0000 O   0  0
   -4.9054   17.8043    0.0000 N   0  0
   -6.4054   17.7557    0.0000 C   0  0  1  0  0  0
   -7.1143   16.4328    0.0000 C   0  0
   -8.6143   16.3843    0.0000 C   0  0
   -9.3231   15.0614    0.0000 C   0  0
  -10.8231   15.0128    0.0000 C   0  0
  -11.3899   13.9551    0.0000 N   0  0
   -7.1997   19.0292    0.0000 C   0  0
   -8.3991   18.9890    0.0000 O   0  0
   -6.6352   20.0881    0.0000 O   0  0
   -2.5003   18.0756    0.0000 C   0  0
   -2.1006   19.5214    0.0000 N   0  0
   -1.4181   20.8571    0.0000 C   0  0
   -2.2579   21.3998    0.0000 O   0  0
   -0.4806   22.0281    0.0000 C   0  0
    0.6734   22.9864    0.0000 C   0  0
    1.9966   23.6928    0.0000 C   0  0
    3.4350   24.1183    0.0000 C   0  0
    4.9296   24.2456    0.0000 N   0  0
    6.4192   24.0695    0.0000 C   0  0
    7.8429   23.5971    0.0000 C   0  0  2  0  0  0
    9.1242   22.8163    0.0000 N   0  0
   10.2223   21.7945    0.0000 C   0  0
   11.1271   22.5828    0.0000 O   0  0
   11.0840   20.5667    0.0000 C   0  0  1  0  0  0
   11.6716   19.1866    0.0000 N   0  0
   11.9594   17.7145    0.0000 C   0  0
   11.9349   16.2147    0.0000 C   0  0  1  0  0  0
   11.5991   14.7528    0.0000 N   0  0
   10.9666   13.3926    0.0000 C   0  0
   10.0652   12.1937    0.0000 C   0  0  1  0  0  0
    8.9342   11.2083    0.0000 N   0  0
    7.6231   10.4797    0.0000 C   0  0
    6.1891   10.0396    0.0000 C   0  0  2  0  0  0
    4.6949    9.9072    0.0000 N   0  0
    4.0634    8.5373    0.0000 C   0  0
    4.9251    7.3095    0.0000 C   0  0
    6.4192    7.4419    0.0000 C   0  0
    7.0517    8.8021    0.0000 C   0  0
    3.2059   10.0884    0.0000 C   0  0
    1.7871   10.5752    0.0000 C   0  0  1  0  0  0
    1.1468    9.2050    0.0000 C   0  0  1  0  0  0
   -0.0487    9.1007    0.0000 O   0  0
    1.7199    8.3855    0.0000 C   0  0
    0.5005   11.3463    0.0000 N   0  0
   -0.5976   12.3681    0.0000 C   0  0
   -1.4593   13.5959    0.0000 C   0  0  1  0  0  0
   -2.0469   14.9760    0.0000 N   0  0
   -2.3348   16.4482    0.0000 C   0  0
   -2.3102   17.9480    0.0000 C   0  0  1  0  0  0
   -3.8120   18.1278    0.0000 C   0  0
   -4.4034   19.5071    0.0000 C   0  0
   -5.8926   19.6876    0.0000 C   0  0
   -6.4809   21.0674    0.0000 C   0  0
   -5.5801   22.2668    0.0000 C   0  0
   -4.0910   22.0864    0.0000 C   0  0
   -3.5026   20.7066    0.0000 C   0  0
   -1.9744   19.4099    0.0000 N   0  0
   -1.3420   20.7701    0.0000 C   0  0
   -2.1997   21.2842    0.0000 O   0  0
   -0.4405   21.9690    0.0000 C   0  0
    0.6904   22.9543    0.0000 C   0  0
   -0.9673   21.6665    0.0000 C   0  0
   -3.5301   16.3423    0.0000 O   0  0
   -2.4481   12.4515    0.0000 C   0  0
   -3.9224   12.7325    0.0000 C   0  0
   -4.4189   14.1479    0.0000 C   0  0
   -5.8930   14.4258    0.0000 C   0  0
   -6.8706   13.2882    0.0000 C   0  0
   -8.0498   13.5105    0.0000 F   0  0
   -6.3742   11.8727    0.0000 C   0  0
   -4.9002   11.5948    0.0000 C   0  0
   -1.5024   11.5799    0.0000 O   0  0
    2.9373    8.9189    0.0000 O   0  0
    8.0932    9.3756    0.0000 O   0  0
   11.1745   11.1655    0.0000 C   0  0
   10.8422    9.7019    0.0000 C   0  0
   12.2319    9.1071    0.0000 C   0  0
   12.4182    7.6217    0.0000 C   0  0
   11.2248    6.7174    0.0000 C   0  0
   11.4112    5.2320    0.0000 C   0  0
   12.7909    4.6509    0.0000 C   0  0
   13.9842    5.5552    0.0000 C   0  0
   13.7979    7.0406    0.0000 C   0  0
    9.8452    7.2985    0.0000 C   0  0
    9.6478    8.7985    0.0000 C   0  0
   11.9959   12.7757    0.0000 O   0  0
   13.2846   15.5321    0.0000 C   0  0
   14.3121   14.4382    0.0000 C   0  0
   15.8023   14.2598    0.0000 C   0  0
   16.3938   12.8804    0.0000 N   0  0
   17.8839   12.7020    0.0000 C   0  0
   18.6029   13.6628    0.0000 N   0  0
   18.3568   11.5991    0.0000 N   0  0
   13.1547   17.8204    0.0000 O   0  0
   11.9581   21.0525    0.0000 C   0  0
    9.1423   22.8478    0.0000 C   0  0
    9.8438   23.8213    0.0000 O   0  0
   10.2643   21.8522    0.0000 N   0  0
   11.1629   20.6512    0.0000 C   0  0  1  0  0  0
   12.4580   21.4327    0.0000 C   0  0
   12.4298   22.9332    0.0000 C   0  0
   13.7130   23.7102    0.0000 C   0  0
   13.6819   25.2098    0.0000 C   0  0
   12.3675   25.9327    0.0000 C   0  0
   11.0844   25.1559    0.0000 C   0  0
   11.1155   23.6562    0.0000 C   0  0
   11.8014   19.2939    0.0000 C   0  0
   12.9334   19.6922    0.0000 O   0  0
   12.1536   17.8358    0.0000 N   0  0
   12.2050   16.3367    0.0000 C   0  0  2  0  0  0
   11.9537   14.8579    0.0000 C   0  0
   11.4098   13.4600    0.0000 N   0  0
   10.5956   12.2002    0.0000 C   0  0  1  0  0  0
   11.7782   11.2571    0.0000 C   0  0
   13.1756   11.8047    0.0000 C   0  0
   14.3490   10.8690    0.0000 C   0  0
   15.7464   11.4165    0.0000 N   0  0
   16.9199   10.4808    0.0000 C   0  0
   18.0372   10.9186    0.0000 N   0  0
   16.7407    9.2943    0.0000 N   0  0
    9.5445   11.1300    0.0000 C   0  0
   10.3111   10.2068    0.0000 O   0  0
    8.2995   10.2934    0.0000 N   0  0
    6.9116    9.7245    0.0000 C   0  0  2  0  0  0
    5.4375    9.4466    0.0000 C   0  0
    5.5394    8.2509    0.0000 O   0  0
    3.9377    9.4711    0.0000 N   0  0
    7.3435    8.2749    0.0000 C   0  0
    8.8032    7.9260    0.0000 C   0  0
    9.2318    6.4877    0.0000 C   0  0
    8.2012    5.3967    0.0000 N   0  0
    8.6298    3.9583    0.0000 C   0  0
    7.8058    3.0860    0.0000 N   0  0
    9.7972    3.6805    0.0000 N   0  0
   13.1103   14.5381    0.0000 O   0  0
   13.7144   16.2383    0.0000 C   0  0
   14.5485   17.4859    0.0000 C   0  0
   16.0431   17.3910    0.0000 C   0  0
   16.8725   18.6563    0.0000 C   0  0
   16.2064   19.9970    0.0000 C   0  0
   17.0347   21.2440    0.0000 C   0  0
   16.3686   22.5848    0.0000 C   0  0
   14.8743   22.6784    0.0000 C   0  0
   14.0460   21.4314    0.0000 C   0  0
   14.7121   20.0907    0.0000 C   0  0
   13.8838   18.8436    0.0000 C   0  0
    3.2127   25.2976    0.0000 O   0  0
   -2.5747   11.9519    0.0000 C   0  0
   -2.9153   10.4903    0.0000 C   0  0
   -4.3512   10.0536    0.0000 C   0  0
   -4.6919    8.5919    0.0000 N   0  0
   -6.1278    8.1552    0.0000 C   0  0
   -6.4002    6.9865    0.0000 N   0  0
   -7.0040    8.9752    0.0000 N   0  0
    0.5055    9.3716    0.0000 O   0  0
    0.8308   10.2827    0.0000 H   0  0
    7.1344    9.7135    0.0000 H   0  0
    8.7030   23.0871    0.0000 H   0  0
  1  2  1  0
  2  3  1  0
  3  4  2  0
  3  5  1  0
  6  1  1  0
  7  6  1  0
  8  7  1  1
  9  8  1  0
 10  9  1  0
 11 10  1  0
 12 11  1  0
 12 13  2  0
 14 12  1  0
 15 14  1  0
 15 16  1  6
 16 17  2  0
 16 18  1  0
 19 18  1  1
 19 20  1  0
 20 21  1  0
 21 22  1  0
 22 23  1  0
 23 24  1  0
 19 25  1  0
 25 26  2  0
 25 27  1  0
 15 28  1  0
 29 28  1  0
 30 29  1  0
 30 31  2  0
 32 30  1  0
 32 33  2  0
 33 34  1  0
 34 35  1  0
 35 36  1  0
 37 36  1  0
 38 37  1  0
 38 39  1  0
 40 39  1  0
 40 41  2  0
 42 40  1  0
 43 42  1  0
 44 43  1  0
 45 44  1  0
 46 45  1  0
 47 46  1  0
 48 47  1  0
 48 49  1  0
 49 50  1  0
 51 50  1  0
 51 52  1  0
 53 52  1  0
 54 53  1  0
 55 54  1  0
 56 55  1  0
 51 56  1  0
 52 57  1  0
 58 57  1  0
 58 59  1  0
 59 60  1  6
 59 61  1  0
 58 62  1  0
 62 63  1  0
 63 64  1  0
 64 65  1  0
 65 66  1  0
 67 66  1  0
 67 68  1  1
 68 69  1  0
 70 69  1  0
 71 70  2  0
 72 71  1  0
 73 72  2  0
 74 73  1  0
 69 74  2  0
 75 67  1  0
 75 76  1  0
 76 77  2  0
 76 78  1  0
 79 78  1  0
 34 79  2  0
 78 80  2  0
 80 32  1  0
 66 81  2  0
 64 82  1  6
 82 83  1  0
 83 84  2  0
 84 85  1  0
 85 86  2  0
 86 87  1  0
 86 88  1  0
 88 89  2  0
 89 83  1  0
 63 90  2  0
 57 91  2  0
 50 92  2  0
 48 93  1  6
 93 94  1  0
 94 95  2  0
 95 96  1  0
 97 96  1  0
 98 97  2  0
 99 98  1  0
100 99  2  0
101100  1  0
 96101  2  0
 97102  1  0
102103  2  0
103 94  1  0
 47104  2  0
 45105  1  6
105106  1  0
106107  1  0
107108  1  0
108109  1  0
109110  1  0
109111  2  0
 44112  2  0
 42113  1  6
 38114  1  0
114115  2  0
114116  1  0
116117  1  0
117118  1  1
118119  1  0
119120  2  0
120121  1  0
121122  2  0
122123  1  0
123124  2  0
124119  1  0
117125  1  0
125126  2  0
125127  1  0
127128  1  0
128129  1  0
129130  1  0
130131  1  0
131132  1  1
132133  1  0
133134  1  0
134135  1  0
135136  1  0
136137  2  0
136138  1  0
131139  1  0
139140  2  0
139141  1  0
141142  1  0
142143  1  0
143144  2  0
143145  1  0
  8145  1  0
142146  1  1
146147  1  0
147148  1  0
148149  1  0
149150  1  0
150151  2  0
150152  1  0
129153  2  0
128154  1  1
154155  1  0
156155  1  0
157156  2  0
158157  1  0
159158  2  0
160159  1  0
161160  2  0
162161  1  0
163162  2  0
158163  1  0
164163  1  0
155164  2  0
 35165  2  0
 11166  1  1
166167  1  0
167168  1  0
168169  1  0
169170  1  0
170171  2  0
170172  1  0
  9173  2  0
 58174  1  6
 51175  1  6
 38176  1  6
M  END