
  SciTegic10011413212D

 23 24  0  0  0  0            999 V2000
    1.7041  -16.9917    0.0000 C   0  0
    2.4186  -16.5792    0.0000 C   0  0
    3.1332  -16.9917    0.0000 C   0  0
    3.8476  -16.5792    0.0000 C   0  0
    4.5621  -16.9917    0.0000 N   0  0
    5.2766  -16.5792    0.0000 C   0  0
    5.9910  -16.9917    0.0000 N   0  0
    5.2766  -15.7543    0.0000 N   0  0
    6.7055  -16.5792    0.0000 C   0  0
    7.4200  -16.9917    0.0000 C   0  0
    8.1344  -16.5792    0.0000 C   0  0
    8.8489  -16.9917    0.0000 C   0  0
    8.1344  -15.7542    0.0000 C   0  0
    6.7055  -15.7543    0.0000 O   0  0
    0.9166  -16.7314    0.0000 N   0  0
    0.4245  -17.3936    0.0000 N   0  0
    0.9023  -18.0662    0.0000 C   0  0
    1.6896  -17.8196    0.0000 N   0  0
    8.8473  -17.8179    0.0000 C   0  0
    9.5610  -18.2303    0.0000 C   0  0
   10.2763  -17.8178    0.0000 C   0  0
   10.2737  -16.9884    0.0000 C   0  0
    9.5595  -16.5797    0.0000 C   0  0
  1  2  1  0
  2  3  1  0
  3  4  1  0
  4  5  1  0
  5  6  1  0
  6  7  2  0
  6  8  1  0
  7  9  1  0
  9 10  1  0
 10 11  1  0
 11 12  1  0
 11 13  1  0
  9 14  2  0
  1 15  1  0
 15 16  1  0
 16 17  2  0
 17 18  1  0
 18  1  2  0
 12 19  2  0
 19 20  1  0
 20 21  2  0
 21 22  1  0
 22 23  2  0
 23 12  1  0
M  END