
          11280715122D 1   1.00000     0.00000     0

 38 41  0     0  0            999 V2000
    7.9292   -2.9667    0.0000 C   0  0  0  0  0  0           0  0  0
    7.9292   -2.1417    0.0000 C   0  0  0  0  0  0           0  0  0
    7.2167   -3.3792    0.0000 C   0  0  0  0  0  0           0  0  0
    7.2167   -4.2042    0.0000 C   0  0  0  0  0  0           0  0  0
    8.6500   -4.2042    0.0000 N   0  0  0  0  0  0           0  0  0
    7.9292   -4.6167    0.0000 C   0  0  0  0  0  0           0  0  0
    3.0542   -3.6042    0.0000 N   0  0  3  0  0  0           0  0  0
    8.6500   -3.3792    0.0000 C   0  0  0  0  0  0           0  0  0
    3.7542   -0.7042    0.0000 C   0  0  3  0  0  0           0  0  0
    2.3417   -3.2000    0.0000 C   0  0  0  0  0  0           0  0  0
    4.4917   -4.4000    0.0000 N   0  0  3  0  0  0           0  0  0
    8.6417   -1.7292    0.0000 N   0  0  3  0  0  0           0  0  0
    7.2167   -1.7292    0.0000 O   0  0  0  0  0  0           0  0  0
    2.3417   -2.3667    0.0000 C   0  0  0  0  0  0           0  0  0
    7.9375   -5.4417    0.0000 C   0  0  0  0  0  0           0  0  0
    3.0542   -1.9542    0.0000 O   0  0  0  0  0  0           0  0  0
    3.7625   -3.1792    0.0000 C   0  0  0  0  0  0           0  0  0
    3.0667   -4.4292    0.0000 C   0  0  0  0  0  0           0  0  0
    6.5042   -2.9667    0.0000 N   0  0  0  0  0  0           0  0  0
    3.0417   -1.1250    0.0000 C   0  0  0  0  0  0           0  0  0
    4.4042   -0.3292    0.0000 F   0  0  0  0  0  0           0  0  0
    4.5625   -1.0042    0.0000 F   0  0  0  0  0  0           0  0  0
    3.8875    0.1458    0.0000 F   0  0  0  0  0  0           0  0  0
    3.7917   -4.8292    0.0000 C   0  0  0  0  0  0           0  0  0
    4.4792   -3.5792    0.0000 C   0  0  0  0  0  0           0  0  0
    8.6542   -5.8500    0.0000 Cl  0  0  0  0  0  0           0  0  0
    6.5042   -4.6167    0.0000 C   0  0  0  0  0  0           0  0  0
    5.2167   -4.8000    0.0000 C   0  0  0  0  0  0           0  0  0
    5.8000   -4.2042    0.0000 C   0  0  0  0  0  0           0  0  0
    6.5042   -5.4417    0.0000 C   0  0  0  0  0  0           0  0  0
    1.6250   -3.6125    0.0000 C   0  0  0  0  0  0           0  0  0
    5.7917   -3.3792    0.0000 C   0  0  0  0  0  0           0  0  0
    8.6417   -0.9042    0.0000 C   0  0  0  0  0  0           0  0  0
    9.3542   -2.1375    0.0000 C   0  0  0  0  0  0           0  0  0
    7.2292   -5.8542    0.0000 C   0  0  0  0  0  0           0  0  0
    1.6250   -1.9542    0.0000 C   0  0  0  0  0  0           0  0  0
    0.9125   -3.2000    0.0000 C   0  0  0  0  0  0           0  0  0
    0.9125   -2.3667    0.0000 C   0  0  0  0  0  0           0  0  0
  2  1  1  0     0  0
  3  1  1  0     0  0
  4  3  2  0     0  0
  5  8  1  0     0  0
  6  5  2  0     0  0
  7 17  1  0     0  0
  8  1  2  0     0  0
  9 20  1  0     0  0
 10  7  1  0     0  0
 11 28  1  0     0  0
 12  2  1  0     0  0
 13  2  2  0     0  0
 14 10  1  0     0  0
 15  6  1  0     0  0
 16 14  1  0     0  0
 17 25  1  0     0  0
 18 24  1  0     0  0
 19  3  1  0     0  0
 20 16  1  0     0  0
 21  9  1  0     0  0
 22  9  1  0     0  0
 23  9  1  0     0  0
 24 11  1  0     0  0
 25 11  1  0     0  0
 26 15  1  0     0  0
 27  4  1  0     0  0
 28 29  1  0     0  0
 29 32  1  0     0  0
 30 27  2  0     0  0
 31 10  2  0     0  0
 32 19  1  0     0  0
 33 12  1  0     0  0
 34 12  1  0     0  0
 35 15  2  0     0  0
 36 14  2  0     0  0
 37 31  1  0     0  0
 38 37  2  0     0  0
  4  6  1  0     0  0
 30 35  1  0     0  0
  7 18  1  0     0  0
 38 36  1  0     0  0
M  END