
  SciTegic06141316472D

 29 32  0  0  1  0            999 V2000
   10.3589  -10.3777    0.0000 C   0  0  1  0  0  0
   10.3547  -11.2027    0.0000 C   0  0  2  0  0  0
    9.6339  -11.6027    0.0000 C   0  0  1  0  0  0
    8.2089  -12.4235    0.0000 C   0  0
    8.9214  -11.1860    0.0000 C   0  0  1  0  0  0
   11.1464  -10.1277    0.0000 C   0  0  2  0  0  0
    8.2089  -11.5902    0.0000 C   0  0  1  0  0  0
   11.1339  -11.4610    0.0000 C   0  0
   11.6214  -10.8027    0.0000 C   0  0  1  0  0  0
    7.4964  -12.8277    0.0000 C   0  0
    9.6547   -9.9527    0.0000 C   0  0
    8.9297  -10.3610    0.0000 C   0  0
    9.6339  -12.4277    0.0000 C   0  0
    7.4964  -11.1777    0.0000 C   0  0
   11.3589   -9.3277    0.0000 C   0  0
    8.9214  -12.8360    0.0000 C   0  0
    6.7922  -12.4235    0.0000 C   0  0
   12.1464   -9.1110    0.0000 O   0  0
    6.0714  -12.8360    0.0000 O   0  0
   10.3589   -9.5527    0.0000 C   0  0
    6.7922  -11.5902    0.0000 C   0  0
   12.4464  -10.8027    0.0000 C   0  0
   10.9839   -7.9485    0.0000 O   0  0
   10.7714   -8.7485    0.0000 C   0  0
   12.8589  -11.5152    0.0000 C   0  0
    8.2047  -10.7652    0.0000 H   0  0
    9.6339  -10.7777    0.0000 H   0  0
   10.3547  -12.0277    0.0000 H   0  0
    8.9214  -12.0110    0.0000 H   0  0
  2  1  1  0
  3  2  1  0
  4  7  1  0
  5 12  1  0
  6  1  1  0
  7  5  1  0
  8  2  1  0
  9  6  1  0
 10  4  2  0
 11  1  1  0
 12 11  1  0
 13  3  1  0
 14  7  1  0
  6 15  1  1
 16 13  1  0
 17 21  1  0
 18 15  2  0
 19 17  2  0
  1 20  1  1
 21 14  1  0
  9 22  1  6
 23 24  1  0
 24 15  1  0
 25 22  1  0
  7 26  1  1
  9  8  1  0
  5  3  1  0
 16  4  1  0
 17 10  1  0
  3 27  1  1
  2 28  1  6
  5 29  1  6
M  END