
  SciTegic01311317052D

 12 13  0  0  0  0            999 V2000
   11.2667   -4.5292    0.0000 C   0  0
   10.6000   -4.0417    0.0000 C   0  0
    9.9292   -4.5250    0.0000 O   0  0
   11.6292   -3.7792    0.0000 C   0  0  2  0  0  0
   11.8667   -5.0917    0.0000 C   0  0  1  0  0  0
   10.5917   -3.2167    0.0000 O   0  0
   12.5917   -4.7042    0.0000 C   0  0
   12.4417   -3.8917    0.0000 C   0  0
   10.1875   -5.3125    0.0000 C   0  0
   11.0125   -5.3125    0.0000 C   0  0
   11.7542   -5.9125    0.0000 C   0  0
   11.2417   -3.0542    0.0000 C   0  0
  2  1  1  0
  3  2  1  0
  4  1  1  0
  5  1  1  0
  6  2  2  0
  7  5  1  0
  8  4  1  0
  9 10  1  0
 10  1  1  0
  5 11  1  1
  4 12  1  1
  9  3  1  0
  7  8  1  0
M  END