
          11280715052D 1   1.00000     0.00000     0

 24 27  0     0  0            999 V2000
    6.8375   -3.4292    0.0000 N   0  0  0  0  0  0           0  0  0
    6.2125   -3.9792    0.0000 C   0  0  0  0  0  0           0  0  0
    7.3667   -4.6542    0.0000 N   0  0  0  0  0  0           0  0  0
    6.5417   -4.7375    0.0000 C   0  0  0  0  0  0           0  0  0
    7.5417   -3.8542    0.0000 C   0  0  0  0  0  0           0  0  0
    5.4250   -3.7667    0.0000 C   0  0  0  0  0  0           0  0  0
    6.1500   -5.4667    0.0000 C   0  0  0  0  0  0           0  0  0
    8.3167   -3.5625    0.0000 C   0  0  0  0  0  0           0  0  0
    4.8500   -6.4792    0.0000 N   0  0  0  0  0  0           0  0  0
    5.2125   -2.9792    0.0000 C   0  0  0  0  0  0           0  0  0
    4.8417   -4.3417    0.0000 C   0  0  0  0  0  0           0  0  0
    3.8417   -3.3292    0.0000 C   0  0  0  0  0  0           0  0  0
    4.0542   -4.1292    0.0000 C   0  0  0  0  0  0           0  0  0
    4.4125   -2.7667    0.0000 C   0  0  0  0  0  0           0  0  0
    3.0500   -3.0917    0.0000 O   0  0  0  0  0  0           0  0  0
    4.7375   -5.6625    0.0000 C   0  0  0  0  0  0           0  0  0
    5.6042   -6.7917    0.0000 C   0  0  0  0  0  0           0  0  0
    5.3875   -5.1542    0.0000 C   0  0  0  0  0  0           0  0  0
    6.2625   -6.2875    0.0000 C   0  0  0  0  0  0           0  0  0
    8.4542   -2.7500    0.0000 C   0  0  0  0  0  0           0  0  0
    8.9542   -4.0875    0.0000 C   0  0  0  0  0  0           0  0  0
    9.7292   -3.8000    0.0000 C   0  0  0  0  0  0           0  0  0
    9.2250   -2.4625    0.0000 C   0  0  0  0  0  0           0  0  0
    9.8667   -2.9875    0.0000 C   0  0  0  0  0  0           0  0  0
  2  1  1  0     0  0
  3  5  2  0     0  0
  4  2  2  0     0  0
  5  1  1  0     0  0
  6  2  1  0     0  0
  7  4  1  0     0  0
  8  5  1  0     0  0
  9 17  2  0     0  0
 10  6  2  0     0  0
 11  6  1  0     0  0
 12 13  1  0     0  0
 13 11  2  0     0  0
 14 10  1  0     0  0
 15 12  1  0     0  0
 16 18  2  0     0  0
 17 19  1  0     0  0
 18  7  1  0     0  0
 19  7  2  0     0  0
 20  8  2  0     0  0
 21  8  1  0     0  0
 22 21  2  0     0  0
 23 20  1  0     0  0
 24 22  1  0     0  0
  4  3  1  0     0  0
 14 12  2  0     0  0
 23 24  2  0     0  0
 16  9  1  0     0  0
M  END