
          11280714552D 1   1.00000     0.00000     0

 17 19  0     0  0            999 V2000
   -0.9125   -3.6542    0.0000 C   0  0  0  0  0  0           0  0  0
   -0.9125   -4.4750    0.0000 C   0  0  0  0  0  0           0  0  0
   -0.2000   -3.2417    0.0000 C   0  0  0  0  0  0           0  0  0
   -1.6333   -4.9042    0.0000 N   0  0  0  0  0  0           0  0  0
   -2.3458   -3.6667    0.0000 C   0  0  0  0  0  0           0  0  0
   -2.3458   -4.4917    0.0000 C   0  0  0  0  0  0           0  0  0
   -0.2083   -2.4167    0.0000 O   0  0  0  0  0  0           0  0  0
    1.9417   -4.4625    0.0000 N   0  0  0  0  0  0           0  0  0
    0.5167   -3.6417    0.0000 C   0  0  3  0  0  0           0  0  0
   -3.0583   -3.2542    0.0000 C   0  0  0  0  0  0           0  0  0
    1.9417   -3.6375    0.0000 C   0  0  0  0  0  0           0  0  0
    1.2292   -4.8792    0.0000 C   0  0  0  0  0  0           0  0  0
   -3.0583   -4.9000    0.0000 C   0  0  0  0  0  0           0  0  0
    0.5167   -4.4667    0.0000 C   0  0  0  0  0  0           0  0  0
    1.2250   -3.2250    0.0000 C   0  0  0  0  0  0           0  0  0
   -3.7708   -3.6667    0.0000 C   0  0  0  0  0  0           0  0  0
   -3.7708   -4.4917    0.0000 C   0  0  0  0  0  0           0  0  0
  2  1  2  0     0  0
  3  1  1  0     0  0
  4  2  1  0     0  0
  5  1  1  0     0  0
  6  5  2  0     0  0
  7  3  2  0     0  0
  8 11  1  0     0  0
  9  3  1  0     0  0
 10  5  1  0     0  0
 11 15  1  0     0  0
 12 14  1  0     0  0
 13  6  1  0     0  0
 14  9  1  0     0  0
 15  9  1  0     0  0
 16 10  2  0     0  0
 17 16  1  0     0  0
  6  4  1  0     0  0
 17 13  2  0     0  0
 12  8  1  0     0  0
M  END