
  SciTegic04191615122D

 32 36  0  0  0  0            999 V2000
   -2.0045    1.2999    0.0000 O   0  0
    1.9924   -0.6682    0.0000 C   0  0
    5.6440   -1.2674    0.0000 C   0  0
    3.9139   -7.4696    0.0000 O   0  0
   -0.5831   -0.6682    0.0000 C   0  0
    4.2848   -2.5309    0.0000 C   0  0  2  0  0  0
    1.9924    0.8382    0.0000 C   0  0
    7.2381   -5.2707    0.0000 C   0  0
    3.3044   -1.4214    0.0000 C   0  0  2  0  0  0
    0.7168    1.5915    0.0000 C   0  0
    5.1614   -3.6944    0.0000 C   0  0
    4.6043   -0.6682    0.0000 N   0  0
    6.3342   -6.4615    0.0000 C   0  0
    8.1196   -7.9805    0.0000 C   0  0
    4.6043    0.8382    0.0000 C   0  0
    2.8907   -2.8863    0.0000 O   0  0
    0.7316   -2.9221    0.0000 O   0  0
    0.7168   -1.4214    0.0000 C   0  0
    4.8256   -6.2778    0.0000 C   0  0
    5.2692   -2.3553    0.0000 H   0  0
    2.8492   -4.3884    0.0000 C   0  0
    6.9279   -7.8399    0.0000 O   0  0
   -2.8792    0.0850    0.0000 C   0  0
   -0.5831    0.8382    0.0000 C   0  0
    2.4278   -1.9025    0.0000 H   0  0
   -2.0045   -1.1298    0.0000 O   0  0
    6.6555   -3.8671    0.0000 C   0  0
    4.2575   -4.8852    0.0000 C   0  0
    1.7765   -3.5123    0.0000 C   0  0
    4.3740   -8.5778    0.0000 C   0  0
    0.7217    2.7914    0.0000 Br  0  0
    3.3044    1.5915    0.0000 C   0  0
 28 11  2  0
 11 27  1  0
 10 31  1  0
 10 24  1  0
 23 26  1  0
  7  2  1  0
  9 25  1  6
 22 14  1  0
 13 19  2  0
 24  1  1  0
 13 22  1  0
 12 15  1  0
 16  6  1  0
 19  4  1  0
  8 13  1  0
  7 32  1  0
  4 30  1  0
 28 21  1  0
  9  6  1  0
  9 12  1  0
  6 11  1  0
  7 10  2  0
 12  3  1  0
 15 32  1  0
 21 16  1  0
  6 20  1  1
  5 18  1  0
 19 28  1  0
 26  5  1  0
  1 23  1  0
 18  2  2  0
  2  9  1  0
 17 29  1  0
 18 17  1  0
  5 24  2  0
 27  8  2  0
M  END