
          11280715132D 1   1.00000     0.00000     0

 33 35  0     1  0            999 V2000
    4.4042   -3.5250    0.0000 C   0  0  1  0  0  0           0  0  0
    5.0917   -3.9292    0.0000 C   0  0  1  0  0  0           0  0  0
    3.7167   -3.9167    0.0000 C   0  0  2  0  0  0           0  0  0
    5.0917   -4.7292    0.0000 C   0  0  2  0  0  0           0  0  0
    3.7000   -4.7167    0.0000 C   0  0  1  0  0  0           0  0  0
    4.4042   -2.7250    0.0000 C   0  0  0  0  0  0           0  0  0
    4.3917   -5.1167    0.0000 C   0  0  2  0  0  0           0  0  0
    5.7875   -3.5417    0.0000 O   0  0  0  0  0  0           0  0  0
    5.7917   -2.7417    0.0000 C   0  0  2  0  0  0           0  0  0
    5.7750   -5.1292    0.0000 O   0  0  0  0  0  0           0  0  0
    6.4750   -4.7375    0.0000 C   0  0  0  0  0  0           0  0  0
    3.0167   -5.1167    0.0000 C   0  0  3  0  0  0           0  0  0
    5.1042   -2.3375    0.0000 C   0  0  0  0  0  0           0  0  0
    3.0167   -3.5250    0.0000 C   0  0  2  0  0  0           0  0  0
    3.7167   -2.3292    0.0000 O   0  0  0  0  0  0           0  0  0
    4.3917   -4.3167    0.0000 O   0  0  0  0  0  0           0  0  0
    6.5917   -2.7375    0.0000 C   0  0  0  0  0  0           0  0  0
    6.4750   -3.9375    0.0000 O   0  0  0  0  0  0           0  0  0
    2.3375   -4.7167    0.0000 C   0  0  0  0  0  0           0  0  0
    2.3375   -3.9167    0.0000 C   0  0  0  0  0  0           0  0  0
    5.0917   -3.1375    0.0000 C   0  0  0  0  0  0           0  0  0
    7.1542   -5.1292    0.0000 N   0  0  0  0  0  0           0  0  0
    4.3917   -5.9167    0.0000 O   0  0  0  0  0  0           0  0  0
    3.7125   -3.1250    0.0000 C   0  0  0  0  0  0           0  0  0
    6.9792   -2.0417    0.0000 C   0  0  0  0  0  0           0  0  0
    3.0167   -2.7250    0.0000 O   0  0  0  0  0  0           0  0  0
    9.2292   -4.7375    0.0000 N   0  0  0  0  0  0           0  0  0
    5.7875   -1.9417    0.0000 C   0  0  0  0  0  0           0  0  0
    3.3042   -5.9042    0.0000 C   0  0  0  0  0  0           0  0  0
    2.6042   -5.8042    0.0000 C   0  0  0  0  0  0           0  0  0
    7.8542   -4.7375    0.0000 C   0  0  0  0  0  0           0  0  0
    8.5292   -5.1292    0.0000 C   0  0  0  0  0  0           0  0  0
    3.7125   -5.4042    0.0000 H   0  0  0  0  0  0           0  0  0
  2  1  1  0     0  0
  3  1  1  0     0  0
  4  2  1  0     0  0
  5  3  1  0     0  0
  6  1  1  0     0  0
  7  5  1  0     0  0
  8  2  1  0     0  0
  9 13  1  0     0  0
  4 10  1  1     0  0
 11 10  1  0     0  0
 12  5  1  0     0  0
 13  6  1  0     0  0
 14  3  1  0     0  0
 15  6  2  0     0  0
  1 16  1  6     0  0
  9 17  1  6     0  0
 18 11  2  0     0  0
 19 20  1  0     0  0
 20 14  1  0     0  0
  2 21  1  1     0  0
 22 11  1  0     0  0
  7 23  1  1     0  0
  3 24  1  1     0  0
 25 17  2  0     0  0
 14 26  1  6     0  0
 27 32  1  0     0  0
  9 28  1  1     0  0
 29 12  1  0     0  0
 30 12  1  0     0  0
 31 22  1  0     0  0
 32 31  1  0     0  0
  5 33  1  6     0  0
  9  8  1  0     0  0
  4  7  1  0     0  0
 19 12  1  0     0  0
M  END