
  SciTegic07061118172D

 20 21  0  0  0  0            999 V2000
   -5.6181  -11.1666    0.0000 C   0  0
   -5.6193  -11.9940    0.0000 C   0  0
   -4.9044  -12.4069    0.0000 N   0  0
   -4.1880  -11.9935    0.0000 C   0  0
   -4.1909  -11.1630    0.0000 C   0  0
   -4.9062  -10.7539    0.0000 C   0  0
   -6.3340  -10.7543    0.0000 Br  0  0
   -3.4779  -10.7478    0.0000 C   0  0
   -2.7619  -11.1576    0.0000 N   0  0
   -3.4811   -9.9228    0.0000 O   0  0
   -2.0490  -10.7424    0.0000 C   0  0
   -1.3330  -11.1522    0.0000 C   0  0
   -0.6201  -10.7370    0.0000 C   0  0
    0.0959  -11.1468    0.0000 C   0  0
    0.8089  -10.7317    0.0000 C   0  0
    1.5244  -11.1419    0.0000 N   0  0
    1.5231  -11.9624    0.0000 C   0  0
    2.3059  -12.2228    0.0000 C   0  0
    2.7955  -11.5587    0.0000 C   0  0
    2.3151  -10.8880    0.0000 C   0  0
  8 10  2  0
  2  3  1  0
  9 11  1  0
  5  6  2  0
 11 12  1  0
  6  1  1  0
 12 13  1  0
  1  2  2  0
 13 14  1  0
  1  7  1  0
 14 15  1  0
  3  4  2  0
 15 16  1  0
 16 17  1  0
  5  8  1  0
  8  9  1  0
  4  5  1  0
 17 18  1  0
 18 19  1  0
 19 20  1  0
 20 16  1  0
M  END