
  CDK    9/16/09,9:19

 21 23  0  0  0  0  0  0  0  0999 V2000
    8.4685   -7.2476    0.0000 C   0  0  0  0  0  0  0  0  0  0  0  0
    8.4672   -8.0744    0.0000 C   0  0  0  0  0  0  0  0  0  0  0  0
    9.1795   -8.4868    0.0000 C   0  0  0  0  0  0  0  0  0  0  0  0
    9.1775   -6.8352    0.0000 C   0  0  0  0  0  0  0  0  0  0  0  0
    9.8949   -7.2437    0.0000 C   0  0  0  0  0  0  0  0  0  0  0  0
    9.8985   -8.0717    0.0000 C   0  0  0  0  0  0  0  0  0  0  0  0
   10.6136   -8.4804    0.0000 C   0  0  0  0  0  0  0  0  0  0  0  0
   11.3296   -8.0654    0.0000 C   0  0  0  0  0  0  0  0  0  0  0  0
   11.3259   -7.2373    0.0000 C   0  0  0  0  0  0  0  0  0  0  0  0
   10.6063   -6.8241    0.0000 O   0  0  0  0  0  0  0  0  0  0  0  0
   12.0361   -6.8248    0.0000 C   0  0  0  0  0  0  0  0  0  0  0  0
   12.7515   -7.2361    0.0000 C   0  0  0  0  0  0  0  0  0  0  0  0
   13.4633   -6.8223    0.0000 C   0  0  0  0  0  0  0  0  0  0  0  0
   13.4609   -5.9973    0.0000 C   0  0  0  0  0  0  0  0  0  0  0  0
   12.7407   -5.5878    0.0000 C   0  0  0  0  0  0  0  0  0  0  0  0
   12.0319   -6.0041    0.0000 C   0  0  0  0  0  0  0  0  0  0  0  0
    7.7545   -6.8361    0.0000 O   0  0  0  0  0  0  0  0  0  0  0  0
    9.1788   -9.3109    0.0000 O   0  0  0  0  0  0  0  0  0  0  0  0
   12.0445   -8.4753    0.0000 O   0  0  0  0  0  0  0  0  0  0  0  0
   14.1726   -5.5818    0.0000 O   0  0  0  0  0  0  0  0  0  0  0  0
   14.1782   -7.2322    0.0000 O   0  0  0  0  0  0  0  0  0  0  0  0
  9 10  1  0  0  0  0 
  5  6  1  0  0  0  0 
 11 12  2  0  0  0  0 
  2  3  1  0  0  0  0 
 12 13  1  0  0  0  0 
  3  6  2  0  0  0  0 
 13 14  2  0  0  0  0 
  1  2  2  0  0  0  0 
 14 15  1  0  0  0  0 
  5  4  2  0  0  0  0 
 15 16  2  0  0  0  0 
 16 11  1  0  0  0  0 
  9 11  1  1  0  0  0 
  4  1  1  0  0  0  0 
  1 17  1  0  0  0  0 
  5 10  1  0  0  0  0 
  3 18  1  0  0  0  0 
  6  7  1  0  0  0  0 
  8 19  1  1  0  0  0 
  7  8  1  0  0  0  0 
 14 20  1  0  0  0  0 
  8  9  1  0  0  0  0 
 13 21  1  0  0  0  0 
M  END