
  SciTegic11281211512D

 24 26  0  0  0  0            999 V2000
    1.7746   -4.0409    0.0000 C   0  0
    2.5537   -4.3116    0.0000 N   0  0
    3.0494   -3.6493    0.0000 C   0  0
    2.5745   -2.9744    0.0000 N   0  0
    1.0998   -4.5158    0.0000 C   0  0
    1.7871   -3.2160    0.0000 C   0  0
    3.8742   -3.6659    0.0000 C   0  0
    9.2398   -3.0286    0.0000 C   0  0
    9.9647   -2.6370    0.0000 C   0  0
    9.2523   -2.2120    0.0000 C   0  0
    8.8232   -3.7409    0.0000 N   0  0
    1.0373   -5.3739    0.0000 F   0  0
    0.4791   -4.9490    0.0000 F   0  0
    0.2666   -4.2783    0.0000 F   0  0
    4.2741   -4.3783    0.0000 C   0  0
    4.2908   -2.9536    0.0000 C   0  0
    6.3487   -3.7034    0.0000 O   0  0
    7.5734   -4.4366    0.0000 C   0  0  1  0  0  0
    5.5239   -3.6909    0.0000 C   0  0
    7.9984   -3.7284    0.0000 C   0  0
    6.7486   -4.4241    0.0000 C   0  0
    5.1157   -2.9661    0.0000 C   0  0
    5.0990   -4.3991    0.0000 C   0  0
    7.9776   -5.1531    0.0000 O   0  0
  2  1  1  0
  3  2  2  0
  4  6  1  0
  5  1  1  0
  6  1  2  0
  7  3  1  0
  8 11  1  0
  9  8  1  0
 10  8  1  0
 11 20  1  0
 12  5  1  0
 13  5  1  0
 14  5  1  0
 15  7  2  0
 16  7  1  0
 17 19  1  0
 18 21  1  0
 19 22  1  0
 20 18  1  0
 21 17  1  0
 22 16  2  0
 23 15  1  0
 18 24  1  6
  4  3  1  0
 19 23  2  0
 10  9  1  0
M  END