
  SciTegic01201417202D

152155  0  0  0  0            999 V2000
    0.1031  -14.2210    0.0000 N   0  0
    0.8189  -13.8043    0.0000 C   0  0  2  0  0  0
    1.5348  -15.0459    0.0000 O   0  0
    1.5348  -14.2210    0.0000 C   0  0
    0.8189  -12.9794    0.0000 C   0  0
    1.5348  -12.5627    0.0000 C   0  0
    1.5348  -11.7378    0.0000 C   0  0
    2.2547  -11.3211    0.0000 O   0  0
    0.8189  -11.3211    0.0000 N   0  0
    2.2547  -13.8043    0.0000 N   0  0
    2.9706  -14.2210    0.0000 C   0  0  2  0  0  0
    3.6864  -12.9794    0.0000 O   0  0
    3.6864  -13.8043    0.0000 C   0  0
    2.9706  -15.0459    0.0000 C   0  0
    3.6864  -15.4626    0.0000 O   0  0
    4.4064  -14.2210    0.0000 N   0  0
    5.1222  -13.8043    0.0000 C   0  0  2  0  0  0
    5.8381  -15.0459    0.0000 O   0  0
    5.8381  -14.2210    0.0000 C   0  0
    5.1222  -12.9794    0.0000 C   0  0
    5.8381  -12.5627    0.0000 C   0  0
    5.8381  -11.7378    0.0000 C   0  0
    6.5539  -11.3211    0.0000 O   0  0
    5.1222  -11.3211    0.0000 N   0  0
    6.5539  -13.8043    0.0000 N   0  0
    7.2739  -14.2210    0.0000 C   0  0  2  0  0  0
    7.9898  -12.9794    0.0000 O   0  0
    7.9898  -13.8043    0.0000 C   0  0
    7.2739  -15.0459    0.0000 C   0  0
    7.9898  -15.4626    0.0000 C   0  0
    7.9898  -16.2875    0.0000 C   0  0
    8.7056  -16.7041    0.0000 O   0  0
    7.2739  -16.7041    0.0000 N   0  0
    8.7056  -14.2210    0.0000 N   0  0
    9.4214  -13.8043    0.0000 C   0  0  2  0  0  0
   10.1373  -15.0459    0.0000 O   0  0
   10.1373  -14.2210    0.0000 C   0  0
    9.4214  -12.9794    0.0000 C   0  0  2  0  0  0
   10.1373  -12.5627    0.0000 O   0  0
    8.7056  -12.5627    0.0000 C   0  0
   10.8573  -13.8043    0.0000 N   0  0
   11.5731  -14.2210    0.0000 C   0  0  2  0  0  0
   12.2890  -12.9794    0.0000 O   0  0
   12.2890  -13.8043    0.0000 C   0  0
   11.5731  -15.0459    0.0000 C   0  0
   12.2890  -16.2902    0.0000 C   0  0
   12.2890  -15.4626    0.0000 C   0  0
   13.0040  -15.0500    0.0000 C   0  0
   13.7232  -15.4639    0.0000 C   0  0
   13.7216  -16.2930    0.0000 C   0  0
   13.0050  -16.7040    0.0000 C   0  0
   13.0047  -14.2210    0.0000 N   0  0
   13.7205  -13.8043    0.0000 C   0  0  1  0  0  0
   14.4406  -15.0459    0.0000 O   0  0
   14.4406  -14.2210    0.0000 C   0  0
   15.1564  -13.8043    0.0000 N   0  0
   15.8722  -14.2210    0.0000 C   0  0  2  0  0  0
   16.5881  -12.9794    0.0000 O   0  0
   16.5881  -13.8043    0.0000 C   0  0
   15.8722  -15.0459    0.0000 C   0  0
   16.5881  -15.4626    0.0000 C   0  0
   16.5881  -16.2875    0.0000 O   0  0
   17.3080  -15.0459    0.0000 N   0  0
   17.3080  -14.2210    0.0000 N   0  0
   18.0239  -13.8043    0.0000 C   0  0  2  0  0  0
   18.7397  -15.0459    0.0000 O   0  0
   18.7397  -14.2210    0.0000 C   0  0
   18.0239  -12.9794    0.0000 C   0  0
   18.7397  -12.5627    0.0000 C   0  0
   18.7397  -11.7378    0.0000 C   0  0
   19.4597  -12.9794    0.0000 C   0  0
   19.4597  -13.8043    0.0000 N   0  0
   20.1755  -14.2210    0.0000 C   0  0  2  0  0  0
   20.8914  -12.9794    0.0000 O   0  0
   20.8914  -13.8043    0.0000 C   0  0
   20.1755  -15.0459    0.0000 C   0  0
   21.6473  -15.1279    0.0000 C   0  0
   20.8914  -15.4626    0.0000 C   0  0
   22.1992  -15.7454    0.0000 N   0  0
   20.9756  -16.2907    0.0000 C   0  0
   21.7853  -16.4605    0.0000 C   0  0
   22.0368  -17.2497    0.0000 C   0  0
   21.4826  -17.8651    0.0000 C   0  0
   20.6770  -17.6911    0.0000 C   0  0
   20.4214  -16.9019    0.0000 C   0  0
   21.6072  -14.2210    0.0000 N   0  0
   22.3272  -13.8043    0.0000 C   0  0  2  0  0  0
   23.0431  -15.0459    0.0000 O   0  0
   23.0431  -14.2210    0.0000 C   0  0
   22.3272  -12.9794    0.0000 C   0  0
   23.7589  -13.8043    0.0000 N   0  0
   24.4747  -14.2210    0.0000 C   0  0  2  0  0  0
   25.1906  -12.9794    0.0000 O   0  0
   25.1906  -13.8043    0.0000 C   0  0
   24.4747  -15.0459    0.0000 C   0  0
   25.1906  -15.4626    0.0000 C   0  0
   25.1906  -16.2875    0.0000 C   0  0
   25.9106  -15.0459    0.0000 C   0  0
   25.9106  -14.2210    0.0000 N   0  0
   26.6264  -13.8043    0.0000 C   0  0  2  0  0  0
   -0.6204  -13.8110    0.0000 C   0  0
   -1.3325  -14.2260    0.0000 C   0  0
   -0.6176  -12.9860    0.0000 O   0  0
   13.7195  -12.9794    0.0000 C   0  0
   14.4335  -12.5660    0.0000 C   0  0
   14.4324  -11.7410    0.0000 C   0  0
   15.1464  -11.3276    0.0000 C   0  0
   15.1453  -10.5026    0.0000 C   0  0
   15.8592  -10.0892    0.0000 C   0  0
   15.8582   -9.2644    0.0000 C   0  0
   16.5721   -8.8510    0.0000 C   0  0
   26.6235  -12.9794    0.0000 C   0  0
   27.3423  -14.2143    0.0000 C   0  0
   27.3452  -15.0393    0.0000 C   0  0
   28.0610  -15.4492    0.0000 C   0  0
   26.6322  -15.4543    0.0000 C   0  0
   25.9076  -12.5694    0.0000 O   0  0
   27.3365  -12.5644    0.0000 N   0  0
   27.3336  -11.7394    0.0000 C   0  0  2  0  0  0
   28.0466  -11.3244    0.0000 C   0  0
   28.7624  -11.7343    0.0000 O   0  0
   28.0437  -10.4995    0.0000 N   0  0
   28.7567  -10.0845    0.0000 C   0  0  2  0  0  0
   29.4725  -10.4945    0.0000 C   0  0
   30.1855  -10.0794    0.0000 N   0  0
   29.4754  -11.3194    0.0000 O   0  0
   30.9014  -10.4894    0.0000 C   0  0  2  0  0  0
   31.6144  -10.0744    0.0000 C   0  0
   32.3302  -10.4844    0.0000 N   0  0
   31.6115   -9.2494    0.0000 O   0  0
   30.9043  -11.3144    0.0000 C   0  0
   31.6202  -11.7243    0.0000 C   0  0
   31.6231  -12.5493    0.0000 O   0  0
   32.3332  -11.3093    0.0000 N   0  0
   28.7538   -9.2595    0.0000 C   0  0
   29.4667   -8.8445    0.0000 C   0  0
   29.4638   -8.0195    0.0000 C   0  0
   30.1768   -7.6045    0.0000 O   0  0
   28.7479   -7.6096    0.0000 N   0  0
   23.0416  -12.5669    0.0000 C   0  0
   23.7561  -12.9794    0.0000 C   0  0
   24.4705  -12.5669    0.0000 C   0  0
   24.4705  -11.7419    0.0000 N   0  0
   25.1849  -11.3294    0.0000 C   0  0
   25.1849  -10.5044    0.0000 N   0  0
   25.8995  -11.7419    0.0000 N   0  0
   26.6177  -11.3294    0.0000 C   0  0
   26.6148  -10.5044    0.0000 C   0  0
   25.8989  -10.0945    0.0000 C   0  0
   13.0036  -13.3910    0.0000 C   0  0
   28.0446  -12.1494    0.0000 C   0  0
    8.7062  -13.3931    0.0000 H   0  0
  4 10  1  0
 13 16  1  0
 19 25  1  0
 28 34  1  0
 37 41  1  0
 44 52  1  0
 55 56  1  0
 59 64  1  0
 67 72  1  0
 75 86  1  0
 89 91  1  0
 94 99  1  0
  1  2  1  0
  2  4  1  0
  4  3  2  0
  2  5  1  1
  5  6  1  0
  6  7  1  0
  7  8  2  0
  7  9  1  0
 10 11  1  0
 11 13  1  0
 13 12  2  0
 11 14  1  6
 14 15  1  0
 16 17  1  0
 17 19  1  0
 19 18  2  0
 17 20  1  1
 20 21  1  0
 21 22  1  0
 22 23  2  0
 22 24  1  0
 25 26  1  0
 26 28  1  0
 28 27  2  0
 26 29  1  6
 29 30  1  0
 30 31  1  0
 31 32  2  0
 31 33  1  0
 35 34  1  0
 35 37  1  0
 37 36  2  0
 35 38  1  0
 38 39  1  1
 38 40  1  0
 41 42  1  0
 42 44  1  0
 44 43  2  0
 42 45  1  6
 45 47  1  0
 46 47  2  0
 47 48  1  0
 48 49  2  0
 49 50  1  0
 50 51  2  0
 51 46  1  0
 52 53  1  0
 53 55  1  0
 55 54  2  0
 56 57  1  0
 57 59  1  0
 59 58  2  0
 57 60  1  6
 60 61  1  0
 61 62  2  0
 61 63  1  0
 64 65  1  0
 65 67  1  0
 67 66  2  0
 65 68  1  1
 68 69  1  0
 69 70  1  0
 69 71  1  0
 72 73  1  0
 73 75  1  0
 75 74  2  0
 73 76  1  6
 76 78  1  0
 77 78  2  0
 78 80  1  0
 79 77  1  0
 81 79  1  0
 80 81  2  0
 81 82  1  0
 82 83  2  0
 83 84  1  0
 84 85  2  0
 85 80  1  0
 86 87  1  0
 87 89  1  0
 89 88  2  0
 87 90  1  1
 91 92  1  0
 92 94  1  0
 94 93  2  0
 92 95  1  6
 95 96  1  0
 96 97  1  0
 96 98  1  0
 99100  1  0
  1101  1  0
101102  1  0
101103  2  0
 53104  1  0
104105  1  0
105106  1  0
106107  1  0
107108  1  0
108109  1  0
109110  1  0
110111  2  0
100112  1  0
100113  1  6
113114  1  0
114115  1  0
114116  1  0
112117  2  0
112118  1  0
118119  1  0
119120  1  0
120121  2  0
120122  1  0
122123  1  0
123124  1  0
124125  1  0
124126  2  0
125127  1  0
127128  1  0
128129  1  0
128130  2  0
127131  1  6
131132  1  0
132133  2  0
132134  1  0
123135  1  1
135136  1  0
136137  1  0
137138  2  0
137139  1  0
 90140  1  0
140141  1  0
141142  1  0
142143  1  0
143144  1  0
144145  1  0
144146  2  0
119147  1  0
147148  1  0
148149  1  0
111149  1  0
 53150  1  1
119151  1  6
 35152  1  6
M  END