
  SciTegic09261414462D

 19 21  0  0  0  0            999 V2000
   14.9233  -17.8132    0.0000 N   0  0
   14.2084  -17.4013    0.0000 C   0  0
   13.4935  -17.8132    0.0000 N   0  0
   12.7827  -17.4013    0.0000 C   0  0
   12.7827  -16.5774    0.0000 C   0  0
   13.4935  -16.1654    0.0000 C   0  0
   14.2084  -16.5774    0.0000 N   0  0
   13.4935  -15.3417    0.0000 N   0  0
   12.8290  -14.8575    0.0000 C   0  0
   13.0815  -14.0740    0.0000 C   0  0  1  0  0  0
   13.9054  -14.0740    0.0000 C   0  0
   14.1622  -14.8575    0.0000 C   0  0
   12.5975  -13.4094    0.0000 N   0  0
   12.9347  -12.6561    0.0000 C   0  0
   12.0679  -17.8132    0.0000 C   0  0
   11.9831  -18.6345    0.0000 C   0  0
   11.1741  -18.8066    0.0000 C   0  0
   10.7621  -18.0917    0.0000 C   0  0
   11.3145  -17.4761    0.0000 C   0  0
  2  3  1  0
  3  4  2  0
  4  5  1  0
  5  6  2  0
  6  7  1  0
  2  7  2  0
  1  2  1  0
  8  9  1  0
  9 10  1  0
 10 11  1  0
 11 12  1  0
  8 12  1  0
 13 14  1  0
 10 13  1  6
  6  8  1  0
 15 16  1  0
 16 17  1  0
 17 18  1  0
 18 19  1  0
 15 19  1  0
  4 15  1  0
M  END