
          08180812472D 1   1.00000     0.00000     0

 30 32  0     0  0            999 V2000
    7.4486  -20.7750    0.0000 C   0  0  0  0  0  0           0  0  0
    7.4474  -21.6023    0.0000 C   0  0  0  0  0  0           0  0  0
    8.1622  -22.0152    0.0000 C   0  0  0  0  0  0           0  0  0
    8.8787  -21.6019    0.0000 C   0  0  0  0  0  0           0  0  0
    8.8758  -20.7713    0.0000 C   0  0  0  0  0  0           0  0  0
    8.1604  -20.3622    0.0000 C   0  0  0  0  0  0           0  0  0
    9.5938  -22.0132    0.0000 O   0  0  0  0  0  0           0  0  0
    6.7340  -20.3626    0.0000 Cl  0  0  0  0  0  0           0  0  0
    9.5887  -20.3561    0.0000 C   0  0  0  0  0  0           0  0  0
    9.5856  -19.5311    0.0000 N   0  0  3  0  0  0           0  0  0
   10.2479  -19.0435    0.0000 C   0  0  0  0  0  0           0  0  0
    9.9900  -18.2598    0.0000 C   0  0  0  0  0  0           0  0  0
    9.1649  -18.2629    0.0000 C   0  0  0  0  0  0           0  0  0
    8.9131  -19.0485    0.0000 N   0  0  0  0  0  0           0  0  0
   11.0338  -19.2944    0.0000 C   0  0  0  0  0  0           0  0  0
   10.3076  -21.5996    0.0000 C   0  0  0  0  0  0           0  0  0
   11.0227  -22.0110    0.0000 C   0  0  0  0  0  0           0  0  0
   11.0193  -22.8344    0.0000 C   0  0  0  0  0  0           0  0  0
   11.7336  -23.2457    0.0000 C   0  0  0  0  0  0           0  0  0
   12.4484  -22.8320    0.0000 C   0  0  0  0  0  0           0  0  0
   12.4445  -22.0028    0.0000 C   0  0  0  0  0  0           0  0  0
   11.7296  -21.5952    0.0000 C   0  0  0  0  0  0           0  0  0
    8.6774  -17.5973    0.0000 N   0  0  0  0  0  0           0  0  0
    9.0101  -16.8424    0.0000 C   0  0  0  0  0  0           0  0  0
    9.8303  -16.7521    0.0000 O   0  0  0  0  0  0           0  0  0
    8.5223  -16.1771    0.0000 O   0  0  0  0  0  0           0  0  0
    8.8545  -15.4219    0.0000 C   0  0  3  0  0  0           0  0  0
    9.2625  -14.7042    0.0000 C   0  0  0  0  0  0           0  0  0
    8.1174  -15.0515    0.0000 C   0  0  0  0  0  0           0  0  0
    9.5914  -15.7930    0.0000 C   0  0  0  0  0  0           0  0  0
  4  7  1  0     0  0
 11 15  1  0     0  0
  3  4  2  0     0  0
  7 16  1  0     0  0
  1  8  1  0     0  0
 16 17  1  0     0  0
 17 18  2  0     0  0
  5  9  1  0     0  0
 18 19  1  0     0  0
  4  5  1  0     0  0
 19 20  2  0     0  0
  9 10  1  0     0  0
 20 21  1  0     0  0
 10 11  1  0     0  0
 21 22  2  0     0  0
 22 17  1  0     0  0
  2  3  1  0     0  0
 13 23  1  0     0  0
  5  6  2  0     0  0
 23 24  1  0     0  0
  6  1  1  0     0  0
 24 25  2  0     0  0
  1  2  2  0     0  0
 24 26  1  0     0  0
 11 12  2  0     0  0
 26 27  1  0     0  0
 12 13  1  0     0  0
 27 28  1  0     0  0
 13 14  2  0     0  0
 27 29  1  0     0  0
 14 10  1  0     0  0
 27 30  1  0     0  0
M  END