
  SciTegic11201309402D

 15 15  0  0  1  0            999 V2000
   -2.0208    1.3833    0.0000 N   0  0
   -2.8500    1.3833    0.0000 C   0  0
   -2.0208    2.2208    0.0000 C   0  0  2  0  0  0
   -1.2250    1.1333    0.0000 C   0  0  2  0  0  0
   -0.7500    1.7958    0.0000 C   0  0
   -1.2250    2.4625    0.0000 O   0  0
   -2.8500    2.2208    0.0000 C   0  0
   -0.5333    0.6833    0.0000 C   0  0
   -3.4333    0.7958    0.0000 O   0  0
    0.0792    1.7958    0.0000 C   0  0
   -0.5375   -0.1167    0.0000 O   0  5
    0.2000    1.0708    0.0000 O   0  0
    0.5417   -0.1542    0.0000 Na  0  3
    0.4917    2.5083    0.0000 C   0  0
   -2.1677    3.2100    0.0000 H   0  0
  2  1  1  0
  3  1  1  0
  4  1  1  0
  5  4  1  0
  3  6  1  0
  7  3  1  0
  4  8  1  6
  9  2  2  0
 10  5  2  0
 11  8  1  0
 12  8  2  0
 14 10  1  0
  2  7  1  0
  5  6  1  0
  3 15  1  6
M  CHG  2  11  -1  13   1
M  END