
          11280715492D 1   1.00000     0.00000     0

 19 20  0     0  0            999 V2000
    1.4864  -24.6293    0.0000 C   0  0  0  0  0  0           0  0  0
    2.2059  -25.0392    0.0000 C   0  0  0  0  0  0           0  0  0
   -2.0750  -22.5625    0.0000 C   0  0  3  0  0  0           0  0  0
   -2.0750  -23.3875    0.0000 C   0  0  0  0  0  0           0  0  0
   -1.3630  -23.7958    0.0000 C   0  0  0  0  0  0           0  0  0
   -0.6510  -23.3875    0.0000 N   0  0  3  0  0  0           0  0  0
   -0.6510  -22.5625    0.0000 C   0  0  0  0  0  0           0  0  0
   -1.3630  -22.1458    0.0000 C   0  0  0  0  0  0           0  0  0
   -2.7907  -22.1521    0.0000 C   0  0  0  0  0  0           0  0  0
   -3.5039  -22.5667    0.0000 C   0  0  0  0  0  0           0  0  0
   -4.2583  -22.2335    0.0000 C   0  0  0  0  0  0           0  0  0
   -4.8086  -22.8482    0.0000 N   0  0  0  0  0  0           0  0  0
   -4.3939  -23.5615    0.0000 C   0  0  0  0  0  0           0  0  0
   -3.5875  -23.3875    0.0000 N   0  0  0  0  0  0           0  0  0
    0.0629  -23.8010    0.0000 C   0  0  0  0  0  0           0  0  0
    0.0617  -24.6260    0.0000 C   0  0  0  0  0  0           0  0  0
    0.7756  -25.0396    0.0000 C   0  0  0  0  0  0           0  0  0
    2.2106  -25.8642    0.0000 C   0  0  0  0  0  0           0  0  0
    2.9274  -26.2727    0.0000 C   0  0  0  0  0  0           0  0  0
  9 10  1  0     0  0
 10 11  2  0     0  0
  3  4  1  0     0  0
  3  8  1  0     0  0
  4  5  1  0     0  0
  5  6  1  0     0  0
 11 12  1  0     0  0
 12 13  1  0     0  0
 13 14  2  0     0  0
 14 10  1  0     0  0
  6  7  1  0     0  0
  6 15  1  0     0  0
  7  8  1  0     0  0
 15 16  1  0     0  0
 16 17  1  0     0  0
 17  1  1  0     0  0
  3  9  1  0     0  0
  2 18  1  0     0  0
  1  2  1  0     0  0
 18 19  1  0     0  0
M  END