
  Mrv0541 04051115152D          

 15 15  0  0  0  0            999 V2000
    1.3899    0.1499    0.0000 N   0  0  0  0  0  0  0  0  0  0  0  0
    1.1349   -0.6347    0.0000 C   0  0  0  0  0  0  0  0  0  0  0  0
    0.1606   -2.0558    0.0000 C   0  0  0  0  0  0  0  0  0  0  0  0
   -0.9955   -1.2159    0.0000 C   0  0  0  0  0  0  0  0  0  0  0  0
    0.7224    0.6348    0.0000 C   0  0  1  0  0  0  0  0  0  0  0  0
    0.0550    0.1499    0.0000 C   0  0  1  0  0  0  0  0  0  0  0  0
   -0.7296    0.4048    0.0000 C   0  0  0  0  0  0  0  0  0  0  0  0
    0.3099   -0.6347    0.0000 C   0  0  1  0  0  0  0  0  0  0  0  0
   -1.3427   -0.1472    0.0000 C   0  0  0  0  0  0  0  0  0  0  0  0
   -0.1750   -1.3022    0.0000 C   0  0  0  0  0  0  0  0  0  0  0  0
    0.7224    1.4598    0.0000 C   0  0  0  0  0  0  0  0  0  0  0  0
    0.0080    1.8723    0.0000 O   0  0  0  0  0  0  0  0  0  0  0  0
   -1.1712   -0.9542    0.0000 O   0  0  0  0  0  0  0  0  0  0  0  0
   -2.1273    0.1077    0.0000 O   0  0  0  0  0  0  0  0  0  0  0  0
    1.4369    1.8723    0.0000 O   0  0  0  0  0  0  0  0  0  0  0  0
  2  1  1  0  0  0  0
  5  1  1  0  0  0  0
  2  8  1  0  0  0  0
  3 10  2  0  0  0  0
  4 10  1  0  0  0  0
  5  6  1  0  0  0  0
  5 11  1  1  0  0  0
  6  7  1  6  0  0  0
  6  8  1  0  0  0  0
  7  9  1  0  0  0  0
  8 10  1  6  0  0  0
  9 13  1  0  0  0  0
  9 14  2  0  0  0  0
 11 12  2  0  0  0  0
 11 15  1  0  0  0  0
M  END