
  SciTegic07291412072D

 53 57  0  0  0  0            999 V2000
    0.5693   -5.4800    0.0000 N   0  0
    1.3700   -4.2470    0.0000 C   0  0
    3.5134   -4.6595    0.0000 C   0  0
    0.6555   -4.6595    0.0000 C   0  0  2  0  0  0
    5.6568   -4.2470    0.0000 C   0  0
    2.0845   -4.6595    0.0000 N   0  0
    4.2279   -4.2470    0.0000 N   0  0
    4.9423   -4.6595    0.0000 C   0  0  1  0  0  0
    1.1824   -6.0320    0.0000 C   0  0
    2.7989   -4.2470    0.0000 C   0  0  1  0  0  0
    6.5500   -6.8890    0.0000 N   0  0
    9.2292   -5.4845    0.0000 C   0  0
    6.3713   -4.6595    0.0000 N   0  0
    5.6568   -5.8970    0.0000 C   0  0
    4.9423   -5.4845    0.0000 C   0  0
    6.4105   -5.5614    0.0000 N   0  0
    6.9625   -6.1745    0.0000 C   0  0
    9.2292   -4.6595    0.0000 C   0  0  1  0  0  0
    8.5147   -4.2470    0.0000 N   0  0
    5.7431   -6.7175    0.0000 C   0  0
    1.3700   -3.4220    0.0000 O   0  0
    3.5134   -5.4845    0.0000 O   0  0
    5.6568   -3.4220    0.0000 O   0  0
    2.7989   -3.4220    0.0000 C   0  0
    1.0109   -6.8390    0.0000 O   0  0
    9.9436   -5.8970    0.0000 O   0  0
    9.9436   -4.2470    0.0000 C   0  0
    7.0858   -4.2470    0.0000 C   0  0  2  0  0  0
    8.5147   -5.8970    0.0000 N   0  0
    7.8002   -4.6595    0.0000 C   0  0
   -0.2377   -5.6515    0.0000 C   0  0
    7.0858   -3.4220    0.0000 C   0  0
    3.5134   -3.0095    0.0000 C   0  0
   10.6581   -4.6595    0.0000 C   0  0
    7.8002   -3.0095    0.0000 C   0  0
   -0.0982   -4.3239    0.0000 C   0  0
    1.9670   -5.7771    0.0000 C   0  0
   -0.6502   -4.9370    0.0000 C   0  0
   10.6581   -5.4845    0.0000 C   0  0
    4.2279   -3.4220    0.0000 C   0  0
    3.5134   -2.1845    0.0000 C   0  0
   11.3726   -4.2470    0.0000 C   0  0
    8.5147   -3.4220    0.0000 C   0  0
    7.8002   -2.1845    0.0000 C   0  0
   12.0871   -4.6595    0.0000 C   0  0
   11.3726   -5.8970    0.0000 C   0  0
    4.9423   -3.0095    0.0000 C   0  0
    9.2292   -3.0095    0.0000 C   0  0
    8.5147   -1.7720    0.0000 C   0  0
    4.2279   -1.7720    0.0000 C   0  0
   12.0871   -5.4845    0.0000 C   0  0
    9.2292   -2.1845    0.0000 C   0  0
    4.9423   -2.1845    0.0000 C   0  0
  4  2  1  1
  3 10  1  0
  4  1  1  0
  5  8  1  0
  6  2  1  0
  7  3  1  0
  8  7  1  0
  9  1  1  0
 10  6  1  0
 11 20  1  0
 12 18  1  0
 13  5  1  0
 14 15  1  0
  8 15  1  6
 16 14  1  0
 17 16  2  0
 18 19  1  0
 19 30  1  0
 20 14  2  0
 21  2  2  0
 22  3  2  0
 23  5  2  0
 10 24  1  1
 25  9  2  0
 26 12  2  0
 18 27  1  1
 28 13  1  0
 29 12  1  0
 30 28  1  0
 31  1  1  0
 28 32  1  1
 33 24  1  0
 34 27  1  0
 35 32  1  0
 36  4  1  0
 37  9  1  0
 38 31  1  0
 39 34  2  0
 40 33  1  0
 41 33  2  0
 42 34  1  0
 43 35  2  0
 44 35  1  0
 45 42  2  0
 46 39  1  0
 47 40  2  0
 48 43  1  0
 49 44  2  0
 50 41  1  0
 51 45  1  0
 52 49  1  0
 53 50  2  0
 38 36  1  0
 47 53  1  0
 17 11  1  0
 52 48  2  0
 51 46  2  0
M  END