
          11280715362D 1   1.00000     0.00000     0

 31 34  0     0  0            999 V2000
    2.4667   -6.0125    0.0000 C   0  0  0  0  0  0           0  0  0
    1.6792   -6.2750    0.0000 C   0  0  0  0  0  0           0  0  0
    1.6875   -7.1000    0.0000 C   0  0  0  0  0  0           0  0  0
    2.9625   -6.6750    0.0000 C   0  0  3  0  0  0           0  0  0
    2.4792   -7.3500    0.0000 C   0  0  0  0  0  0           0  0  0
    5.0292   -7.3750    0.0000 N   0  0  3  0  0  0           0  0  0
    6.6417   -7.7042    0.0000 N   0  0  3  0  0  0           0  0  0
    0.9667   -5.8625    0.0000 C   0  0  0  0  0  0           0  0  0
    0.9667   -7.5167    0.0000 C   0  0  0  0  0  0           0  0  0
    8.7667   -9.6167    0.0000 C   0  0  0  0  0  0           0  0  0
    2.7125   -5.2250    0.0000 O   0  0  0  0  0  0           0  0  0
    9.5792   -9.7792    0.0000 C   0  0  0  0  0  0           0  0  0
    3.7875   -6.6667    0.0000 C   0  0  0  0  0  0           0  0  0
    8.2167  -10.2292    0.0000 O   0  0  0  0  0  0           0  0  0
   10.1167   -9.1667    0.0000 C   0  0  0  0  0  0           0  0  0
    9.8292  -10.5667    0.0000 C   0  0  0  0  0  0           0  0  0
    4.2042   -7.3792    0.0000 C   0  0  0  0  0  0           0  0  0
    0.2542   -7.1042    0.0000 C   0  0  0  0  0  0           0  0  0
    5.5667   -6.7542    0.0000 C   0  0  0  0  0  0           0  0  0
    5.2875   -8.1542    0.0000 C   0  0  0  0  0  0           0  0  0
    6.0917   -8.3250    0.0000 C   0  0  0  0  0  0           0  0  0
    6.3792   -6.9250    0.0000 C   0  0  0  0  0  0           0  0  0
    0.2542   -6.2792    0.0000 C   0  0  0  0  0  0           0  0  0
   11.1917  -10.1167    0.0000 C   0  0  0  0  0  0           0  0  0
   10.9292   -9.3292    0.0000 C   0  0  0  0  0  0           0  0  0
   10.6375  -10.7375    0.0000 C   0  0  0  0  0  0           0  0  0
   -0.4625   -7.5167    0.0000 F   0  0  0  0  0  0           0  0  0
   11.9917  -10.2875    0.0000 F   0  0  0  0  0  0           0  0  0
    7.4500   -7.8792    0.0000 C   0  0  0  0  0  0           0  0  0
    7.7042   -8.6625    0.0000 C   0  0  0  0  0  0           0  0  0
    8.5125   -8.8292    0.0000 C   0  0  0  0  0  0           0  0  0
  2  1  1  0     0  0
  3  2  1  0     0  0
  4  1  1  0     0  0
  5  4  1  0     0  0
  6 17  1  0     0  0
  7 21  1  0     0  0
  8  2  2  0     0  0
  9  3  2  0     0  0
 10 31  1  0     0  0
 11  1  2  0     0  0
 12 10  1  0     0  0
 13  4  1  0     0  0
 14 10  2  0     0  0
 15 12  1  0     0  0
 16 12  2  0     0  0
 17 13  1  0     0  0
 18 23  2  0     0  0
 19  6  1  0     0  0
 20  6  1  0     0  0
 21 20  1  0     0  0
 22 19  1  0     0  0
 23  8  1  0     0  0
 24 26  2  0     0  0
 25 15  2  0     0  0
 26 16  1  0     0  0
 27 18  1  0     0  0
 28 24  1  0     0  0
 29  7  1  0     0  0
 30 29  1  0     0  0
 31 30  1  0     0  0
  5  3  1  0     0  0
 18  9  1  0     0  0
 22  7  1  0     0  0
 24 25  1  0     0  0
M  END