
          11280715362D 1   1.00000     0.00000     0

 37 40  0     1  0            999 V2000
    2.7250   -3.6875    0.0000 C   0  0  1  0  0  0           0  0  0
    2.7667   -2.8625    0.0000 C   0  0  2  0  0  0           0  0  0
    3.3667   -4.2042    0.0000 N   0  0  3  0  0  0           0  0  0
    5.6792   -1.1750    0.0000 C   0  0  0  0  0  0           0  0  0
    1.9292   -3.9000    0.0000 C   0  0  0  0  0  0           0  0  0
    2.0000   -2.5667    0.0000 C   0  0  2  0  0  0           0  0  0
    6.0792   -0.4542    0.0000 C   0  0  0  0  0  0           0  0  0
    4.8542   -1.1792    0.0000 C   0  0  0  0  0  0           0  0  0
    6.9167   -3.5792    0.0000 C   0  0  0  0  0  0           0  0  0
    1.7917   -1.7667    0.0000 O   0  0  0  0  0  0           0  0  0
    7.3292   -1.1625    0.0000 N   0  0  0  0  0  0           0  0  0
    1.4792   -3.2042    0.0000 C   0  0  0  0  0  0           0  0  0
    7.5417   -3.3625    0.0000 O   0  0  0  0  0  0           0  0  0
    4.4417   -1.9000    0.0000 C   0  0  0  0  0  0           0  0  0
    4.4292   -0.4667    0.0000 C   0  0  0  0  0  0           0  0  0
    4.6042   -2.6125    0.0000 C   0  0  0  0  0  0           0  0  0
    5.3542   -2.8292    0.0000 C   0  0  0  0  0  0           0  0  0
    3.4625   -2.4167    0.0000 O   0  0  0  0  0  0           0  0  0
    2.3792   -1.1875    0.0000 C   0  0  0  0  0  0           0  0  0
    3.2042   -1.1917    0.0000 C   0  0  0  0  0  0           0  0  0
    6.7875   -4.2292    0.0000 O   0  0  0  0  0  0           0  0  0
    3.6167   -1.9042    0.0000 C   0  0  0  0  0  0           0  0  0
    3.6042   -0.4750    0.0000 C   0  0  0  0  0  0           0  0  0
    6.9042   -0.4500    0.0000 C   0  0  0  0  0  0           0  0  0
    4.1042   -3.8542    0.0000 C   0  0  0  0  0  0           0  0  0
    3.1792   -5.0125    0.0000 C   0  0  0  0  0  0           0  0  0
    5.7542    0.2958    0.0000 C   0  0  0  0  0  0           0  0  0
    4.9292    0.3958    0.0000 O   0  0  0  0  0  0           0  0  0
    6.0917   -1.8875    0.0000 C   0  0  0  0  0  0           0  0  0
    4.0125   -2.8917    0.0000 C   0  0  0  0  0  0           0  0  0
    6.4167   -3.1417    0.0000 C   0  0  0  0  0  0           0  0  0
    6.9167   -1.8792    0.0000 C   0  0  0  0  0  0           0  0  0
    5.6375   -3.3292    0.0000 C   0  0  0  0  0  0           0  0  0
    3.6875   -5.6625    0.0000 C   0  0  0  0  0  0           0  0  0
    4.8542   -4.2250    0.0000 C   0  0  0  0  0  0           0  0  0
    4.5167   -5.6667    0.0000 C   0  0  0  0  0  0           0  0  0
    5.0292   -5.0250    0.0000 C   0  0  0  0  0  0           0  0  0
  2  1  1  0     0  0
  1  3  1  1     0  0
  4  8  1  0     0  0
  5  1  1  0     0  0
  6  2  1  0     0  0
  7  4  1  0     0  0
  8 15  1  0     0  0
  9 31  1  0     0  0
  6 10  1  1     0  0
 11 32  2  0     0  0
 12  5  1  0     0  0
 13  9  2  0     0  0
 14 22  1  0     0  0
 15 23  2  0     0  0
 16 30  1  0     0  0
 17 16  2  0     0  0
  2 18  1  6     0  0
 19 10  1  0     0  0
 20 19  1  0     0  0
 21  9  1  0     0  0
 22 20  2  0     0  0
 23 20  1  0     0  0
 24  7  2  0     0  0
 25  3  1  0     0  0
 26  3  1  0     0  0
 27  7  1  0     0  0
 28 27  1  0     0  0
 29  4  2  0     0  0
 30 18  1  0     0  0
 31 33  1  0     0  0
 32 29  1  0     0  0
 33 17  1  0     0  0
 34 26  1  0     0  0
 35 25  1  0     0  0
 36 34  1  0     0  0
 37 35  1  0     0  0
 12  6  1  0     0  0
 36 37  1  0     0  0
  8 14  2  0     0  0
 24 11  1  0     0  0
M  END