
  SciTegic02271515152D

 44 47  0  0  0  0            999 V2000
   14.8731  -21.5193    0.0000 C   0  0
   14.8720  -22.3389    0.0000 C   0  0
   15.5800  -22.7478    0.0000 C   0  0
   16.2897  -22.3384    0.0000 C   0  0
   16.2868  -21.5157    0.0000 C   0  0
   15.5782  -21.1105    0.0000 C   0  0
   14.1653  -21.1109    0.0000 C   0  0
   13.4577  -21.5197    0.0000 N   0  0
   16.9940  -22.7440    0.0000 C   0  0
   17.0807  -23.5565    0.0000 C   0  0
   17.8804  -23.7252    0.0000 N   0  0
   18.2879  -23.0168    0.0000 C   0  0
   17.7400  -22.4104    0.0000 S   0  0
   12.7499  -21.1112    0.0000 C   0  0
   12.0423  -21.5200    0.0000 O   0  0
   12.7497  -20.2941    0.0000 C   0  0  2  0  0  0
   13.4161  -19.8146    0.0000 C   0  0
   13.1634  -19.0375    0.0000 C   0  0  2  0  0  0
   12.3461  -19.0377    0.0000 C   0  0
   12.0939  -19.8149    0.0000 N   0  0
   11.3164  -20.0666    0.0000 C   0  0
   11.1456  -20.8657    0.0000 O   0  0
   13.6436  -18.3762    0.0000 O   0  0
   16.4743  -24.1043    0.0000 C   0  0
   10.7098  -19.5191    0.0000 C   0  0  2  0  0  0
   10.8806  -18.7200    0.0000 C   0  0
    9.9323  -19.7708    0.0000 N   0  0
   11.6580  -18.4683    0.0000 C   0  0
   10.2739  -18.1725    0.0000 C   0  0
   11.0899  -17.9246    0.0000 C   0  0
    9.3256  -19.2233    0.0000 C   0  0
    8.5481  -19.4749    0.0000 C   0  0  1  0  0  0
    9.4964  -18.4241    0.0000 O   0  0
    7.9415  -18.9274    0.0000 N   0  0
    8.3773  -20.2741    0.0000 C   0  0
    8.1123  -18.1283    0.0000 C   0  0
    7.5056  -17.5808    0.0000 C   0  0
    8.8897  -17.8766    0.0000 O   0  0
    9.7615  -20.5699    0.0000 C   0  0
    8.9849  -20.8196    0.0000 C   0  0
    8.8143  -21.6153    0.0000 C   0  0
    9.4192  -22.1622    0.0000 C   0  0
   10.1975  -21.9078    0.0000 C   0  0
   10.3645  -21.1126    0.0000 C   0  0
  1  2  2  0
  2  3  1  0
  3  4  2  0
  4  5  1  0
  5  6  2  0
  6  1  1  0
  1  7  1  0
  7  8  1  0
  9 10  2  0
 10 11  1  0
 11 12  2  0
 12 13  1  0
 13  9  1  0
  4  9  1  0
  8 14  1  0
 14 15  2  0
 16 14  1  1
 16 17  1  0
 17 18  1  0
 18 19  1  0
 19 20  1  0
 20 16  1  0
 20 21  1  0
 21 22  2  0
 18 23  1  6
 10 24  1  0
 21 25  1  0
 25 26  1  1
 25 27  1  0
 26 28  1  0
 26 29  1  0
 26 30  1  0
 27 31  1  0
 31 32  1  0
 31 33  2  0
 32 34  1  0
 32 35  1  6
 34 36  1  0
 36 37  1  0
 36 38  2  0
 35 40  1  0
 39 40  2  0
 40 41  1  0
 41 42  2  0
 42 43  1  0
 43 44  2  0
 44 39  1  0
M  END