
  SciTegic07061118172D

 22 23  0  0  0  0            999 V2000
    2.7277  -16.3250    0.0000 C   0  0
    2.7266  -17.1523    0.0000 C   0  0
    3.4414  -17.5652    0.0000 C   0  0
    4.1578  -17.1519    0.0000 C   0  0
    4.1550  -16.3213    0.0000 C   0  0
    3.4396  -15.9122    0.0000 C   0  0
    2.0132  -15.9126    0.0000 Br  0  0
    4.8679  -15.9061    0.0000 S   0  0
    5.5839  -16.3159    0.0000 N   0  0
    6.2968  -15.9008    0.0000 C   0  0
    7.0128  -16.3106    0.0000 C   0  0
    7.7258  -15.8954    0.0000 C   0  0
    8.4418  -16.3052    0.0000 C   0  0
    9.1547  -15.8900    0.0000 C   0  0
    9.8702  -16.3002    0.0000 N   0  0
    9.8689  -17.1207    0.0000 C   0  0
   10.6517  -17.3811    0.0000 C   0  0
   11.1413  -16.7170    0.0000 C   0  0  1  0  0  0
   10.6609  -16.0463    0.0000 C   0  0
    4.2792  -15.3167    0.0000 O   0  0
    5.4500  -15.3167    0.0000 O   0  0
   11.9663  -16.7227    0.0000 F   0  0
  5  6  2  0
 10 11  1  0
  6  1  1  0
 11 12  1  0
  1  2  2  0
 12 13  1  0
  1  7  1  0
 13 14  1  0
  3  4  2  0
 14 15  1  0
 15 16  1  0
  5  8  1  0
  8  9  1  0
  4  5  1  0
 16 17  1  0
 17 18  1  0
 18 19  1  0
 19 15  1  0
  8 20  2  0
  2  3  1  0
  8 21  2  0
  9 10  1  0
 18 22  1  1
M  END