
  SciTegic01161211242D

 32 36  0  0  0  0            999 V2000
   20.4925   -0.5547    0.0000 C   0  0
   21.1784   -0.0967    0.0000 C   0  0
   21.9499   -0.3857    0.0000 N   0  0
   21.2088    0.7245    0.0000 C   0  0
   22.0029    0.9482    0.0000 N   0  0
   22.4556    0.2626    0.0000 C   0  0
   23.2476    0.4813    0.0000 S   0  0
   22.5150    1.5907    0.0000 C   0  0
   23.2851    1.2980    0.0000 C   0  0
   23.9215    1.8181    0.0000 C   0  0
   23.7891    2.6309    0.0000 C   0  0
   23.0147    2.9210    0.0000 C   0  0
   22.3815    2.3990    0.0000 C   0  0
   19.0652   -0.5583    0.0000 C   0  0
   19.0641   -1.3857    0.0000 C   0  0
   19.7789   -1.7985    0.0000 C   0  0
   20.4953   -1.3852    0.0000 C   0  0
   19.7771   -0.1455    0.0000 C   0  0
   18.3493   -1.7976    0.0000 N   0  0
   17.6351   -1.3845    0.0000 C   0  0
   16.9203   -1.7965    0.0000 N   0  0
   17.6358   -0.5595    0.0000 O   0  0
   16.2062   -1.3834    0.0000 C   0  0
   16.1249   -0.5601    0.0000 C   0  0
   15.3180   -0.3879    0.0000 C   0  0
   14.9049   -1.1021    0.0000 O   0  0
   15.4565   -1.7155    0.0000 N   0  0
   14.9831    0.3660    0.0000 C   0  0
   15.4685    1.0331    0.0000 C   0  0
   14.1542    0.3667    0.0000 C   0  0
   14.5625    1.0833    0.0000 C   0  0
   24.4270    3.1541    0.0000 O   0  0
  7  9  1  0
 15 16  1  0
  8  5  1  0
 16 17  2  0
 17  1  1  0
  3  6  2  0
  1 18  2  0
 18 14  1  0
  5  4  1  0
 15 19  1  0
  8  9  2  0
 19 20  1  0
  4  2  2  0
 20 21  1  0
  9 10  1  0
 20 22  2  0
  5  6  1  0
 21 23  1  0
 23 24  1  0
 10 11  2  0
  2  3  1  0
 11 12  1  0
 24 25  2  0
 25 26  1  0
 26 27  1  0
 27 23  2  0
 12 13  2  0
 25 28  1  0
 13  8  1  0
 28 29  1  0
  1  2  1  0
 28 30  1  0
  6  7  1  0
 28 31  1  0
 14 15  2  0
 11 32  1  0
M  END