
  SciTegic11111309142D

 35 38  0  0  0  0            999 V2000
   10.7386   -8.9112    0.0000 N   0  0
   11.4524   -9.3218    0.0000 C   0  0
    5.7497   -6.8578    0.0000 C   0  0
    5.7497   -7.6840    0.0000 C   0  0
    6.4594   -8.0953    0.0000 C   0  0
    7.1809   -7.6808    0.0000 C   0  0
    7.1809   -6.8515    0.0000 C   0  0
    6.4613   -6.4380    0.0000 C   0  0
    7.8939   -8.0921    0.0000 O   0  0
    8.6022   -7.6815    0.0000 C   0  0
    9.3117   -8.0867    0.0000 C   0  0
   10.0257   -7.6764    0.0000 C   0  0
   10.0257   -6.8504    0.0000 C   0  0
    9.3077   -6.4341    0.0000 C   0  0
    8.5936   -6.8521    0.0000 C   0  0
   10.7403   -6.4422    0.0000 C   0  0
   11.4491   -6.8495    0.0000 N   0  0
   10.7403   -5.6146    0.0000 O   0  0
   12.1643   -6.4372    0.0000 C   0  0
   12.8774   -6.8510    0.0000 C   0  0
   13.5926   -6.4360    0.0000 N   0  0
   14.3390   -6.7724    0.0000 C   0  0
   14.8894   -6.1569    0.0000 C   0  0
   14.4785   -5.4379    0.0000 C   0  0
   13.6729   -5.6157    0.0000 C   0  0
   10.0252   -9.3258    0.0000 C   0  0
   10.0252  -10.1468    0.0000 O   0  0
    5.0387   -6.4451    0.0000 C   0  0
    5.0357   -8.0942    0.0000 C   0  0
   11.4494  -10.1424    0.0000 C   0  0
   12.1624  -10.5529    0.0000 C   0  0
   12.8760  -10.1400    0.0000 C   0  0
   12.8720   -9.3122    0.0000 C   0  0
   12.1584   -8.9054    0.0000 C   0  0
    9.3117   -8.9117    0.0000 N   0  0
  7  8  2  0
  8  3  1  0
  6  9  1  0
  9 10  1  0
 10 11  2  0
 11 12  1  0
 12 13  2  0
 13 14  1  0
 14 15  2  0
 15 10  1  0
 13 16  1  0
 16 17  1  0
 16 18  2  0
 17 19  1  0
 19 20  1  0
 20 21  1  0
 21 22  1  0
 22 23  1  0
 23 24  1  0
 24 25  1  0
 25 21  1  0
 26 27  2  0
 26  1  1  0
  3 28  1  0
  4 29  1  0
  1  2  1  0
  2 30  2  0
 30 31  1  0
  3  4  2  0
 31 32  2  0
  4  5  1  0
 32 33  1  0
  5  6  2  0
 33 34  2  0
 34  2  1  0
  6  7  1  0
 11 35  1  0
 35 26  1  0
M  END