
  SciTegic01091216402D

 69 71  0  0  0  0            999 V2000
    2.2263   -8.4474    0.0000 Na  0  3
    7.5662   -8.7689    0.0000 O   0  0
    3.2424  -11.1954    0.0000 C   0  0  2  0  0  0
    3.9526  -11.6130    0.0000 C   0  0  2  0  0  0
    4.6675  -11.2126    0.0000 C   0  0  1  0  0  0
    4.6784  -10.3888    0.0000 O   0  0
    3.9682   -9.9671    0.0000 C   0  0  1  0  0  0
    3.2471  -10.3733    0.0000 C   0  0  2  0  0  0
    2.5331   -9.9507    0.0000 O   0  0
    3.9776   -9.1391    0.0000 C   0  0
    3.2647   -8.7189    0.0000 O   0  0
    5.3761  -11.6330    0.0000 O   0  0
    2.5215  -11.6017    0.0000 O   0  0
    3.9440  -12.4411    0.0000 O   0  0
    0.3912  -11.1981    0.0000 C   0  0  1  0  0  0
    0.3912  -12.0262    0.0000 C   0  0  1  0  0  0
    1.1065  -12.4340    0.0000 C   0  0  2  0  0  0
    1.8217  -12.0262    0.0000 C   0  0
    1.8208  -11.1958    0.0000 C   0  0  2  0  0  0
    1.1065  -10.7778    0.0000 O   0  0
    1.8188  -10.3671    0.0000 C   0  0
    1.1001   -9.9527    0.0000 O   0  0
    1.1065  -13.2622    0.0000 O   0  0
   -0.3218  -12.4392    0.0000 N   0  0
   -0.3236  -10.7840    0.0000 C   0  0  1  0  0  0
   -0.3260   -9.9560    0.0000 C   0  0  1  0  0  0
   -0.3206  -13.2674    0.0000 C   0  0
   -1.0377  -13.6845    0.0000 C   0  0
    0.3936  -13.6824    0.0000 O   0  0
   -1.0401  -11.2023    0.0000 O   0  0
    0.3870  -10.3700    0.0000 H   0  0
   -1.0450   -9.5461    0.0000 C   0  0
    0.3863   -9.5419    0.0000 O   0  0
   -1.0474   -8.7180    0.0000 N   0  0
    1.8144   -9.5377    0.0000 O   0  5
    6.0987  -11.2295    0.0000 C   0  0  2  0  0  0
    6.8079  -11.6530    0.0000 C   0  0  2  0  0  0
    7.5282  -11.2530    0.0000 C   0  0  2  0  0  0
    7.5422  -10.4247    0.0000 O   0  0
    6.8296   -9.9980    0.0000 C   0  0  1  0  0  0
    6.1031  -10.4036    0.0000 C   0  0  2  0  0  0
    6.0922  -12.0553    0.0000 H   0  0
    5.3898   -9.9799    0.0000 O   0  0
    6.8422   -9.1699    0.0000 C   0  0
    8.2394  -11.6761    0.0000 O   0  0
    6.7948  -12.4811    0.0000 N   0  0
   -1.7621   -8.3081    0.0000 C   0  0
   -1.7645   -7.4842    0.0000 O   0  0
   -2.4744   -8.7222    0.0000 C   0  0
   -3.1900   -8.3116    0.0000 C   0  0
   -3.9019   -8.7250    0.0000 C   0  0
   -3.8999   -9.5498    0.0000 C   0  0
   -3.1801   -9.9595    0.0000 C   0  0
   -2.4712   -9.5437    0.0000 C   0  0
    7.5018  -12.9041    0.0000 C   0  0
    7.4888  -13.7280    0.0000 C   0  0
    8.2217  -12.5034    0.0000 O   0  0
    8.9583  -11.2735    0.0000 C   0  0  1  0  0  0
    9.6664  -11.6948    0.0000 C   0  0  2  0  0  0
    8.9690  -10.4496    0.0000 C   0  0
    9.6556  -12.5186    0.0000 N   0  0
   10.3853  -11.2921    0.0000 C   0  0
   11.0933  -11.7133    0.0000 O   0  0
   10.3960  -10.4682    0.0000 O   0  0
   11.8122  -11.3108    0.0000 C   0  0
   10.3637  -12.9399    0.0000 C   0  0
   10.3530  -13.7637    0.0000 C   0  0
   11.0826  -12.5373    0.0000 O   0  0
   -4.6118   -9.9648    0.0000 Cl  0  0
  7 10  1  1
 21 35  1  0
 15 20  1  0
 36 12  1  0
 36 37  1  0
 16 17  1  0
 17 18  1  0
 18 19  1  0
 19 20  1  0
 36 41  1  0
 37 38  1  0
 38 39  1  0
 39 40  1  0
 40 41  1  0
 19 21  1  1
 36 42  1  6
 10 11  1  0
 41 43  1  1
 21 22  2  0
 40 44  1  1
 44  2  1  0
  3  8  1  0
 38 45  1  6
 17 23  1  6
 37 46  1  6
  5 12  1  1
 34 47  1  0
 16 24  1  1
 47 48  2  0
  4  5  1  0
 47 49  1  0
 15 25  1  0
 49 50  2  0
  3 13  1  1
 50 51  1  0
 25 26  1  0
 51 52  2  0
  5  6  1  0
 52 53  1  0
 24 27  1  0
 53 54  2  0
 54 49  1  0
  4 14  1  6
 46 55  1  0
 27 28  1  0
 55 56  1  0
 15 16  1  0
 55 57  2  0
 27 29  2  0
 45 58  1  0
  6  7  1  0
 58 59  1  0
 25 30  1  6
 58 60  1  6
  7  8  1  0
 59 61  1  1
 15 31  1  1
 59 62  1  0
  3  4  1  0
 62 63  1  0
 26 32  1  0
 62 64  2  0
  8  9  1  1
 63 65  1  0
 26 33  1  1
 61 66  1  0
 66 67  1  0
 32 34  1  0
 66 68  2  0
 19 13  1  0
 52 69  1  0
M  CHG  2   1   1  35  -1
M  END