
          11280715232D 1   1.00000     0.00000     0

 37 42  0     0  0            999 V2000
    3.5042   -2.3167    0.0000 N   0  0  3  0  0  0           0  0  0
    3.0375   -2.9542    0.0000 C   0  0  0  0  0  0           0  0  0
    3.0375   -1.6917    0.0000 C   0  0  0  0  0  0           0  0  0
    2.2875   -1.9292    0.0000 C   0  0  3  0  0  0           0  0  0
    2.2875   -2.7167    0.0000 C   0  0  3  0  0  0           0  0  0
    3.2792   -3.7042    0.0000 C   0  0  0  0  0  0           0  0  0
    7.6917   -2.7417    0.0000 C   0  0  0  0  0  0           0  0  0
    7.3167   -1.5417    0.0000 N   0  0  0  0  0  0           0  0  0
    7.0667   -2.2792    0.0000 N   0  0  0  0  0  0           0  0  0
    8.0917   -1.5542    0.0000 N   0  0  0  0  0  0           0  0  0
    8.3250   -2.2917    0.0000 N   0  0  0  0  0  0           0  0  0
    7.6917   -3.5167    0.0000 C   0  0  0  0  0  0           0  0  0
    7.0125   -3.8875    0.0000 C   0  0  0  0  0  0           0  0  0
    2.7417   -4.2875    0.0000 C   0  0  0  0  0  0           0  0  0
    0.9292   -2.7167    0.0000 C   0  0  0  0  0  0           0  0  0
    0.9292   -1.9292    0.0000 C   0  0  0  0  0  0           0  0  0
    4.2917   -2.3167    0.0000 C   0  0  0  0  0  0           0  0  0
    3.2792   -0.9417    0.0000 O   0  0  0  0  0  0           0  0  0
    1.6042   -1.5417    0.0000 C   0  0  3  0  0  0           0  0  0
    1.6042   -3.1125    0.0000 C   0  0  3  0  0  0           0  0  0
    6.3292   -3.5042    0.0000 C   0  0  0  0  0  0           0  0  0
    3.0042   -5.0500    0.0000 O   0  0  0  0  0  0           0  0  0
    5.6542   -3.8875    0.0000 C   0  0  0  0  0  0           0  0  0
    6.3292   -2.7167    0.0000 C   0  0  0  0  0  0           0  0  0
    4.9750   -2.7167    0.0000 C   0  0  0  0  0  0           0  0  0
    1.9875   -4.1292    0.0000 O   0  0  0  0  0  0           0  0  0
    5.6542   -2.3167    0.0000 C   0  0  0  0  0  0           0  0  0
    4.9750   -3.5042    0.0000 C   0  0  0  0  0  0           0  0  0
    8.3667   -3.9000    0.0000 C   0  0  0  0  0  0           0  0  0
    7.0125   -4.6875    0.0000 C   0  0  0  0  0  0           0  0  0
    1.2417   -2.1750    0.0000 C   0  0  0  0  0  0           0  0  0
    1.8125   -2.5625    0.0000 C   0  0  0  0  0  0           0  0  0
    2.0667   -2.1750    0.0000 C   0  0  0  0  0  0           0  0  0
    1.4542   -4.7250    0.0000 C   0  0  0  0  0  0           0  0  0
    8.3542   -4.6875    0.0000 C   0  0  0  0  0  0           0  0  0
    7.6750   -5.0667    0.0000 C   0  0  0  0  0  0           0  0  0
    0.6917   -4.5625    0.0000 C   0  0  0  0  0  0           0  0  0
  2  1  1  0     0  0
  3  1  1  0     0  0
  4  3  1  0     0  0
  5  2  1  0     0  0
  6  2  2  0     0  0
  7 12  1  0     0  0
  8  9  2  0     0  0
  9  7  1  0     0  0
 10 11  1  0     0  0
 11  7  2  0     0  0
 12 13  2  0     0  0
 13 21  1  0     0  0
 14  6  1  0     0  0
 15 20  1  0     0  0
 16 19  1  0     0  0
 17  1  1  0     0  0
 18  3  2  0     0  0
 19  4  1  0     0  0
 20  5  1  0     0  0
 21 23  2  0     0  0
 22 14  2  0     0  0
 23 28  1  0     0  0
 24 27  2  0     0  0
 25 17  1  0     0  0
 26 14  1  0     0  0
 27 25  1  0     0  0
 28 25  2  0     0  0
 29 12  1  0     0  0
 30 13  1  0     0  0
 31 33  1  0     0  0
 32 20  1  0     0  0
 33 19  1  0     0  0
 34 26  1  0     0  0
 35 36  1  0     0  0
 36 30  2  0     0  0
 37 34  1  0     0  0
  5  4  1  0     0  0
 21 24  1  0     0  0
 16 15  2  0     0  0
 32 31  1  0     0  0
 35 29  2  0     0  0
  8 10  1  0     0  0
M  END