
  SciTegic06271217572D

 20 21  0  0  0  0            999 V2000
    8.9958  -20.9000    0.0000 O   0  0
    9.8208  -20.9000    0.0000 S   0  0
    9.4083  -20.1855    0.0000 O   0  0
    7.6861  -22.1458    0.0000 C   0  0
    7.6849  -22.9732    0.0000 C   0  0
    8.3997  -23.3860    0.0000 N   0  0
    9.1162  -22.9727    0.0000 C   0  0
    9.1133  -22.1422    0.0000 C   0  0
    8.3979  -21.7330    0.0000 N   0  0
    6.9715  -21.7335    0.0000 Cl  0  0
    6.9701  -23.3851    0.0000 Cl  0  0
    9.8313  -23.3841    0.0000 O   0  0
   10.5451  -22.9704    0.0000 C   0  0
    9.8262  -21.7270    0.0000 N   0  0
   10.5351  -20.4873    0.0000 C   0  0
   11.1875  -20.9874    0.0000 C   0  0
   11.8693  -20.5228    0.0000 C   0  0
   11.6382  -19.7308    0.0000 C   0  0
   10.8136  -19.7060    0.0000 S   0  0
   12.1430  -19.0783    0.0000 Cl  0  0
  5  6  1  0
  5 11  1  0
  7 12  1  0
  6  7  2  0
 12 13  1  0
  2  1  2  0
  8 14  1  0
 14  2  1  0
  7  8  1  0
  2 15  1  0
 15 16  2  0
  4  5  2  0
  8  9  2  0
  9  4  1  0
  3  2  2  0
 16 17  1  0
 17 18  2  0
 18 19  1  0
 19 15  1  0
  4 10  1  0
 18 20  1  0
M  END