
  SciTegic01111613442D

 50 53  0  0  0  0            999 V2000
   -7.6913    6.1464    0.0000 N   0  0
   -5.1920    1.5249    0.0000 C   0  0
   -7.2212    7.5708    0.0000 C   0  0
   -3.8946    0.7703    0.0000 N   0  0
   -2.6010   -1.4850    0.0000 C   0  0
   -6.4817    5.2810    0.0000 C   0  0
   -5.7213    7.5640    0.0000 S   0  0
   -3.8984   -0.7305    0.0000 C   0  0  2  0  0  0
    3.9044   -0.7576    0.0000 C   0  0
   -5.1882    3.0257    0.0000 N   0  0
   -2.6048   -2.9858    0.0000 N   0  0
    4.4757    5.2776    0.0000 N   0  0
    2.6018   -1.5031    0.0000 N   0  0
    5.2203    2.9895    0.0000 C   0  0
   -5.2643    6.1353    0.0000 C   0  0
    2.5951   -3.0039    0.0000 C   0  0  2  0  0  0
    6.4358    3.8464    0.0000 S   0  0
    5.9757    5.2741    0.0000 C   0  0
   -6.4855    3.7802    0.0000 C   0  0
   -0.0048   -2.9949    0.0000 C   0  0
   -1.3074   -3.7403    0.0000 C   0  0  2  0  0  0
    4.0088    3.8522    0.0000 C   0  0
    1.2925   -3.7494    0.0000 C   0  0  2  0  0  0
   -6.2329    0.9278    0.0000 O   0  0
   -1.5601   -0.8880    0.0000 O   0  0
    4.9411   -1.3619    0.0000 O   0  0
    3.8902   -3.7623    0.0000 C   0  0
    3.9110    0.7432    0.0000 O   0  0
   -8.0938    8.7888    0.0000 C   0  0
    5.2136    1.4886    0.0000 C   0  0
   -1.3157   -5.2412    0.0000 C   0  0
   -5.2018   -1.4745    0.0000 C   0  0
    3.8819   -5.2632    0.0000 C   0  0
    1.2884   -4.9494    0.0000 O   0  0
   -2.6192   -5.9852    0.0000 C   0  0
   -4.1472    3.6227    0.0000 C   0  0
   -7.5991    9.8821    0.0000 C   0  0
   -9.2880    8.6709    0.0000 C   0  0
   -6.2385   -0.8701    0.0000 C   0  0
   -5.2073   -2.6745    0.0000 C   0  0
    5.1752   -6.0230    0.0000 C   0  0
    2.5772   -6.0033    0.0000 C   0  0
   -2.6297   -7.4852    0.0000 C   0  0
   -3.9131   -5.2262    0.0000 C   0  0
   -5.2173   -5.9672    0.0000 C   0  0
    5.1638   -7.5230    0.0000 C   0  0
    2.5658   -7.5032    0.0000 C   0  0
   -3.9339   -8.2261    0.0000 C   0  0
   -5.2277   -7.4672    0.0000 C   0  0
    3.8591   -8.2631    0.0000 C   0  0
  2 10  1  0
  3  1  2  0
  4  2  1  0
  5  8  1  0
  6  1  1  0
  7  3  1  0
  8  4  1  6
  9 13  1  0
 10 19  1  0
 11  5  1  0
 12 22  1  0
 13 16  1  0
 14 30  1  0
 15  6  2  0
 16 23  1  0
 17 14  1  0
 18 17  1  0
 19  6  1  0
 20 21  1  0
 21 11  1  6
 22 14  2  0
 23 20  1  0
 24  2  2  0
 25  5  2  0
 26  9  2  0
 16 27  1  1
 28  9  1  0
 29  3  1  0
 30 28  1  0
 31 21  1  0
 32  8  1  0
 33 27  1  0
 23 34  1  1
 35 31  1  0
 36 10  1  0
 37 29  1  0
 38 29  1  0
 39 32  1  0
 40 32  1  0
 41 33  1  0
 42 33  2  0
 43 35  2  0
 44 35  1  0
 45 44  2  0
 46 41  2  0
 47 42  1  0
 48 43  1  0
 49 45  1  0
 50 47  2  0
  7 15  1  0
 48 49  2  0
 46 50  1  0
 18 12  2  0
M  END