
          11280714582D 1   1.00000     0.00000     0

 28 31  0     0  0            999 V2000
    5.5375   -4.0500    0.0000 C   0  0  0  0  0  0           0  0  0
    6.2375   -2.8042    0.0000 C   0  0  0  0  0  0           0  0  0
    6.2542   -4.4542    0.0000 O   0  0  0  0  0  0           0  0  0
    6.9667   -4.0375    0.0000 C   0  0  0  0  0  0           0  0  0
    5.5292   -3.2250    0.0000 C   0  0  0  0  0  0           0  0  0
   -0.8833   -5.3292    0.0000 N   0  0  3  0  0  0           0  0  0
    6.9542   -3.2042    0.0000 C   0  0  0  0  0  0           0  0  0
   -1.5875   -5.7542    0.0000 C   0  0  0  0  0  0           0  0  0
    4.8292   -4.4667    0.0000 C   0  0  0  0  0  0           0  0  0
    0.5417   -4.5000    0.0000 N   0  0  3  0  0  0           0  0  0
    4.8042   -2.8167    0.0000 C   0  0  0  0  0  0           0  0  0
   -2.3083   -5.3375    0.0000 N   0  0  0  0  0  0           0  0  0
   -0.8833   -4.5042    0.0000 C   0  0  0  0  0  0           0  0  0
   -0.1583   -5.7375    0.0000 C   0  0  0  0  0  0           0  0  0
    7.6792   -4.4417    0.0000 O   0  0  0  0  0  0           0  0  0
   -0.1708   -4.0917    0.0000 C   0  0  0  0  0  0           0  0  0
    0.5500   -5.3167    0.0000 C   0  0  0  0  0  0           0  0  0
    4.1042   -4.0542    0.0000 C   0  0  0  0  0  0           0  0  0
    4.1042   -3.2375    0.0000 C   0  0  0  0  0  0           0  0  0
    6.2292   -1.9875    0.0000 C   0  0  0  0  0  0           0  0  0
    1.2500   -4.0792    0.0000 C   0  0  0  0  0  0           0  0  0
    1.9750   -4.4792    0.0000 C   0  0  0  0  0  0           0  0  0
    3.4042   -4.4792    0.0000 O   0  0  0  0  0  0           0  0  0
   -1.5833   -6.5667    0.0000 C   0  0  0  0  0  0           0  0  0
   -3.0208   -5.7542    0.0000 C   0  0  0  0  0  0           0  0  0
    2.6792   -4.0667    0.0000 C   0  0  0  0  0  0           0  0  0
   -2.2958   -6.9917    0.0000 C   0  0  0  0  0  0           0  0  0
   -3.0083   -6.5875    0.0000 C   0  0  0  0  0  0           0  0  0
  2  5  1  0     0  0
  3  1  1  0     0  0
  4  3  1  0     0  0
  5  1  2  0     0  0
  6 14  1  0     0  0
  7  2  2  0     0  0
  8  6  1  0     0  0
  9  1  1  0     0  0
 10 21  1  0     0  0
 11  5  1  0     0  0
 12  8  2  0     0  0
 13 16  1  0     0  0
 14 17  1  0     0  0
 15  4  2  0     0  0
 16 10  1  0     0  0
 17 10  1  0     0  0
 18  9  2  0     0  0
 19 18  1  0     0  0
 20  2  1  0     0  0
 21 22  1  0     0  0
 22 26  1  0     0  0
 23 18  1  0     0  0
 24  8  1  0     0  0
 25 12  1  0     0  0
 26 23  1  0     0  0
 27 24  2  0     0  0
 28 27  1  0     0  0
 11 19  2  0     0  0
  4  7  1  0     0  0
 13  6  1  0     0  0
 25 28  2  0     0  0
M  END