
          11280714452D 1   1.00000     0.00000     0

 28 30  0     0  0            999 V2000
    4.4250   -4.8542    0.0000 N   0  0  3  0  0  0           0  0  0
    4.9042   -4.5042    0.0000 C   0  0  0  0  0  0           0  0  0
    4.1167   -3.9292    0.0000 N   0  0  0  0  0  0           0  0  0
    4.7167   -3.9292    0.0000 C   0  0  0  0  0  0           0  0  0
    3.9375   -4.5042    0.0000 C   0  0  0  0  0  0           0  0  0
    6.5000   -7.2542    0.0000 C   0  0  0  0  0  0           0  0  0
    6.5042   -6.6542    0.0000 C   0  0  0  0  0  0           0  0  0
    5.9792   -7.5542    0.0000 C   0  0  0  0  0  0           0  0  0
    4.4250   -5.4542    0.0000 C   0  0  0  0  0  0           0  0  0
    5.9792   -6.3542    0.0000 C   0  0  0  0  0  0           0  0  0
    5.0750   -3.4500    0.0000 Cl  0  0  0  0  0  0           0  0  0
    5.4542   -7.2542    0.0000 O   0  0  0  0  0  0           0  0  0
    5.4792   -4.6875    0.0000 C   0  0  0  0  0  0           0  0  0
    5.4542   -6.6542    0.0000 C   0  0  0  0  0  0           0  0  0
    5.9792   -5.7542    0.0000 C   0  0  0  0  0  0           0  0  0
    4.9417   -5.7542    0.0000 C   0  0  0  0  0  0           0  0  0
    5.9792   -8.1542    0.0000 O   0  0  0  0  0  0           0  0  0
    3.3667   -4.6875    0.0000 C   0  0  0  0  0  0           0  0  0
    4.9417   -6.3542    0.0000 C   0  0  0  0  0  0           0  0  0
    5.4542   -5.4542    0.0000 C   0  0  0  0  0  0           0  0  0
    7.0167   -7.5542    0.0000 C   0  0  0  0  0  0           0  0  0
    5.9250   -4.2875    0.0000 O   0  0  0  0  0  0           0  0  0
    7.0167   -6.3542    0.0000 C   0  0  0  0  0  0           0  0  0
    2.9167   -4.2875    0.0000 C   0  0  0  0  0  0           0  0  0
    2.3500   -4.4667    0.0000 C   0  0  0  0  0  0           0  0  0
    7.5375   -7.2542    0.0000 C   0  0  0  0  0  0           0  0  0
    7.5375   -6.6500    0.0000 C   0  0  0  0  0  0           0  0  0
    1.9042   -4.0667    0.0000 C   0  0  0  0  0  0           0  0  0
  2  1  1  0     0  0
  3  5  2  0     0  0
  4  2  2  0     0  0
  5  1  1  0     0  0
  6  7  2  0     0  0
  7 10  1  0     0  0
  8  6  1  0     0  0
  9  1  1  0     0  0
 10 15  1  0     0  0
 11  4  1  0     0  0
 12  8  2  0     0  0
 13  2  1  0     0  0
 14 19  1  0     0  0
 15 20  2  0     0  0
 16  9  1  0     0  0
 17  8  1  0     0  0
 18  5  1  0     0  0
 19 16  2  0     0  0
 20 16  1  0     0  0
 21  6  1  0     0  0
 22 13  1  0     0  0
 23  7  1  0     0  0
 24 18  1  0     0  0
 25 24  1  0     0  0
 26 27  1  0     0  0
 27 23  2  0     0  0
 28 25  1  0     0  0
  3  4  1  0     0  0
 10 14  2  0     0  0
 26 21  2  0     0  0
M  END