
  SciTegic02271515072D

 28 31  0  0  0  0            999 V2000
    4.3446  -16.7648    0.0000 C   0  0
    4.3434  -17.5843    0.0000 C   0  0
    5.0515  -17.9933    0.0000 N   0  0
    5.0497  -16.3559    0.0000 C   0  0
    5.7583  -16.7612    0.0000 C   0  0
    5.7585  -17.5843    0.0000 C   0  0
    6.5415  -17.8385    0.0000 S   0  0
    7.0252  -17.1724    0.0000 N   0  0
    6.5411  -16.5066    0.0000 C   0  0
    6.2464  -15.1222    0.0000 C   0  0
    5.4471  -15.2924    0.0000 O   0  0
    3.6408  -16.3521    0.0000 C   0  0
    3.6495  -15.5353    0.0000 C   0  0
    2.9466  -15.1227    0.0000 C   0  0
    2.2363  -15.5259    0.0000 C   0  0
    2.2335  -16.3460    0.0000 C   0  0
    2.9370  -16.7549    0.0000 C   0  0
    1.5308  -15.1136    0.0000 O   0  0
    1.5244  -16.7524    0.0000 O   0  0
    0.8180  -16.3415    0.0000 C   0  0
    0.8209  -15.5183    0.0000 C   0  0
    6.8629  -15.7094    0.0000 N   0  0
    6.4715  -14.2761    0.0000 C   0  0
    7.3184  -14.0497    0.0000 C   0  0
    7.5445  -13.2078    0.0000 C   0  0
    6.9272  -12.5863    0.0000 N   0  0
    6.0804  -12.8127    0.0000 C   0  0
    5.8508  -13.6605    0.0000 C   0  0
  1  2  2  0
  2  3  1  0
  3  6  2  0
  5  4  2  0
  4  1  1  0
  5  6  1  0
  6  7  1  0
  7  8  1  0
  8  9  2  0
  9  5  1  0
  9 22  1  0
 22 10  1  0
 23 10  1  0
 10 11  2  0
  1 12  1  0
 12 13  2  0
 13 14  1  0
 14 15  2  0
 15 16  1  0
 16 17  2  0
 17 12  1  0
 15 18  1  0
 16 19  1  0
 19 20  1  0
 18 21  1  0
 23 24  1  0
 23 28  1  0
 24 25  1  0
 25 26  1  0
 26 27  1  0
 27 28  1  0
M  END