
  SciTegic01091216402D

 29 33  0  0  0  0            999 V2000
   -4.3514  -21.9583    0.0000 N   0  0
   -4.3526  -22.7857    0.0000 C   0  0
   -3.6378  -23.1985    0.0000 N   0  0
   -3.6396  -21.5455    0.0000 C   0  0
   -2.9242  -21.9547    0.0000 C   0  0
   -2.9239  -22.7857    0.0000 C   0  0
   -2.1335  -23.0423    0.0000 N   0  0
   -1.6451  -22.3698    0.0000 C   0  0
   -2.1339  -21.6977    0.0000 N   0  0
   -5.0674  -23.1976    0.0000 C   0  0
   -3.6420  -20.7205    0.0000 N   0  0
   -4.3577  -20.3102    0.0000 C   0  0
   -4.3602  -19.4852    0.0000 C   0  0
   -5.0710  -20.7248    0.0000 C   0  0
   -3.9486  -18.7769    0.0000 C   0  0
   -4.7746  -18.7753    0.0000 C   0  0
   -5.8961  -20.7270    0.0000 C   0  0
   -5.4815  -21.4403    0.0000 C   0  0
   -1.7092  -23.7490    0.0000 C   0  0
   -2.1127  -24.4677    0.0000 C   0  0
   -1.6892  -25.1748    0.0000 C   0  0
   -0.8634  -25.1617    0.0000 C   0  0
   -0.4630  -24.4355    0.0000 C   0  0
   -0.8888  -23.7314    0.0000 C   0  0
   -0.8201  -22.3695    0.0000 C   0  0
   -0.4383  -25.8687    0.0000 O   0  0
   -0.8380  -26.5904    0.0000 C   0  0
   -0.4129  -27.2974    0.0000 F   0  0
   -1.6629  -26.6051    0.0000 F   0  0
 12 14  1  0
 15 13  1  0
 16 15  1  0
 13 16  1  0
  1  2  2  0
  5  4  2  0
 17 14  1  0
 18 17  1  0
 14 18  1  0
  6  7  1  0
  7  8  1  0
  8  9  2  0
  7 19  1  0
  9  5  1  0
 19 20  2  0
  4  1  1  0
 20 21  1  0
  2 10  1  0
 21 22  2  0
  5  6  1  0
 22 23  1  0
  4 11  1  0
 23 24  2  0
 24 19  1  0
  8 25  1  0
 11 12  1  0
 22 26  1  0
  2  3  1  0
 26 27  1  0
 12 13  1  0
 27 28  1  0
  3  6  2  0
 27 29  1  0
M  END