
  SciTegic12171313032D

 26 28  0  0  0  0            999 V2000
   24.0479  -12.9677    0.0000 C   0  0
   24.0468  -13.7873    0.0000 C   0  0
   24.7548  -14.1962    0.0000 N   0  0
   25.4645  -13.7868    0.0000 C   0  0
   25.4617  -12.9641    0.0000 C   0  0
   24.7531  -12.5589    0.0000 N   0  0
   26.1729  -14.1943    0.0000 N   0  0
   26.1678  -12.5529    0.0000 N   0  0
   26.1648  -11.7357    0.0000 C   0  0  1  0  0  0
   26.8709  -11.3244    0.0000 C   0  0
   25.4555  -11.3297    0.0000 C   0  0
   27.5754  -11.7339    0.0000 C   0  0
   28.2811  -11.3233    0.0000 C   0  0
   28.2785  -10.5052    0.0000 C   0  0
   27.5643  -10.0995    0.0000 C   0  0
   26.8615  -10.5124    0.0000 C   0  0
   23.3422  -12.5595    0.0000 C   0  0
   23.3434  -11.7412    0.0000 C   0  0
   22.6364  -11.3328    0.0000 C   0  0
   21.9278  -11.7416    0.0000 C   0  0
   21.9306  -12.5631    0.0000 C   0  0
   22.6382  -12.9677    0.0000 C   0  0
   21.2225  -12.9721    0.0000 C   0  0
   20.5133  -12.5662    0.0000 O   0  0
   21.2256  -13.7893    0.0000 O   0  0
   24.0514  -11.3331    0.0000 C   0  0
  1  2  2  0
  2  3  1  0
  3  4  2  0
  4  5  1  0
  5  6  2  0
  6  1  1  0
  4  7  1  0
  5  8  1  0
  8  9  1  0
  9 10  1  0
  9 11  1  6
 10 12  2  0
 12 13  1  0
 13 14  2  0
 14 15  1  0
 15 16  2  0
 16 10  1  0
 17 18  2  0
 18 19  1  0
 19 20  2  0
 20 21  1  0
 21 22  2  0
 22 17  1  0
  1 17  1  0
 23 24  1  0
 23 25  2  0
 21 23  1  0
 18 26  1  0
M  END