


 19 20  0     0  0  0  0  0  0999 V2000
    8.5509    2.2928    0.0000 I   0  5  0  0  0  0  0  0  0  0  0  0
    1.7138    1.2033    0.0000 N   0  0  0  0  0  0  0  0  0  0  0  0
    1.7138   -1.2033    0.0000 N   0  3  0  0  0  0  0  0  0  0  0  0
    2.1812    2.6271    0.0000 N   0  0  0  0  0  0  0  0  0  0  0  0
    0.2917    0.7475    0.0000 C   0  0  0  0  0  0  0  0  0  0  0  0
    0.2917   -0.7475    0.0000 C   0  0  0  0  0  0  0  0  0  0  0  0
    2.5889    0.0182    0.0000 C   0  0  0  0  0  0  0  0  0  0  0  0
   -1.0028    1.5132    0.0000 C   0  0  0  0  0  0  0  0  0  0  0  0
   -1.0028   -1.5132    0.0000 C   0  0  0  0  0  0  0  0  0  0  0  0
   -2.3155    0.7475    0.0000 C   0  0  0  0  0  0  0  0  0  0  0  0
   -2.3155   -0.7475    0.0000 C   0  0  0  0  0  0  0  0  0  0  0  0
    3.6500    2.9355    0.0000 C   0  0  0  0  0  0  0  0  0  0  0  0
    2.0907   -2.3426    0.0000 C   0  0  0  0  0  0  0  0  0  0  0  0
    4.1182    4.3614    0.0000 C   0  0  0  0  0  0  0  0  0  0  0  0
    5.5858    4.6718    0.0000 C   0  0  0  0  0  0  0  0  0  0  0  0
    3.1158    5.4773    0.0000 C   0  0  0  0  0  0  0  0  0  0  0  0
    6.0509    6.0979    0.0000 C   0  0  0  0  0  0  0  0  0  0  0  0
    3.5808    6.9034    0.0000 C   0  0  0  0  0  0  0  0  0  0  0  0
    5.0484    7.2137    0.0000 C   0  0  0  0  0  0  0  0  0  0  0  0
  2  4  1  0  0  0  0
  2  5  1  0  0  0  0
  2  7  1  0  0  0  0
  3  6  1  0  0  0  0
  3  7  2  0  0  0  0
  3 13  1  0  0  0  0
  4 12  2  0  0  0  0
  5  6  1  0  0  0  0
  5  8  2  0  0  0  0
  6  9  2  0  0  0  0
  8 10  1  0  0  0  0
  9 11  1  0  0  0  0
 10 11  2  0  0  0  0
 12 14  1  0  0  0  0
 14 15  2  0  0  0  0
 14 16  1  0  0  0  0
 15 17  1  0  0  0  0
 16 18  2  0  0  0  0
 17 19  2  0  0  0  0
 18 19  1  0  0  0  0
M  CHG  2   1  -1   3   1
M  END