
          11280715062D 1   1.00000     0.00000     0

 25 25  0     0  0            999 V2000
    2.4667   -4.4750    0.0000 C   0  0  0  0  0  0           0  0  0
    1.7667   -4.9125    0.0000 C   0  0  0  0  0  0           0  0  0
    3.2042   -4.8542    0.0000 C   0  0  0  0  0  0           0  0  0
    5.3375   -4.3542    0.0000 C   0  0  0  0  0  0           0  0  0
    4.6375   -4.7917    0.0000 C   0  0  0  0  0  0           0  0  0
    3.9042   -4.4125    0.0000 C   0  0  0  0  0  0           0  0  0
    5.3000   -3.5292    0.0000 C   0  0  0  0  0  0           0  0  0
    1.0292   -4.5375    0.0000 C   0  0  0  0  0  0           0  0  0
    4.7542   -2.9042    0.0000 C   0  0  0  0  0  0           0  0  0
    6.7667   -4.2917    0.0000 C   0  0  0  0  0  0           0  0  0
    6.0667   -4.7375    0.0000 C   0  0  0  0  0  0           0  0  0
    3.9500   -3.0667    0.0000 O   0  0  0  0  0  0           0  0  0
    1.8042   -5.7417    0.0000 C   0  0  3  0  0  0           0  0  0
    7.5042   -4.6792    0.0000 C   0  0  0  0  0  0           0  0  0
    2.4292   -3.6417    0.0000 C   0  0  0  0  0  0           0  0  0
    5.0250   -2.1292    0.0000 O   0  0  0  0  0  0           0  0  0
    0.9917   -3.7042    0.0000 C   0  0  0  0  0  0           0  0  0
    0.3292   -4.9792    0.0000 C   0  0  0  0  0  0           0  0  0
    1.6917   -3.2542    0.0000 C   0  0  0  0  0  0           0  0  0
    3.8667   -3.5792    0.0000 C   0  0  0  0  0  0           0  0  0
    6.7375   -3.4625    0.0000 C   0  0  0  0  0  0           0  0  0
    8.2042   -4.2375    0.0000 C   0  0  0  0  0  0           0  0  0
    1.1042   -6.1917    0.0000 C   0  0  0  0  0  0           0  0  0
    2.5417   -6.1250    0.0000 C   0  0  0  0  0  0           0  0  0
    0.3667   -5.8125    0.0000 C   0  0  0  0  0  0           0  0  0
  2  1  1  0     0  0
  3  1  2  0     0  0
  4  5  1  0     0  0
  5  6  2  0     0  0
  6  3  1  0     0  0
  7  4  2  0     0  0
  8  2  2  0     0  0
  9  7  1  0     0  0
 10 11  1  0     0  0
 11  4  1  0     0  0
 12  9  2  0     0  0
 13  2  1  0     0  0
 14 10  2  0     0  0
 15  1  1  0     0  0
 16  9  1  0     0  0
 17 19  1  0     0  0
 18  8  1  0     0  0
 19 15  1  0     0  0
 20  6  1  0     0  0
 21 10  1  0     0  0
 22 14  1  0     0  0
 23 13  1  0     0  0
 24 13  1  0     0  0
 25 18  1  0     0  0
  8 17  1  0     0  0
M  END