
  SciTegic09081514182D

 52 55  0  0  0  0            999 V2000
   -4.7975   -5.0182    0.0000 N   0  0
   -4.0883   -5.9862    0.0000 C   0  0  2  0  0  0
   -2.5964   -5.8229    0.0000 C   0  0
   -1.9910   -4.4496    0.0000 N   0  0
   -0.4991   -4.2863    0.0000 C   0  0  1  0  0  0
    0.1063   -2.9130    0.0000 C   0  0
    1.5983   -2.7497    0.0000 N   0  0
   -4.6937   -7.3595    0.0000 C   0  0
   -6.1856   -7.5228    0.0000 C   0  0
   -6.7927   -8.8945    0.0000 C   0  0
   -8.2841   -9.0546    0.0000 C   0  0
   -9.1686   -7.8431    0.0000 C   0  0
   -8.5616   -6.4714    0.0000 C   0  0
   -7.0701   -6.3112    0.0000 C   0  0
   -6.5846   -5.2139    0.0000 C   0  0
   -6.0852   -9.8637    0.0000 C   0  0
  -10.3617   -7.9713    0.0000 O   0  0
   -1.8872   -6.7909    0.0000 O   0  0
    0.3904   -5.4951    0.0000 C   0  0
   -0.6029   -1.9450    0.0000 O   0  0
    1.8822   -5.3302    0.0000 C   0  0
    2.7716   -6.5390    0.0000 C   0  0
    4.2634   -6.3741    0.0000 N   0  0
    5.1529   -7.5829    0.0000 C   0  0
    6.3456   -7.4510    0.0000 N   0  0
    4.6711   -8.6819    0.0000 N   0  0
    2.9404    0.0000    0.0000 C   0  0
    2.2325   -1.4158    0.0000 C   0  0  2  0  0  0
    0.7442   -1.6517    0.0000 C   0  0
    2.2507    1.3976    0.0000 N   0  0
    0.7805    1.6880    0.0000 C   0  0
    0.0000   -0.7623    0.0000 C   0  0
    0.0000    0.7623    0.0000 C   0  0
   -1.4884    1.5247    0.0000 C   0  0
   -2.8315    0.7623    0.0000 C   0  0
   -2.8315   -0.7623    0.0000 C   0  0
   -1.4884   -1.5247    0.0000 C   0  0
    3.1470    2.6032    0.0000 C   0  0
    2.5523    3.9811    0.0000 C   0  0
    4.1404   -0.0031    0.0000 O   0  0
    3.2231   -1.2789    0.0000 H   0  0
    3.4475    5.1857    0.0000 C   0  0
    4.6394    5.0471    0.0000 O   0  0
    2.8527    6.5637    0.0000 N   0  0
    3.7479    7.7683    0.0000 C   0  0
    1.6608    6.7023    0.0000 C   0  0
    3.1532    9.1462    0.0000 C   0  0
    4.0461   10.3515    0.0000 C   0  0
    3.4489   11.7275    0.0000 C   0  0
    1.9586   11.8983    0.0000 C   0  0
    1.0656   10.6931    0.0000 C   0  0
    1.6628    9.3171    0.0000 C   0  0
  1  2  1  0
  2  3  1  0
  3  4  1  0
  4  5  1  0
  5  6  1  0
  6  7  1  0
  7 28  1  0
  2  8  1  6
  8  9  1  0
  9 10  2  0
 10 11  1  0
 11 12  2  0
 12 13  1  0
 13 14  2  0
 14  9  1  0
 14 15  1  0
 10 16  1  0
 12 17  1  0
  3 18  2  0
  5 19  1  1
  6 20  2  0
 19 21  1  0
 21 22  1  0
 22 23  1  0
 23 24  1  0
 24 25  2  0
 24 26  1  0
 27 28  1  0
 28 29  1  0
 27 30  1  0
 29 32  1  0
 30 31  1  0
 31 33  1  0
 32 33  2  0
 33 34  1  0
 34 35  2  0
 35 36  1  0
 36 37  2  0
 37 32  1  0
 30 38  1  0
 38 39  1  0
 27 40  2  0
 28 41  1  6
 39 42  1  0
 42 43  2  0
 42 44  1  0
 44 45  1  0
 44 46  1  0
 45 47  1  0
 47 48  2  0
 48 49  1  0
 49 50  2  0
 50 51  1  0
 51 52  2  0
 52 47  1  0
M  END