
  CDK    9/16/09,10:4

 21 23  0  0  0  0  0  0  0  0999 V2000
   -2.0061  -22.3923    0.0000 C   0  0  0  0  0  0  0  0  0  0  0  0
   -1.2925  -21.9802    0.0000 N   0  0  0  0  0  0  0  0  0  0  0  0
   -2.7198  -21.9802    0.0000 N   0  0  0  0  0  0  0  0  0  0  0  0
   -2.0061  -23.2164    0.0000 S   0  0  0  0  0  0  0  0  0  0  0  0
   -3.4336  -22.3923    0.0000 C   0  0  0  0  0  0  0  0  0  0  0  0
   -4.1467  -21.9770    0.0000 C   0  0  0  0  0  0  0  0  0  0  0  0
   -4.8599  -22.3884    0.0000 C   0  0  0  0  0  0  0  0  0  0  0  0
   -4.8603  -23.2134    0.0000 C   0  0  0  0  0  0  0  0  0  0  0  0
   -4.1416  -23.6253    0.0000 C   0  0  0  0  0  0  0  0  0  0  0  0
   -3.4314  -23.2116    0.0000 C   0  0  0  0  0  0  0  0  0  0  0  0
   -0.5788  -22.3923    0.0000 C   0  0  0  0  0  0  0  0  0  0  0  0
   -0.5813  -23.2174    0.0000 C   0  0  0  0  0  0  0  0  0  0  0  0
    0.1316  -23.6294    0.0000 C   0  0  0  0  0  0  0  0  0  0  0  0
    0.1302  -21.9807    0.0000 C   0  0  0  0  0  0  0  0  0  0  0  0
    0.8436  -22.3889    0.0000 C   0  0  0  0  0  0  0  0  0  0  0  0
    0.8472  -23.2158    0.0000 C   0  0  0  0  0  0  0  0  0  0  0  0
    1.6347  -23.4679    0.0000 C   0  0  0  0  0  0  0  0  0  0  0  0
    2.1179  -22.7967    0.0000 O   0  0  0  0  0  0  0  0  0  0  0  0
    1.6288  -22.1300    0.0000 C   0  0  0  0  0  0  0  0  0  0  0  0
    1.8800  -21.3451    0.0000 O   0  0  0  0  0  0  0  0  0  0  0  0
   -4.1387  -24.4494    0.0000 F   0  0  0  0  0  0  0  0  0  0  0  0
  1  3  1  0  0  0  0 
  2 11  1  0  0  0  0 
  5  6  2  0  0  0  0 
 11 12  2  0  0  0  0 
  1  2  1  0  0  0  0 
 12 13  1  0  0  0  0 
 13 16  2  0  0  0  0 
  6  7  1  0  0  0  0 
 15 14  2  0  0  0  0 
 14 11  1  0  0  0  0 
 15 16  1  0  0  0  0 
  1  4  2  0  0  0  0 
  7  8  2  0  0  0  0 
  8  9  1  0  0  0  0 
  3  5  1  0  0  0  0 
 16 17  1  0  0  0  0 
 17 18  1  0  0  0  0 
 18 19  1  0  0  0  0 
 19 15  1  0  0  0  0 
  9 10  2  0  0  0  0 
 19 20  2  0  0  0  0 
 10  5  1  0  0  0  0 
  9 21  1  0  0  0  0 
M  END