
  SciTegic07291412072D

 77 80  0  0  1  0            999 V2000
   14.3344   -1.7186    0.0000 N   0  0
   13.0459   -3.4804    0.0000 N   0  0
   13.6563   -2.1884    0.0000 C   0  0
   13.7241   -3.0106    0.0000 C   0  0  1  0  0  0
   14.3529   -0.8938    0.0000 C   0  0  2  0  0  0
   12.3000   -3.1281    0.0000 C   0  0
   13.6965   -0.3940    0.0000 C   0  0
   11.6218   -3.5979    0.0000 C   0  0  1  0  0  0
   15.1131   -1.9910    0.0000 C   0  0
   15.1431   -0.6565    0.0000 C   0  0
   -1.1951   -4.6550    0.0000 C   0  0
   12.9355   -0.7126    0.0000 N   0  0
   14.4700   -3.3630    0.0000 C   0  0
   -0.5170   -4.1852    0.0000 N   0  0
   13.1137   -4.3026    0.0000 C   0  0
   10.8759   -3.2455    0.0000 N   0  0
   15.6129   -1.3346    0.0000 C   0  0
   -4.8571   -3.7153    0.0000 C   0  0
   -0.9239   -7.9438    0.0000 C   0  0
    8.6833   -0.1690    0.0000 C   0  0
    0.9071   -4.0677    0.0000 C   0  0
   12.3837    0.6055    0.0000 C   0  0
   12.9103   -1.8360    0.0000 O   0  0
   10.1977   -3.7153    0.0000 C   0  0
   12.2791   -0.2128    0.0000 C   0  0  2  0  0  0
    0.2290   -4.5376    0.0000 C   0  0  2  0  0  0
   -1.6020   -8.4137    0.0000 N   0  0
   -4.1790   -3.2455    0.0000 N   0  0
    8.0269    0.3308    0.0000 N   0  0
   12.2322   -2.3058    0.0000 O   0  0
   14.5379   -4.1852    0.0000 C   0  0
   13.8011    0.4243    0.0000 O   0  0
   -1.1273   -5.4772    0.0000 O   0  0
   13.8597   -4.6550    0.0000 C   0  0
    0.8393   -3.2455    0.0000 O   0  0
   11.7273    1.1053    0.0000 O   0  0
   10.2655   -4.5376    0.0000 O   0  0
   -1.9411   -4.3026    0.0000 C   0  0  2  0  0  0
    9.4443    0.1496    0.0000 N   0  0
   -0.9917   -7.1216    0.0000 N   0  0
   -4.7893   -4.5376    0.0000 N   0  0
    1.6531   -4.4201    0.0000 N   0  0
   -0.1779   -8.2962    0.0000 N   0  0
    8.5787   -0.9873    0.0000 N   0  0
   -5.6031   -3.3630    0.0000 N   0  0
   13.1447    0.9241    0.0000 O   0  0
   11.6896   -4.4201    0.0000 C   0  0
   -2.0089   -3.4804    0.0000 N   0  0
   15.1482   -2.8931    0.0000 C   0  0
   15.4317   -2.7520    0.0000 C   0  0
   11.0115   -4.8899    0.0000 O   0  0
   16.4312   -1.4392    0.0000 C   0  0
    9.4518   -3.3630    0.0000 C   0  0
    0.2968   -5.3598    0.0000 C   0  0
   11.5181   -0.5314    0.0000 C   0  0
   15.2838   -4.5376    0.0000 C   0  0
   -0.3135   -6.6518    0.0000 C   0  0
   10.1007   -0.3502    0.0000 C   0  0
   -4.0433   -4.8899    0.0000 C   0  0
    2.3312   -3.9503    0.0000 C   0  0
   -2.6192   -4.7725    0.0000 C   0  0
   10.8617   -0.0316    0.0000 C   0  0
   -0.3814   -5.8296    0.0000 C   0  0
    8.7736   -3.8328    0.0000 C   0  0
   -3.3652   -4.4201    0.0000 C   0  0
    3.0772   -4.3026    0.0000 C   0  0
    4.5013   -4.1852    0.0000 C   0  0
    3.7553   -3.8328    0.0000 C   0  0
    5.1794   -3.7153    0.0000 C   0  0
    5.9254   -4.0677    0.0000 C   0  0
    6.6035   -3.5979    0.0000 C   0  0
    7.3495   -3.9503    0.0000 C   0  0
    8.0277   -3.4804    0.0000 C   0  0
   15.8941   -3.2455    0.0000 C   0  0
   16.2500   -2.8567    0.0000 C   0  0
   16.7498   -2.2003    0.0000 C   0  0
   15.9620   -4.0677    0.0000 C   0  0
  2  4  1  0
  3  1  1  0
  4  3  1  1
  5  1  1  0
  6  2  1  0
  5  7  1  6
  8  6  1  0
  9  1  1  0
 10  5  1  0
 11 14  1  0
 12  7  1  0
 13  4  1  0
 14 26  1  0
 15  2  1  0
 16  8  1  0
 17  9  1  0
 18 41  2  0
 19 40  1  0
 20 39  2  0
 21 42  1  0
 22 25  1  0
 23  3  2  0
 24 16  1  0
 25 12  1  0
 26 21  1  0
 27 19  1  0
 28 18  1  0
 29 20  1  0
 30  6  2  0
 31 13  2  0
 32  7  2  0
 33 11  2  0
 34 31  1  0
 35 21  2  0
 36 22  2  0
 37 24  2  0
 38 11  1  0
 39 58  1  0
 40 57  1  0
 41 59  1  0
 42 60  1  0
 43 19  2  0
 44 20  1  0
 45 18  1  0
 46 22  1  0
  8 47  1  6
 48 38  1  0
 49 13  1  0
 50  9  1  0
 51 47  1  0
 52 17  1  0
 53 24  1  0
 26 54  1  6
 25 55  1  1
 56 31  1  0
 57 63  1  0
 58 62  1  0
 59 65  1  0
 60 66  1  0
 38 61  1  1
 62 55  1  0
 63 54  1  0
 64 53  1  0
 65 61  1  0
 66 68  1  0
 67 69  1  0
 68 67  1  0
 69 70  1  0
 70 71  1  0
 71 72  1  0
 72 73  1  0
 73 64  1  0
 74 49  2  0
 75 50  1  0
 76 75  1  0
 77 74  1  0
 17 10  1  0
 76 52  1  0
 15 34  1  0
 56 77  2  0
M  END