
          11280715102D 1   1.00000     0.00000     0

 30 31  0     1  0            999 V2000
    0.6292   -3.1167    0.0000 N   0  0  0  0  0  0           0  0  0
    1.1542   -2.8167    0.0000 C   0  0  0  0  0  0           0  0  0
    1.1542   -2.2167    0.0000 C   0  0  0  0  0  0           0  0  0
    0.1167   -2.2167    0.0000 N   0  0  0  0  0  0           0  0  0
    0.6292   -1.9167    0.0000 C   0  0  0  0  0  0           0  0  0
    0.1167   -2.8167    0.0000 C   0  0  0  0  0  0           0  0  0
    4.7000   -1.7125    0.0000 C   0  0  0  0  0  0           0  0  0
    5.3000   -1.7750    0.0000 C   0  0  0  0  0  0           0  0  0
    4.3000   -2.1542    0.0000 S   0  0  0  0  0  0           0  0  0
    5.5417   -2.3167    0.0000 N   0  0  0  0  0  0           0  0  0
    4.4000   -1.1917    0.0000 C   0  0  0  0  0  0           0  0  0
    6.5542   -1.8375    0.0000 C   0  0  0  0  0  0           0  0  0
    3.7542   -1.9125    0.0000 C   0  0  0  0  0  0           0  0  0
    6.2000   -2.3167    0.0000 C   0  0  2  0  0  0           0  0  0
    3.8167   -1.3167    0.0000 C   0  0  0  0  0  0           0  0  0
    0.6292   -1.3167    0.0000 O   0  0  0  0  0  0           0  0  0
    7.2250   -3.5417    0.0000 C   0  0  0  0  0  0           0  0  0
    1.6750   -1.9125    0.0000 S   0  0  0  0  0  0           0  0  0
    5.6500   -1.2875    0.0000 O   0  0  0  0  0  0           0  0  0
    1.6750   -3.1167    0.0000 N   0  0  0  0  0  0           0  0  0
    7.0875   -1.9625    0.0000 O   0  0  0  0  0  0           0  0  0
   -0.4000   -3.1125    0.0000 N   0  0  0  0  0  0           0  0  0
    6.8667   -4.0292    0.0000 O   0  0  0  0  0  0           0  0  0
    6.3792   -2.9292    0.0000 C   0  0  0  0  0  0           0  0  0
    6.9792   -2.9917    0.0000 C   0  0  0  0  0  0           0  0  0
    6.2417   -1.3500    0.0000 O   0  0  0  0  0  0           0  0  0
    7.8167   -3.6042    0.0000 O   0  0  0  0  0  0           0  0  0
    3.2292   -2.2125    0.0000 C   0  0  0  0  0  0           0  0  0
    2.1917   -2.2125    0.0000 C   0  0  0  0  0  0           0  0  0
    2.7125   -1.9125    0.0000 C   0  0  0  0  0  0           0  0  0
  2  1  2  0     0  0
  3  2  1  0     0  0
  4  6  2  0     0  0
  5  4  1  0     0  0
  6  1  1  0     0  0
  7  9  1  0     0  0
  8  7  1  0     0  0
  9 13  1  0     0  0
 10  8  1  0     0  0
 11 15  1  0     0  0
 14 12  1  6     0  0
 13 28  1  0     0  0
 14 10  1  0     0  0
 15 13  2  0     0  0
 16  5  1  0     0  0
 17 25  1  0     0  0
 18  3  1  0     0  0
 19  8  2  0     0  0
 20  2  1  0     0  0
 21 12  2  0     0  0
 22  6  1  0     0  0
 23 17  2  0     0  0
 24 14  1  0     0  0
 25 24  1  0     0  0
 26 12  1  0     0  0
 27 17  1  0     0  0
 28 30  1  0     0  0
 29 18  1  0     0  0
 30 29  1  0     0  0
  3  5  2  0     0  0
  7 11  2  0     0  0
M  END