
  SciTegic05071317052D

 29 29  0  0  0  0            999 V2000
   30.9475  -26.2577    0.0000 C   0  0
   31.6154  -25.7733    0.0000 N   0  0
   31.3611  -24.9884    0.0000 C   0  0
   30.5361  -24.9877    0.0000 C   0  0
   30.2805  -25.7721    0.0000 S   0  0
   30.1200  -24.2755    0.0000 C   0  0
   29.2950  -24.2795    0.0000 C   0  0
   28.8790  -23.5671    0.0000 N   0  0
   28.0540  -23.5712    0.0000 C   0  0
   29.2879  -22.8506    0.0000 C   0  0
   30.9496  -27.0799    0.0000 N   0  0
   30.2329  -27.4905    0.0000 C   0  0
   30.2302  -28.3119    0.0000 C   0  0
   30.9425  -28.7290    0.0000 N   0  0
   31.6591  -28.3183    0.0000 C   0  0
   31.6635  -27.4907    0.0000 C   0  0
   30.9386  -29.5540    0.0000 C   0  0
   30.2222  -29.9631    0.0000 C   0  0
   30.2184  -30.7880    0.0000 C   0  0
   27.6380  -22.8588    0.0000 C   0  0
   27.6450  -24.2877    0.0000 O   0  0
   28.0501  -22.1433    0.0000 C   0  0
   27.6348  -21.4314    0.0000 C   0  0
   26.8089  -21.4349    0.0000 C   0  0
   26.4001  -22.1564    0.0000 C   0  0
   26.8178  -22.8654    0.0000 C   0  0
   26.3919  -20.7231    0.0000 Cl  0  0
   28.5228  -25.6709    0.0000 Br  0  0
   27.7259  -27.0482    0.0000 Br  0  0
  1  2  2  0
  2  3  1  0
  3  4  2  0
  4  5  1  0
  5  1  1  0
  4  6  1  0
  6  7  1  0
  7  8  1  0
  8  9  1  0
  8 10  1  0
 11 12  1  0
 11 16  1  0
 12 13  1  0
 13 14  1  0
 14 15  1  0
 15 16  1  0
  1 11  1  0
 14 17  1  0
 17 18  1  0
 18 19  1  0
  9 20  1  0
  9 21  2  0
 20 22  2  0
 22 23  1  0
 23 24  2  0
 24 25  1  0
 25 26  2  0
 26 20  1  0
 24 27  1  0
M  END