
  SciTegic04201616412D

 21 22  0  0  0  0            999 V2000
    1.2990   -0.7500    0.0000 C   0  0
    1.2990    0.7500    0.0000 C   0  0
    0.0000    1.5000    0.0000 C   0  0
   -1.2990    0.7500    0.0000 C   0  0
   -1.2990   -0.7500    0.0000 C   0  0
    0.0000   -1.5000    0.0000 C   0  0
   -2.5998    1.4987    0.0000 C   0  0  1  0  0  0
   -3.6380    0.8969    0.0000 C   0  0
   -2.6028    2.9995    0.0000 C   0  0
   -3.9036    3.7481    0.0000 N   0  0
   -3.9066    5.2489    0.0000 C   0  0  2  0  0  0
   -5.2073    5.9976    0.0000 C   0  0
   -2.6096    6.0042    0.0000 P   0  0
   -1.5723    6.6076    0.0000 O   0  0
   -2.6133    7.2042    0.0000 O   0  0
   -1.5683    5.4078    0.0000 O   0  0
   -5.2125    7.4976    0.0000 C   0  0
   -6.5141    8.2432    0.0000 C   0  0
   -7.8106    7.4888    0.0000 C   0  0
   -7.8055    5.9888    0.0000 C   0  0
   -6.5039    5.2432    0.0000 C   0  0
  1  2  2  0
  2  3  1  0
  3  4  2  0
  4  5  1  0
  5  6  2  0
  6  1  1  0
  4  7  1  0
  7  8  1  1
  7  9  1  0
  9 10  1  0
 11 10  1  6
 11 12  1  0
 11 13  1  0
 13 14  1  0
 13 15  2  0
 13 16  1  0
 12 17  2  0
 17 18  1  0
 18 19  2  0
 19 20  1  0
 20 21  2  0
 21 12  1  0
M  END