
  CDK    9/16/09,10:0

 26 28  0  0  0  0  0  0  0  0999 V2000
    3.6436   -4.8736    0.0000 N   0  0  0  0  0  0  0  0  0  0  0  0
    3.2390   -4.1572    0.0000 C   0  0  0  0  0  0  0  0  0  0  0  0
    2.4177   -4.1517    0.0000 C   0  0  0  0  0  0  0  0  0  0  0  0
    1.9984   -4.8626    0.0000 C   0  0  0  0  0  0  0  0  0  0  0  0
    2.4066   -5.5805    0.0000 C   0  0  0  0  0  0  0  0  0  0  0  0
    3.2342   -5.5876    0.0000 C   0  0  0  0  0  0  0  0  0  0  0  0
    4.4685   -4.8762    0.0000 C   0  0  0  0  0  0  0  0  0  0  0  0
    4.8787   -5.5919    0.0000 C   0  0  0  0  0  0  0  0  0  0  0  0
    4.8833   -4.1631    0.0000 C   0  0  0  0  0  0  0  0  0  0  0  0
   -4.2363   -5.2980    0.0000 C   0  0  0  0  0  0  0  0  0  0  0  0
   -4.2377   -6.1256    0.0000 C   0  0  0  0  0  0  0  0  0  0  0  0
   -3.5247   -6.5385    0.0000 C   0  0  0  0  0  0  0  0  0  0  0  0
   -2.8054   -6.1251    0.0000 C   0  0  0  0  0  0  0  0  0  0  0  0
   -2.8086   -5.2941    0.0000 C   0  0  0  0  0  0  0  0  0  0  0  0
   -3.5267   -4.8853    0.0000 C   0  0  0  0  0  0  0  0  0  0  0  0
   -2.0962   -4.8781    0.0000 C   0  0  0  0  0  0  0  0  0  0  0  0
   -1.3797   -5.2870    0.0000 C   0  0  0  0  0  0  0  0  0  0  0  0
   -1.2868   -6.1068    0.0000 C   0  0  0  0  0  0  0  0  0  0  0  0
   -0.4790   -6.2743    0.0000 N   0  0  0  0  0  0  0  0  0  0  0  0
   -0.0704   -5.5582    0.0000 C   0  0  0  0  0  0  0  0  0  0  0  0
   -0.6251   -4.9476    0.0000 N   0  0  0  0  0  0  0  0  0  0  0  0
   -0.4572   -4.1399    0.0000 C   0  0  0  0  0  0  0  0  0  0  0  0
    0.7545   -5.5658    0.0000 O   0  0  0  0  0  0  0  0  0  0  0  0
   -2.1002   -4.0531    0.0000 O   0  0  0  0  0  0  0  0  0  0  0  0
    1.1734   -4.8551    0.0000 C   0  0  0  0  0  0  0  0  0  0  0  0
   -4.9526   -6.5371    0.0000 F   0  0  0  0  0  0  0  0  0  0  0  0
  1  2  1  0  0  0  0 
 13 14  1  0  0  0  0 
  1  7  1  0  0  0  0 
 14 15  2  0  0  0  0 
 15 10  1  0  0  0  0 
 14 16  1  0  0  0  0 
  7  8  1  0  0  0  0 
 16 17  1  0  0  0  0 
 17 18  2  0  0  0  0 
  1  6  1  0  0  0  0 
  7  9  1  0  0  0  0 
  2  3  1  0  0  0  0 
  3  4  1  0  0  0  0 
 18 19  1  0  0  0  0 
 19 20  2  0  0  0  0 
 20 21  1  0  0  0  0 
 21 17  1  0  0  0  0 
 10 11  2  0  0  0  0 
 21 22  1  0  0  0  0 
  4  5  1  0  0  0  0 
 20 23  1  0  0  0  0 
 11 12  1  0  0  0  0 
 16 24  2  0  0  0  0 
  5  6  1  0  0  0  0 
 23 25  1  0  0  0  0 
 25  4  1  0  0  0  0 
 12 13  2  0  0  0  0 
 11 26  1  0  0  0  0 
M  END