
  SciTegic12231509382D

 18 20  0  0  0  0            999 V2000
   -0.3649    0.4348    0.0000 C   0  0
   -0.3649   -0.3902    0.0000 N   0  0
    0.4476    0.2916    0.0000 C   0  0
    0.3496   -0.8027    0.0000 C   0  0
   -1.0793   -0.8027    0.0000 C   0  0
   -1.1773    0.2916    0.0000 C   0  0
   -0.0827    1.2101    0.0000 C   0  0
    0.9779    0.9236    0.0000 C   0  0
    0.7298   -0.4837    0.0000 C   0  0
    0.3496   -1.6277    0.0000 C   0  0
   -1.0793   -1.6277    0.0000 C   0  0
   -0.6130    1.8421    0.0000 C   0  0
   -1.7076    0.9236    0.0000 C   0  0
    1.5422   -0.6269    0.0000 C   0  0
    1.7904    0.7803    0.0000 C   0  0
    2.0725    0.0051    0.0000 C   0  0
   -0.3649   -2.0402    0.0000 C   0  0
   -1.4255    1.6988    0.0000 C   0  0
  1  2  1  0
  1  3  1  0
  2  4  1  0
  2  5  1  0
  1  6  1  0
  1  7  1  0
  3  8  1  0
  3  9  2  0
  4 10  1  0
  5 11  1  0
  7 12  1  0
  6 13  1  0
  9 14  1  0
  8 15  2  0
 14 16  2  0
 15 16  1  0
 10 17  1  0
 11 17  1  0
 12 18  1  0
 13 18  1  0
M  END