
  SciTegic09261414532D

 44 50  0  0  0  0            999 V2000
    8.0231   -4.0270    0.0000 N   0  0
    7.2374   -4.2343    0.0000 C   0  0
    7.1928   -5.0503    0.0000 N   0  0
    8.4704   -4.7097    0.0000 C   0  0
    7.9552   -5.3395    0.0000 C   0  0
    8.2433   -6.0985    0.0000 C   0  0
    9.0463   -6.2288    0.0000 C   0  0
    9.5604   -5.5941    0.0000 C   0  0
    9.2695   -4.8376    0.0000 C   0  0
    6.4774   -3.9393    0.0000 C   0  0
    5.8425   -4.4486    0.0000 C   0  0
    0.7580   -1.4527    0.0000 C   0  0
    0.7568   -2.2723    0.0000 C   0  0
    1.4649   -2.6812    0.0000 C   0  0
    1.4631   -1.0439    0.0000 C   0  0
    2.1717   -1.4491    0.0000 C   0  0
    2.1720   -2.2723    0.0000 C   0  0
    2.9550   -2.5265    0.0000 N   0  0
    3.4387   -1.8603    0.0000 C   0  0
    2.9545   -1.1946    0.0000 N   0  0
    3.2077   -3.3036    0.0000 C   0  0
    4.2526   -1.8586    0.0000 N   0  0
    4.6609   -2.5678    0.0000 C   0  0
    5.4773   -2.5679    0.0000 C   0  0
    5.8865   -1.8595    0.0000 C   0  0
    5.4732   -1.1496    0.0000 C   0  0
    4.6581   -1.1530    0.0000 C   0  0
    6.7036   -1.8582    0.0000 C   0  0
    7.1134   -2.5652    0.0000 O   0  0
    7.9306   -2.5638    0.0000 C   0  0
    2.6610   -3.9111    0.0000 C   0  0
    8.3404   -3.2708    0.0000 C   0  0  2  0  0  0
    7.1111   -1.1498    0.0000 O   0  0
    9.1548   -3.2202    0.0000 C   0  0
    9.6067   -3.9022    0.0000 C   0  0
   10.4187   -3.8521    0.0000 C   0  0
   10.7852   -3.1213    0.0000 N   0  0
   10.3333   -2.4393    0.0000 C   0  0
    9.5149   -2.4881    0.0000 C   0  0
    1.8514   -3.8290    0.0000 C   0  0
    1.5193   -4.5757    0.0000 S   0  0
    2.1267   -5.1224    0.0000 C   0  0
    2.8343   -4.7135    0.0000 C   0  0
    6.3528   -3.1317    0.0000 C   0  0
  1  2  1  0
  2  3  2  0
  3  5  1  0
  4  1  1  0
  4  5  2  0
  5  6  1  0
  6  7  2  0
  7  8  1  0
  8  9  2  0
  9  4  1  0
 11 10  1  0
  2 10  1  0
 12 13  2  0
 13 14  1  0
 14 17  2  0
 16 15  2  0
 15 12  1  0
 16 17  1  0
 17 18  1  0
 18 19  1  0
 19 20  2  0
 20 16  1  0
 18 21  1  0
 22 23  1  0
 23 24  1  0
 24 25  1  0
 25 26  1  0
 26 27  1  0
 27 22  1  0
 19 22  1  0
 25 28  1  0
 28 29  1  0
 29 30  1  0
 21 31  1  0
 30 32  1  0
 32  1  1  6
 28 33  2  0
 34 35  1  0
 34 39  1  0
 35 36  1  0
 36 37  1  0
 37 38  1  0
 38 39  1  0
 32 34  1  0
 31 40  2  0
 40 41  1  0
 41 42  1  0
 42 43  2  0
 43 31  1  0
 10 44  1  0
M  END