
  SciTegic12201615512D

 26 28  0  0  0  0            999 V2000
    4.7825    3.9454    0.0000 C   0  0
    4.0102    5.2323    0.0000 O   0  0
    6.2823    3.9676    0.0000 C   0  0
    7.0514    2.6798    0.0000 C   0  0
    6.3207    1.3698    0.0000 C   0  0
    4.8208    1.3475    0.0000 C   0  0
    4.0518    2.6354    0.0000 C   0  0
    2.5096    5.2080    0.0000 C   0  0
    1.8922    6.2370    0.0000 C   0  0
    8.2513    2.6975    0.0000 Br  0  0
    7.0161    5.2768    0.0000 O   0  0
    8.5168    5.2969    0.0000 C   0  0
    9.2506    6.6060    0.0000 C   0  0
   10.4505    6.6221    0.0000 O   0  0
    8.6371    7.6374    0.0000 O   0  0
    4.0872    0.0382    0.0000 C   0  0
    2.5889    0.0182    0.0000 C   0  0
    1.7138    1.2033    0.0000 S   0  0
    1.7138   -1.2033    0.0000 C   0  0
    0.2917   -0.7475    0.0000 C   0  0
    0.2917    0.7475    0.0000 C   0  0
   -1.0028    1.5132    0.0000 C   0  0
   -2.3155    0.7475    0.0000 C   0  0
   -2.3155   -0.7475    0.0000 C   0  0
   -1.0028   -1.5132    0.0000 C   0  0
    2.0907   -2.3426    0.0000 O   0  0
  1  2  1  0
  1  3  1  0
  3  4  2  0
  4  5  1  0
  5  6  2  0
  6  7  1  0
  7  1  2  0
  2  8  1  0
  8  9  1  0
  4 10  1  0
  3 11  1  0
 11 12  1  0
 12 13  1  0
 13 14  2  0
 13 15  1  0
  6 16  1  0
 16 17  2  0
 17 18  1  0
 18 21  1  0
 20 19  1  0
 19 17  1  0
 20 21  2  0
 21 22  1  0
 22 23  2  0
 23 24  1  0
 24 25  2  0
 25 20  1  0
 19 26  2  0
M  END