
  CDK    9/16/09,9:48

 35 39  0  0  0  0  0  0  0  0999 V2000
    0.4751   -6.2355    0.0000 N   0  0  0  0  0  0  0  0  0  0  0  0
   -0.3147   -6.4935    0.0000 C   0  0  0  0  0  0  0  0  0  0  0  0
   -0.3108   -7.3225    0.0000 C   0  0  0  0  0  0  0  0  0  0  0  0
    0.4788   -7.5756    0.0000 N   0  0  0  0  0  0  0  0  0  0  0  0
    0.9639   -6.9033    0.0000 C   0  0  0  0  0  0  0  0  0  0  0  0
   -0.9819   -6.0128    0.0000 C   0  0  0  0  0  0  0  0  0  0  0  0
   -0.8967   -5.1911    0.0000 C   0  0  0  0  0  0  0  0  0  0  0  0
   -1.5648   -4.7084    0.0000 C   0  0  0  0  0  0  0  0  0  0  0  0
   -2.3184   -5.0462    0.0000 N   0  0  0  0  0  0  0  0  0  0  0  0
   -2.3999   -5.8715    0.0000 C   0  0  0  0  0  0  0  0  0  0  0  0
   -1.7309   -6.3505    0.0000 C   0  0  0  0  0  0  0  0  0  0  0  0
   -0.9752   -7.8107    0.0000 C   0  0  0  0  0  0  0  0  0  0  0  0
   -1.7308   -7.4767    0.0000 C   0  0  0  0  0  0  0  0  0  0  0  0
   -2.3958   -7.9637    0.0000 C   0  0  0  0  0  0  0  0  0  0  0  0
   -0.8845   -8.6273    0.0000 C   0  0  0  0  0  0  0  0  0  0  0  0
   -1.5463   -9.1164    0.0000 C   0  0  0  0  0  0  0  0  0  0  0  0
   -2.3111   -8.7846    0.0000 C   0  0  0  0  0  0  0  0  0  0  0  0
   -2.8630   -9.4095    0.0000 C   0  0  0  0  0  0  0  0  0  0  0  0
   -2.4392  -10.1275    0.0000 C   0  0  0  0  0  0  0  0  0  0  0  0
   -1.6255   -9.9463    0.0000 C   0  0  0  0  0  0  0  0  0  0  0  0
   -3.6843   -9.3311    0.0000 N   0  0  0  0  0  0  0  0  0  0  0  0
   -4.1628  -10.0032    0.0000 O   0  0  0  0  0  0  0  0  0  0  0  0
    1.7862   -6.9015    0.0000 C   0  0  0  0  0  0  0  0  0  0  0  0
    2.2005   -7.6162    0.0000 C   0  0  0  0  0  0  0  0  0  0  0  0
    3.0247   -7.6137    0.0000 C   0  0  0  0  0  0  0  0  0  0  0  0
    3.4356   -6.8973    0.0000 N   0  0  0  0  0  0  0  0  0  0  0  0
    3.0163   -6.1819    0.0000 C   0  0  0  0  0  0  0  0  0  0  0  0
    2.1934   -6.1879    0.0000 N   0  0  0  0  0  0  0  0  0  0  0  0
    3.4238   -5.4646    0.0000 O   0  0  0  0  0  0  0  0  0  0  0  0
    4.2488   -5.4589    0.0000 C   0  0  0  0  0  0  0  0  0  0  0  0
    4.6564   -4.7416    0.0000 C   0  0  0  0  0  0  0  0  0  0  0  0
    5.4813   -4.7359    0.0000 C   0  0  0  0  0  0  0  0  0  0  0  0
    4.2389   -4.0300    0.0000 N   0  0  0  0  0  0  0  0  0  0  0  0
    4.6465   -3.3127    0.0000 C   0  0  0  0  0  0  0  0  0  0  0  0
    3.4140   -4.0357    0.0000 C   0  0  0  0  0  0  0  0  0  0  0  0
  7  8  1  0  0  0  0 
  3  4  1  0  0  0  0 
  8  9  2  0  0  0  0 
  4  5  2  0  0  0  0 
  9 10  1  0  0  0  0 
 17 18  1  0  0  0  0 
 18 19  1  0  0  0  0 
 19 20  1  0  0  0  0 
 20 16  1  0  0  0  0 
  5  1  1  0  0  0  0 
 18 21  2  0  0  0  0 
 10 11  2  0  0  0  0 
 21 22  1  0  0  0  0 
 11  6  1  0  0  0  0 
  2  6  1  0  0  0  0 
 23 24  2  0  0  0  0 
  2  3  2  0  0  0  0 
 24 25  1  0  0  0  0 
 25 26  2  0  0  0  0 
 12 13  2  0  0  0  0 
 26 27  1  0  0  0  0 
  6  7  2  0  0  0  0 
 27 28  2  0  0  0  0 
 28 23  1  0  0  0  0 
  5 23  1  0  0  0  0 
 13 14  1  0  0  0  0 
 27 29  1  0  0  0  0 
 14 17  2  0  0  0  0 
 29 30  1  0  0  0  0 
  1  2  1  0  0  0  0 
 30 31  1  0  0  0  0 
 16 15  2  0  0  0  0 
 31 32  1  0  0  0  0 
 15 12  1  0  0  0  0 
 31 33  1  0  0  0  0 
  3 12  1  0  0  0  0 
 33 34  1  0  0  0  0 
 16 17  1  0  0  0  0 
 33 35  1  0  0  0  0 
M  END