
  SciTegic01181116592D

 17 19  0  0  0  0            999 V2000
   12.0890  -20.6480    0.0000 C   0  0
   12.0879  -21.4752    0.0000 C   0  0
   12.8027  -21.8881    0.0000 C   0  0
   12.8009  -20.2352    0.0000 C   0  0
   13.5162  -20.6443    0.0000 C   0  0
   13.5169  -21.4711    0.0000 C   0  0
   14.2321  -21.8820    0.0000 N   0  0
   14.9472  -21.4673    0.0000 C   0  0
   14.9424  -20.6374    0.0000 C   0  0
   14.2265  -20.2302    0.0000 N   0  0
   15.6542  -20.2207    0.0000 C   0  0
   16.3711  -20.6287    0.0000 N   0  0
   15.6492  -19.3957    0.0000 O   0  0
   16.4638  -21.4462    0.0000 C   0  0
   17.2717  -21.6129    0.0000 C   0  0
   17.6799  -20.8959    0.0000 C   0  0
   17.1240  -20.2863    0.0000 C   0  0
  5  4  2  0
  8  9  1  0
  4  1  1  0
  9 10  2  0
 10  5  1  0
  9 11  1  0
  2  3  1  0
 11 12  1  0
  5  6  1  0
 11 13  2  0
 12 14  1  0
  3  6  2  0
  6  7  1  0
  1  2  2  0
  7  8  2  0
 14 15  1  0
 15 16  1  0
 16 17  1  0
 17 12  1  0
M  END