
  SciTegic01061111512D

 35 38  0  0  0  0            999 V2000
    8.2277  -22.3958    0.0000 C   0  0
    8.2266  -23.2232    0.0000 C   0  0
    8.9414  -23.6360    0.0000 C   0  0
    9.6578  -23.2227    0.0000 C   0  0
    9.6550  -22.3922    0.0000 C   0  0
    8.9396  -21.9830    0.0000 C   0  0
    7.5137  -23.6354    0.0000 C   0  0
    6.7993  -23.2206    0.0000 C   0  0
    6.0850  -23.6318    0.0000 C   0  0
    6.0839  -24.4577    0.0000 C   0  0
    6.8030  -24.8706    0.0000 C   0  0
    7.5144  -24.4570    0.0000 C   0  0
   10.3679  -21.9770    0.0000 C   0  0
   11.0367  -22.4599    0.0000 N   0  0
   10.3648  -21.1520    0.0000 O   0  0
   11.0431  -23.2887    0.0000 C   0  0
   11.8291  -23.5406    0.0000 C   0  0
   12.3114  -22.8721    0.0000 C   0  0
   11.8237  -22.2070    0.0000 C   0  0  1  0  0  0
   12.1979  -24.2786    0.0000 N   0  0
   12.2335  -21.4910    0.0000 C   0  0
   13.0585  -21.4879    0.0000 N   0  0
   11.8184  -20.7780    0.0000 O   0  0
   13.4684  -20.7719    0.0000 C   0  0
   14.2934  -20.7688    0.0000 C   0  0  2  0  0  0
   14.7032  -20.0528    0.0000 C   0  0
   14.7085  -21.4817    0.0000 O   0  0
   15.5265  -20.0515    0.0000 C   0  0
   15.9362  -19.3363    0.0000 C   0  0
   15.5210  -18.6224    0.0000 C   0  0
   14.6918  -18.6282    0.0000 C   0  0
   14.2857  -19.3439    0.0000 C   0  0
    6.8008  -22.3956    0.0000 C   0  0
   11.7431  -24.9669    0.0000 O   0  0
   12.1119  -25.7049    0.0000 C   0  0
  8  9  1  0
  4  5  1  0
 16 17  1  0
 17 18  1  0
 18 19  1  0
 19 14  1  0
  9 10  2  0
 17 20  2  0
  2  3  1  0
 19 21  1  6
 10 11  1  0
 21 22  1  0
  5  6  2  0
 21 23  2  0
 11 12  2  0
 22 24  1  0
 12  7  1  0
 24 25  1  0
  2  7  1  0
 25 26  1  0
  6  1  1  0
 25 27  1  6
  5 13  1  0
 26 28  2  0
  1  2  2  0
 28 29  1  0
 13 14  1  0
 29 30  2  0
  3  4  2  0
 30 31  1  0
 13 15  2  0
 31 32  2  0
 32 26  1  0
 14 16  1  0
  8 33  1  0
  7  8  2  0
 20 34  1  0
 34 35  1  0
M  END