
          11280715282D 1   1.00000     0.00000     0

 15 16  0     0  0            999 V2000
    3.4667   -1.9417    0.0000 C   0  0  0  0  0  0           0  0  0
    3.4750   -1.1167    0.0000 C   0  0  0  0  0  0           0  0  0
    2.7625   -2.3542    0.0000 N   0  0  0  0  0  0           0  0  0
    2.7625   -0.7042    0.0000 C   0  0  0  0  0  0           0  0  0
    2.0542   -1.1167    0.0000 N   0  0  0  0  0  0           0  0  0
    2.0542   -1.9417    0.0000 C   0  0  3  0  0  0           0  0  0
    4.1792   -2.3542    0.0000 N   0  0  3  0  0  0           0  0  0
    4.1875   -0.7042    0.0000 C   0  0  0  0  0  0           0  0  0
    4.9000   -1.9500    0.0000 C   0  0  0  0  0  0           0  0  0
    4.9000   -1.1250    0.0000 C   0  0  0  0  0  0           0  0  0
    2.7625    0.1208    0.0000 O   0  0  0  0  0  0           0  0  0
    1.3375   -2.3542    0.0000 N   0  0  0  0  0  0           0  0  0
    4.1750   -3.1792    0.0000 C   0  0  0  0  0  0           0  0  0
    3.4542   -3.5917    0.0000 C   0  0  0  0  0  0           0  0  0
    3.4542   -4.4167    0.0000 C   0  0  0  0  0  0           0  0  0
  2  1  1  0     0  0
  3  1  2  0     0  0
  4  2  1  0     0  0
  5  6  1  0     0  0
  6  3  1  0     0  0
  7  1  1  0     0  0
  8  2  2  0     0  0
  9  7  1  0     0  0
 10  9  2  0     0  0
 11  4  2  0     0  0
 12  6  1  0     0  0
 13  7  1  0     0  0
 14 13  1  0     0  0
 15 14  1  0     0  0
 10  8  1  0     0  0
  4  5  1  0     0  0
M  END