
          11280715122D 1   1.00000     0.00000     0

 37 41  0     0  0            999 V2000
    5.4167   -3.7250    0.0000 C   0  0  0  0  0  0           0  0  0
    5.4167   -4.5542    0.0000 C   0  0  0  0  0  0           0  0  0
    8.4292   -8.8792    0.0000 C   0  0  0  0  0  0           0  0  0
    7.9000  -10.1125    0.0000 N   0  0  0  0  0  0           0  0  0
    8.6042   -9.6917    0.0000 N   0  0  0  0  0  0           0  0  0
    7.2792   -9.5792    0.0000 N   0  0  0  0  0  0           0  0  0
    4.7042   -4.9667    0.0000 N   0  0  0  0  0  0           0  0  0
    7.6125   -8.8042    0.0000 N   0  0  0  0  0  0           0  0  0
    4.7042   -3.3125    0.0000 C   0  0  0  0  0  0           0  0  0
    8.9792   -8.2667    0.0000 C   0  0  0  0  0  0           0  0  0
    6.1292   -4.9625    0.0000 N   0  0  3  0  0  0           0  0  0
    6.1417   -3.3042    0.0000 C   0  0  0  0  0  0           0  0  0
    8.9792   -7.4375    0.0000 C   0  0  0  0  0  0           0  0  0
    3.9917   -3.7250    0.0000 C   0  0  0  0  0  0           0  0  0
    3.9917   -4.5542    0.0000 C   0  0  0  0  0  0           0  0  0
    8.2667   -7.0292    0.0000 C   0  0  0  0  0  0           0  0  0
    6.1292   -5.7875    0.0000 C   0  0  0  0  0  0           0  0  0
    6.1375   -2.4750    0.0000 O   0  0  0  0  0  0           0  0  0
    3.2750   -3.3167    0.0000 C   0  0  0  0  0  0           0  0  0
    7.5542   -7.4417    0.0000 C   0  0  0  0  0  0           0  0  0
    8.2667   -6.2000    0.0000 C   0  0  0  0  0  0           0  0  0
    6.8417   -6.2042    0.0000 C   0  0  0  0  0  0           0  0  0
    6.8625   -3.7167    0.0000 O   0  0  0  0  0  0           0  0  0
    7.5500   -5.7875    0.0000 C   0  0  0  0  0  0           0  0  0
    6.8417   -7.0292    0.0000 C   0  0  0  0  0  0           0  0  0
    6.8417   -4.5542    0.0000 C   0  0  0  0  0  0           0  0  0
    9.6917   -8.6792    0.0000 C   0  0  0  0  0  0           0  0  0
    9.6917   -7.0292    0.0000 C   0  0  0  0  0  0           0  0  0
    3.2750   -2.4875    0.0000 C   0  0  0  0  0  0           0  0  0
    2.5625   -3.7292    0.0000 C   0  0  0  0  0  0           0  0  0
    7.5500   -4.9667    0.0000 C   0  0  0  0  0  0           0  0  0
   10.4042   -8.2667    0.0000 C   0  0  0  0  0  0           0  0  0
   10.4042   -7.4375    0.0000 C   0  0  0  0  0  0           0  0  0
    8.2542   -4.5542    0.0000 C   0  0  0  0  0  0           0  0  0
    1.8417   -3.3167    0.0000 C   0  0  0  0  0  0           0  0  0
    2.5625   -2.0750    0.0000 C   0  0  0  0  0  0           0  0  0
    1.8417   -2.4875    0.0000 C   0  0  0  0  0  0           0  0  0
  2  1  1  0     0  0
  3 10  1  0     0  0
  4  5  2  0     0  0
  5  3  1  0     0  0
  6  8  1  0     0  0
  7  2  2  0     0  0
  8  3  2  0     0  0
  9  1  2  0     0  0
 10 13  2  0     0  0
 11  2  1  0     0  0
 12  1  1  0     0  0
 13 16  1  0     0  0
 14  9  1  0     0  0
 15 14  2  0     0  0
 16 20  2  0     0  0
 17 11  1  0     0  0
 18 12  2  0     0  0
 19 14  1  0     0  0
 20 25  1  0     0  0
 21 24  2  0     0  0
 22 17  1  0     0  0
 23 12  1  0     0  0
 24 22  1  0     0  0
 25 22  2  0     0  0
 26 11  1  0     0  0
 27 10  1  0     0  0
 28 13  1  0     0  0
 29 19  2  0     0  0
 30 19  1  0     0  0
 31 26  1  0     0  0
 32 33  1  0     0  0
 33 28  2  0     0  0
 34 31  1  0     0  0
 35 30  2  0     0  0
 36 29  1  0     0  0
 37 35  1  0     0  0
  7 15  1  0     0  0
 36 37  2  0     0  0
 16 21  1  0     0  0
 27 32  2  0     0  0
  6  4  1  0     0  0
M  END