
  SciTegic09291412002D

 18 19  0  0  0  0            999 V2000
    7.7076   -1.8467    0.0000 C   0  0
    8.4221   -2.2592    0.0000 C   0  0
    9.1365   -1.8467    0.0000 C   0  0
    8.4221   -3.0842    0.0000 O   0  0
    9.8510   -2.2592    0.0000 N   0  0
   10.5655   -1.8467    0.0000 C   0  0
   10.5655   -1.0217    0.0000 C   0  0
   11.2800   -2.2592    0.0000 C   0  0
    6.9931   -2.2592    0.0000 O   0  0
    3.5802   -1.4342    0.0000 C   0  0
    4.0651   -2.1016    0.0000 N   0  0
    4.8497   -1.8467    0.0000 C   0  0
    4.8497   -1.0217    0.0000 C   0  0
    4.0651   -0.7667    0.0000 N   0  0
    5.5642   -2.2592    0.0000 C   0  0
    6.2787   -1.8467    0.0000 C   0  0
    6.2787   -1.0217    0.0000 C   0  0
    5.5642   -0.6092    0.0000 C   0  0
  1  2  1  0
  2  3  1  0
  2  4  1  0
  6  7  1  0
  6  8  1  0
  5  6  1  0
  3  5  1  0
 10 11  2  0
 11 12  1  0
 12 13  1  0
 13 14  1  0
 10 14  1  0
 15 16  1  0
 16 17  2  0
 17 18  1  0
 13 18  2  0
 12 15  2  0
  9 16  1  0
  1  9  1  0
M  END