
  SciTegic12011113542D

332370  0  0  0  0            999 V2000
    1.4367  -15.2353    0.0000 O   0  0
    0.9534  -14.5669    0.0000 C   0  0
    0.1328  -14.6443    0.0000 C   0  0  1  0  0  0
   -1.0863  -15.1848    0.0000 C   0  0
   -1.1678  -14.3625    0.0000 C   0  0  1  0  0  0
   -0.4136  -14.0323    0.0000 O   0  0
   -1.8802  -13.9464    0.0000 N   0  0
   -2.6010  -14.3545    0.0000 C   0  0
   -2.6022  -15.1828    0.0000 O   0  0
   -3.3134  -13.9385    0.0000 N   0  0
   -3.3087  -13.1123    0.0000 C   0  0
   -4.0211  -12.6963    0.0000 O   0  0
   -2.5936  -12.7057    0.0000 C   0  0
   -1.8811  -13.1217    0.0000 C   0  0
    4.9925  -12.3634    0.0000 O   0  0
    4.2619  -11.9771    0.0000 C   0  0
    3.5887  -12.4493    0.0000 C   0  0  2  0  0  0
    3.5702  -13.2725    0.0000 C   0  0  1  0  0  0
    4.2288  -13.7720    0.0000 O   0  0
    2.7837  -13.5133    0.0000 C   0  0
    2.3124  -12.8361    0.0000 C   0  0  1  0  0  0
    2.8069  -12.1807    0.0000 O   0  0
    1.4883  -12.8217    0.0000 N   0  0
    0.9888  -13.4802    0.0000 C   0  0
    0.2070  -13.2116    0.0000 N   0  0
    0.2223  -12.3834    0.0000 C   0  0
   -0.3777  -11.8207    0.0000 C   0  0
   -1.1683  -12.0605    0.0000 O   0  0
   -0.1911  -11.0170    0.0000 N   0  0
    0.5955  -10.7762    0.0000 C   0  0
    0.7821   -9.9726    0.0000 N   0  0
    1.1995  -11.3399    0.0000 N   0  0
    1.0129  -12.1435    0.0000 C   0  0
    9.3150  -13.5226    0.0000 O   0  0
    9.2975  -12.6964    0.0000 C   0  0
    8.5577  -12.3376    0.0000 C   0  0  2  0  0  0
    7.8293  -12.7215    0.0000 C   0  0
    7.2365  -12.1511    0.0000 C   0  0  1  0  0  0
    6.4227  -12.2963    0.0000 O   0  0
    7.5993  -11.4101    0.0000 C   0  0  1  0  0  0
    8.4124  -11.5237    0.0000 O   0  0
    7.2114  -10.6829    0.0000 N   0  0
    6.3931  -10.5664    0.0000 C   0  0
    6.2479   -9.7526    0.0000 N   0  0
    6.9791   -9.3635    0.0000 C   0  0
    7.1794   -8.5656    0.0000 C   0  0
    6.5855   -7.9912    0.0000 O   0  0
    7.9724   -8.3381    0.0000 N   0  0
    8.5652   -8.9085    0.0000 C   0  0
    9.3582   -8.6810    0.0000 N   0  0
    8.3661   -9.7103    0.0000 N   0  0
    7.5730   -9.9378    0.0000 C   0  0
   11.6198  -16.0658    0.0000 O   0  0
   11.3287  -15.2882    0.0000 C   0  0
   11.8060  -14.6163    0.0000 C   0  0  2  0  0  0
   11.5381  -13.8360    0.0000 C   0  0  1  0  0  0
   10.7451  -13.5909    0.0000 O   0  0
   12.1928  -13.3394    0.0000 C   0  0
   12.8701  -13.8132    0.0000 C   0  0  1  0  0  0
   12.6263  -14.6021    0.0000 O   0  0
   13.5809  -13.3975    0.0000 N   0  0
   13.5782  -12.5692    0.0000 C   0  0
   12.8566  -12.1625    0.0000 O   0  0
   14.2898  -12.1518    0.0000 N   0  0
   15.0078  -12.5606    0.0000 C   0  0
   15.7194  -12.1433    0.0000 O   0  0
   15.0120  -13.3832    0.0000 C   0  0
   15.7300  -13.7921    0.0000 C   0  0
   14.3004  -13.8006    0.0000 C   0  0
   12.9255  -18.3583    0.0000 O   0  0
   13.7459  -18.2725    0.0000 C   0  0
   14.0879  -17.5227    0.0000 C   0  0  2  0  0  0
   13.6777  -16.8069    0.0000 C   0  0
   12.8490  -16.7952    0.0000 O   0  0
   14.2271  -16.1957    0.0000 C   0  0
   14.9816  -16.5348    0.0000 C   0  0  1  0  0  0
   14.8909  -17.3541    0.0000 O   0  0
   15.6957  -16.1244    0.0000 N   0  0
   15.7000  -15.2961    0.0000 C   0  0
   14.9818  -14.8833    0.0000 O   0  0
   16.4151  -14.8847    0.0000 N   0  0
   17.1296  -15.2996    0.0000 C   0  0
   17.8447  -14.8882    0.0000 O   0  0
   17.1269  -16.1222    0.0000 C   0  0
   16.4118  -16.5335    0.0000 C   0  0
   10.1295  -19.8159    0.0000 C   0  0
   10.7865  -20.3104    0.0000 C   0  0  2  0  0  0
   11.5752  -20.0738    0.0000 C   0  0  1  0  0  0
   11.8470  -19.2933    0.0000 O   0  0
   12.0471  -20.7476    0.0000 C   0  0
   11.5484  -21.4050    0.0000 C   0  0  1  0  0  0
   10.7724  -21.1370    0.0000 O   0  0
   11.7892  -22.1933    0.0000 N   0  0
   12.5697  -22.4651    0.0000 C   0  0
   12.5556  -23.2916    0.0000 N   0  0
   11.7631  -23.5327    0.0000 C   0  0
   11.4130  -24.2771    0.0000 C   0  0
   11.8853  -24.9550    0.0000 O   0  0
   10.5911  -24.3477    0.0000 N   0  0
   10.1192  -23.6739    0.0000 C   0  0
    9.2972  -23.7445    0.0000 N   0  0
   10.4689  -22.9254    0.0000 N   0  0
   11.2909  -22.8548    0.0000 C   0  0
    9.3715  -20.1386    0.0000 O   0  0
    7.0811  -20.3381    0.0000 C   0  0
    7.1190  -21.1595    0.0000 C   0  0  2  0  0  0
    7.8040  -21.6163    0.0000 C   0  0  1  0  0  0
    8.5776  -21.3281    0.0000 O   0  0
    7.5857  -22.4094    0.0000 C   0  0
    6.7614  -22.4443    0.0000 C   0  0  1  0  0  0
    6.4731  -21.6756    0.0000 O   0  0
    6.3075  -23.1323    0.0000 N   0  0
    6.5957  -23.9070    0.0000 C   0  0
    5.9499  -24.4230    0.0000 N   0  0
    5.2590  -23.9662    0.0000 C   0  0
    4.4623  -24.1710    0.0000 C   0  0
    4.2410  -24.9670    0.0000 O   0  0
    3.8839  -23.5827    0.0000 N   0  0
    4.1021  -22.7896    0.0000 C   0  0
    3.5237  -22.2013    0.0000 N   0  0
    4.9018  -22.5819    0.0000 N   0  0
    5.4802  -23.1701    0.0000 C   0  0
    8.6294  -20.5048    0.0000 P   0  0
    6.3484  -19.9587    0.0000 O   0  0
    7.7994  -20.5119    0.0000 O   0  0
    8.2084  -19.7954    0.0000 N   0  0
   12.6574  -19.1387    0.0000 P   0  0
   12.8667  -19.9333    0.0000 N   0  0
   13.4792  -19.1375    0.0000 O   0  0
   12.4464  -16.0751    0.0000 P   0  0
   13.1583  -15.6583    0.0000 O   0  0
   12.4417  -15.2500    0.0000 N   0  0
   10.0121  -13.9695    0.0000 P   0  0
    9.5917  -14.6792    0.0000 N   0  0
   10.4167  -14.6792    0.0000 O   0  0
    5.6892  -11.9180    0.0000 P   0  0
    5.1000  -11.3292    0.0000 N   0  0
    6.0958  -11.2000    0.0000 O   0  0
    5.7439  -20.5201    0.0000 C   0  0
    4.9555  -20.2773    0.0000 C   0  0
    5.9279  -21.3243    0.0000 O   0  0
    4.3510  -20.8387    0.0000 C   0  0
    3.5625  -20.5959    0.0000 C   0  0
    3.3785  -19.7917    0.0000 C   0  0
    3.9829  -19.2308    0.0000 C   0  0  2  0  0  0
    4.7512  -19.5209    0.0000 S   0  0
    5.2683  -18.8782    0.0000 C   0  0
    4.0207  -18.4038    0.0000 C   0  0  2  0  0  0
    4.8121  -18.1867    0.0000 C   0  0  1  0  0  0
    4.8503  -17.3669    0.0000 N   0  0
    4.0824  -17.0772    0.0000 C   0  0
    3.5697  -17.7181    0.0000 N   0  0
    3.2381  -18.6773    0.0000 H   0  0
    5.5851  -17.9080    0.0000 H   0  0
    3.8641  -16.2816    0.0000 O   0  0
    4.1257  -14.5905    0.0000 P   0  0
    4.9500  -14.5875    0.0000 N   0  0
    4.3375  -15.3833    0.0000 O   0  0
   13.6565  -28.6671    0.0000 O   0  0
   14.4740  -28.5456    0.0000 C   0  0
   14.7367  -27.7663    0.0000 C   0  0  2  0  0  0
   14.2640  -27.0922    0.0000 C   0  0  1  0  0  0
   13.4375  -27.0798    0.0000 O   0  0
   14.7550  -26.4322    0.0000 C   0  0
   15.5359  -26.6987    0.0000 C   0  0  1  0  0  0
   15.5257  -27.5197    0.0000 O   0  0
   16.2084  -26.2222    0.0000 N   0  0
   16.2208  -25.3958    0.0000 C   0  0
   17.0098  -25.1491    0.0000 N   0  0
   17.4880  -25.8255    0.0000 C   0  0
   18.3048  -25.9235    0.0000 C   0  0
   18.7997  -25.2620    0.0000 O   0  0
   18.6304  -26.6816    0.0000 N   0  0
   18.1393  -27.3415    0.0000 C   0  0
   18.4650  -28.0995    0.0000 N   0  0
   17.3188  -27.2451    0.0000 N   0  0
   16.9931  -26.4870    0.0000 C   0  0
   10.6470  -28.9655    0.0000 O   0  0
   10.7954  -29.7785    0.0000 C   0  0
   11.5828  -30.0154    0.0000 C   0  0  2  0  0  0
   12.2410  -29.5207    0.0000 C   0  0  1  0  0  0
   12.2262  -28.6943    0.0000 O   0  0
   12.9168  -29.9898    0.0000 C   0  0
   12.6762  -30.7790    0.0000 C   0  0  1  0  0  0
   11.8553  -30.7958    0.0000 O   0  0
   13.1746  -31.4354    0.0000 N   0  0
   14.0010  -31.4206    0.0000 C   0  0
   14.2735  -32.2010    0.0000 N   0  0
   13.6133  -32.7013    0.0000 C   0  0
   13.5422  -33.5208    0.0000 C   0  0
   14.2197  -33.9936    0.0000 O   0  0
   12.7953  -33.8712    0.0000 N   0  0
   12.1196  -33.4022    0.0000 C   0  0
   11.3727  -33.7526    0.0000 N   0  0
   12.1889  -32.5789    0.0000 N   0  0
   12.9358  -32.2284    0.0000 C   0  0
    7.6079  -28.5792    0.0000 O   0  0
    7.6130  -29.4040    0.0000 C   0  0
    8.3258  -29.8178    0.0000 C   0  0  2  0  0  0
    9.0783  -29.4797    0.0000 C   0  0  1  0  0  0
    9.2498  -28.6685    0.0000 O   0  0
    9.6327  -30.0862    0.0000 C   0  0
    9.2206  -30.8028    0.0000 C   0  0  1  0  0  0
    8.4149  -30.6334    0.0000 O   0  0
    9.5587  -31.5553    0.0000 N   0  0
   10.3825  -31.6420    0.0000 C   0  0
   10.8647  -30.9685    0.0000 O   0  0
   10.7206  -32.3945    0.0000 N   0  0
   10.2367  -33.0641    0.0000 C   0  0
   10.5749  -33.8167    0.0000 O   0  0
    9.4185  -32.9796    0.0000 C   0  0
    8.9346  -33.6493    0.0000 C   0  0
    9.0804  -32.2271    0.0000 C   0  0
    4.5651  -28.2450    0.0000 O   0  0
    4.5842  -29.0696    0.0000 C   0  0
    5.3039  -29.4712    0.0000 C   0  0  2  0  0  0
    6.0506  -29.1203    0.0000 C   0  0  1  0  0  0
    6.2083  -28.3064    0.0000 O   0  0
    6.6152  -29.7174    0.0000 C   0  0
    6.2153  -30.4409    0.0000 C   0  0  1  0  0  0
    5.4069  -30.2852    0.0000 O   0  0
    6.5662  -31.1875    0.0000 N   0  0
    7.3913  -31.2602    0.0000 C   0  0
    7.8620  -30.5786    0.0000 O   0  0
    7.7422  -32.0068    0.0000 N   0  0
    7.2697  -32.6846    0.0000 C   0  0
    7.6206  -33.4313    0.0000 O   0  0
    6.4502  -32.6140    0.0000 C   0  0
    5.9777  -33.2918    0.0000 C   0  0
    6.0993  -31.8673    0.0000 C   0  0
    1.5914  -27.4915    0.0000 C   0  0
    2.0957  -28.1410    0.0000 C   0  0  2  0  0  0
    2.9188  -28.1195    0.0000 C   0  0  1  0  0  0
    3.3858  -27.4376    0.0000 O   0  0
    3.1975  -28.8935    0.0000 C   0  0
    2.5439  -29.3970    0.0000 C   0  0  1  0  0  0
    1.8653  -28.9349    0.0000 O   0  0
    2.5695  -30.2209    0.0000 N   0  0
    3.2514  -30.6879    0.0000 C   0  0
    3.0210  -31.4818    0.0000 N   0  0
    2.1930  -31.5066    0.0000 C   0  0
    1.6600  -32.1331    0.0000 C   0  0
    1.9379  -32.9112    0.0000 O   0  0
    0.8483  -31.9857    0.0000 N   0  0
    0.5696  -31.2117    0.0000 C   0  0
   -0.2421  -31.0643    0.0000 N   0  0
    1.1034  -30.5811    0.0000 N   0  0
    1.9151  -30.7285    0.0000 C   0  0
    4.2084  -27.5009    0.0000 P   0  0
    4.2642  -26.6699    0.0000 O   0  0
    4.9467  -27.1333    0.0000 N   0  0
    1.9028  -26.7275    0.0000 O   0  0
   -0.1935  -24.5403    0.0000 O   0  0
   -0.7984  -25.1035    0.0000 C   0  0
   -0.6041  -25.8754    0.0000 C   0  0  2  0  0  0
    0.1720  -26.1504    0.0000 C   0  0  1  0  0  0
    0.8864  -25.7245    0.0000 O   0  0
    0.1547  -26.9728    0.0000 C   0  0
   -0.6359  -27.2086    0.0000 C   0  0  1  0  0  0
   -1.1038  -26.5340    0.0000 O   0  0
   -0.9074  -27.9869    0.0000 N   0  0
   -0.4381  -28.6673    0.0000 C   0  0
   -0.9378  -29.3259    0.0000 N   0  0
   -1.7196  -29.0523    0.0000 C   0  0
   -2.4419  -29.4461    0.0000 C   0  0
   -2.4613  -30.2721    0.0000 O   0  0
   -3.1468  -29.0175    0.0000 N   0  0
   -3.1295  -28.1951    0.0000 C   0  0
   -3.8344  -27.7664    0.0000 N   0  0
   -2.4051  -27.7977    0.0000 N   0  0
   -1.7002  -28.2263    0.0000 C   0  0
   -1.3243  -21.6904    0.0000 O   0  0
   -2.0439  -22.0934    0.0000 C   0  0
   -2.0618  -22.9175    0.0000 C   0  0  2  0  0  0
   -1.4021  -23.4129    0.0000 C   0  0  1  0  0  0
   -0.6090  -23.1710    0.0000 O   0  0
   -1.6651  -24.1913    0.0000 C   0  0
   -2.4917  -24.1769    0.0000 C   0  0  1  0  0  0
   -2.7327  -23.3897    0.0000 O   0  0
   -2.9871  -24.8366    0.0000 N   0  0
   -2.6649  -25.5996    0.0000 C   0  0
   -1.8422  -25.6963    0.0000 O   0  0
   -3.1603  -26.2593    0.0000 N   0  0
   -3.9804  -26.1593    0.0000 C   0  0
   -4.4758  -26.8190    0.0000 O   0  0
   -4.3018  -25.4021    0.0000 C   0  0
   -5.1219  -25.3020    0.0000 C   0  0
   -3.8064  -24.7424    0.0000 C   0  0
   -1.3154  -20.8698    0.0000 P   0  0
   -0.4917  -20.8667    0.0000 O   0  0
   -0.0060  -23.7341    0.0000 P   0  0
    0.5750  -23.1458    0.0000 N   0  0
    0.7042  -24.1458    0.0000 O   0  0
    1.6849  -25.9316    0.0000 P   0  0
    1.7379  -25.1010    0.0000 O   0  0
    2.4219  -25.5624    0.0000 N   0  0
    6.9881  -28.0373    0.0000 P   0  0
    6.5708  -27.3167    0.0000 O   0  0
    7.3958  -27.3167    0.0000 N   0  0
   10.0341  -28.4127    0.0000 P   0  0
    9.6167  -27.6958    0.0000 N   0  0
   10.4417  -27.6958    0.0000 O   0  0
   12.9331  -28.2690    0.0000 P   0  0
   12.5125  -27.5500    0.0000 N   0  0
   13.3375  -27.5500    0.0000 O   0  0
   -0.0075  -17.9441    0.0000 O   0  0
   -0.8066  -17.7331    0.0000 C   0  0
   -1.3555  -18.3454    0.0000 C   0  0  2  0  0  0
   -1.1873  -19.1514    0.0000 C   0  0  1  0  0  0
   -0.4328  -19.4890    0.0000 O   0  0
   -1.8990  -19.5639    0.0000 C   0  0
   -2.5112  -19.0108    0.0000 C   0  0  1  0  0  0
   -2.1778  -18.2605    0.0000 O   0  0
   -3.3173  -19.1832    0.0000 N   0  0
   -3.6548  -19.9376    0.0000 C   0  0
   -4.4772  -19.8528    0.0000 N   0  0
   -4.6496  -19.0426    0.0000 C   0  0
   -5.3613  -18.6301    0.0000 C   0  0
   -6.0812  -19.0426    0.0000 O   0  0
   -5.3613  -17.8051    0.0000 N   0  0
   -4.6496  -17.3926    0.0000 C   0  0
   -4.6496  -16.5676    0.0000 N   0  0
   -3.9337  -17.8051    0.0000 N   0  0
   -3.9337  -18.6301    0.0000 C   0  0
    0.6831  -16.6939    0.0000 O   0  0
    0.6997  -17.5187    0.0000 P   0  0
    1.5208  -17.5167    0.0000 N   0  0
    1.1042  -18.2292    0.0000 O   0  0
   -1.9042  -20.2792    0.0000 N   0  0
   -0.2917  -15.3958    0.0000 C   0  0
   14.0567  -15.3886    0.0000 O   0  0
   -1.7566  -15.6658    0.0000 O   0  0
 13 14  2  0
156158  2  0
  1156  1  0
  7 14  1  0
  1  2  1  0
 70 71  1  0
 72 71  1  6
 72 73  1  0
 73 74  1  0
 75 76  1  0
 76 77  1  0
 72 77  1  0
 76 78  1  6
 78 79  1  0
 79 80  2  0
 79 81  1  0
 81 82  1  0
 82 83  2  0
 82 84  1  0
 84 85  2  0
 78 85  1  0
159160  1  0
161160  1  6
161162  1  0
162163  1  1
162164  1  0
164165  1  0
165166  1  0
161166  1  0
165167  1  6
167168  1  0
168169  2  0
169170  1  0
170171  1  0
171172  2  0
171173  1  0
173174  1  0
174175  1  0
174176  2  0
176177  1  0
170177  2  0
167177  1  0
  3  2  1  6
 15 16  1  0
 17 16  1  6
 17 18  1  0
 34 35  1  0
 36 35  1  6
 36 37  1  0
 37 38  1  0
 38 39  1  1
 38 40  1  0
 40 41  1  0
 36 41  1  0
 40 42  1  6
 42 43  1  0
 43 44  2  0
 44 45  1  0
 45 46  1  0
 46 47  2  0
 87 86  1  6
178179  1  0
180179  1  6
180181  1  0
181182  1  1
181183  1  0
183184  1  0
184185  1  0
180185  1  0
184186  1  6
186187  1  0
187188  2  0
188189  1  0
189190  1  0
190191  2  0
190192  1  0
192193  1  0
193194  1  0
193195  2  0
195196  1  0
189196  2  0
186196  1  0
 87 88  1  0
 88 89  1  1
 88 90  1  0
 90 91  1  0
 91 92  1  0
 87 92  1  0
 91 93  1  6
 93 94  1  0
 94 95  2  0
 95 96  1  0
 96 97  1  0
 97 98  2  0
 97 99  1  0
 99100  1  0
100101  1  0
100102  2  0
102103  1  0
197198  1  0
199198  1  6
199200  1  0
200201  1  1
200202  1  0
202203  1  0
203204  1  0
199204  1  0
203205  1  6
205206  1  0
206207  2  0
206208  1  0
208209  1  0
209210  2  0
209211  1  0
211212  1  0
211213  2  0
205213  1  0
 96103  2  0
 93103  1  0
 46 48  1  0
 86104  1  0
 48 49  1  0
 49 50  1  0
 49 51  2  0
 51 52  1  0
 45 52  2  0
 42 52  1  0
 18 19  1  1
 18 20  1  0
 20 21  1  0
 21 22  1  0
 17 22  1  0
 21 23  1  6
 23 24  1  0
214215  1  0
216215  1  6
216217  1  0
217218  1  1
217219  1  0
219220  1  0
220221  1  0
216221  1  0
220222  1  6
222223  1  0
223224  2  0
223225  1  0
225226  1  0
226227  2  0
226228  1  0
228229  1  0
228230  2  0
222230  1  0
 24 25  2  0
 25 26  1  0
 26 27  1  0
 27 28  2  0
 27 29  1  0
106105  1  6
106107  1  0
107108  1  1
107109  1  0
109110  1  0
110111  1  0
106111  1  0
110112  1  6
112113  1  0
113114  2  0
114115  1  0
115116  1  0
116117  2  0
232231  1  6
232233  1  0
233234  1  1
233235  1  0
235236  1  0
236237  1  0
232237  1  0
236238  1  6
238239  1  0
239240  2  0
240241  1  0
241242  1  0
242243  2  0
242244  1  0
244245  1  0
245246  1  0
245247  2  0
247248  1  0
241248  2  0
238248  1  0
116118  1  0
234249  1  0
249214  1  0
118119  1  0
249250  2  0
119120  1  0
249251  1  0
119121  2  0
231252  1  0
121122  1  0
115122  2  0
112122  1  0
 29 30  1  0
108123  1  0
123104  1  0
 30 31  1  0
105124  1  0
 30 32  2  0
123125  2  0
 32 33  1  0
123126  1  0
 26 33  2  0
 89127  1  0
127 70  1  0
 53 54  1  0
127128  1  0
 55 54  1  6
127129  2  0
253254  1  0
255254  1  6
255256  1  0
256257  1  1
256258  1  0
258259  1  0
259260  1  0
255260  1  0
259261  1  6
261262  1  0
262263  2  0
263264  1  0
264265  1  0
265266  2  0
265267  1  0
267268  1  0
268269  1  0
268270  2  0
270271  1  0
264271  2  0
261271  1  0
 55 56  1  0
 74130  1  0
130 53  1  0
 56 57  1  1
130131  2  0
 56 58  1  0
130132  1  0
 58 59  1  0
 57133  1  0
133 34  1  0
 59 60  1  0
133134  1  0
 55 60  1  0
133135  2  0
 59 61  1  6
 39136  1  0
136 15  1  0
272273  1  0
274273  1  6
274275  1  0
275276  1  1
275277  1  0
277278  1  0
278279  1  0
274279  1  0
278280  1  6
280281  1  0
281282  2  0
281283  1  0
283284  1  0
284285  2  0
284286  1  0
286287  1  0
286288  2  0
280288  1  0
 61 62  1  0
136137  1  0
289290  2  0
289272  1  0
 62 63  2  0
276291  1  0
291253  1  0
136138  2  0
291292  1  0
 62 64  1  0
291293  2  0
124139  1  0
257294  1  0
294252  1  0
 64 65  1  0
294295  2  0
139140  1  0
294296  1  0
 65 66  2  0
218297  1  0
297197  1  0
139141  2  0
297298  2  0
 65 67  1  0
297299  1  0
140142  1  0
201300  1  0
300178  1  0
 67 68  1  0
300301  1  0
142143  1  0
300302  2  0
 67 69  2  0
182303  1  0
303159  1  0
143144  1  0
303304  1  0
 61 69  1  0
303305  2  0
145144  1  1
145146  1  0
 23 33  1  0
  3330  1  0
146147  1  0
147149  1  0
148145  1  0
148149  1  0
  4  5  1  0
  5  6  1  0
  3  6  1  0
  5  7  1  6
  7  8  1  0
149150  1  0
150151  1  0
151152  1  0
152148  1  0
  8  9  2  0
148153  1  6
306307  1  0
308307  1  6
308309  1  0
309310  1  1
309311  1  0
311312  1  0
312313  1  0
308313  1  0
312314  1  6
314315  1  0
315316  2  0
316317  1  0
317318  1  0
318319  2  0
318320  1  0
320321  1  0
321322  1  0
321323  2  0
323324  1  0
317324  2  0
314324  1  0
  8 10  1  0
149154  1  6
325326  1  0
326306  1  0
 10 11  1  0
326327  1  0
151155  2  0
326328  2  0
289310  1  0
 11 12  2  0
289329  1  0
330325  1  0
 19156  1  0
 11 13  1  0
 75331  1  0
156157  1  0
  4332  1  0
M  END