
  CDK    9/16/09,9:46

 21 23  0  0  0  0  0  0  0  0999 V2000
   12.3812  -14.5853    0.0000 C   0  0  0  0  0  0  0  0  0  0  0  0
   12.3800  -15.4103    0.0000 C   0  0  0  0  0  0  0  0  0  0  0  0
   13.0908  -15.8219    0.0000 C   0  0  0  0  0  0  0  0  0  0  0  0
   13.0888  -14.1737    0.0000 C   0  0  0  0  0  0  0  0  0  0  0  0
   11.6686  -14.1746    0.0000 O   0  0  0  0  0  0  0  0  0  0  0  0
   13.8039  -14.5807    0.0000 C   0  0  0  0  0  0  0  0  0  0  0  0
   13.8039  -15.4077    0.0000 C   0  0  0  0  0  0  0  0  0  0  0  0
   15.2330  -14.5807    0.0000 C   0  0  0  0  0  0  0  0  0  0  0  0
   14.5162  -14.1649    0.0000 C   0  0  0  0  0  0  0  0  0  0  0  0
   15.8118  -17.1595    0.0000 C   0  0  0  0  0  0  0  0  0  0  0  0
   14.5164  -15.8216    0.0000 C   0  0  0  0  0  0  0  0  0  0  0  0
   15.2330  -15.4077    0.0000 N   0  0  0  0  0  0  0  0  0  0  0  0
   16.0370  -15.7232    0.0000 C   0  0  0  0  0  0  0  0  0  0  0  0
   16.2694  -16.4836    0.0000 C   0  0  0  0  0  0  0  0  0  0  0  0
   15.0068  -17.2583    0.0000 C   0  0  0  0  0  0  0  0  0  0  0  0
   14.4072  -16.6489    0.0000 C   0  0  0  0  0  0  0  0  0  0  0  0
   13.5817  -16.8640    0.0000 C   0  0  0  0  0  0  0  0  0  0  0  0
   13.3547  -17.6880    0.0000 C   0  0  0  0  0  0  0  0  0  0  0  0
   13.9595  -18.2968    0.0000 C   0  0  0  0  0  0  0  0  0  0  0  0
   14.7828  -18.0786    0.0000 C   0  0  0  0  0  0  0  0  0  0  0  0
   15.9377  -14.9874    0.0000 C   0  0  0  0  0  0  0  0  0  0  0  0
  4  1  1  0  0  0  0 
  1  5  1  0  0  0  0 
  6  7  1  0  0  0  0 
  2  3  1  0  0  0  0 
 15 10  1  0  0  0  0 
 16 11  1  0  0  0  0 
 12 13  1  0  0  0  0 
 13 14  1  0  0  0  0 
 14 10  1  0  0  0  0 
  3  7  2  0  0  0  0 
  1  2  2  0  0  0  0 
 15 16  2  0  0  0  0 
  6  4  2  0  0  0  0 
 16 17  1  0  0  0  0 
  6  9  1  0  0  0  0 
 17 18  2  0  0  0  0 
  7 11  1  0  0  0  0 
 18 19  1  0  0  0  0 
 12  8  1  0  0  0  0 
 19 20  2  0  0  0  0 
 20 15  1  0  0  0  0 
  8  9  1  0  0  0  0 
 12 21  1  0  0  0  0 
M  END