
          11280715522D 1   1.00000     0.00000     0

 46 49  0     1  0            999 V2000
   -4.6931  -21.3125    0.0000 C   0  0  0  0  0  0           0  0  0
   -4.6943  -22.1398    0.0000 C   0  0  0  0  0  0           0  0  0
   -3.9794  -22.5527    0.0000 C   0  0  0  0  0  0           0  0  0
   -3.9812  -20.8997    0.0000 C   0  0  0  0  0  0           0  0  0
   -3.2659  -21.3088    0.0000 C   0  0  0  0  0  0           0  0  0
   -3.2651  -22.1357    0.0000 C   0  0  0  0  0  0           0  0  0
   -2.5498  -22.5466    0.0000 N   0  0  0  0  0  0           0  0  0
   -1.8348  -22.1319    0.0000 C   0  0  0  0  0  0           0  0  0
   -1.8395  -21.3019    0.0000 C   0  0  0  0  0  0           0  0  0
   -2.5554  -20.8947    0.0000 C   0  0  0  0  0  0           0  0  0
   -3.9775  -23.3777    0.0000 O   0  0  0  0  0  0           0  0  0
   -3.2621  -23.7885    0.0000 C   0  0  0  0  0  0           0  0  0
   -3.2602  -24.6135    0.0000 C   0  0  0  0  0  0           0  0  0
   -3.9763  -25.0233    0.0000 C   0  0  0  0  0  0           0  0  0
   -3.9747  -25.8476    0.0000 C   0  0  0  0  0  0           0  0  0
   -3.2588  -26.2592    0.0000 C   0  0  0  0  0  0           0  0  0
   -2.5429  -25.8406    0.0000 C   0  0  0  0  0  0           0  0  0
   -2.5480  -25.0178    0.0000 C   0  0  0  0  0  0           0  0  0
   -4.6904  -24.6101    0.0000 Cl  0  0  0  0  0  0           0  0  0
   -1.8363  -24.6004    0.0000 Cl  0  0  0  0  0  0           0  0  0
   -1.1187  -22.5416    0.0000 C   0  0  0  0  0  0           0  0  0
   -1.8260  -26.2489    0.0000 S   0  0  3  0  0  0           0  0  0
   -1.1167  -26.6583    0.0000 N   0  0  0  0  0  0           0  0  0
   -1.4470  -25.6895    0.0000 O   0  0  0  0  0  0           0  0  0
   -2.2311  -26.9676    0.0000 O   0  0  0  0  0  0           0  0  0
   -0.3398  -26.1520    0.0000 C   0  0  3  0  0  0           0  0  0
    0.3083  -25.8250    0.0000 C   0  0  0  0  0  0           0  0  0
    0.0142  -26.9579    0.0000 C   0  0  0  0  0  0           0  0  0
   -0.6007  -25.5340    0.0000 C   0  0  0  0  0  0           0  0  0
    0.2993  -25.0000    0.0000 O   0  0  0  0  0  0           0  0  0
    1.0273  -26.2296    0.0000 N   0  0  3  0  0  0           0  0  0
    1.0318  -27.0551    0.0000 C   0  0  0  0  0  0           0  0  0
    1.7467  -27.4597    0.0000 C   0  0  0  0  0  0           0  0  0
    2.4591  -27.0429    0.0000 N   0  0  3  0  0  0           0  0  0
    2.4520  -26.2169    0.0000 C   0  0  0  0  0  0           0  0  0
    1.7326  -25.8078    0.0000 C   0  0  0  0  0  0           0  0  0
    3.1765  -27.4502    0.0000 C   0  0  0  0  0  0           0  0  0
    3.8880  -27.0326    0.0000 O   0  0  0  0  0  0           0  0  0
    3.1824  -28.2752    0.0000 C   0  0  2  0  0  0           0  0  0
    3.8998  -28.6826    0.0000 C   0  0  0  0  0  0           0  0  0
    2.4709  -28.6928    0.0000 N   0  0  0  0  0  0           0  0  0
    4.6113  -28.2650    0.0000 C   0  0  0  0  0  0           0  0  0
    5.3287  -28.6723    0.0000 C   0  0  0  0  0  0           0  0  0
    6.0402  -28.2547    0.0000 N   0  0  3  0  0  0           0  0  0
    6.7576  -28.6621    0.0000 C   0  0  0  0  0  0           0  0  0
    6.0343  -27.4297    0.0000 C   0  0  0  0  0  0           0  0  0
 17 22  1  0     0  0
 22 23  1  0     0  0
  3 11  1  0     0  0
 22 24  2  0     0  0
  2  3  1  0     0  0
 22 25  2  0     0  0
 11 12  1  0     0  0
 23 26  1  0     0  0
  5  6  1  0     0  0
 26 27  1  0     0  0
 12 13  1  0     0  0
 26 28  1  0     0  0
  3  6  2  0     0  0
 26 29  1  0     0  0
 13 14  2  0     0  0
 27 30  2  0     0  0
  6  7  1  0     0  0
 27 31  1  0     0  0
 31 32  1  0     0  0
 14 15  1  0     0  0
  1  2  2  0     0  0
 15 16  2  0     0  0
  7  8  2  0     0  0
 16 17  1  0     0  0
 31 36  1  0     0  0
 32 33  1  0     0  0
 33 34  1  0     0  0
 34 35  1  0     0  0
 35 36  1  0     0  0
  5  4  2  0     0  0
 34 37  1  0     0  0
 17 18  2  0     0  0
 37 38  2  0     0  0
 18 13  1  0     0  0
 37 39  1  0     0  0
  8  9  1  0     0  0
 39 40  1  0     0  0
 14 19  1  0     0  0
 39 41  1  6     0  0
  4  1  1  0     0  0
 40 42  1  0     0  0
 18 20  1  0     0  0
 42 43  1  0     0  0
  9 10  2  0     0  0
 43 44  1  0     0  0
  8 21  1  0     0  0
 44 45  1  0     0  0
 10  5  1  0     0  0
 44 46  1  0     0  0
M  END