
  SciTegic02271515072D

 29 32  0  0  0  0            999 V2000
   11.4104  -20.2523    0.0000 C   0  0
   11.4092  -21.0718    0.0000 C   0  0
   12.1173  -21.4808    0.0000 N   0  0
   12.1155  -19.8434    0.0000 C   0  0
   12.8241  -20.2487    0.0000 C   0  0
   12.8244  -21.0718    0.0000 C   0  0
   13.6073  -21.3260    0.0000 S   0  0
   14.0910  -20.6599    0.0000 N   0  0
   13.6069  -19.9941    0.0000 C   0  0
   13.8592  -19.2169    0.0000 N   0  0
   13.3122  -18.6097    0.0000 C   0  0
   13.5645  -17.8325    0.0000 C   0  0
   12.5129  -18.7799    0.0000 O   0  0
   10.7066  -19.8396    0.0000 C   0  0
   10.7153  -19.0228    0.0000 C   0  0
   10.0124  -18.6102    0.0000 C   0  0
    9.3021  -19.0135    0.0000 C   0  0
    9.2993  -19.8335    0.0000 C   0  0
   10.0028  -20.2424    0.0000 C   0  0
    8.5966  -18.6011    0.0000 O   0  0
    8.5903  -20.2399    0.0000 O   0  0
    7.8839  -19.8290    0.0000 C   0  0
    7.8867  -19.0058    0.0000 C   0  0
   12.9783  -17.2736    0.0000 C   0  0
   13.0497  -16.4577    0.0000 C   0  0
   14.3772  -17.7251    0.0000 C   0  0
   13.7278  -16.0039    0.0000 C   0  0
   14.7952  -17.0213    0.0000 C   0  0
   14.5037  -16.2568    0.0000 C   0  0
  1  2  2  0
  2  3  1  0
  3  6  2  0
  5  4  2  0
  4  1  1  0
  5  6  1  0
  6  7  1  0
  7  8  1  0
  8  9  2  0
  9  5  1  0
  9 10  1  0
 10 11  1  0
 11 12  1  0
 11 13  2  0
  1 14  1  0
 14 15  2  0
 15 16  1  0
 16 17  2  0
 17 18  1  0
 18 19  2  0
 19 14  1  0
 17 20  1  0
 18 21  1  0
 21 22  1  0
 20 23  1  0
 12 24  1  0
 24 25  1  0
 12 26  1  0
 25 27  1  0
 26 28  1  0
 27 29  1  0
 28 29  1  0
M  END