
  SciTegic04201611242D

 21 23  0  0  0  0            999 V2000
   -6.1957    1.8288    0.0000 O   0  0
   -6.1932    3.0288    0.0000 S   0  0
   -7.2336    2.4308    0.0000 O   0  0
   -2.3155    0.7475    0.0000 N   0  0
   -2.3155   -0.7475    0.0000 C   0  0
   -1.0028   -1.5132    0.0000 N   0  0
   -1.0028    1.5132    0.0000 C   0  0
    0.2917    0.7475    0.0000 C   0  0
    0.2917   -0.7475    0.0000 C   0  0
    1.7138   -1.2033    0.0000 N   0  0
    2.5889    0.0182    0.0000 C   0  0
    1.7138    1.2033    0.0000 N   0  0
   -0.9971    3.0138    0.0000 N   0  0
   -2.2935    3.7700    0.0000 C   0  0
   -2.2901    5.2700    0.0000 C   0  0
   -3.5873    6.0231    0.0000 C   0  0
   -4.8881    5.2761    0.0000 C   0  0
   -4.8917    3.7761    0.0000 C   0  0
   -3.5944    3.0231    0.0000 C   0  0
   -7.4917    3.7815    0.0000 N   0  0
   -8.5323    3.1840    0.0000 C   0  0
  2  1  2  0
  3  2  2  0
  4  5  2  0
  5  6  1  0
  6  9  2  0
  8  7  2  0
  7  4  1  0
  8  9  1  0
  9 10  1  0
 10 11  1  0
 11 12  2  0
 12  8  1  0
  7 13  1  0
 13 14  1  0
 14 15  2  0
 15 16  1  0
 16 17  2  0
 17 18  1  0
 18 19  2  0
 19 14  1  0
 18  2  1  0
  2 20  1  0
 20 21  1  0
M  END