
          11280715492D 1   1.00000     0.00000     0

 26 29  0     1  0            999 V2000
    8.7525    1.3476    0.0000 C   0  0  0  0  0  0           0  0  0
    8.0212    1.6847    0.0000 N   0  0  3  0  0  0           0  0  0
    8.6044    2.0917    0.0000 C   0  0  0  0  0  0           0  0  0
    7.2010    1.3327    0.0000 C   0  0  0  0  0  0           0  0  0
    8.1578    2.6985    0.0000 C   0  0  0  0  0  0           0  0  0
    7.8820    2.4158    0.0000 C   0  0  3  0  0  0           0  0  0
    7.0975    2.0700    0.0000 C   0  0  2  0  0  0           0  0  0
    7.9196    3.2905    0.0000 C   0  0  0  0  0  0           0  0  0
    6.8772    2.8690    0.0000 O   0  0  0  0  0  0           0  0  0
    6.0804    3.0762    0.0000 C   0  0  0  0  0  0           0  0  0
    6.2951    1.8586    0.0000 C   0  0  0  0  0  0           0  0  0
    5.4967    1.6465    0.0000 C   0  0  0  0  0  0           0  0  0
    4.6984    1.4345    0.0000 C   0  0  3  0  0  0           0  0  0
    3.9001    1.2224    0.0000 C   0  0  0  0  0  0           0  0  0
    4.9098    0.6388    0.0000 C   0  0  3  0  0  0           0  0  0
    4.4871    2.2302    0.0000 O   0  0  0  0  0  0           0  0  0
    3.3156    1.8076    0.0000 C   0  0  0  0  0  0           0  0  0
    2.5215    1.5960    0.0000 C   0  0  0  0  0  0           0  0  0
    2.3053    0.7979    0.0000 C   0  0  0  0  0  0           0  0  0
    2.8900    0.2115    0.0000 C   0  0  0  0  0  0           0  0  0
    3.6849    0.4260    0.0000 C   0  0  0  0  0  0           0  0  0
    4.3196    0.0593    0.0000 C   0  0  0  0  0  0           0  0  0
    4.5282   -0.7334    0.0000 C   0  0  0  0  0  0           0  0  0
    5.3221   -0.9524    0.0000 C   0  0  0  0  0  0           0  0  0
    5.9076   -0.3722    0.0000 C   0  0  0  0  0  0           0  0  0
    5.6991    0.4269    0.0000 C   0  0  0  0  0  0           0  0  0
  2  5  1  0     0  0
 12 13  1  0     0  0
  3  6  1  0     0  0
 13 14  1  0     0  0
  4  7  1  0     0  0
 13 15  1  0     0  0
  5  8  1  0     0  0
 13 16  1  0     0  0
  6  7  1  0     0  0
 14 17  2  0     0  0
  6  8  1  0     0  0
 17 18  1  0     0  0
 18 19  2  0     0  0
  7  9  1  1     0  0
 19 20  1  0     0  0
  1  2  1  0     0  0
 20 21  2  0     0  0
 21 14  1  0     0  0
 15 22  1  0     0  0
  9 10  1  0     0  0
  1  3  1  0     0  0
  7 11  1  0     0  0
  2  4  1  0     0  0
 11 12  3  0     0  0
 15 26  1  0     0  0
 22 23  1  0     0  0
 23 24  1  0     0  0
 24 25  1  0     0  0
 25 26  1  0     0  0
M  END