
          05270816392D 1   1.00000     0.00000     0

 35 40  0     1  0            999 V2000
    8.7161  -23.2378    0.0000 C   0  0  0  0  0  0           0  0  0
    8.7147  -24.0608    0.0000 C   0  0  0  0  0  0           0  0  0
   10.1394  -23.2337    0.0000 C   0  0  0  0  0  0           0  0  0
    9.4303  -22.8249    0.0000 C   0  0  0  0  0  0           0  0  0
   10.1424  -24.0602    0.0000 C   0  0  0  0  0  0           0  0  0
    9.4311  -24.4747    0.0000 C   0  0  0  0  0  0           0  0  0
    9.4297  -25.2969    0.0000 C   0  0  0  0  0  0           0  0  0
   10.1428  -25.7108    0.0000 C   0  0  0  0  0  0           0  0  0
    8.0988  -24.6128    0.0000 N   0  0  0  0  0  0           0  0  0
    8.6453  -25.5514    0.0000 C   0  0  0  0  0  0           0  0  0
   10.8572  -24.4724    0.0000 C   0  0  2  0  0  0           0  0  0
   10.8580  -25.3003    0.0000 C   0  0  2  0  0  0           0  0  0
   11.5715  -25.7111    0.0000 N   0  0  3  0  0  0           0  0  0
   12.2886  -25.2987    0.0000 C   0  0  0  0  0  0           0  0  0
   12.2877  -24.4710    0.0000 C   0  0  1  0  0  0           0  0  0
   11.5697  -24.0555    0.0000 C   0  0  0  0  0  0           0  0  0
   10.8489  -26.1207    0.0000 H   0  0  0  0  0  0           0  0  0
   10.8489  -23.6456    0.0000 H   0  0  0  0  0  0           0  0  0
   13.0021  -24.0584    0.0000 C   0  0  0  0  0  0           0  0  0
   13.0021  -23.2334    0.0000 O   0  0  0  0  0  0           0  0  0
   13.7166  -24.4709    0.0000 N   0  0  3  0  0  0           0  0  0
   13.7115  -25.3012    0.0000 C   0  0  0  0  0  0           0  0  0
   14.4219  -25.7136    0.0000 C   0  0  0  0  0  0           0  0  0
   15.1388  -25.3046    0.0000 N   0  0  3  0  0  0           0  0  0
   15.1408  -24.4787    0.0000 C   0  0  0  0  0  0           0  0  0
   14.4258  -24.0617    0.0000 C   0  0  0  0  0  0           0  0  0
   15.8517  -25.7198    0.0000 C   0  0  0  0  0  0           0  0  0
   15.8437  -26.5436    0.0000 C   0  0  0  0  0  0           0  0  0
   16.5557  -26.9588    0.0000 C   0  0  0  0  0  0           0  0  0
   17.2728  -26.5489    0.0000 C   0  0  0  0  0  0           0  0  0
   17.2733  -25.7196    0.0000 C   0  0  0  0  0  0           0  0  0
   16.5606  -25.3082    0.0000 C   0  0  0  0  0  0           0  0  0
   11.5711  -26.5361    0.0000 C   0  0  0  0  0  0           0  0  0
   17.9863  -26.9632    0.0000 Cl  0  0  0  0  0  0           0  0  0
    8.3509  -26.3221    0.0000 Cl  0  0  0  0  0  0           0  0  0
 15 16  1  0     0  0
  6  7  1  0     0  0
 12 17  1  1     0  0
  7  8  1  0     0  0
 11 18  1  6     0  0
  8 12  1  0     0  0
 15 19  1  1     0  0
  3  4  2  0     0  0
 19 20  2  0     0  0
  2  9  1  0     0  0
 19 21  1  0     0  0
 21 22  1  0     0  0
  4  1  1  0     0  0
  7 10  2  0     0  0
  9 10  1  0     0  0
 11 12  1  0     0  0
  5  6  2  0     0  0
 21 26  1  0     0  0
 22 23  1  0     0  0
 23 24  1  0     0  0
 24 25  1  0     0  0
 25 26  1  0     0  0
  2  6  1  0     0  0
 24 27  1  0     0  0
 27 28  2  0     0  0
  5  3  1  0     0  0
 28 29  1  0     0  0
  1  2  2  0     0  0
 29 30  2  0     0  0
  5 11  1  0     0  0
 30 31  1  0     0  0
 11 16  1  0     0  0
 31 32  2  0     0  0
 32 27  1  0     0  0
 12 13  1  0     0  0
 13 33  1  0     0  0
 13 14  1  0     0  0
 30 34  1  0     0  0
 14 15  1  0     0  0
 10 35  1  0     0  0
M  END