
  SciTegic09261415472D

  9  9  0  0  0  0            999 V2000
   19.1286  -15.8414    0.0000 N   0  0
   19.6184  -16.5094    0.0000 N   0  0
   19.1369  -17.1813    0.0000 C   0  0
   18.3481  -16.9336    0.0000 C   0  0
   18.3422  -16.1040    0.0000 C   0  0
   17.6850  -17.4243    0.0000 C   0  0
   16.9285  -17.0952    0.0000 C   0  0
   16.2653  -17.5858    0.0000 C   0  0
   15.5088  -17.2567    0.0000 Cl  0  0
  1  2  1  0
  2  3  2  0
  3  4  1  0
  4  5  2  0
  1  5  1  0
  4  6  1  0
  6  7  1  0
  7  8  1  0
  8  9  1  0
M  END