
  CDK    9/16/09,9:47

 41 44  0  0  0  0  0  0  0  0999 V2000
   15.1703   -7.2879    0.0000 C   0  0  0  0  0  0  0  0  0  0  0  0
   14.6878   -6.6189    0.0000 N   0  0  0  0  0  0  0  0  0  0  0  0
   13.9035   -6.8729    0.0000 C   0  0  0  0  0  0  0  0  0  0  0  0
   15.9910   -7.2914    0.0000 C   0  0  0  0  0  0  0  0  0  0  0  0
   16.4050   -8.0030    0.0000 C   0  0  0  0  0  0  0  0  0  0  0  0
   17.2320   -8.0051    0.0000 C   0  0  0  0  0  0  0  0  0  0  0  0
   17.6468   -8.7136    0.0000 C   0  0  0  0  0  0  0  0  0  0  0  0
   18.4718   -8.7174    0.0000 C   0  0  0  0  0  0  0  0  0  0  0  0
   18.8858   -9.4248    0.0000 C   0  0  0  0  0  0  0  0  0  0  0  0
   19.7137   -9.4260    0.0000 C   0  0  0  0  0  0  0  0  0  0  0  0
   20.1236  -10.1394    0.0000 O   0  0  0  0  0  0  0  0  0  0  0  0
   20.1266   -8.7101    0.0000 O   0  0  0  0  0  0  0  0  0  0  0  0
   17.6469   -7.2872    0.0000 O   0  0  0  0  0  0  0  0  0  0  0  0
   18.8848   -7.9996    0.0000 O   0  0  0  0  0  0  0  0  0  0  0  0
   13.1944   -6.4511    0.0000 C   0  0  0  0  0  0  0  0  0  0  0  0
   12.4687   -6.8615    0.0000 N   0  0  0  0  0  0  0  0  0  0  0  0
   13.2012   -5.6229    0.0000 O   0  0  0  0  0  0  0  0  0  0  0  0
   14.6764   -7.9528    0.0000 C   0  0  0  0  0  0  0  0  0  0  0  0
   13.8977   -7.7002    0.0000 C   0  0  0  0  0  0  0  0  0  0  0  0
   13.1759   -8.1201    0.0000 C   0  0  0  0  0  0  0  0  0  0  0  0
   14.6727   -8.7726    0.0000 C   0  0  0  0  0  0  0  0  0  0  0  0
   13.9549   -9.1795    0.0000 C   0  0  0  0  0  0  0  0  0  0  0  0
   13.9494  -10.0026    0.0000 C   0  0  0  0  0  0  0  0  0  0  0  0
   14.6607  -10.4198    0.0000 C   0  0  0  0  0  0  0  0  0  0  0  0
   15.3792  -10.0080    0.0000 C   0  0  0  0  0  0  0  0  0  0  0  0
   15.3813   -9.1863    0.0000 C   0  0  0  0  0  0  0  0  0  0  0  0
   14.6566  -11.2437    0.0000 F   0  0  0  0  0  0  0  0  0  0  0  0
   12.4542   -7.7031    0.0000 C   0  0  0  0  0  0  0  0  0  0  0  0
   11.7329   -8.1220    0.0000 C   0  0  0  0  0  0  0  0  0  0  0  0
   11.7350   -8.9578    0.0000 C   0  0  0  0  0  0  0  0  0  0  0  0
   12.4644   -9.3727    0.0000 C   0  0  0  0  0  0  0  0  0  0  0  0
   13.1826   -8.9514    0.0000 C   0  0  0  0  0  0  0  0  0  0  0  0
   11.7590   -6.4431    0.0000 C   0  0  0  0  0  0  0  0  0  0  0  0
   11.0419   -6.8488    0.0000 C   0  0  0  0  0  0  0  0  0  0  0  0
   10.3370   -6.4273    0.0000 N   0  0  0  0  0  0  0  0  0  0  0  0
    9.6204   -6.8322    0.0000 C   0  0  0  0  0  0  0  0  0  0  0  0
    9.6126   -7.6569    0.0000 C   0  0  0  0  0  0  0  0  0  0  0  0
   10.3274   -8.0751    0.0000 N   0  0  0  0  0  0  0  0  0  0  0  0
   11.0412   -7.6678    0.0000 C   0  0  0  0  0  0  0  0  0  0  0  0
    8.8959   -8.0635    0.0000 C   0  0  0  0  0  0  0  0  0  0  0  0
   14.9440   -5.8360    0.0000 C   0  0  0  0  0  0  0  0  0  0  0  0
  2  3  1  0  0  0  0 
  3 19  2  0  0  0  0 
 21 22  2  0  0  0  0 
  1  4  1  0  0  0  0 
 22 23  1  0  0  0  0 
  4  5  1  0  0  0  0 
 23 24  2  0  0  0  0 
  5  6  1  0  0  0  0 
 24 25  1  0  0  0  0 
  6  7  1  0  0  0  0 
 25 26  2  0  0  0  0 
 26 21  1  0  0  0  0 
 18 21  1  0  0  0  0 
  7  8  1  0  0  0  0 
 24 27  1  0  0  0  0 
  8  9  1  0  0  0  0 
 20 28  2  0  0  0  0 
  9 10  1  0  0  0  0 
 28 29  1  0  0  0  0 
 10 11  1  0  0  0  0 
 29 30  2  0  0  0  0 
 10 12  2  0  0  0  0 
 30 31  1  0  0  0  0 
  6 13  1  1  0  0  0 
 31 32  2  0  0  0  0 
 32 20  1  0  0  0  0 
  8 14  1  1  0  0  0 
 16 33  1  0  0  0  0 
  3 15  1  0  0  0  0 
 33 34  1  0  0  0  0 
 15 16  1  0  0  0  0 
 34 35  2  0  0  0  0 
 15 17  2  0  0  0  0 
 35 36  1  0  0  0  0 
 18 19  1  0  0  0  0 
 36 37  2  0  0  0  0 
 37 38  1  0  0  0  0 
 18  1  2  0  0  0  0 
 38 39  2  0  0  0  0 
 39 34  1  0  0  0  0 
  1  2  1  0  0  0  0 
 37 40  1  0  0  0  0 
 19 20  1  0  0  0  0 
  2 41  1  0  0  0  0 
M  END