
          11280715212D 1   1.00000     0.00000     0

 33 33  0     1  0            999 V2000
    4.4750    0.1208    0.0000 C   0  0  1  0  0  0           0  0  0
    5.1875    0.5333    0.0000 C   0  0  0  0  0  0           0  0  0
    3.7625    0.5250    0.0000 N   0  0  0  0  0  0           0  0  0
    3.0500    0.1125    0.0000 C   0  0  0  0  0  0           0  0  0
    0.9000    0.5208    0.0000 C   0  0  0  0  0  0           0  0  0
    5.9000    0.1208    0.0000 O   0  0  0  0  0  0           0  0  0
    1.6125    0.1083    0.0000 N   0  0  0  0  0  0           0  0  0
    5.1875    1.3583    0.0000 O   0  0  0  0  0  0           0  0  0
    3.0500   -0.7125    0.0000 O   0  0  0  0  0  0           0  0  0
    0.9000    1.3458    0.0000 O   0  0  0  0  0  0           0  0  0
    2.3292    0.5250    0.0000 C   0  0  0  0  0  0           0  0  0
    6.6125    0.5375    0.0000 C   0  0  0  0  0  0           0  0  0
    4.4750   -0.7042    0.0000 C   0  0  0  0  0  0           0  0  0
    6.6125    1.3625    0.0000 C   0  0  0  0  0  0           0  0  0
    5.1875   -1.1167    0.0000 O   0  0  0  0  0  0           0  0  0
    0.1875    0.1083    0.0000 C   0  0  0  0  0  0           0  0  0
    7.3250    1.7833    0.0000 C   0  0  0  0  0  0           0  0  0
    5.8917    1.7708    0.0000 C   0  0  0  0  0  0           0  0  0
   -0.5250    0.5208    0.0000 C   0  0  0  0  0  0           0  0  0
   -7.6500    0.4958    0.0000 C   0  0  0  0  0  0           0  0  0
   -6.9375    0.0875    0.0000 C   0  0  0  0  0  0           0  0  0
   -4.0958    0.0958    0.0000 C   0  0  0  0  0  0           0  0  0
   -3.3750    0.5083    0.0000 C   0  0  0  0  0  0           0  0  0
   -2.6625    0.1000    0.0000 C   0  0  0  0  0  0           0  0  0
   -1.9500    0.5125    0.0000 C   0  0  0  0  0  0           0  0  0
   -1.2375    0.1083    0.0000 C   0  0  0  0  0  0           0  0  0
   -6.2167    0.5000    0.0000 C   0  0  0  0  0  0           0  0  0
   -5.5208    0.0958    0.0000 C   0  0  0  0  0  0           0  0  0
   -4.8000    0.5083    0.0000 C   0  0  0  0  0  0           0  0  0
   -8.3625    0.0833    0.0000 C   0  0  0  0  0  0           0  0  0
    5.8875    2.5958    0.0000 C   0  0  0  0  0  0           0  0  0
    7.3167    2.6083    0.0000 C   0  0  0  0  0  0           0  0  0
    6.6000    3.0208    0.0000 C   0  0  0  0  0  0           0  0  0
  2  1  1  0     0  0
  3  1  1  0     0  0
  4  3  1  0     0  0
  5  7  1  0     0  0
  6  2  1  0     0  0
  7 11  1  0     0  0
  8  2  2  0     0  0
  9  4  2  0     0  0
 10  5  2  0     0  0
 11  4  1  0     0  0
 12  6  1  0     0  0
  1 13  1  6     0  0
 14 12  1  0     0  0
 15 13  1  0     0  0
 16  5  1  0     0  0
 17 14  2  0     0  0
 18 14  1  0     0  0
 19 16  1  0     0  0
 20 21  1  0     0  0
 21 27  1  0     0  0
 22 23  1  0     0  0
 23 24  1  0     0  0
 24 25  1  0     0  0
 25 26  1  0     0  0
 26 19  1  0     0  0
 27 28  1  0     0  0
 28 29  1  0     0  0
 29 22  1  0     0  0
 30 20  1  0     0  0
 31 18  2  0     0  0
 32 17  1  0     0  0
 33 31  1  0     0  0
 32 33  2  0     0  0
M  END