
          11280715092D 1   1.00000     0.00000     0

 27 29  0     0  0            999 V2000
    1.9875    1.0333    0.0000 C   0  0  0  0  0  0           0  0  0
   -2.9333   -0.5625    0.0000 N   0  0  3  0  0  0           0  0  0
    2.5667    0.8833    0.0000 N   0  0  0  0  0  0           0  0  0
    1.8292    1.6125    0.0000 O   0  0  0  0  0  0           0  0  0
   -2.3333   -0.5667    0.0000 C   0  0  0  0  0  0           0  0  0
    1.5625    0.6083    0.0000 N   0  0  0  0  0  0           0  0  0
   -2.0250   -0.0417    0.0000 C   0  0  0  0  0  0           0  0  0
   -1.4458   -0.2000    0.0000 C   0  0  0  0  0  0           0  0  0
   -1.0250    0.2208    0.0000 C   0  0  0  0  0  0           0  0  0
    3.0417    1.2458    0.0000 C   0  0  3  0  0  0           0  0  0
    0.5542    0.3375    0.0000 C   0  0  0  0  0  0           0  0  0
   -0.4458    0.0708    0.0000 O   0  0  0  0  0  0           0  0  0
   -3.2333   -1.0792    0.0000 C   0  0  0  0  0  0           0  0  0
   -3.2250   -0.0417    0.0000 C   0  0  0  0  0  0           0  0  0
   -1.7625    0.9500    0.0000 C   0  0  0  0  0  0           0  0  0
    0.9792    0.7625    0.0000 C   0  0  0  0  0  0           0  0  0
   -2.1833    0.5333    0.0000 C   0  0  0  0  0  0           0  0  0
   -0.0208    0.4958    0.0000 C   0  0  0  0  0  0           0  0  0
   -1.1833    0.8000    0.0000 C   0  0  0  0  0  0           0  0  0
    3.5917    1.0083    0.0000 C   0  0  0  0  0  0           0  0  0
    2.9667    1.8333    0.0000 C   0  0  0  0  0  0           0  0  0
   -3.8250   -0.0417    0.0000 C   0  0  0  0  0  0           0  0  0
   -3.8333   -1.0750    0.0000 C   0  0  0  0  0  0           0  0  0
    3.4417    2.1958    0.0000 C   0  0  0  0  0  0           0  0  0
    4.0667    1.3708    0.0000 C   0  0  0  0  0  0           0  0  0
   -4.1333   -0.5542    0.0000 C   0  0  0  0  0  0           0  0  0
    4.0000    1.9625    0.0000 C   0  0  0  0  0  0           0  0  0
  2  5  1  0     0  0
  3  1  1  0     0  0
  4  1  2  0     0  0
  5  7  1  0     0  0
  6  1  1  0     0  0
  7  8  2  0     0  0
  8  9  1  0     0  0
  9 12  1  0     0  0
 10  3  1  0     0  0
 11 16  1  0     0  0
 12 18  1  0     0  0
 13  2  1  0     0  0
 14  2  1  0     0  0
 15 19  1  0     0  0
 16  6  1  0     0  0
 17 15  2  0     0  0
 18 11  1  0     0  0
 19  9  2  0     0  0
 20 10  1  0     0  0
 21 10  1  0     0  0
 22 14  1  0     0  0
 23 13  1  0     0  0
 24 21  1  0     0  0
 25 20  1  0     0  0
 26 22  1  0     0  0
 27 24  1  0     0  0
 27 25  1  0     0  0
 17  7  1  0     0  0
 26 23  1  0     0  0
M  END