
  Mrv0541 04051115152D          

 25 29  0  0  0  0            999 V2000
    3.0355    0.8267    0.0000 C   0  0  0  0  0  0  0  0  0  0  0  0
    2.7805    0.0420    0.0000 C   0  0  0  0  0  0  0  0  0  0  0  0
    1.9736   -0.1295    0.0000 N   0  0  0  0  0  0  0  0  0  0  0  0
    1.4215    0.4836    0.0000 C   0  0  0  0  0  0  0  0  0  0  0  0
    1.6765    1.2682    0.0000 C   0  0  0  0  0  0  0  0  0  0  0  0
    2.4834    1.4398    0.0000 C   0  0  0  0  0  0  0  0  0  0  0  0
    1.5611   -0.8439    0.0000 N   0  0  0  0  0  0  0  0  0  0  0  0
    0.7541   -0.6724    0.0000 C   0  0  0  0  0  0  0  0  0  0  0  0
    0.6679    0.1481    0.0000 C   0  0  0  0  0  0  0  0  0  0  0  0
   -0.0466    0.5606    0.0000 C   0  0  0  0  0  0  0  0  0  0  0  0
    0.1410   -1.2245    0.0000 C   0  0  0  0  0  0  0  0  0  0  0  0
    0.3125   -2.0314    0.0000 C   0  0  0  0  0  0  0  0  0  0  0  0
   -0.3006   -2.5835    0.0000 C   0  0  0  0  0  0  0  0  0  0  0  0
   -1.0852   -2.3285    0.0000 C   0  0  0  0  0  0  0  0  0  0  0  0
   -1.2567   -1.5215    0.0000 C   0  0  0  0  0  0  0  0  0  0  0  0
   -0.6436   -0.9695    0.0000 C   0  0  0  0  0  0  0  0  0  0  0  0
   -0.7611    0.1481    0.0000 C   0  0  0  0  0  0  0  0  0  0  0  0
   -1.4756    0.5606    0.0000 C   0  0  0  0  0  0  0  0  0  0  0  0
   -1.4756    1.3856    0.0000 C   0  0  0  0  0  0  0  0  0  0  0  0
   -0.7611    1.7981    0.0000 N   0  0  0  0  0  0  0  0  0  0  0  0
   -0.0466    1.3856    0.0000 N   0  0  0  0  0  0  0  0  0  0  0  0
   -2.2602    0.3056    0.0000 C   0  0  0  0  0  0  0  0  0  0  0  0
   -2.7451    0.9731    0.0000 N   0  0  0  0  0  0  0  0  0  0  0  0
   -2.2602    1.6405    0.0000 N   0  0  0  0  0  0  0  0  0  0  0  0
   -2.5151   -0.4790    0.0000 N   0  0  0  0  0  0  0  0  0  0  0  0
  1  2  2  0  0  0  0
  1  6  1  0  0  0  0
  2  3  1  0  0  0  0
  4  3  1  0  0  0  0
  3  7  1  0  0  0  0
  4  5  1  0  0  0  0
  4  9  2  0  0  0  0
  5  6  2  0  0  0  0
  8  7  2  0  0  0  0
  8  9  1  0  0  0  0
 11  8  1  0  0  0  0
 10  9  1  0  0  0  0
 10 17  2  0  0  0  0
 10 21  1  0  0  0  0
 11 12  2  0  0  0  0
 11 16  1  0  0  0  0
 12 13  1  0  0  0  0
 13 14  2  0  0  0  0
 14 15  1  0  0  0  0
 15 16  2  0  0  0  0
 17 18  1  0  0  0  0
 18 19  2  0  0  0  0
 18 22  1  0  0  0  0
 19 20  1  0  0  0  0
 19 24  1  0  0  0  0
 20 21  2  0  0  0  0
 22 23  2  0  0  0  0
 22 25  1  0  0  0  0
 23 24  1  0  0  0  0
M  END