
          11280716012D 1   1.00000     0.00000     0

109114  0     1  0            999 V2000
    0.0000    1.5042    0.0000 C   0  0  0  0  0  0           0  0  0
    3.8917    8.2583    0.0000 N   0  0  3  0  0  0           0  0  0
   -1.3000   -0.7500    0.0000 C   0  0  0  0  0  0           0  0  0
   -1.3000    0.7542    0.0000 C   0  0  0  0  0  0           0  0  0
   37.0083   16.0208    0.0000 N   0  0  3  0  0  0           0  0  0
   37.7958   14.7458    0.0000 C   0  0  0  0  0  0           0  0  0
    0.0042    3.0042    0.0000 C   0  0  0  0  0  0           0  0  0
    0.0000   -1.5000    0.0000 O   0  0  0  0  0  0           0  0  0
    1.3000    3.7542    0.0000 C   0  0  0  0  0  0           0  0  0
    2.5958    7.5042    0.0000 O   0  0  0  0  0  0           0  0  0
    1.2792   -0.7500    0.0000 C   0  0  0  0  0  0           0  0  0
   34.5583   14.9958    0.0000 C   0  0  0  0  0  0           0  0  0
    1.2792    0.7542    0.0000 C   0  0  0  0  0  0           0  0  0
    2.5958    6.0042    0.0000 C   0  0  0  0  0  0           0  0  0
   30.6375   14.3708    0.0000 C   0  0  0  0  0  0           0  0  0
   33.0792   15.2583    0.0000 N   0  0  0  0  0  0           0  0  0
   40.0833   13.5125    0.0000 N   0  0  0  0  0  0           0  0  0
   39.2958   14.7917    0.0000 C   0  0  1  0  0  0           0  0  0
   -2.6000   -1.5000    0.0000 C   0  0  0  0  0  0           0  0  0
   15.9667    9.0625    0.0000 C   0  0  0  0  0  0           0  0  0
    4.0292    9.7417    0.0000 C   0  0  0  0  0  0           0  0  0
    5.2417    7.6375    0.0000 C   0  0  0  0  0  0           0  0  0
   35.5250   16.1417    0.0000 C   0  0  2  0  0  0           0  0  0
   -2.6000    1.5042    0.0000 C   0  0  0  0  0  0           0  0  0
    1.3000    5.2500    0.0000 C   0  0  0  0  0  0           0  0  0
   41.5833   13.5583    0.0000 C   0  0  0  0  0  0           0  0  0
   19.8917    9.6833    0.0000 C   0  0  0  0  0  0           0  0  0
   23.3042   11.7167    0.0000 C   0  0  0  0  0  0           0  0  0
   12.5583    7.0292    0.0000 C   0  0  0  0  0  0           0  0  0
   27.2250   12.3417    0.0000 C   0  0  0  0  0  0           0  0  0
   18.4125    9.9458    0.0000 N   0  0  0  0  0  0           0  0  0
   17.4458    8.8000    0.0000 C   0  0  1  0  0  0           0  0  0
   32.1125   14.1083    0.0000 C   0  0  1  0  0  0           0  0  0
   29.6708   13.2250    0.0000 N   0  0  0  0  0  0           0  0  0
   15.0000    7.9125    0.0000 N   0  0  0  0  0  0           0  0  0
   25.7458   12.6042    0.0000 N   0  0  0  0  0  0           0  0  0
   22.3375   10.5708    0.0000 N   0  0  0  0  0  0           0  0  0
   11.0792    7.2917    0.0000 N   0  0  0  0  0  0           0  0  0
    2.7792    3.4917    0.0000 C   0  0  0  0  0  0           0  0  0
   10.6208    4.7292    0.0000 C   0  0  0  0  0  0           0  0  0
   24.7792   11.4542    0.0000 C   0  0  1  0  0  0           0  0  0
   13.5250    8.1750    0.0000 C   0  0  1  0  0  0           0  0  0
    2.5958   -1.5000    0.0000 C   0  0  0  0  0  0           0  0  0
   -3.9000    0.7542    0.0000 C   0  0  0  0  0  0           0  0  0
   -3.9000   -0.7500    0.0000 C   0  0  0  0  0  0           0  0  0
   28.1917   13.4875    0.0000 C   0  0  1  0  0  0           0  0  0
   20.8583   10.8333    0.0000 C   0  0  1  0  0  0           0  0  0
    2.5958    1.5042    0.0000 C   0  0  0  0  0  0           0  0  0
   10.1125    6.1417    0.0000 C   0  0  2  0  0  0           0  0  0
   37.2250   13.6917    0.0000 O   0  0  0  0  0  0           0  0  0
   27.2875    8.3750    0.0000 C   0  0  0  0  0  0           0  0  0
   13.4750   12.1458    0.0000 C   0  0  0  0  0  0           0  0  0
   34.9667   13.8667    0.0000 O   0  0  0  0  0  0           0  0  0
    3.6375    5.4083    0.0000 O   0  0  0  0  0  0           0  0  0
   30.2292   15.5000    0.0000 O   0  0  0  0  0  0           0  0  0
   15.5583   10.1917    0.0000 O   0  0  0  0  0  0           0  0  0
    5.4958   10.0542    0.0000 C   0  0  0  0  0  0           0  0  0
    6.2458    8.7542    0.0000 C   0  0  0  0  0  0           0  0  0
   42.1542   14.6125    0.0000 O   0  0  0  0  0  0           0  0  0
   12.9667    5.9000    0.0000 O   0  0  0  0  0  0           0  0  0
   20.3000    8.5542    0.0000 O   0  0  0  0  0  0           0  0  0
   22.8958   12.8458    0.0000 O   0  0  0  0  0  0           0  0  0
   27.6333   11.2125    0.0000 O   0  0  0  0  0  0           0  0  0
    5.4875    6.4625    0.0000 O   0  0  0  0  0  0           0  0  0
    3.1333   10.5375    0.0000 O   0  0  0  0  0  0           0  0  0
    3.1875    2.3625    0.0000 O   0  0  0  0  0  0           0  0  0
    9.8458    3.8167    0.0000 O   0  0  0  0  0  0           0  0  0
   28.4667    8.1667    0.0000 O   0  0  0  0  0  0           0  0  0
   14.2500   13.0625    0.0000 O   0  0  0  0  0  0           0  0  0
   42.3708   12.2792    0.0000 C   0  0  1  0  0  0           0  0  0
   -4.9375   -1.3500    0.0000 O   0  0  0  0  0  0           0  0  0
   25.2958   10.0458    0.0000 C   0  0  0  0  0  0           0  0  0
   13.0167    9.5875    0.0000 C   0  0  0  0  0  0           0  0  0
    3.7458    4.6333    0.0000 N   0  0  0  0  0  0           0  0  0
    3.8958   -0.7500    0.0000 C   0  0  0  0  0  0           0  0  0
   40.0083   16.1083    0.0000 C   0  0  3  0  0  0           0  0  0
   37.5708   17.4125    0.0000 C   0  0  0  0  0  0           0  0  0
   32.6292   12.7000    0.0000 C   0  0  2  0  0  0           0  0  0
   26.7708    9.7833    0.0000 C   0  0  0  0  0  0           0  0  0
   13.9833   10.7333    0.0000 C   0  0  0  0  0  0           0  0  0
   26.5167    7.4542    0.0000 N   0  0  0  0  0  0           0  0  0
    3.8958    0.7542    0.0000 C   0  0  0  0  0  0           0  0  0
   11.8000    4.5167    0.0000 O   0  0  0  0  0  0           0  0  0
   -1.2958    3.7500    0.0000 C   0  0  0  0  0  0           0  0  0
   43.5708   12.3125    0.0000 N   0  0  0  0  0  0           0  0  0
   12.2958   12.3583    0.0000 O   0  0  0  0  0  0           0  0  0
   17.9583    7.3875    0.0000 C   0  0  0  0  0  0           0  0  0
   21.3708   17.0792    0.0000 N   0  0  0  0  0  0           0  0  0
    0.0000    6.0000    0.0000 C   0  0  0  0  0  0           0  0  0
   35.1500   17.5833    0.0000 C   0  0  0  0  0  0           0  0  0
    4.9333   -1.3500    0.0000 O   0  0  0  0  0  0           0  0  0
   19.1417    7.1792    0.0000 O   0  0  0  0  0  0           0  0  0
   36.4208   18.3750    0.0000 C   0  0  0  0  0  0           0  0  0
   -1.3000    5.2458    0.0000 C   0  0  0  0  0  0           0  0  0
   20.3500   12.2458    0.0000 C   0  0  0  0  0  0           0  0  0
    8.6333    6.4042    0.0000 C   0  0  0  0  0  0           0  0  0
   27.7833   14.6167    0.0000 C   0  0  0  0  0  0           0  0  0
    5.2250    4.3708    0.0000 C   0  0  0  0  0  0           0  0  0
   21.7792   15.9500    0.0000 C   0  0  0  0  0  0           0  0  0
   34.1042   12.4375    0.0000 C   0  0  0  0  0  0           0  0  0
   41.8042   11.2250    0.0000 C   0  0  0  0  0  0           0  0  0
   41.2083   16.1417    0.0000 C   0  0  0  0  0  0           0  0  0
   39.3833   17.1333    0.0000 C   0  0  0  0  0  0           0  0  0
   31.8583   11.7792    0.0000 C   0  0  0  0  0  0           0  0  0
    7.6667    5.2583    0.0000 C   0  0  0  0  0  0           0  0  0
   21.3167   13.3917    0.0000 C   0  0  0  0  0  0           0  0  0
    6.1917    5.5208    0.0000 C   0  0  0  0  0  0           0  0  0
   20.8083   14.8042    0.0000 C   0  0  0  0  0  0           0  0  0
   34.5167   11.3125    0.0000 C   0  0  0  0  0  0           0  0  0
  2 10  1  0     0  0
  3  4  1  0     0  0
  4  1  2  0     0  0
  5 23  1  0     0  0
  6  5  1  0     0  0
  7  1  1  0     0  0
  8 11  1  0     0  0
  9  7  1  0     0  0
 10 14  1  0     0  0
 11 13  1  0     0  0
 12 16  1  0     0  0
 13  1  1  0     0  0
 14 25  1  0     0  0
 15 34  1  0     0  0
 33 16  1  1     0  0
 18 17  1  6     0  0
 18  6  1  0     0  0
 19  3  2  0     0  0
 20 35  1  0     0  0
 21  2  1  0     0  0
 22  2  1  0     0  0
 23 12  1  6     0  0
 24  4  1  0     0  0
 25  9  2  0     0  0
 26 17  1  0     0  0
 27 31  1  0     0  0
 28 37  1  0     0  0
 29 38  1  0     0  0
 30 36  1  0     0  0
 32 31  1  1     0  0
 32 20  1  0     0  0
 33 15  1  0     0  0
 34 46  1  0     0  0
 42 35  1  6     0  0
 41 36  1  1     0  0
 47 37  1  6     0  0
 49 38  1  6     0  0
 39  9  1  0     0  0
 40 49  1  0     0  0
 41 28  1  0     0  0
 42 29  1  0     0  0
 43 11  2  0     0  0
 44 24  2  0     0  0
 45 19  1  0     0  0
 46 30  1  0     0  0
 47 27  1  0     0  0
 48 13  2  0     0  0
 49 96  1  0     0  0
 50  6  2  0     0  0
 51 79  1  0     0  0
 52 80  1  0     0  0
 53 12  2  0     0  0
 54 14  2  0     0  0
 55 15  2  0     0  0
 56 20  2  0     0  0
 57 21  1  0     0  0
 58 22  1  0     0  0
 59 26  2  0     0  0
 60 29  2  0     0  0
 61 27  2  0     0  0
 62 28  2  0     0  0
 63 30  2  0     0  0
 64 22  2  0     0  0
 65 21  2  0     0  0
 66 39  2  0     0  0
 67 40  2  0     0  0
 68 51  2  0     0  0
 69 52  2  0     0  0
 70 26  1  0     0  0
 71 45  2  0     0  0
 72 41  1  0     0  0
 73 42  1  0     0  0
 74 39  1  0     0  0
 75 43  1  0     0  0
 76 18  1  0     0  0
 77  5  1  0     0  0
 78 33  1  0     0  0
 79 72  1  0     0  0
 80 73  1  0     0  0
 81 51  1  0     0  0
 82 48  1  0     0  0
 83 40  1  0     0  0
 84  7  2  0     0  0
 85 70  1  0     0  0
 86 52  1  0     0  0
 87 32  1  0     0  0
 88 99  1  0     0  0
 89 25  1  0     0  0
 90 23  1  0     0  0
 91 75  1  0     0  0
 92 87  1  0     0  0
 93 90  1  0     0  0
 94 84  1  0     0  0
 95 47  1  0     0  0
 96105  1  0     0  0
 46 97  1  6     0  0
 98 74  1  0     0  0
 99108  1  0     0  0
100 78  1  0     0  0
 70101  1  1     0  0
102 76  1  0     0  0
103 76  1  0     0  0
 78104  1  6     0  0
105107  1  0     0  0
106 95  1  0     0  0
107 98  1  0     0  0
108106  1  0     0  0
109100  1  0     0  0
  8  3  1  0     0  0
 82 75  2  0     0  0
 94 89  2  0     0  0
 45 44  1  0     0  0
 58 57  1  0     0  0
 77 93  1  0     0  0
M  END