
  SciTegic01111613442D

 30 32  0  0  0  0            999 V2000
    0.0000    0.7486    0.0000 C   0  0
    0.0000   -0.7486    0.0000 C   0  0  2  0  0  0
    1.2964   -1.4973    0.0000 C   0  0  1  0  0  0
   -1.2447   -7.4974    0.0000 C   0  0
    2.5911   -3.7520    0.0000 C   0  0
   -1.2964    1.4973    0.0000 C   0  0
    1.2964    1.4973    0.0000 C   0  0
    1.2933   -2.9981    0.0000 O   0  0
   -1.2964   -1.4973    0.0000 C   0  0  1  0  0  0
   -1.2596   -5.9975    0.0000 O   0  0
   -2.6111    0.7486    0.0000 C   0  0
   -2.5363   -8.2603    0.0000 C   0  0
   -1.2845   -2.9981    0.0000 C   0  0
    2.5929   -0.7486    0.0000 C   0  0
   -2.6111   -0.7486    0.0000 C   0  0  2  0  0  0
   -2.5660   -5.2603    0.0000 C   0  0  1  0  0  0
    3.4583   -3.2541    0.0000 O   0  0
   -3.8427   -7.5232    0.0000 C   0  0  1  0  0  0
   -0.1996   -8.0871    0.0000 O   0  0
    2.5929    0.7486    0.0000 C   0  0  1  0  0  0
   -3.8575   -6.0232    0.0000 C   0  0
    2.5880   -5.2529    0.0000 C   0  0  2  0  0  0
   -2.5778   -3.7595    0.0000 C   0  0
   -4.8759   -8.1334    0.0000 O   0  0
   -3.6486   -1.3517    0.0000 C   0  0
    3.6321    1.3486    0.0000 C   0  0
    3.8857   -6.0068    0.0000 C   0  0
    1.7208   -5.7508    0.0000 C   0  0
    3.8837   -7.0068    0.0000 C   0  0
    0.0000   -1.7486    0.0000 H   0  0
  2  1  1  0
  3  2  1  0
  4 10  1  0
  5  8  1  0
  6  1  1  0
  7  1  2  0
  3  8  1  6
  9  2  1  0
 10 16  1  0
 11  6  2  0
 12 18  1  0
  9 13  1  1
 14 20  1  0
 15 11  1  0
 16 23  1  1
 17  5  2  0
 18 21  1  0
 19  4  2  0
 20  7  1  0
 21 16  1  0
 22  5  1  0
 23 13  1  0
 18 24  1  6
 15 25  1  1
 20 26  1  6
 27 22  1  0
 22 28  1  6
 29 27  1  0
  2 30  1  1
  3 14  1  0
  9 15  1  0
  4 12  1  0
M  END