
  SciTegic05161214222D

 59 62  0  0  0  0            999 V2000
    2.6710  -12.2129    0.0000 C   0  0
    3.3858  -11.8009    0.0000 C   0  0  2  0  0  0
   -1.6083  -11.3958    0.0000 C   0  0
   -1.6083  -12.2208    0.0000 C   0  0
   -0.8963  -12.6292    0.0000 O   0  0
   -0.1843  -12.2208    0.0000 C   0  0
   -0.1843  -11.3958    0.0000 C   0  0
   -0.8963  -10.9792    0.0000 C   0  0
   -2.3260  -10.9906    0.0000 S   0  0
   -2.7343  -11.7075    0.0000 O   0  0
   -1.9094  -11.7027    0.0000 O   0  0
   -5.1931   -6.0541    0.0000 C   0  0
   -5.1943   -6.8815    0.0000 C   0  0
   -4.4794   -7.2944    0.0000 C   0  0
   -4.4812   -5.6414    0.0000 C   0  0
   -3.7659   -6.0505    0.0000 C   0  0
   -3.7651   -6.8773    0.0000 C   0  0
   -3.0498   -7.2883    0.0000 N   0  0
   -2.3348   -6.8735    0.0000 C   0  0
   -2.3395   -6.0436    0.0000 C   0  0
   -3.0554   -5.6363    0.0000 C   0  0
   -1.6187   -7.2833    0.0000 C   0  0
   -3.0598   -4.8114    0.0000 C   0  0
   -4.4775   -8.1194    0.0000 O   0  0
   -3.7621   -8.5302    0.0000 C   0  0
   -3.7602   -9.3552    0.0000 C   0  0
   -4.4763   -9.7650    0.0000 C   0  0
   -4.4747  -10.5892    0.0000 C   0  0
   -3.7588  -11.0009    0.0000 C   0  0
   -3.0429  -10.5823    0.0000 C   0  0
   -3.0480   -9.7594    0.0000 C   0  0
   -5.1904   -9.3518    0.0000 Cl  0  0
   -2.3363   -9.3421    0.0000 Cl  0  0
   -1.6140  -10.5739    0.0000 N   0  0
   -0.1851  -10.5656    0.0000 C   0  0
    0.5307  -10.9759    0.0000 N   0  0
   -0.1876   -9.7406    0.0000 O   0  0
    0.5296  -11.8009    0.0000 C   0  0
    1.2412  -12.2111    0.0000 C   0  0
    1.9569  -11.7999    0.0000 N   0  0
    1.9563  -10.9739    0.0000 C   0  0
    1.2401  -10.5592    0.0000 C   0  0
    2.6705  -13.0379    0.0000 O   0  0
    4.1000  -12.2139    0.0000 C   0  0
    4.8147  -11.8019    0.0000 C   0  0
    5.5289  -12.2149    0.0000 C   0  0
    3.3864  -10.9759    0.0000 N   0  0
    6.2437  -11.8029    0.0000 C   0  0
    6.9579  -12.2159    0.0000 N   0  3
    7.6726  -11.8039    0.0000 C   0  0
    6.9573  -13.0409    0.0000 C   0  0
    6.7449  -11.4188    0.0000 C   0  0
    6.0034   -9.9301    0.0000 F   0  0
    6.7178   -9.5176    0.0000 C   0  0
    7.4323   -9.9301    0.0000 F   0  0
    6.7117  -10.3384    0.0000 F   0  0
    6.7209   -8.6926    0.0000 C   0  0
    7.4369   -8.2828    0.0000 O   0  5
    6.0080   -8.2774    0.0000 O   0  0
 14 17  2  0
 26 27  2  0
  6  7  1  0
 27 28  1  0
 16 15  2  0
 28 29  2  0
 15 12  1  0
 29 30  1  0
  7  8  1  0
 30 31  2  0
 31 26  1  0
 10  9  2  0
 27 32  1  0
 16 17  1  0
 31 33  1  0
 30  9  1  0
  9 11  2  0
  9 34  1  0
 34  8  1  0
 17 18  1  0
  8 35  1  0
 35 36  1  0
 18 19  2  0
 35 37  2  0
 36 38  1  0
  1  2  1  0
 19 20  1  0
  3  4  1  0
 20 21  2  0
 21 16  1  0
 36 42  1  0
 38 39  1  0
 39 40  1  0
 40 41  1  0
 41 42  1  0
 40  1  1  0
  3  8  1  0
  1 43  2  0
 19 22  1  0
  2 44  1  0
  4  5  1  0
 44 45  1  0
 21 23  1  0
 45 46  1  0
 12 13  2  0
  2 47  1  1
 14 24  1  0
 46 48  1  0
  5  6  1  0
 48 49  1  0
 24 25  1  0
 49 50  1  0
 13 14  1  0
 49 51  1  0
 25 26  1  0
 49 52  1  0
 53 54  1  0
 54 56  1  0
 54 57  1  0
 54 55  1  0
 57 58  1  0
 57 59  2  0
M  CHG  2  49   1  58  -1
M  END