
  SciTegic02011310462D

 34 33  0  0  0  0            999 V2000
    3.8019   -5.8308    0.0000 C   0  0
    4.6269   -5.8308    0.0000 C   0  0
    5.0394   -5.1163    0.0000 N   0  3
    4.6269   -4.4019    0.0000 C   0  0
    3.8019   -4.4019    0.0000 C   0  0
    3.3894   -5.1163    0.0000 C   0  0
    5.8644   -5.1163    0.0000 C   0  0
    8.7519   -4.4019    0.0000 C   0  0
    8.3394   -5.1163    0.0000 C   0  0
    7.5144   -5.1163    0.0000 N   0  3
    7.1019   -4.4019    0.0000 C   0  0
    7.5144   -3.6874    0.0000 C   0  0
    8.3394   -3.6874    0.0000 C   0  0
    7.1019   -5.8308    0.0000 C   0  0
    6.2769   -5.8308    0.0000 O   0  0
    8.7519   -2.9729    0.0000 C   0  0
    2.5644   -5.1163    0.0000 C   0  0
    2.1519   -4.4019    0.0000 N   0  0
    1.3269   -4.4019    0.0000 O   0  0
    8.3394   -2.2585    0.0000 O   0  0
    9.5769   -2.9729    0.0000 N   0  0
    5.0394   -3.6874    0.0000 C   0  0
    4.6269   -2.9729    0.0000 N   0  0
    5.0394   -2.2585    0.0000 O   0  0
    9.5820   -5.6007    0.0000 S   0  0
    9.1693   -4.8908    0.0000 O   0  0
    9.9865   -4.8908    0.0000 O   0  0
   10.1598   -6.1785    0.0000 O   0  5
    9.0001   -6.1785    0.0000 C   0  0
    1.1052   -5.9453    0.0000 S   0  0
    0.6924   -5.2354    0.0000 O   0  0
    1.5096   -5.2354    0.0000 O   0  0
    1.6830   -6.5231    0.0000 O   0  5
    0.5232   -6.5231    0.0000 C   0  0
  1  2  2  0
  2  3  1  0
  3  4  2  0
  4  5  1  0
  5  6  2  0
  6  1  1  0
  3  7  1  0
  8  9  2  0
  9 10  1  0
 10 11  2  0
 11 12  1  0
 12 13  2  0
 13  8  1  0
 10 14  1  0
 14 15  1  0
  7 15  1  0
 13 16  1  0
  6 17  1  0
 17 18  2  0
 18 19  1  0
 16 20  2  0
 16 21  1  0
  4 22  1  0
 22 23  2  0
 23 24  1  0
 25 26  2  0
 25 27  2  0
 25 28  1  0
 25 29  1  0
 30 31  2  0
 30 32  2  0
 30 33  1  0
 30 34  1  0
M  CHG  4   3   1  10   1  28  -1  33  -1
M  END