
  SciTegic04091415222D

 25 28  0  0  0  0            999 V2000
   10.8078  -10.2891    0.0000 C   0  0
   12.2215  -10.2855    0.0000 C   0  0
   11.5129   -9.8803    0.0000 C   0  0
   12.2244  -11.1082    0.0000 C   0  0
   12.2205  -12.7433    0.0000 C   0  0
   12.9317  -12.3310    0.0000 C   0  0
   12.9298  -11.5153    0.0000 C   0  0
   11.5139  -11.5155    0.0000 C   0  0
   10.8066  -11.1087    0.0000 C   0  0
   10.1028  -11.5177    0.0000 C   0  0
   10.1050  -12.3333    0.0000 O   0  0
   10.8169  -12.7382    0.0000 C   0  0
   11.5178  -12.3269    0.0000 C   0  0
   12.9247   -9.8756    0.0000 C   0  0
   13.6342  -10.2832    0.0000 N   0  0
   14.3399   -9.8726    0.0000 C   0  0
   14.3372   -9.0546    0.0000 N   0  0
   13.6230   -8.6488    0.0000 C   0  0
   12.9203   -9.0617    0.0000 N   0  0
   11.5105   -9.0631    0.0000 Cl  0  0
   13.6171   -7.8317    0.0000 N   0  0
   15.0489  -10.2789    0.0000 S   0  0
   15.7553   -9.8680    0.0000 C   0  0
   16.4643  -10.2743    0.0000 C   0  0
   17.1707   -9.8633    0.0000 O   0  0
  1  9  2  0
  4  2  1  0
  2  3  2  0
  3  1  1  0
  4  8  1  0
 13  5  1  0
  5  6  2  0
  6  7  1  0
  7  4  2  0
  8  9  1  0
  9 10  1  0
 10 11  1  0
 11 12  1  0
 12 13  1  0
 13  8  2  0
 14 15  2  0
 15 16  1  0
 16 17  2  0
 17 18  1  0
 18 19  2  0
 19 14  1  0
  2 14  1  0
  3 20  1  0
 18 21  1  0
 16 22  1  0
 22 23  1  0
 23 24  1  0
 24 25  1  0
M  END