
  SciTegic06051313522D

 25 27  0  0  0  0            999 V2000
    0.9471   -6.6651    0.0000 S   0  0
    1.6604   -7.0795    0.0000 N   0  0
    1.6587   -7.9036    0.0000 C   0  0
    2.3755   -6.6699    0.0000 C   0  0
    3.0888   -7.0843    0.0000 C   0  0
    3.8039   -6.6746    0.0000 C   0  0
    3.8077   -5.8469    0.0000 C   0  0
    3.0943   -5.4324    0.0000 C   0  0
    2.3772   -5.8458    0.0000 N   0  0
    3.0871   -7.9084    0.0000 C   0  0
    2.3786   -8.3299    0.0000 N   0  0
    3.0772  -10.4049    0.0000 C   0  0
    3.0877   -9.5773    0.0000 C   0  0
    2.3778   -9.1570    0.0000 C   0  0
    1.6573   -9.5645    0.0000 C   0  0
    1.6489  -10.3885    0.0000 C   0  0
    2.3588  -10.8088    0.0000 N   0  0
    3.8580  -10.6669    0.0000 N   0  0
    3.8729   -9.3286    0.0000 C   0  0
    4.3507  -10.0043    0.0000 C   0  0
    0.2315   -7.0757    0.0000 C   0  0
    0.3583   -6.0750    0.0000 O   0  0
    1.3541   -5.9459    0.0000 O   0  0
    0.9419   -9.1465    0.0000 C   0  0
    0.2314   -8.7271    0.0000 N   0  0
  1  2  1  0
  2  3  1  0
  4  5  1  0
  5  6  2  0
  6  7  1  0
  7  8  2  0
  8  9  1  0
  4  9  2  0
 12 13  1  0
 13 14  2  0
 14 15  1  0
 15 16  2  0
 16 17  1  0
 12 17  2  0
 19 20  2  0
 18 20  1  0
 12 18  1  0
 13 19  1  0
 11 14  1  0
 10 11  1  0
  5 10  1  0
  2  4  1  0
  1 21  1  0
  1 22  2  0
  1 23  2  0
 24 25  3  0
 15 24  1  0
M  END