
  SciTegic10191216002D

 33 37  0  0  0  0            999 V2000
   12.4343    1.6211    0.0000 C   0  0
   12.4329    0.7914    0.0000 C   0  0
   13.1517    0.3776    0.0000 C   0  0
   13.8721    0.7919    0.0000 C   0  0
   13.8687    1.6254    0.0000 C   0  0
   13.1496    2.0350    0.0000 C   0  0
   13.1515   -0.4448    0.0000 C   0  0
   13.1474   -2.0989    0.0000 C   0  0
   13.8632   -1.6869    0.0000 N   0  0
   13.8679   -0.8619    0.0000 C   0  0
   12.4267   -1.6853    0.0000 C   0  0
   12.4308   -0.8631    0.0000 C   0  0
   11.7247   -0.4457    0.0000 C   0  0
   11.0140   -0.8589    0.0000 C   0  0
   11.0145   -1.6849    0.0000 C   0  0
   11.7214   -2.0883    0.0000 C   0  0
   13.1511    2.8620    0.0000 S   0  0
   13.8632    3.2778    0.0000 C   0  0
   14.5749   -2.1037    0.0000 C   0  0
   10.2970   -2.0946    0.0000 O   0  0
    9.5779   -1.6817    0.0000 C   0  0
    9.5816   -0.8587    0.0000 N   0  0
    8.8686   -0.4458    0.0000 C   0  0
    8.1544   -0.8606    0.0000 C   0  0
    8.1586   -1.6874    0.0000 C   0  0
    8.8722   -2.0958    0.0000 C   0  0
    7.4407   -0.4520    0.0000 C   0  0
    6.7300   -0.8659    0.0000 N   0  0
    6.0146   -0.4541    0.0000 C   0  0
    5.3060   -0.8644    0.0000 C   0  0
    5.3049   -1.6871    0.0000 C   0  0
    6.0185   -2.0979    0.0000 C   0  0
    6.7332   -1.6858    0.0000 C   0  0
  9 19  1  0
  7 10  1  0
 15 20  1  0
 11  8  1  0
 20 21  1  0
  8  9  1  0
 21 22  2  0
  9 10  1  0
 22 23  1  0
  2  3  1  0
 23 24  2  0
  5  6  2  0
 24 25  1  0
 11 12  2  0
 25 26  2  0
 26 21  1  0
  6  1  1  0
 12 13  1  0
  1  2  2  0
 13 14  2  0
  7  3  1  0
 14 15  1  0
  7 12  1  0
 24 27  1  0
 15 16  2  0
 27 28  1  0
 28 29  1  0
 16 11  1  0
  3  4  2  0
  6 17  1  0
 17 18  1  0
  4  5  1  0
 28 33  1  0
 29 30  1  0
 30 31  1  0
 31 32  1  0
 32 33  1  0
M  END