
          11280715312D 1   1.00000     0.00000     0

 25 27  0     0  0            999 V2000
    6.3542   -0.6750    0.0000 C   0  0  0  0  0  0           0  0  0
    6.0542   -0.1542    0.0000 N   0  0  0  0  0  0           0  0  0
    2.8125   -1.1875    0.0000 C   0  0  0  0  0  0           0  0  0
    5.9542   -1.1167    0.0000 C   0  0  0  0  0  0           0  0  0
    2.8125   -1.7792    0.0000 C   0  0  0  0  0  0           0  0  0
    5.4042   -0.8792    0.0000 C   0  0  0  0  0  0           0  0  0
    3.3292   -0.8875    0.0000 C   0  0  0  0  0  0           0  0  0
    6.9500   -0.7375    0.0000 C   0  0  0  0  0  0           0  0  0
    5.4667   -0.2792    0.0000 O   0  0  0  0  0  0           0  0  0
    4.8875   -1.1792    0.0000 C   0  0  0  0  0  0           0  0  0
    4.3667   -0.8792    0.0000 C   0  0  0  0  0  0           0  0  0
    3.8417   -1.1792    0.0000 C   0  0  0  0  0  0           0  0  0
    2.2917   -0.8875    0.0000 C   0  0  3  0  0  0           0  0  0
    2.2917   -2.0875    0.0000 C   0  0  3  0  0  0           0  0  0
    3.3292   -2.0792    0.0000 C   0  0  0  0  0  0           0  0  0
    3.8500   -1.7792    0.0000 C   0  0  0  0  0  0           0  0  0
    7.3042   -0.2500    0.0000 O   0  0  0  0  0  0           0  0  0
    1.7792   -1.1875    0.0000 C   0  0  0  0  0  0           0  0  0
    1.7792   -1.7875    0.0000 C   0  0  0  0  0  0           0  0  0
    7.1917   -1.2792    0.0000 O   0  0  0  0  0  0           0  0  0
    4.3625   -0.2792    0.0000 C   0  0  0  0  0  0           0  0  0
    2.7125   -0.4625    0.0000 C   0  0  0  0  0  0           0  0  0
    1.7667   -0.5875    0.0000 C   0  0  0  0  0  0           0  0  0
    2.7125   -2.5042    0.0000 C   0  0  0  0  0  0           0  0  0
    1.7667   -2.3792    0.0000 C   0  0  0  0  0  0           0  0  0
  2  1  2  0     0  0
  3  7  1  0     0  0
  4  1  1  0     0  0
  5 15  1  0     0  0
  6  4  2  0     0  0
  7 12  2  0     0  0
  8  1  1  0     0  0
  9  2  1  0     0  0
 10  6  1  0     0  0
 11 10  2  0     0  0
 12 11  1  0     0  0
 13  3  1  0     0  0
 14  5  1  0     0  0
 15 16  2  0     0  0
 16 12  1  0     0  0
 17  8  2  0     0  0
 18 13  1  0     0  0
 19 14  1  0     0  0
 20  8  1  0     0  0
 21 11  1  0     0  0
 22 13  1  0     0  0
 23 13  1  0     0  0
 24 14  1  0     0  0
 25 14  1  0     0  0
  9  6  1  0     0  0
  3  5  2  0     0  0
 18 19  1  0     0  0
M  END