
          11280715322D 1   1.00000     0.00000     0

 18 19  0     0  0            999 V2000
    6.7792   -4.7625    0.0000 C   0  0  0  0  0  0           0  0  0
    6.0667   -5.1667    0.0000 C   0  0  0  0  0  0           0  0  0
    6.7792   -3.9250    0.0000 C   0  0  0  0  0  0           0  0  0
    5.3542   -4.7625    0.0000 C   0  0  0  0  0  0           0  0  0
    6.0667   -3.5167    0.0000 C   0  0  0  0  0  0           0  0  0
    5.3542   -3.9250    0.0000 C   0  0  0  0  0  0           0  0  0
    7.4917   -5.1667    0.0000 C   0  0  3  0  0  0           0  0  0
    8.2125   -4.7625    0.0000 N   0  0  0  0  0  0           0  0  0
    8.2042   -6.4125    0.0000 N   0  0  0  0  0  0           0  0  0
    7.4917   -5.9917    0.0000 C   0  0  0  0  0  0           0  0  0
    8.2042   -7.2375    0.0000 C   0  0  3  0  0  0           0  0  0
    4.6417   -5.1667    0.0000 O   0  0  0  0  0  0           0  0  0
    4.6417   -3.5167    0.0000 O   0  0  0  0  0  0           0  0  0
    8.2125   -3.9250    0.0000 C   0  0  0  0  0  0           0  0  0
    7.4917   -3.5167    0.0000 C   0  0  0  0  0  0           0  0  0
    7.4875   -7.6417    0.0000 C   0  0  0  0  0  0           0  0  0
    8.9167   -7.6500    0.0000 C   0  0  0  0  0  0           0  0  0
    8.2000   -8.0542    0.0000 C   0  0  0  0  0  0           0  0  0
  2  1  1  0     0  0
  3  1  2  0     0  0
  4  2  2  0     0  0
  5  3  1  0     0  0
  6  5  2  0     0  0
  7  1  1  0     0  0
  8  7  1  0     0  0
  9 10  1  0     0  0
 10  7  1  0     0  0
 11  9  1  0     0  0
 12  4  1  0     0  0
 13  6  1  0     0  0
 14  8  1  0     0  0
 15  3  1  0     0  0
 16 11  1  0     0  0
 17 11  1  0     0  0
 18 11  1  0     0  0
 14 15  1  0     0  0
  6  4  1  0     0  0
M  END