
  SciTegic11201309402D

 85 89  0  0  1  0            999 V2000
    6.5417   -2.2167    0.0000 N   0  0
    0.4875   -3.2500    0.0000 N   0  0
    5.9292   -2.7667    0.0000 C   0  0
    1.0750   -3.8375    0.0000 C   0  0
   -0.0208   -1.7000    0.0000 C   0  0
    5.1375   -2.5125    0.0000 C   0  0  2  0  0  0
    5.2667   -1.7000    0.0000 N   0  0
    0.1125   -0.8792    0.0000 N   0  0
    0.1125   -2.5125    0.0000 C   0  0  2  0  0  0
    4.1792    0.4458    0.0000 N   0  0
    1.8042    0.8208    0.0000 N   0  0
    5.1375   -0.8792    0.0000 C   0  0
    1.0750    0.4458    0.0000 C   0  0
    7.4917   -1.0917    0.0000 C   0  0
    3.4417    0.8208    0.0000 C   0  0
    4.7667   -0.1417    0.0000 C   0  0  1  0  0  0
    7.3042   -1.9000    0.0000 C   0  0  2  0  0  0
    0.4875   -0.1417    0.0000 C   0  0  1  0  0  0
    9.2625    0.1958    0.0000 C   0  0
    1.8042   -4.2125    0.0000 C   0  0
    8.2792   -0.8500    0.0000 N   0  0
    9.4417    1.0000    0.0000 N   0  0
    5.3417    0.4083    0.0000 C   0  0
    2.6250    0.9458    0.0000 C   0  0  2  0  0  0
    7.0292    3.2583    0.0000 C   0  0
   10.2375    1.2375    0.0000 C   0  0  2  0  0  0
   10.4292    2.0458    0.0000 C   0  0
    4.1792   -3.8375    0.0000 S   0  0
    3.4417   -4.2125    0.0000 S   0  0
    5.1250    1.2083    0.0000 C   0  0
    2.6250   -4.3417    0.0000 C   0  0
    8.4667   -0.0500    0.0000 C   0  0  1  0  0  0
    3.3417    3.0208    0.0000 C   0  0
    7.2167    4.0667    0.0000 N   0  0
    6.0917   -3.5792    0.0000 O   0  0
   -0.6750   -2.7667    0.0000 C   0  0
    0.5875   -4.5042    0.0000 O   0  0
   -0.8458   -1.7000    0.0000 O   0  0
    4.7667   -3.2500    0.0000 C   0  0
    6.8875   -0.5292    0.0000 O   0  0
    0.5875    1.1083    0.0000 O   0  0
    5.9292   -0.6250    0.0000 O   0  0
    3.7000    1.6083    0.0000 O   0  0
   -0.1833    0.3458    0.0000 C   0  0
    9.8625   -0.3667    0.0000 O   0  0
   10.8417    0.6750    0.0000 C   0  0
    9.8250    2.6083    0.0000 O   0  0
    5.6292    1.8583    0.0000 O   0  0
    4.0542    3.4250    0.0000 O   0  0
    2.6250    1.7708    0.0000 C   0  0
    7.6375    2.6958    0.0000 N   0  0
    6.2417    3.0208    0.0000 N   0  0
   11.2167    2.2833    0.0000 N   0  0
    6.6125   -3.0417    0.0000 C   0  0
    4.3125    1.3083    0.0000 N   0  0
    3.3417    2.1875    0.0000 C   0  0
   -1.2875   -2.2167    0.0000 C   0  0
    2.6250    3.4250    0.0000 N   0  0
   11.6375    0.4625    0.0000 C   0  0
   -0.1833   -3.7375    0.0000 C   0  0
   -2.5208   -1.1042    0.0000 C   0  0
   13.2167    0.0458    0.0000 C   0  0
   -0.0958    1.1625    0.0000 C   0  0
   -2.0750   -2.4667    0.0000 C   0  0
   11.8500   -0.3292    0.0000 C   0  0
   -1.1208   -1.4042    0.0000 C   0  0
   12.2042    1.0458    0.0000 C   0  0
   12.6417   -0.5417    0.0000 C   0  0
   -2.6958   -1.9167    0.0000 C   0  0
   13.0042    0.8375    0.0000 C   0  0
   -1.7333   -0.8542    0.0000 C   0  0
    7.8417   -2.5167    0.0000 C   0  0
   -3.1333   -0.5542    0.0000 O   0  0
   14.0167   -0.1667    0.0000 O   0  0
    7.4167   -3.2292    0.0000 C   0  0
    1.9042   -4.6417    0.0000 C   0  0
    3.3417   -4.6417    0.0000 C   0  0
    7.8667    0.5208    0.0000 C   0  0
    7.4542    1.8958    0.0000 C   0  0
   -0.7708    1.6500    0.0000 C   0  0
    0.6542    1.5000    0.0000 C   0  0
    8.0542    1.3250    0.0000 C   0  0
    0.7417    2.3208    0.0000 C   0  0
   -0.6833    2.4708    0.0000 C   0  0
    0.0750    2.8083    0.0000 C   0  0
  2  4  1  0
  3  1  1  0
  4 20  1  0
  5  9  1  0
  6  3  1  1
  7  6  1  0
  8  5  1  0
  9  2  1  0
 10 16  1  0
 11 24  1  0
 12  7  1  0
 13 11  1  0
 17 14  1  6
 15 10  1  0
 16 12  1  0
 17  1  1  0
 18 13  1  0
 19 32  1  0
 20 31  1  0
 21 14  1  0
 22 19  1  0
 16 23  1  6
 24 15  1  0
 25 51  2  0
 26 22  1  6
 27 26  1  0
 28 39  1  0
 29 28  1  0
 30 23  1  0
 31 29  1  0
 32 21  1  1
 33 56  1  0
 34 25  1  0
 35  3  2  0
  9 36  1  1
 37  4  2  0
 38  5  2  0
  6 39  1  0
 40 14  2  0
 41 13  2  0
 42 12  2  0
 43 15  2  0
 18 44  1  6
 45 19  2  0
 26 46  1  0
 47 27  2  0
 48 30  2  0
 49 33  2  0
 24 50  1  1
 51 79  1  0
 52 25  1  0
 53 27  1  0
 54  1  1  0
 55 30  1  0
 56 50  1  0
 57 36  1  0
 58 33  1  0
 59 46  1  0
 60  2  1  0
 61 71  2  0
 62 70  1  0
 63 44  1  0
 64 57  1  0
 65 59  2  0
 66 57  2  0
 67 59  1  0
 68 65  1  0
 69 64  2  0
 70 67  2  0
 71 66  1  0
 17 72  1  0
 73 61  1  0
 74 62  1  0
 75 54  1  0
 76 31  1  0
 77 31  1  0
 32 78  1  0
 79 82  1  0
 80 63  1  0
 81 63  2  0
 82 78  1  0
 83 81  1  0
 84 80  2  0
 85 83  2  0
 72 75  1  0
 62 68  2  0
 18  8  1  0
 61 69  1  0
 85 84  1  0
M  END