
  SciTegic05071316162D

 17 18  0  0  0  0            999 V2000
   18.4473   -1.9852    0.0000 C   0  0
   18.4461   -2.8047    0.0000 C   0  0
   19.1542   -3.2137    0.0000 C   0  0
   19.8639   -2.8042    0.0000 C   0  0
   19.8610   -1.9816    0.0000 C   0  0
   19.1524   -1.5763    0.0000 C   0  0
   17.7395   -1.5767    0.0000 C   0  0  1  0  0  0
   17.0319   -1.9855    0.0000 C   0  0
   16.3241   -1.5771    0.0000 C   0  0
   15.6165   -1.9858    0.0000 N   0  0
   14.8705   -1.6497    0.0000 N   0  0
   14.3238   -2.2571    0.0000 C   0  0
   14.7326   -2.9648    0.0000 N   0  0
   15.5318   -2.7946    0.0000 C   0  0
   17.7393   -0.7595    0.0000 C   0  0
   18.4469   -0.3508    0.0000 C   0  0
   20.5722   -3.2117    0.0000 F   0  0
  1  2  2  0
  2  3  1  0
  3  4  2  0
  4  5  1  0
  5  6  2  0
  6  1  1  0
  1  7  1  0
  7  8  1  0
  8  9  1  0
  9 10  1  0
 10 11  1  0
 11 12  2  0
 12 13  1  0
 13 14  2  0
 14 10  1  0
  7 15  1  1
 15 16  1  0
  4 17  1  0
M  END