
  SciTegic12231509382D

 14 14  0  0  0  0            999 V2000
    1.2990   -0.7500    0.0000 C   0  0
    1.2990    0.7500    0.0000 C   0  0
    0.0000   -1.5000    0.0000 C   0  0
    2.5973   -1.5031    0.0000 C   0  0
    0.0000    1.5000    0.0000 C   0  0
   -1.2990   -0.7500    0.0000 C   0  0
   -1.2990    0.7500    0.0000 C   0  0
    3.6331   -3.6060    0.0000 N   0  0
    2.5972    1.5031    0.0000 O   0  0
    2.5951   -3.0039    0.0000 C   0  0
   -2.6003   -1.4978    0.0000 O   0  0
    2.5955    2.7031    0.0000 C   0  0
   -3.6387   -0.8963    0.0000 C   0  0
    1.5548   -3.6021    0.0000 C   0  0
  1  2  2  0
  1  3  1  0
  1  4  1  0
  2  5  1  0
  3  6  2  0
  5  7  2  0
  6  7  1  0
  2  9  1  0
  4 10  1  0
  8 10  1  0
  6 11  1  0
  9 12  1  0
 11 13  1  0
 10 14  1  0
M  END