
  SciTegic12171313052D

 32 37  0  0  0  0            999 V2000
   24.6129  -16.1182    0.0000 C   0  0
   24.6129  -16.9435    0.0000 N   0  0
   25.3251  -17.3520    0.0000 C   0  0
   26.0373  -16.9435    0.0000 C   0  0
   26.0373  -16.1182    0.0000 C   0  0
   25.3251  -15.7014    0.0000 C   0  0
   26.0383  -15.2929    0.0000 C   0  0
   26.7506  -16.5267    0.0000 C   0  0
   27.4629  -16.1182    0.0000 N   0  0
   27.4629  -15.2929    0.0000 C   0  0
   26.7506  -14.8761    0.0000 C   0  0
   26.7508  -17.3520    0.0000 O   0  0
   23.8987  -17.3571    0.0000 C   0  0
   23.1840  -16.9443    0.0000 N   0  0
   23.1915  -18.5949    0.0000 N   0  0
   23.9022  -18.1795    0.0000 C   0  0
   22.4711  -18.1835    0.0000 C   0  0
   22.4731  -17.3603    0.0000 C   0  0
   21.7622  -16.9489    0.0000 C   0  0
   21.0490  -17.3596    0.0000 C   0  0
   21.0512  -18.1859    0.0000 C   0  0
   21.7626  -18.5936    0.0000 C   0  0
   28.1770  -16.5318    0.0000 C   0  0
   28.8926  -16.1199    0.0000 C   0  0
   29.6761  -16.3680    0.0000 C   0  0
   30.1581  -15.6981    0.0000 N   0  0
   28.8862  -15.2915    0.0000 C   0  0
   29.6709  -15.0362    0.0000 C   0  0
   29.8408  -14.2306    0.0000 C   0  0
   29.2268  -13.6795    0.0000 C   0  0
   28.4403  -13.9396    0.0000 C   0  0
   28.2743  -14.7446    0.0000 C   0  0
  1  2  1  0
  1  6  1  0
  2  3  1  0
  3  4  1  0
  4  5  1  0
  5  6  1  0
  7  5  1  0
  7 11  1  0
  5  8  1  0
  8  9  1  0
  9 10  1  0
 10 11  1  0
  8 12  2  0
  2 13  1  0
 13 14  2  0
 14 18  1  0
 17 15  1  0
 15 16  2  0
 16 13  1  0
 17 18  1  0
 18 19  2  0
 19 20  1  0
 20 21  2  0
 21 22  1  0
 22 17  2  0
  9 23  1  0
 23 24  1  0
 24 25  2  0
 25 26  1  0
 26 28  1  0
 27 24  1  0
 27 28  2  0
 28 29  1  0
 29 30  2  0
 30 31  1  0
 31 32  2  0
 32 27  1  0
M  END