
  Mrv0541 05211314572D          

 22 22  0  0  0  0            999 V2000
    0.2062    0.3572    0.0000 C   0  0  0  0  0  0  0  0  0  0  0  0
   -0.2062   -0.3572    0.0000 C   0  0  0  0  0  0  0  0  0  0  0  0
   -0.2063    1.0717    0.0000 O   0  0  0  0  0  0  0  0  0  0  0  0
    1.0313    0.3572    0.0000 O   0  0  0  0  0  0  0  0  0  0  0  0
    0.2063   -1.0717    0.0000 O   0  0  0  0  0  0  0  0  0  0  0  0
   -1.0312   -0.3572    0.0000 O   0  0  0  0  0  0  0  0  0  0  0  0
    3.5255   -3.4221    0.0000 C   0  0  0  0  0  0  0  0  0  0  0  0
    3.2705   -2.6375    0.0000 C   0  0  0  0  0  0  0  0  0  0  0  0
    3.9380   -2.1526    0.0000 C   0  0  0  0  0  0  0  0  0  0  0  0
    4.6054   -2.6375    0.0000 N   0  0  0  0  0  0  0  0  0  0  0  0
    4.3505   -3.4221    0.0000 O   0  0  0  0  0  0  0  0  0  0  0  0
    3.9380   -1.3276    0.0000 O   0  0  0  0  0  0  0  0  0  0  0  0
    4.6524   -0.9151    0.0000 C   0  0  0  0  0  0  0  0  0  0  0  0
    4.6524   -0.0901    0.0000 C   0  0  0  0  0  0  0  0  0  0  0  0
    4.6524    0.7349    0.0000 C   0  0  0  0  0  0  0  0  0  0  0  0
    4.6524    1.5599    0.0000 C   0  0  0  0  0  0  0  0  0  0  0  0
    5.3669    1.9724    0.0000 N   0  0  0  0  0  0  0  0  0  0  0  0
    5.3669    2.7974    0.0000 C   0  0  0  0  0  0  0  0  0  0  0  0
    6.0814    3.2099    0.0000 C   0  0  0  0  0  0  0  0  0  0  0  0
    6.7959    2.7974    0.0000 C   0  0  0  0  0  0  0  0  0  0  0  0
    6.7959    1.9724    0.0000 C   0  0  0  0  0  0  0  0  0  0  0  0
    6.0814    1.5599    0.0000 C   0  0  0  0  0  0  0  0  0  0  0  0
 11  7  1  0  0  0  0
  2  5  2  0  0  0  0
  9 12  1  0  0  0  0
  2  6  1  0  0  0  0
 12 13  1  0  0  0  0
  7  8  1  0  0  0  0
 13 14  1  0  0  0  0
 14 15  3  0  0  0  0
 15 16  1  0  0  0  0
  1  2  1  0  0  0  0
 16 17  1  0  0  0  0
 17 18  1  0  0  0  0
  1  3  2  0  0  0  0
  1  4  1  0  0  0  0
  8  9  1  0  0  0  0
  9 10  2  0  0  0  0
 10 11  1  0  0  0  0
 17 22  1  0  0  0  0
 18 19  1  0  0  0  0
 19 20  1  0  0  0  0
 20 21  1  0  0  0  0
 21 22  1  0  0  0  0
M  END