
  CDK    9/16/09,9:55

 29 32  0  0  0  0  0  0  0  0999 V2000
   19.7314  -17.1248    0.0000 C   0  0  0  0  0  0  0  0  0  0  0  0
   19.7301  -17.9528    0.0000 C   0  0  0  0  0  0  0  0  0  0  0  0
   20.4409  -18.3657    0.0000 C   0  0  0  0  0  0  0  0  0  0  0  0
   20.4387  -16.7120    0.0000 C   0  0  0  0  0  0  0  0  0  0  0  0
   21.1599  -17.1252    0.0000 C   0  0  0  0  0  0  0  0  0  0  0  0
   21.1606  -17.9528    0.0000 C   0  0  0  0  0  0  0  0  0  0  0  0
   21.9483  -18.2120    0.0000 N   0  0  0  0  0  0  0  0  0  0  0  0
   22.4399  -17.5357    0.0000 C   0  0  0  0  0  0  0  0  0  0  0  0
   21.9474  -16.8648    0.0000 N   0  0  0  0  0  0  0  0  0  0  0  0
   23.2604  -17.5394    0.0000 C   0  0  0  0  0  0  0  0  0  0  0  0
   22.2064  -18.9970    0.0000 C   0  0  0  0  0  0  0  0  0  0  0  0
   21.6545  -19.6077    0.0000 C   0  0  0  0  0  0  0  0  0  0  0  0
   20.8465  -19.4339    0.0000 C   0  0  0  0  0  0  0  0  0  0  0  0
   20.2951  -20.0482    0.0000 C   0  0  0  0  0  0  0  0  0  0  0  0
   20.5530  -20.8344    0.0000 C   0  0  0  0  0  0  0  0  0  0  0  0
   21.3634  -21.0023    0.0000 C   0  0  0  0  0  0  0  0  0  0  0  0
   21.9112  -20.3864    0.0000 C   0  0  0  0  0  0  0  0  0  0  0  0
   20.0042  -21.4455    0.0000 C   0  0  0  0  0  0  0  0  0  0  0  0
   19.1932  -21.2752    0.0000 C   0  0  0  0  0  0  0  0  0  0  0  0
   18.6472  -21.8903    0.0000 C   0  0  0  0  0  0  0  0  0  0  0  0
   18.9015  -22.6714    0.0000 C   0  0  0  0  0  0  0  0  0  0  0  0
   19.7123  -22.8428    0.0000 C   0  0  0  0  0  0  0  0  0  0  0  0
   20.2590  -22.2263    0.0000 C   0  0  0  0  0  0  0  0  0  0  0  0
   21.0651  -22.3970    0.0000 C   0  0  0  0  0  0  0  0  0  0  0  0
   21.3267  -23.1763    0.0000 O   0  0  0  0  0  0  0  0  0  0  0  0
   21.6188  -21.7793    0.0000 O   0  0  0  0  0  0  0  0  0  0  0  0
   23.6696  -18.2557    0.0000 C   0  0  0  0  0  0  0  0  0  0  0  0
   24.4945  -18.2595    0.0000 C   0  0  0  0  0  0  0  0  0  0  0  0
   24.9039  -18.9758    0.0000 C   0  0  0  0  0  0  0  0  0  0  0  0
  7 11  1  0  0  0  0 
  6  7  1  0  0  0  0 
 11 12  1  0  0  0  0 
  7  8  1  0  0  0  0 
 12 13  2  0  0  0  0 
  8  9  2  0  0  0  0 
 13 14  1  0  0  0  0 
  9  5  1  0  0  0  0 
 14 15  2  0  0  0  0 
  4  1  1  0  0  0  0 
 15 16  1  0  0  0  0 
  5  6  1  0  0  0  0 
 16 17  2  0  0  0  0 
 17 12  1  0  0  0  0 
 18 19  2  0  0  0  0 
 19 20  1  0  0  0  0 
  2  3  1  0  0  0  0 
 20 21  2  0  0  0  0 
 21 22  1  0  0  0  0 
  3  6  2  0  0  0  0 
 22 23  2  0  0  0  0 
 23 18  1  0  0  0  0 
 15 18  1  0  0  0  0 
 23 24  1  0  0  0  0 
  1  2  2  0  0  0  0 
 24 25  2  0  0  0  0 
 24 26  1  0  0  0  0 
 10 27  1  0  0  0  0 
  8 10  1  0  0  0  0 
 27 28  1  0  0  0  0 
  5  4  2  0  0  0  0 
 28 29  1  0  0  0  0 
M  END