
  SciTegic04191616232D

191202  0  0  0  0            999 V2000
  -17.3704   62.2144    0.0000 C   0  0
   -5.0110  117.8406    0.0000 C   0  0
   -5.5936   88.6241    0.0000 N   0  0
   -7.9327   78.4907    0.0000 C   0  0
   -6.6279   62.3158    0.0000 C   0  0
   -4.1306  101.6318    0.0000 C   0  0
  -13.1555   59.6418    0.0000 C   0  0
   -2.2312   99.8556    0.0000 N   0  0
   -7.4073  117.6223    0.0000 C   0  0
   -8.0791   74.5219    0.0000 C   0  0
   -0.1851   88.7179    0.0000 N   0  0
  -10.4183   64.3885    0.0000 C   0  0
    1.0909  111.0973    0.0000 C   0  0
   -1.9377   94.4543    0.0000 C   0  0
  -13.4810   61.0675    0.0000 C   0  0
   -6.3837   72.5328    0.0000 O   0  0
  -11.0873   94.1747    0.0000 N   0  0
   -4.4240   93.6908    0.0000 C   0  0
    2.0951   89.2621    0.0000 N   0  0
    5.3741  106.1008    0.0000 C   0  0
   -0.9675   63.0371    0.0000 O   0  0
   -7.3479   81.0240    0.0000 N   0  0
  -10.7112   83.1274    0.0000 C   0  0
   -3.2544   98.7576    0.0000 C   0  0  1  0  0  0
   -1.6491  115.7303    0.0000 N   0  0
    0.2538  113.9580    0.0000 C   0  0
  -11.8777   78.0743    0.0000 C   0  0
   -9.2482   82.7928    0.0000 C   0  0
   -8.6639   71.9886    0.0000 C   0  0  2  0  0  0
   -8.8057   94.7103    0.0000 N   0  0
   -8.0022   60.3221    0.0000 C   0  0
   -2.0848  103.8243    0.0000 N   0  0
   -0.9158   95.5534    0.0000 C   0  0
   -1.5000  106.3576    0.0000 C   0  0
   -8.9562  104.0699    0.0000 C   0  0
  -19.4737   63.2479    0.0000 O   0  0
    5.8069  104.6645    0.0000 C   0  0
   -3.6440  101.5158    0.0000 O   0  0
   -1.6962   63.9903    0.0000 O   0  0
   -1.4285   61.9293    0.0000 O   0  0
   -5.4086   59.6931    0.0000 C   0  0
   -3.9856   92.2555    0.0000 N   0  0
    7.2671  104.3212    0.0000 C   0  0
   -7.9376  105.1711    0.0000 C   0  0
   -9.2704   62.6765    0.0000 C   0  0
  -10.3553   62.1637    0.0000 C   0  0
  -12.0263   60.7572    0.0000 C   0  0
  -14.9684   61.2005    0.0000 C   0  0
  -14.5246   57.3559    0.0000 C   0  0
   -4.5704   89.7221    0.0000 C   0  0
   -9.8335   66.9219    0.0000 C   0  0
   -3.1111  116.0656    0.0000 C   0  0
   -6.4746  104.8365    0.0000 C   0  0
  -19.0151   64.3567    0.0000 O   0  0
   -8.3689   93.2745    0.0000 C   0  0
   -6.6147  100.8706    0.0000 C   0  0
   -6.9099   74.2520    0.0000 O   0  0
   -6.1784   86.0908    0.0000 C   0  0
   -1.0617  104.9223    0.0000 C   0  0
   -3.4008   94.7888    0.0000 C   0  0  2  0  0  0
    0.8386  103.1535    0.0000 C   0  0
   -1.6468   97.0523    0.0000 O   0  0
   -6.0319  103.4024    0.0000 C   0  0
   -7.4943   77.0553    0.0000 N   0  0
    2.8859  105.3464    0.0000 C   0  0
  -11.4415   63.2905    0.0000 C   0  0
  -14.0672   80.8075    0.0000 N   0  0
    3.5753  111.8574    0.0000 C   0  0  2  0  0  0
   -8.5175   75.9573    0.0000 C   0  0  2  0  0  0
  -13.8772   81.6305    0.0000 N   0  0
   -6.4705   91.4981    0.0000 C   0  0
   -2.1575   62.8825    0.0000 S   0  0
    0.1079  109.9890    0.0000 N   0  0
   -3.6459   62.6900    0.0000 C   0  0
   -9.8451  106.9352    0.0000 C   0  0
   -7.0710  119.0841    0.0000 C   0  0
   -6.5903   59.9020    0.0000 C   0  0
   -0.3305  111.4244    0.0000 C   0  0
    7.8618  106.8503    0.0000 C   0  0
   -2.8160   97.3222    0.0000 C   0  0
   -6.0545   63.7062    0.0000 C   0  0
   -4.1326  114.9672    0.0000 C   0  0
   -9.1020   78.7606    0.0000 O   0  0
  -10.5779   59.9827    0.0000 C   0  0
   -0.1834  102.0544    0.0000 C   0  0
  -15.5498   59.8232    0.0000 C   0  0
   -5.1552   87.1887    0.0000 C   0  0  1  0  0  0
    3.0323   95.9834    0.0000 C   0  0
   -6.9073   92.9339    0.0000 C   0  0
   -3.8392   96.2242    0.0000 N   0  0
  -17.0402   59.6211    0.0000 C   0  0
   -5.6583  105.7161    0.0000 O   0  0
   -4.4245   80.3532    0.0000 C   0  0
  -14.5960   78.9745    0.0000 N   0  0
    3.5642  107.5897    0.0000 O   0  0
    1.4246  105.6847    0.0000 C   0  0
   -4.7161   99.0981    0.0000 C   0  0
  -11.7683   59.0687    0.0000 C   0  0
    8.2945  105.4141    0.0000 C   0  0
  -15.8633   62.4094    0.0000 C   0  0
   -0.0873  104.6974    0.0000 O   0  0
   -8.3821  106.6037    0.0000 C   0  0
   -9.1023   73.4240    0.0000 N   0  0
  -13.5491   83.5098    0.0000 N   0  0
   -4.5453   63.8843    0.0000 C   0  0
  -10.4160   77.7337    0.0000 C   0  0
   -0.9152  108.8910    0.0000 C   0  0
   -6.7631   83.5574    0.0000 C   0  0  1  0  0  0
   -9.2490   64.1186    0.0000 O   0  0
   -8.2262   83.8920    0.0000 C   0  0
  -14.4169   58.8503    0.0000 N   0  0
   -7.0542  102.3047    0.0000 C   0  0
   -9.9792   76.2979    0.0000 C   0  0
   -1.2071   87.6188    0.0000 C   0  0
   -6.9096   79.5887    0.0000 C   0  0  2  0  0  0
  -11.0031   61.8551    0.0000 C   0  0
    1.6749  113.6289    0.0000 C   0  0
   -2.9615   80.0187    0.0000 C   0  0
   -5.4465   79.2541    0.0000 C   0  0
   -3.6920  113.5333    0.0000 C   0  0
   -2.6696  101.2909    0.0000 C   0  0
   -5.7400   84.6554    0.0000 N   0  0
   -1.4997  111.6943    0.0000 O   0  0
   -3.4011   89.4522    0.0000 O   0  0
   -1.2084  114.2965    0.0000 C   0  0
  -13.5316   56.6822    0.0000 C   0  0
  -13.1963   82.3628    0.0000 C   0  0
  -10.4191  104.4013    0.0000 C   0  0
    0.4009  104.5882    0.0000 C   0  0
   -1.9395   81.1178    0.0000 N   0  0
   -5.1555   81.8521    0.0000 O   0  0
   -6.1210  116.8507    0.0000 S   0  0
    2.5525  110.7602    0.0000 C   0  0
    3.9124  106.4413    0.0000 C   0  0
  -12.3145   79.5102    0.0000 N   0  0
   -4.5701  103.0659    0.0000 C   0  0
   -5.5932   93.9607    0.0000 O   0  0
   -0.4764   80.7832    0.0000 C   0  0
  -10.2674   95.0509    0.0000 C   0  0
   -6.8480   70.5071    0.0000 N   0  0
  -18.2840   63.4050    0.0000 S   0  0
   -5.5769  119.2160    0.0000 N   0  0
   -5.1529  100.5340    0.0000 C   0  0
  -13.8872   62.1966    0.0000 C   0  0
   -9.6871   70.8906    0.0000 C   0  0
   -3.5490  117.5012    0.0000 N   0  0
   -9.2487   69.4552    0.0000 C   0  0
    2.3000  102.8153    0.0000 C   0  0
    0.5473   95.2188    0.0000 C   0  0
    1.5692   96.3180    0.0000 N   0  0
   -8.0381   61.8244    0.0000 N   0  3
    3.1365  113.2918    0.0000 C   0  0
    6.4016  107.1937    0.0000 C   0  0
    0.6927  112.5224    0.0000 C   0  0  1  0  0  0
   -5.7285   61.1216    0.0000 C   0  0
   -1.6464  102.3889    0.0000 C   0  0  2  0  0  0
   -5.0088   91.1575    0.0000 C   0  0  1  0  0  0
   -0.1236   79.6363    0.0000 N   0  0
    0.3407   81.6621    0.0000 N   0  0
  -17.8256   64.5140    0.0000 O   0  0
   -9.1908   59.4097    0.0000 C   0  0
   -2.2299  113.1980    0.0000 C   0  0
   -7.3476   86.3607    0.0000 O   0  0
  -10.6166   96.1990    0.0000 N   0  0
  -13.7761   79.8508    0.0000 C   0  0
   -2.6701   87.9533    0.0000 C   0  0
   -6.3248   82.1220    0.0000 C   0  0
    3.8494   96.8622    0.0000 N   0  0
  -11.7332   82.0283    0.0000 N   0  0
  -17.9518   60.8370    0.0000 C   0  0
   -4.2338   61.2887    0.0000 C   0  0
    3.3852   94.8365    0.0000 N   0  0
   -7.2008   71.6540    0.0000 C   0  0
  -10.8636  105.8340    0.0000 C   0  0
   -3.6921   86.8542    0.0000 C   0  0
    3.3237  103.9117    0.0000 C   0  0
  -10.2719   68.3572    0.0000 C   0  0
    1.6308   87.2364    0.0000 N   0  0
   -0.4769  107.4556    0.0000 C   0  0
    1.2779   88.3833    0.0000 C   0  0
   -7.3899   59.0072    0.0000 C   0  0
  -10.8567   65.8239    0.0000 N   0  0
    5.0371  111.5171    0.0000 O   0  0
    6.0634  112.6122    0.0000 C   0  0
    7.5248  112.2741    0.0000 C   0  0
    8.5483  113.3707    0.0000 C   0  0
    8.1104  114.8053    0.0000 C   0  0
    6.6490  115.1435    0.0000 C   0  0
    5.6255  114.0469    0.0000 C   0  0
    7.8752  111.1264    0.0000 F   0  0
    9.7174  113.1002    0.0000 Cl  0  0
149150  1  0
 52146  1  0
 74171  2  0
100  1  2  0
 77 41  1  0
133 68  1  0
156 85  1  6
 96 65  2  0
165 94  1  0
 18 42  1  0
 75174  2  0
125 25  2  0
169127  1  0
 32156  1  0
162125  1  0
 98 84  1  0
106 27  1  0
  9 76  2  0
139 17  1  0
 11180  1  0
 69 10  1  0
 76142  1  0
165 67  2  0
173140  1  0
154 13  1  0
120162  2  0
 50  3  1  0
161 31  1  0
 15144  1  0
129 96  1  0
 59101  2  0
136 63  2  0
 72 40  2  0
 50124  2  0
111 49  1  0
119 93  1  0
 60 14  1  6
155  5  2  0
154 78  1  1
 28 23  1  0
 44102  2  0
 66116  1  0
151  5  1  0
 53 44  1  0
 51182  1  0
152117  1  0
 12109  2  0
167131  2  0
111  7  1  0
105 74  1  0
102 75  1  0
 74 72  1  0
176148  2  0
135165  1  0
 52 82  2  0
 35 44  1  0
122108  1  0
 69113  1  1
108167  1  0
  7 98  2  0
 45 46  1  0
 34 59  1  0
127 70  2  0
134 20  1  0
113106  1  0
153 20  1  0
  4 83  2  0
127104  1  0
 87175  1  6
  8 24  1  0
 13133  1  0
 88168  2  0
 90 60  1  0
 60 18  1  0
174128  1  0
 43 99  2  0
128 35  2  0
 27135  1  0
138158  1  0
 39 72  2  0
 31151  2  0
182 12  1  0
175166  1  0
 10 57  2  0
151 45  1  0
 84161  2  0
 72 21  1  0
179 34  1  0
 14 33  1  0
  5 81  1  0
  4 64  1  0
177 51  1  0
116 47  1  0
 53 92  2  0
 77 31  1  0
115  4  1  0
115119  1  6
 24 97  1  1
 86111  1  0
 49126  1  0
 24 80  1  0
 59 32  1  0
 73107  1  0
155 77  1  0
 85 61  1  0
167 22  1  0
143  6  2  0
 91 86  1  0
 23169  1  0
121 38  2  0
 56143  1  0
 63 53  1  0
142  2  2  0
147177  1  0
154117  1  0
 30139  1  0
 89 55  1  0
 93118  1  0
156121  1  0
 26125  1  0
  1170  1  0
 80 90  1  0
150 88  1  0
139164  2  0
 61129  2  0
 15 48  1  0
130138  1  0
 80 62  2  0
 77181  1  0
114 11  1  0
108110  1  1
112 56  2  0
 99 79  1  0
 29145  1  1
 63112  1  0
 88172  1  0
157 50  1  0
 87 58  1  0
 55 30  1  0
107179  1  0
118130  1  0
146  2  1  0
148 61  1  0
 82120  1  0
132  9  1  0
134 95  2  0
110 28  1  0
 81105  2  0
  1141  1  0
 65134  1  0
160141  2  0
 47 15  1  0
157 71  1  1
 20 37  2  0
 71 89  1  0
 10103  1  0
173 16  2  0
 37 43  1  0
 79153  2  0
  7 15  1  0
 22115  1  0
170 91  2  0
138159  2  0
141 36  1  0
166114  1  0
 29173  1  0
 33149  1  0
 97143  1  0
 68152  1  0
103 29  1  0
121  8  1  0
  2132  1  0
 58163  2  0
180 19  2  0
145147  1  0
 65176  1  0
141 54  2  0
180178  1  0
 42157  1  0
 78123  2  0
  3 87  1  0
154 26  1  0
 78 73  1  0
 58122  1  0
 48100  1  0
 86 48  2  0
  6136  1  0
171155  1  0
 25 52  1  0
 64 69  1  0
 12 66  1  0
 18137  2  0
 68183  1  6
183184  1  0
184185  2  0
185186  1  0
186187  2  0
187188  1  0
188189  2  0
189184  1  0
185190  1  0
186191  1  0
M  CHG  1 151   1
M  END