
  SciTegic03291108582D

 29 32  0  0  0  0            999 V2000
    1.8410    1.9786    0.0000 Cl  0  0
   -1.3121    0.0835    0.0000 O   0  0
   -0.1847    0.1858    0.0000 O   0  0
    0.1189   -2.7024    0.0000 O   0  0
   -4.1230    2.6309    0.0000 O   0  0
   -3.4085    3.8684    0.0000 O   0  0
    0.9578   -0.7394    0.0000 N   0  0
    1.0441   -1.5599    0.0000 N   0  0
   -0.2616   -1.2823    0.0000 C   0  0
    0.1509   -0.5679    0.0000 C   0  0
    0.2904   -1.8954    0.0000 C   0  0
    1.5709   -0.1874    0.0000 C   0  0
   -1.0821   -1.3686    0.0000 C   0  0
   -1.5670   -0.7011    0.0000 C   0  0
   -1.9795    0.5684    0.0000 C   0  0
   -1.9795    1.3934    0.0000 C   0  0
    1.3994    0.6196    0.0000 C   0  0
   -2.3920   -0.7011    0.0000 C   0  0
   -2.6470    0.0835    0.0000 C   0  0
    2.3556   -0.4423    0.0000 C   0  0
    2.0125    1.1716    0.0000 C   0  0
   -2.6940    1.8059    0.0000 C   0  0
   -2.6940    2.6309    0.0000 C   0  0
   -1.2651    1.8059    0.0000 C   0  0
    2.9686    0.1097    0.0000 C   0  0
    2.7971    0.9167    0.0000 C   0  0
   -1.9795    3.0434    0.0000 C   0  0
   -1.2651    2.6309    0.0000 C   0  0
   -3.4085    3.0434    0.0000 C   0  0
  1 21  1  0
  2 14  1  0
  2 15  1  0
  3 10  2  0
  4 11  2  0
  5 29  2  0
  6 29  1  0
  7  8  1  0
  7 10  1  0
  7 12  1  0
  8 11  1  0
  9 10  1  0
  9 11  1  0
  9 13  2  0
 12 17  1  0
 12 20  2  0
 13 14  1  0
 14 18  2  0
 15 16  1  0
 15 19  2  0
 16 22  2  0
 16 24  1  0
 17 21  2  0
 18 19  1  0
 20 25  1  0
 21 26  1  0
 22 23  1  0
 23 27  2  0
 23 29  1  0
 24 28  2  0
 25 26  2  0
 27 28  1  0
M  END