
  SciTegic11201309402D

 61 62  0  0  1  0            999 V2000
   -3.5208   -1.9792    0.0000 C   0  0
   -4.0208   -2.6542    0.0000 N   0  0
   -4.0208   -1.3042    0.0000 C   0  0
   -2.6958   -1.9792    0.0000 C   0  0
   -4.8000   -2.3917    0.0000 C   0  0
   -4.8000   -1.5667    0.0000 C   0  0
    1.0167   -4.1167    0.0000 C   0  0
   -0.2208   -3.4042    0.0000 N   0  0
    1.5000   -8.2042    0.0000 C   0  0
   -1.0458   -3.4042    0.0000 C   0  0
   -2.2833   -2.6917    0.0000 N   0  0
    1.4292   -4.8375    0.0000 N   0  0
    0.1917   -4.1167    0.0000 C   0  0  1  0  0  0
    2.2125   -7.7917    0.0000 C   0  0
   -1.4583   -2.6917    0.0000 C   0  0  1  0  0  0
    2.2542   -4.8375    0.0000 C   0  0  2  0  0  0
    2.6667   -5.5500    0.0000 C   0  0
   -2.2833   -1.2667    0.0000 O   0  0
   -5.5208   -2.8042    0.0000 C   0  0
    1.4292   -3.4042    0.0000 O   0  0
   -1.4583   -4.1250    0.0000 O   0  0
   -1.0458   -1.9792    0.0000 C   0  0
    2.2125   -6.9667    0.0000 O   0  0
    2.2542   -6.2667    0.0000 O   0  0
    2.6667   -4.1167    0.0000 C   0  0
    1.0792   -7.4792    0.0000 F   0  0
    0.7792   -8.6167    0.0000 F   0  0
    1.9167   -8.9292    0.0000 F   0  0
   -0.2208   -4.8375    0.0000 C   0  0  2  0  0  0
   -0.2500   -1.7625    0.0000 C   0  0
    2.9292   -8.2042    0.0000 O   0  0
    3.4917   -5.5500    0.0000 O   0  0
   -3.7583   -0.5250    0.0000 C   0  0
    1.3375   -1.3250    0.0000 C   0  0
   -5.5208   -1.1542    0.0000 C   0  0
    0.3292   -2.3417    0.0000 C   0  0
   -0.0458   -0.9667    0.0000 C   0  0
   -9.5792   -2.2542    0.0000 N   0  0
   -5.5208   -3.6292    0.0000 O   0  0
   -0.5708    2.3458    0.0000 N   0  0
    0.7417   -0.7417    0.0000 C   0  0
    1.1292   -2.1250    0.0000 C   0  0
    2.1292   -1.1042    0.0000 O   0  0
   -6.2292   -1.5667    0.0000 C   0  0
    3.4917   -4.1167    0.0000 C   0  0
   -6.2292   -2.3917    0.0000 C   0  0
   -0.8250    1.5625    0.0000 C   0  0
   -9.0292   -2.8792    0.0000 C   0  0
   -1.0458   -4.8375    0.0000 C   0  0
    0.1917   -5.5500    0.0000 C   0  0
   -6.3250   -3.7917    0.0000 C   0  0
   -2.9500   -0.3500    0.0000 C   0  0
   -8.2167   -2.7167    0.0000 C   0  0
   -1.6333    1.3875    0.0000 C   0  0
   -6.8667   -3.1750    0.0000 C   0  0
    3.9042   -4.8375    0.0000 C   0  0
    3.9042   -3.4042    0.0000 C   0  0
   -1.8875    0.6083    0.0000 C   0  0
   -7.6792   -3.3375    0.0000 C   0  0
   -2.6958    0.4333    0.0000 C   0  0
   -1.4583   -5.5500    0.0000 C   0  0
  2  1  1  0
  3  1  2  0
  4  1  1  0
  5  2  1  0
  6  3  1  0
  7 13  1  0
  8 10  1  0
 10 15  1  0
 11  4  1  0
 12  7  1  0
 13  8  1  6
 14  9  1  0
 15 11  1  1
 16 12  1  1
 17 16  1  0
 18  4  2  0
 19  5  2  0
 20  7  2  0
 21 10  2  0
 15 22  1  0
 23 14  2  0
 24 17  2  0
 16 25  1  0
 26  9  1  0
 27  9  1  0
 28  9  1  0
 13 29  1  0
 30 22  1  0
 31 14  1  0
 32 17  1  0
 33  3  1  0
 34 42  2  0
 35  6  2  0
 36 30  2  0
 37 30  1  0
 38 48  1  0
 39 19  1  0
 40 47  1  0
 41 37  2  0
 42 36  1  0
 43 34  1  0
 44 35  1  0
 45 25  1  0
 46 19  1  0
 47 54  1  0
 48 53  1  0
 49 29  1  0
 29 50  1  1
 51 39  1  0
 52 33  1  0
 53 59  1  0
 54 58  1  0
 55 51  1  0
 56 45  1  0
 57 45  1  0
 58 60  1  0
 59 55  1  0
 60 52  1  0
 61 49  1  0
  5  6  1  0
 46 44  2  0
 41 34  1  0
M  END