
  SciTegic11201309402D

 51 53  0  0  1  0            999 V2000
    1.6167   -2.4417    0.0000 N   0  0
    1.6167   -3.2667    0.0000 C   0  0
    1.6167   -4.0917    0.0000 C   0  0
    2.4292   -4.2042    0.0000 O   0  0
    3.0417   -2.4417    0.0000 C   0  0
    5.6542   -6.3667    0.0000 O   0  0
    2.7417   -4.9667    0.0000 C   0  0
    3.7542   -2.0292    0.0000 O   0  0
    2.3292   -2.0292    0.0000 C   0  0  2  0  0  0
    6.3292   -5.8667    0.0000 C   0  0
    4.9792   -6.7167    0.0000 C   0  0
    6.8667   -2.1667    0.0000 C   0  0
    3.5542   -5.0792    0.0000 C   0  0
    3.7542   -1.2042    0.0000 C   0  0  1  0  0  0
    6.9917   -0.7417    0.0000 C   0  0
    7.3417   -1.4917    0.0000 C   0  0
    6.6167   -5.0167    0.0000 O   0  0
    2.4417   -3.2667    0.0000 O   0  0
    0.7917   -4.0792    0.0000 O   0  0
    7.2167   -2.9167    0.0000 C   0  0
    3.0417   -3.2667    0.0000 O   0  0
    2.2292   -5.6167    0.0000 O   0  0
    7.0167   -6.4667    0.0000 O   0  0
    4.8000   -7.2417    0.0000 O   0  0
    0.8792    0.4208    0.0000 N   0  0
    4.0542   -4.4292    0.0000 O   0  0
    6.1667   -0.6792    0.0000 C   0  0
    7.4667   -0.0667    0.0000 O   0  0
    4.8000   -0.9042    0.0000 C   0  0  1  0  0  0
    3.8542   -5.8417    0.0000 C   0  0
    3.0292   -0.7917    0.0000 C   0  0
    5.6917   -1.3542    0.0000 C   0  0
    8.6292   -0.8917    0.0000 C   0  0
    9.4542   -0.9667    0.0000 C   0  0
    4.6667   -5.9542    0.0000 C   0  0
    0.9042   -2.0292    0.0000 C   0  0
    3.0292    0.0333    0.0000 C   0  0
    7.0917   -4.3417    0.0000 C   0  0
    2.3042    0.4333    0.0000 C   0  0
    8.1542   -1.5667    0.0000 C   0  0
    2.3292   -1.2042    0.0000 C   0  0
    1.6042    0.0083    0.0000 C   0  0
    6.7417   -3.5917    0.0000 C   0  0
    0.8792    1.2458    0.0000 C   0  0
    8.0292   -2.9917    0.0000 C   0  0
    4.8625   -0.0625    0.0000 C   0  0
    2.3042    1.2583    0.0000 C   0  0
    0.9042   -1.2042    0.0000 C   0  0
    1.5917    1.6708    0.0000 C   0  0
    1.6167   -0.7917    0.0000 C   0  0
    3.1955   -1.5297    0.0000 H   0  0
  2  1  1  0
  3  2  1  0
  4  3  1  0
  9  5  1  0
  6 11  1  0
  7  4  1  0
  8  5  1  0
  9  1  1  0
 10  6  1  0
 11 35  1  0
 12 16  1  0
 13  7  1  0
 14  8  1  0
 15 27  1  0
 16 15  1  0
 17 10  1  0
 18  2  2  0
 19  3  2  0
 20 12  2  0
 21  5  2  0
 22  7  2  0
 23 10  2  0
 24 11  2  0
 25 42  2  0
 26 13  2  0
 27 32  1  0
 28 15  2  0
 29 14  1  0
 30 13  1  0
 14 31  1  6
 32 29  1  0
 33 40  1  0
 34 33  2  0
 35 30  1  0
 36  1  1  0
 37 31  1  0
 38 17  1  0
 39 37  1  0
 40 16  1  0
 41  9  1  0
 42 39  1  0
 43 20  1  0
 44 49  2  0
 45 20  1  0
 29 46  1  6
 47 39  2  0
 48 36  1  0
 49 47  1  0
 50 48  1  0
 50 41  1  0
 44 25  1  0
 43 38  1  0
  9 51  1  6
M  END