
  CDK    6/4/10,11:41

 33 35  0  0  0  0  0  0  0  0999 V2000
   11.3671  -21.5958    0.0000 C   0  0  0  0  0  0  0  0  0  0  0  0
   12.0671  -22.8426    0.0000 O   0  0  0  0  0  0  0  0  0  0  0  0
   12.0800  -22.0189    0.0000 C   0  0  0  0  0  0  0  0  0  0  0  0
   11.4244  -20.7721    0.0000 C   0  0  0  0  0  0  0  0  0  0  0  0
   12.8964  -20.7946    0.0000 C   0  0  0  0  0  0  0  0  0  0  0  0
   12.1670  -20.4114    0.0000 C   0  0  0  0  0  0  0  0  0  0  0  0
   12.3086  -19.5959    0.0000 C   0  0  0  0  0  0  0  0  0  0  0  0
   13.1233  -19.4798    0.0000 C   0  0  0  0  0  0  0  0  0  0  0  0
   13.4340  -18.7172    0.0000 C   0  0  0  0  0  0  0  0  0  0  0  0
   12.9221  -18.0685    0.0000 C   0  0  0  0  0  0  0  0  0  0  0  0
   12.1074  -18.1846    0.0000 C   0  0  0  0  0  0  0  0  0  0  0  0
   11.8007  -18.9483    0.0000 C   0  0  0  0  0  0  0  0  0  0  0  0
   12.7989  -21.6119    0.0000 O   0  0  0  0  0  0  0  0  0  0  0  0
   13.5079  -22.0337    0.0000 C   0  0  0  0  0  0  0  0  0  0  0  0
   13.4979  -22.8627    0.0000 C   0  0  0  0  0  0  0  0  0  0  0  0
   12.7779  -23.2603    0.0000 C   0  0  0  0  0  0  0  0  0  0  0  0
   12.7668  -24.0853    0.0000 C   0  0  0  0  0  0  0  0  0  0  0  0
   13.4781  -24.5115    0.0000 C   0  0  0  0  0  0  0  0  0  0  0  0
   14.2020  -24.1020    0.0000 C   0  0  0  0  0  0  0  0  0  0  0  0
   14.2085  -23.2741    0.0000 C   0  0  0  0  0  0  0  0  0  0  0  0
   14.9125  -24.5212    0.0000 C   0  0  0  0  0  0  0  0  0  0  0  0
   15.6230  -24.9405    0.0000 F   0  0  0  0  0  0  0  0  0  0  0  0
   15.3317  -23.8107    0.0000 F   0  0  0  0  0  0  0  0  0  0  0  0
   14.4932  -25.2317    0.0000 F   0  0  0  0  0  0  0  0  0  0  0  0
   12.0449  -24.4872    0.0000 C   0  0  0  0  0  0  0  0  0  0  0  0
   11.3261  -24.8942    0.0000 F   0  0  0  0  0  0  0  0  0  0  0  0
   12.4504  -25.2093    0.0000 F   0  0  0  0  0  0  0  0  0  0  0  0
   11.6415  -23.7686    0.0000 F   0  0  0  0  0  0  0  0  0  0  0  0
    9.9343  -21.5818    0.0000 C   0  0  0  0  0  0  0  0  0  0  0  0
    9.2165  -21.9849    0.0000 C   0  0  0  0  0  0  0  0  0  0  0  0
    9.9431  -20.7569    0.0000 O   0  0  0  0  0  0  0  0  0  0  0  0
   10.6467  -21.9979    0.0000 N   0  0  0  0  0  0  0  0  0  0  0  0
   13.4881  -20.2198    0.0000 N   0  0  0  0  0  0  0  0  0  0  0  0
  1  3  1  0  0  0  0 
  3  2  2  0  0  0  0 
  1  4  1  1  0  0  0 
  4  6  1  0  0  0  0 
  5  6  2  0  0  0  0 
  6  7  1  0  0  0  0 
  7  8  2  0  0  0  0 
  8  9  1  0  0  0  0 
  9 10  2  0  0  0  0 
 10 11  1  0  0  0  0 
 11 12  2  0  0  0  0 
 12  7  1  0  0  0  0 
  3 13  1  0  0  0  0 
 13 14  1  0  0  0  0 
 14 15  1  0  0  0  0 
 15 16  2  0  0  0  0 
 16 17  1  0  0  0  0 
 17 18  2  0  0  0  0 
 18 19  1  0  0  0  0 
 19 20  2  0  0  0  0 
 20 15  1  0  0  0  0 
 19 21  1  0  0  0  0 
 21 22  1  0  0  0  0 
 21 23  1  0  0  0  0 
 21 24  1  0  0  0  0 
 17 25  1  0  0  0  0 
 25 26  1  0  0  0  0 
 25 27  1  0  0  0  0 
 25 28  1  0  0  0  0 
 29 30  1  0  0  0  0 
 29 31  2  0  0  0  0 
 32 29  1  0  0  0  0 
 32  1  1  0  0  0  0 
 33  5  1  0  0  0  0 
  8 33  1  0  0  0  0 
M  END