
  SciTegic05171617272D

 28 30  0  0  1  0            999 V2000
    3.3606   -2.8684    0.0000 C   0  0
    2.1855   -2.6254    0.0000 C   0  0
    1.3877   -3.5218    0.0000 C   0  0
    1.7138   -1.2033    0.0000 C   0  0
    2.5889    0.0182    0.0000 N   0  0
    1.7138    1.2033    0.0000 N   0  0
    2.0825    2.3453    0.0000 C   0  0
    0.2917    0.7475    0.0000 C   0  0
   -1.0028    1.5132    0.0000 N   0  0
   -2.3155    0.7475    0.0000 C   0  0
   -3.6217    1.4865    0.0000 O   0  0
   -4.9153    0.7255    0.0000 C   0  0
   -6.2216    1.4644    0.0000 C   0  0
   -6.2318    2.6643    0.0000 O   0  0
   -7.5151    0.7033    0.0000 N   0  0
   -8.8215    1.4422    0.0000 C   0  0  1  0  0  0
   -8.8317    2.6421    0.0000 C   0  0
  -10.1150    0.6811    0.0000 C   0  0
  -11.4218    1.4177    0.0000 C   0  0
  -12.7130    0.6544    0.0000 C   0  0
  -12.6977   -0.8455    0.0000 C   0  0
  -13.7307   -1.4561    0.0000 C   0  0
  -11.3910   -1.5821    0.0000 C   0  0
  -10.0997   -0.8189    0.0000 C   0  0
   -2.3155   -0.7475    0.0000 C   0  0
   -1.0028   -1.5132    0.0000 C   0  0
   -0.9991   -2.7132    0.0000 C   0  0
    0.2917   -0.7475    0.0000 C   0  0
  1  2  1  0
  2  3  1  0
  2  4  1  0
  4  5  2  0
  5  6  1  0
  6  7  1  0
  6  8  1  0
  8  9  2  0
  9 10  1  0
 10 11  1  0
 11 12  1  0
 12 13  1  0
 13 14  2  0
 13 15  1  0
 15 16  1  0
 16 17  1  6
 16 18  1  0
 18 19  2  0
 19 20  1  0
 20 21  2  0
 21 22  1  0
 21 23  1  0
 23 24  2  0
 18 24  1  0
 10 25  2  0
 25 26  1  0
 26 27  1  0
 26 28  2  0
  4 28  1  0
  8 28  1  0
M  END