
  SciTegic10191216002D

 37 41  0  0  1  0            999 V2000
    7.1083   -7.8250    0.0000 C   0  0
    7.1083   -8.6500    0.0000 O   0  0
    7.8204   -9.0583    0.0000 C   0  0
    8.5324   -8.6500    0.0000 C   0  0
    8.5324   -7.8250    0.0000 N   0  0
    7.8204   -7.4083    0.0000 C   0  0
    9.2480   -7.4146    0.0000 C   0  0
    9.9613   -7.8292    0.0000 C   0  0
    9.2505   -6.5896    0.0000 O   0  0
   10.6770   -7.4188    0.0000 C   0  0  1  0  0  0
   10.6708   -6.5917    0.0000 C   0  0
   11.3924   -7.8297    0.0000 C   0  0
   11.3942   -8.6547    0.0000 O   0  0
   12.1059   -7.4156    0.0000 N   0  0
   12.8207   -7.8265    0.0000 C   0  0  2  0  0  0
   12.5841   -8.6163    0.0000 C   0  0
   13.2617   -9.0870    0.0000 C   0  0
   13.9188   -8.5880    0.0000 N   0  0
   13.6472   -7.8090    0.0000 C   0  0
   13.2098   -7.0954    0.0000 C   0  0
   13.5989   -6.3648    0.0000 N   0  0
   14.7086   -8.8262    0.0000 C   0  0
   14.8907   -9.6276    0.0000 C   0  0
   15.6766   -9.8666    0.0000 C   0  0
   16.2810   -9.3046    0.0000 C   0  0
   16.0940   -8.5000    0.0000 C   0  0
   15.3027   -8.2576    0.0000 C   0  0
   11.3822   -6.1739    0.0000 C   0  0
   12.0951   -6.5845    0.0000 C   0  0
   12.8043   -6.1702    0.0000 C   0  0
   11.3696   -5.3515    0.0000 C   0  0
   12.0851   -4.9355    0.0000 C   0  0
   12.8013   -5.3452    0.0000 C   0  0
   13.5120   -4.9299    0.0000 C   0  0
   13.5079   -4.1050    0.0000 C   0  0
   12.7869   -3.6973    0.0000 C   0  0
   12.0791   -4.1149    0.0000 C   0  0
 17 18  1  0
 18 19  1  0
  2  3  1  0
 15 20  1  0
  8 10  1  0
 20 21  3  0
  3  4  1  0
 18 22  1  0
 22 23  1  0
 10 11  1  1
  4  5  1  0
 10 12  1  0
  5  6  1  0
 12 13  2  0
 22 27  1  0
 23 24  1  0
 24 25  1  0
 25 26  1  0
 26 27  1  0
 28 11  1  0
 28 29  1  0
 12 14  1  0
  5  7  1  0
 15 14  1  1
 28 31  1  0
 29 30  1  0
 30 33  1  0
 32 31  1  0
 15 16  1  0
  1  2  1  0
 32 33  2  0
  7  8  1  0
 33 34  1  0
  1  6  1  0
 34 35  2  0
  7  9  2  0
 35 36  1  0
 16 17  1  0
 36 37  2  0
 37 32  1  0
 15 19  1  0
M  END