
          03140815512D 1   1.00000     0.00000     0

 27 31  0     0  0            999 V2000
    1.1802   -3.4583    0.0000 C   0  0  0  0  0  0           0  0  0
    1.8215   -2.7746    0.0000 C   0  0  3  0  0  0           0  0  0
    1.9847   -3.2332    0.0000 C   0  0  3  0  0  0           0  0  0
    2.5328   -3.0373    0.0000 C   0  0  0  0  0  0           0  0  0
    2.7374   -3.5360    0.0000 C   0  0  0  0  0  0           0  0  0
    3.2807   -2.8518    0.0000 C   0  0  3  0  0  0           0  0  0
    1.9778   -2.3849    0.0000 C   0  0  0  0  0  0           0  0  0
    2.5386   -1.7228    0.0000 C   0  0  3  0  0  0           0  0  0
    1.8170   -1.9792    0.0000 C   0  0  0  0  0  0           0  0  0
    3.2865   -2.0329    0.0000 C   0  0  0  0  0  0           0  0  0
    2.5333   -0.8958    0.0000 C   0  0  0  0  0  0           0  0  0
    3.2452   -0.4788    0.0000 N   0  0  0  0  0  0           0  0  0
    3.9622   -0.8868    0.0000 C   0  0  0  0  0  0           0  0  0
    4.6741   -0.4698    0.0000 C   0  0  0  0  0  0           0  0  0
    3.9675   -1.7118    0.0000 O   0  0  0  0  0  0           0  0  0
    5.3885   -0.8784    0.0000 C   0  0  0  0  0  0           0  0  0
    6.0998   -0.4621    0.0000 C   0  0  0  0  0  0           0  0  0
    6.0951    0.3638    0.0000 C   0  0  0  0  0  0           0  0  0
    5.3730    0.7716    0.0000 C   0  0  0  0  0  0           0  0  0
    4.6646    0.3529    0.0000 C   0  0  0  0  0  0           0  0  0
    5.3926   -1.7034    0.0000 Cl  0  0  0  0  0  0           0  0  0
    5.3648    1.5966    0.0000 C   0  0  3  0  0  0           0  0  0
    6.0790    2.0131    0.0000 C   0  0  0  0  0  0           0  0  0
    6.0729    2.8344    0.0000 C   0  0  0  0  0  0           0  0  0
    5.3562    3.2437    0.0000 N   0  0  0  0  0  0           0  0  0
    4.6440    2.8254    0.0000 C   0  0  0  0  0  0           0  0  0
    4.6485    1.9978    0.0000 C   0  0  0  0  0  0           0  0  0
  1  3  1  0     0  0
 12 13  1  0     0  0
  2  4  1  0     0  0
 13 14  1  0     0  0
  3  5  1  0     0  0
 13 15  2  0     0  0
  4  6  1  0     0  0
 14 16  2  0     0  0
  5  6  1  0     0  0
 16 17  1  0     0  0
  7  8  1  0     0  0
 17 18  2  0     0  0
  3  7  1  0     0  0
 18 19  1  0     0  0
  2  9  1  0     0  0
 19 20  2  0     0  0
 20 14  1  0     0  0
  6 10  1  0     0  0
 16 21  1  0     0  0
 10  8  1  0     0  0
 19 22  1  0     0  0
 22 23  1  0     0  0
  8  9  1  0     0  0
  8 11  1  0     0  0
  1  2  1  0     0  0
 11 12  1  0     0  0
 22 27  1  0     0  0
 23 24  1  0     0  0
 24 25  1  0     0  0
 25 26  1  0     0  0
 26 27  1  0     0  0
M  END