
  SciTegic01161211222D

 21 20  0  0  0  0            999 V2000
    2.5792   -3.3375    0.0000 N   0  0
    2.4000   -2.7625    0.0000 C   0  0
    4.4750   -1.5542    0.0000 N   0  0
    2.0917   -3.6875    0.0000 C   0  0
    4.9917   -1.8542    0.0000 C   0  0
    1.6042   -3.3292    0.0000 N   0  0
    2.9167   -2.4667    0.0000 C   0  0
    1.8000   -2.7542    0.0000 C   0  0
    2.8292   -4.1125    0.0000 Cl  0  0
    4.7917   -0.3625    0.0000 Cl  0  0
    5.5125   -1.5542    0.0000 N   0  0
    3.9542   -1.8625    0.0000 C   0  0
    6.0375   -1.8500    0.0000 C   0  0
    3.4375   -2.7667    0.0000 C   0  0
    2.9167   -1.8625    0.0000 C   0  0
    3.9542   -2.4667    0.0000 C   0  0
    3.4375   -1.5625    0.0000 C   0  0
    6.0375   -2.4500    0.0000 C   0  0
    6.5542   -1.5500    0.0000 C   0  0
    6.5542   -2.1500    0.0000 C   0  0
    6.5542   -2.7500    0.0000 C   0  0
  2  1  1  0
  3 12  1  0
  4  1  2  0
  5  3  2  0
  6  4  1  0
  7  2  1  0
  8  2  2  0
 11  5  1  0
 12 17  2  0
 13 11  1  0
 14  7  1  0
 15  7  2  0
 16 14  2  0
 17 15  1  0
 18 13  1  0
 19 13  1  0
 20 13  1  0
 21 18  1  0
  6  8  1  0
 12 16  1  0
M  END