
  SciTegic01161211232D

 17 18  0  0  0  0            999 V2000
   -3.6556  -13.7250    0.0000 C   0  0
   -3.6568  -14.5523    0.0000 C   0  0
   -2.9419  -14.9652    0.0000 C   0  0
   -2.9437  -13.3122    0.0000 C   0  0
   -2.2284  -13.7213    0.0000 C   0  0
   -2.2235  -14.5524    0.0000 C   0  0
   -1.4316  -14.8046    0.0000 N   0  0
   -0.9470  -14.1293    0.0000 C   0  0
   -1.4395  -13.4600    0.0000 S   0  0
   -1.1721  -15.5877    0.0000 C   0  0
   -1.7206  -16.2040    0.0000 C   0  0
   -0.1220  -14.1245    0.0000 C   0  0
    0.2862  -13.4076    0.0000 C   0  0
    1.1112  -13.4027    0.0000 O   0  0
   -0.1305  -12.6956    0.0000 C   0  0
   -4.3716  -14.9643    0.0000 O   0  0
   -5.0857  -14.5512    0.0000 C   0  0
  7  8  1  0
  8  9  1  0
  9  5  1  0
  4  1  1  0
  7 10  1  0
  5  6  1  0
 10 11  1  0
  8 12  2  0
  2  3  1  0
 12 13  1  0
  3  6  2  0
 13 14  2  0
  1  2  2  0
 13 15  1  0
  5  4  2  0
  2 16  1  0
  6  7  1  0
 16 17  1  0
M  END