
  SciTegic01231714012D

 29 31  0  0  0  0            999 V2000
    1.2990   -0.7500    0.0000 C   0  0
    1.2990    0.7500    0.0000 C   0  0
    0.0000    1.5000    0.0000 C   0  0
   -1.2990    0.7500    0.0000 C   0  0
   -1.2990   -0.7500    0.0000 C   0  0
    0.0000   -1.5000    0.0000 C   0  0
    0.0031   -3.0008    0.0000 O   0  0
    1.0432   -3.5993    0.0000 C   0  0
   -2.6003   -1.4978    0.0000 O   0  0
   -3.6387   -0.8963    0.0000 C   0  0
    2.6003   -1.4977    0.0000 C   0  0
    2.6024   -2.6977    0.0000 O   0  0
    3.8990   -0.7455    0.0000 N   0  0
    5.2007   -1.4909    0.0000 C   0  0
    6.4972   -0.7364    0.0000 C   0  0
    6.4920    0.7636    0.0000 N   0  0
    5.1903    1.5091    0.0000 C   0  0
    3.8939    0.7546    0.0000 C   0  0
    7.7876    1.5211    0.0000 C   0  0
    7.7802    3.0220    0.0000 C   0  0
    8.8299    0.9266    0.0000 O   0  0
    9.0758    3.7795    0.0000 O   0  0
    9.0685    5.2803    0.0000 C   0  0
   10.3623    6.0394    0.0000 C   0  0
   10.3519    7.5394    0.0000 C   0  0
    9.0477    8.2804    0.0000 C   0  0
    7.7539    7.5214    0.0000 C   0  0
    7.7643    6.0214    0.0000 C   0  0
   11.3870    8.1465    0.0000 C   0  0
  1  2  2  0
  2  3  1  0
  3  4  2  0
  4  5  1  0
  5  6  2  0
  6  1  1  0
  6  7  1  0
  7  8  1  0
  5  9  1  0
  9 10  1  0
  1 11  1  0
 11 12  2  0
 11 13  1  0
 13 14  1  0
 13 18  1  0
 14 15  1  0
 15 16  1  0
 16 17  1  0
 17 18  1  0
 16 19  1  0
 19 20  1  0
 19 21  2  0
 20 22  1  0
 22 23  1  0
 23 24  2  0
 24 25  1  0
 25 26  2  0
 26 27  1  0
 27 28  2  0
 28 23  1  0
 25 29  1  0
M  END