
          11280715492D 1   1.00000     0.00000     0

 19 21  0     0  0            999 V2000
    2.7774   -2.1956    0.0000 N   0  0  0  0  0  0           0  0  0
    2.7763   -3.0229    0.0000 C   0  0  0  0  0  0           0  0  0
    3.4911   -3.4357    0.0000 C   0  0  0  0  0  0           0  0  0
    4.2074   -3.0224    0.0000 C   0  0  0  0  0  0           0  0  0
    4.2046   -2.1920    0.0000 C   0  0  0  0  0  0           0  0  0
    3.4893   -1.7828    0.0000 C   0  0  0  0  0  0           0  0  0
    4.9225   -3.4338    0.0000 C   0  0  0  0  0  0           0  0  0
    5.8138   -4.4295    0.0000 N   0  0  0  0  0  0           0  0  0
    6.2254   -3.7180    0.0000 C   0  0  0  0  0  0           0  0  0
    5.6648   -3.0956    0.0000 N   0  0  0  0  0  0           0  0  0
    5.0068   -4.2511    0.0000 C   0  0  0  0  0  0           0  0  0
    4.3913   -4.7991    0.0000 C   0  0  0  0  0  0           0  0  0
    3.6698   -4.3967    0.0000 C   0  0  0  0  0  0           0  0  0
    2.9628   -4.8200    0.0000 C   0  0  0  0  0  0           0  0  0
    2.9758   -5.6457    0.0000 C   0  0  0  0  0  0           0  0  0
    3.7019   -6.0462    0.0000 C   0  0  0  0  0  0           0  0  0
    4.4061   -5.6205    0.0000 C   0  0  0  0  0  0           0  0  0
    2.2689   -6.0708    0.0000 Cl  0  0  0  0  0  0           0  0  0
    3.7183   -6.8710    0.0000 O   0  0  0  0  0  0           0  0  0
  8  9  1  0     0  0
  9 10  2  0     0  0
 10  7  1  0     0  0
  7 11  2  0     0  0
 11  8  1  0     0  0
  5  6  1  0     0  0
  6  1  2  0     0  0
 12 13  2  0     0  0
  1  2  1  0     0  0
 13 14  1  0     0  0
  4  7  1  0     0  0
 14 15  2  0     0  0
  3  4  1  0     0  0
 15 16  1  0     0  0
 16 17  2  0     0  0
 17 12  1  0     0  0
 11 12  1  0     0  0
  4  5  2  0     0  0
 15 18  1  0     0  0
  2  3  2  0     0  0
 16 19  1  0     0  0
M  END