
          11280715382D 1   1.00000     0.00000     0

 44 45  0     0  0            999 V2000
   -0.9125   -2.3792    0.0000 N   0  3  0  0  0  0           0  0  0
   14.9917   -9.1375    0.0000 N   0  3  0  0  0  0           0  0  0
   -0.3083   -2.3792    0.0000 C   0  0  0  0  0  0           0  0  0
   14.3875   -9.1417    0.0000 C   0  0  0  0  0  0           0  0  0
   -1.2125   -1.8667    0.0000 O   0  5  0  0  0  0           0  0  0
   15.2917   -9.6542    0.0000 O   0  5  0  0  0  0           0  0  0
   15.2875   -8.6167    0.0000 O   0  0  0  0  0  0           0  0  0
   -1.2125   -2.9042    0.0000 O   0  0  0  0  0  0           0  0  0
   -0.0083   -1.8625    0.0000 C   0  0  0  0  0  0           0  0  0
   14.0792   -8.6167    0.0000 C   0  0  0  0  0  0           0  0  0
   -0.0083   -2.9042    0.0000 C   0  0  0  0  0  0           0  0  0
   14.0875   -9.6625    0.0000 C   0  0  0  0  0  0           0  0  0
   13.4875   -9.6625    0.0000 C   0  0  0  0  0  0           0  0  0
   13.4875   -8.6167    0.0000 C   0  0  0  0  0  0           0  0  0
    0.5917   -1.8625    0.0000 C   0  0  0  0  0  0           0  0  0
    0.5917   -2.9042    0.0000 C   0  0  0  0  0  0           0  0  0
   12.2917   -8.6167    0.0000 N   0  0  0  0  0  0           0  0  0
    1.7917   -2.9042    0.0000 N   0  0  0  0  0  0           0  0  0
   13.1917   -9.1417    0.0000 C   0  0  0  0  0  0           0  0  0
    0.8917   -2.3875    0.0000 C   0  0  0  0  0  0           0  0  0
    8.9917   -7.0625    0.0000 N   0  0  0  0  0  0           0  0  0
    5.0917   -4.4625    0.0000 N   0  0  0  0  0  0           0  0  0
    1.4917   -2.3875    0.0000 C   0  0  0  0  0  0           0  0  0
   12.5917   -9.1417    0.0000 C   0  0  0  0  0  0           0  0  0
    8.6917   -6.5417    0.0000 C   0  0  0  0  0  0           0  0  0
    4.4917   -4.4625    0.0000 C   0  0  0  0  0  0           0  0  0
    9.5917   -7.0625    0.0000 C   0  0  0  0  0  0           0  0  0
   11.6917   -8.6167    0.0000 C   0  0  0  0  0  0           0  0  0
    2.3917   -2.9042    0.0000 C   0  0  0  0  0  0           0  0  0
    5.3917   -4.9792    0.0000 C   0  0  0  0  0  0           0  0  0
    5.9917   -4.9792    0.0000 C   0  0  0  0  0  0           0  0  0
    9.8917   -7.5792    0.0000 C   0  0  0  0  0  0           0  0  0
   11.3917   -8.1000    0.0000 C   0  0  0  0  0  0           0  0  0
    8.0917   -6.5417    0.0000 C   0  0  0  0  0  0           0  0  0
    4.1917   -3.9417    0.0000 C   0  0  0  0  0  0           0  0  0
    2.6917   -3.4250    0.0000 C   0  0  0  0  0  0           0  0  0
    7.7917   -6.0167    0.0000 C   0  0  0  0  0  0           0  0  0
    3.5917   -3.9417    0.0000 C   0  0  0  0  0  0           0  0  0
    3.2917   -3.4250    0.0000 C   0  0  0  0  0  0           0  0  0
    6.2917   -5.5042    0.0000 C   0  0  0  0  0  0           0  0  0
    6.8917   -5.5042    0.0000 C   0  0  0  0  0  0           0  0  0
    7.1917   -6.0167    0.0000 C   0  0  0  0  0  0           0  0  0
   10.4917   -7.5792    0.0000 C   0  0  0  0  0  0           0  0  0
   10.7917   -8.1000    0.0000 C   0  0  0  0  0  0           0  0  0
  2  4  1  0     0  0
  3  1  1  0     0  0
  4 10  1  0     0  0
  5  1  1  0     0  0
  6  2  1  0     0  0
  7  2  2  0     0  0
  8  1  2  0     0  0
  9  3  2  0     0  0
 10 14  2  0     0  0
 11  3  1  0     0  0
 12 13  1  0     0  0
 13 19  2  0     0  0
 14 19  1  0     0  0
 15  9  1  0     0  0
 16 11  2  0     0  0
 17 28  1  0     0  0
 18 23  1  0     0  0
 19 24  1  0     0  0
 20 16  1  0     0  0
 21 25  1  0     0  0
 22 26  1  0     0  0
 23 20  1  0     0  0
 24 17  1  0     0  0
 25 34  1  0     0  0
 26 35  1  0     0  0
 27 21  1  0     0  0
 28 33  1  0     0  0
 29 18  1  0     0  0
 30 22  1  0     0  0
 31 30  1  0     0  0
 32 27  1  0     0  0
 33 44  1  0     0  0
 34 37  1  0     0  0
 35 38  1  0     0  0
 36 29  1  0     0  0
 37 42  1  0     0  0
 38 39  1  0     0  0
 39 36  1  0     0  0
 40 31  1  0     0  0
 41 40  1  0     0  0
 42 41  1  0     0  0
 43 32  1  0     0  0
 44 43  1  0     0  0
 20 15  2  0     0  0
 12  4  2  0     0  0
M  CHG  4   1   1   2   1   5  -1   6  -1
M  END