
          11280714532D 1   1.00000     0.00000     0

 34 37  0     0  0            999 V2000
    7.8667   -2.0667    0.0000 C   0  0  0  0  0  0           0  0  0
    7.1417   -1.6417    0.0000 C   0  0  0  0  0  0           0  0  0
    7.8667   -2.9042    0.0000 C   0  0  0  0  0  0           0  0  0
    8.5792   -1.6542    0.0000 N   0  3  0  0  0  0           0  0  0
    6.4292   -2.0667    0.0000 C   0  0  0  0  0  0           0  0  0
    7.1417   -3.3167    0.0000 O   0  0  0  0  0  0           0  0  0
    6.4167   -2.9042    0.0000 C   0  0  0  0  0  0           0  0  0
    5.7042   -3.3042    0.0000 C   0  0  0  0  0  0           0  0  0
    1.4167   -3.3042    0.0000 N   0  0  3  0  0  0           0  0  0
   -0.0083   -4.1167    0.0000 N   0  0  3  0  0  0           0  0  0
    5.7042   -1.6542    0.0000 C   0  0  0  0  0  0           0  0  0
    9.2917   -2.0667    0.0000 O   0  5  0  0  0  0           0  0  0
    8.5792   -3.3167    0.0000 O   0  0  0  0  0  0           0  0  0
    8.5792   -0.8292    0.0000 O   0  0  0  0  0  0           0  0  0
    7.1417   -0.8167    0.0000 O   0  0  0  0  0  0           0  0  0
    2.1417   -2.8917    0.0000 C   0  0  0  0  0  0           0  0  0
    4.9917   -2.8917    0.0000 C   0  0  0  0  0  0           0  0  0
   -0.7208   -4.5292    0.0000 C   0  0  0  0  0  0           0  0  0
    4.2792   -3.3042    0.0000 O   0  0  0  0  0  0           0  0  0
    1.4292   -4.1292    0.0000 C   0  0  0  0  0  0           0  0  0
    0.7167   -2.8917    0.0000 C   0  0  0  0  0  0           0  0  0
    0.0042   -3.2917    0.0000 C   0  0  0  0  0  0           0  0  0
    0.7167   -4.5417    0.0000 C   0  0  0  0  0  0           0  0  0
    2.8542   -3.3042    0.0000 C   0  0  3  0  0  0           0  0  0
    4.9917   -2.0667    0.0000 C   0  0  0  0  0  0           0  0  0
   -1.4333   -4.1167    0.0000 C   0  0  0  0  0  0           0  0  0
   -2.8583   -3.2792    0.0000 C   0  0  0  0  0  0           0  0  0
    3.5667   -2.8917    0.0000 C   0  0  0  0  0  0           0  0  0
   -3.5708   -2.8667    0.0000 Cl  0  0  0  0  0  0           0  0  0
   -2.1333   -2.8792    0.0000 C   0  0  0  0  0  0           0  0  0
   -2.8583   -4.1167    0.0000 C   0  0  0  0  0  0           0  0  0
   -1.4208   -3.2917    0.0000 C   0  0  0  0  0  0           0  0  0
   -2.1458   -4.5292    0.0000 C   0  0  0  0  0  0           0  0  0
    2.8542   -4.1292    0.0000 O   0  0  0  0  0  0           0  0  0
  2  1  2  0     0  0
  3  1  1  0     0  0
  4  1  1  0     0  0
  5  2  1  0     0  0
  6  3  1  0     0  0
  7  6  1  0     0  0
  8  7  2  0     0  0
  9 16  1  0     0  0
 10 22  1  0     0  0
 11  5  2  0     0  0
 12  4  1  0     0  0
 13  3  2  0     0  0
 14  4  2  0     0  0
 15  2  1  0     0  0
 16 24  1  0     0  0
 17  8  1  0     0  0
 18 10  1  0     0  0
 19 17  1  0     0  0
 20  9  1  0     0  0
 21  9  1  0     0  0
 22 21  1  0     0  0
 23 20  1  0     0  0
 24 28  1  0     0  0
 25 11  1  0     0  0
 26 18  1  0     0  0
 27 31  1  0     0  0
 28 19  1  0     0  0
 29 27  1  0     0  0
 30 32  1  0     0  0
 31 33  2  0     0  0
 32 26  2  0     0  0
 33 26  1  0     0  0
 34 24  1  0     0  0
  5  7  1  0     0  0
 25 17  2  0     0  0
 23 10  1  0     0  0
 30 27  2  0     0  0
M  CHG  2   4   1  12  -1
M  END