
  SciTegic02131210002D

 51 56  0  0  0  0            999 V2000
   10.0585  -12.3363    0.0000 C   0  0
    9.6501  -11.6201    0.0000 C   0  0
    8.8245  -11.6201    0.0000 C   0  0
    8.4074  -12.3363    0.0000 C   0  0
    9.6501  -13.0479    0.0000 N   0  0
    8.8246  -13.0524    0.0000 C   0  0
    8.5749  -13.8392    0.0000 C   0  0
    9.2422  -14.3184    0.0000 C   0  0
    9.9081  -13.8319    0.0000 C   0  0
    7.5799  -12.3362    0.0000 C   0  0
    7.1692  -11.6207    0.0000 O   0  0
    7.1693  -13.0517    0.0000 O   0  0
    6.3436  -11.6207    0.0000 C   0  0
   10.0618  -10.9052    0.0000 N   0  0
   10.8842  -12.3374    0.0000 O   0  0
   10.6209  -14.2386    0.0000 C   0  0
   10.6229  -15.0643    0.0000 O   0  0
   11.3354  -13.8261    0.0000 N   0  0
   12.0519  -14.2350    0.0000 C   0  0  2  0  0  0
   12.7665  -13.8225    0.0000 C   0  0
   12.0540  -15.0607    0.0000 C   0  0
   12.7706  -15.4738    0.0000 C   0  0
   13.4831  -14.2314    0.0000 O   0  0
   12.7645  -12.9970    0.0000 N   0  0
   13.4790  -12.5803    0.0000 C   0  0
   13.4769  -11.7546    0.0000 C   0  0
   14.1894  -11.3460    0.0000 C   0  0
   14.1877  -10.5211    0.0000 C   0  0
   13.4747  -10.1072    0.0000 C   0  0
   12.7579  -10.5283    0.0000 C   0  0
   12.7631  -11.3519    0.0000 C   0  0
    9.6520  -10.1891    0.0000 C   0  0
   10.0637   -9.4741    0.0000 O   0  0
    8.8264  -10.1879    0.0000 O   0  0
   12.7726  -16.2993    0.0000 C   0  0
   12.1096  -16.7846    0.0000 C   0  0
   12.3654  -17.5695    0.0000 N   0  0
   13.4427  -16.7814    0.0000 C   0  0
   13.1915  -17.5642    0.0000 C   0  0
   13.7439  -18.1732    0.0000 C   0  0
   14.5477  -18.0005    0.0000 C   0  0
   14.7960  -17.2135    0.0000 C   0  0
   14.2420  -16.6079    0.0000 C   0  0
   12.0479  -12.5838    0.0000 C   0  0
    9.6540   -8.7620    0.0000 C   0  0
   10.0657   -8.0471    0.0000 C   0  0
   10.8898   -8.0518    0.0000 C   0  0
   11.3056   -7.3376    0.0000 C   0  0
   10.8916   -6.6205    0.0000 C   0  0
   10.0617   -6.6221    0.0000 C   0  0
    9.6539   -7.3368    0.0000 C   0  0
 24 25  1  0
  4 10  1  0
 25 26  1  0
  6  4  2  0
 26 27  2  0
 11 13  1  0
 27 28  1  0
  5  1  1  0
 28 29  2  0
  2 14  1  0
 29 30  1  0
  1  2  1  0
 30 31  2  0
 31 26  1  0
  1 15  2  0
 14 32  1  0
  2  3  1  0
 32 33  1  0
  9 16  1  0
 32 34  2  0
  6  7  1  0
 22 35  1  0
 35 36  2  0
 16 17  2  0
  7  8  1  0
 36 37  1  0
 37 39  1  0
 38 35  1  0
 16 18  1  0
  8  9  1  0
 38 39  2  0
 18 19  1  0
 39 40  1  0
  9  5  1  0
 40 41  2  0
 19 20  1  0
 41 42  1  0
  3  4  1  0
 42 43  2  0
 43 38  1  0
 19 21  1  6
 24 44  1  0
  5  6  1  0
 33 45  1  0
 21 22  1  0
 45 46  1  0
 46 47  2  0
 20 23  2  0
 47 48  1  0
 10 11  1  0
 48 49  2  0
 20 24  1  0
 49 50  1  0
 10 12  2  0
 50 51  2  0
 51 46  1  0
M  END