
  SciTegic11201309402D

 85 88  0  0  0  0            999 V2000
   16.3375   -8.2712    0.0000 N   0  0
   15.6235   -7.8580    0.0000 C   0  0
   17.2665   -7.1307    0.0000 C   0  0
   11.3391   -7.8580    0.0000 C   0  0
    9.9110   -7.8580    0.0000 N   0  0
    9.1969   -8.2712    0.0000 C   0  0
   17.0913   -7.9374    0.0000 C   0  0  2  0  0  0
   13.4813   -8.2712    0.0000 C   0  0
    7.0514   -7.8580    0.0000 C   0  0
   16.2086   -5.2166    0.0000 C   0  0
   12.0532   -8.2712    0.0000 N   0  0
    7.7654   -8.2712    0.0000 N   0  0
   10.6250   -8.2712    0.0000 C   0  0  1  0  0  0
   14.1953   -7.8580    0.0000 N   0  0
   16.6549   -6.5787    0.0000 N   0  0
   12.7672   -7.8580    0.0000 C   0  0  1  0  0  0
   16.3838   -4.4067    0.0000 N   0  0
   12.7672   -7.0349    0.0000 C   0  0
    8.4828   -7.8580    0.0000 C   0  0  1  0  0  0
   14.9094   -8.2712    0.0000 C   0  0  1  0  0  0
    6.3373   -8.2712    0.0000 C   0  0  2  0  0  0
   13.0747   -6.2381    0.0000 C   0  0
   20.4037   -6.1092    0.0000 C   0  0
    4.9092   -8.2712    0.0000 C   0  0
    5.6233   -7.8580    0.0000 N   0  0
   15.9408   -3.0480    0.0000 C   0  0
   12.0532   -6.6183    0.0000 C   0  0
   16.8235   -5.7654    0.0000 C   0  0  1  0  0  0
   15.7722   -3.8579    0.0000 C   0  0  2  0  0  0
   12.4598   -5.6861    0.0000 N   0  0
   20.5789   -5.2993    0.0000 N   0  0
   15.6235   -7.0349    0.0000 O   0  0
   18.0533   -6.8729    0.0000 O   0  0
   11.3391   -7.0349    0.0000 O   0  0
    9.1969   -9.0977    0.0000 O   0  0
   13.4813   -9.0977    0.0000 O   0  0
    7.0514   -7.2795    0.0000 O   0  0
   15.4251   -5.4679    0.0000 O   0  0
    6.3373   -9.0977    0.0000 C   0  0
    8.4828   -7.0349    0.0000 C   0  0
    4.9092   -8.8762    0.0000 O   0  0
   16.7243   -2.7967    0.0000 O   0  0
    2.0463   -9.0977    0.0000 N   0  0
   11.6168   -6.8762    0.0000 O   0  0
   19.6202   -6.3605    0.0000 N   0  0
   13.8581   -5.9836    0.0000 N   0  0
    4.1951   -7.8580    0.0000 C   0  0
   13.0747   -7.0216    0.0000 N   0  0
   21.0186   -6.6580    0.0000 N   0  0
   16.4268   -9.0878    0.0000 C   0  0
   10.6250   -9.0977    0.0000 C   0  0
   11.8052   -5.7456    0.0000 N   0  0
    5.6233   -9.5109    0.0000 C   0  0
   15.3259   -2.4992    0.0000 O   0  0
    4.1951  -10.3275    0.0000 C   0  0
    7.7654   -6.6183    0.0000 C   0  0
    3.4811   -8.2712    0.0000 C   0  0
    4.9092   -9.0977    0.0000 C   0  0
    5.6233  -10.3275    0.0000 C   0  0
    4.1951   -9.5109    0.0000 C   0  0
    4.9092  -10.7440    0.0000 C   0  0
   17.6467   -8.5489    0.0000 C   0  0
    3.4811  -10.7440    0.0000 O   0  0
   17.2367   -9.2630    0.0000 C   0  0
   14.9094   -9.0977    0.0000 C   0  0
    2.0463   -8.2712    0.0000 C   0  0
    2.7604   -9.5109    0.0000 C   0  0
   17.6070   -5.5142    0.0000 C   0  0
   14.9854   -4.1092    0.0000 C   0  0
   14.0267   -5.1770    0.0000 C   0  0
   19.0054   -5.8117    0.0000 C   0  0
    9.9110   -9.5109    0.0000 C   0  0
   11.3391   -9.5109    0.0000 C   0  0
    2.7604   -7.8580    0.0000 C   0  0
    3.4811   -9.0977    0.0000 C   0  0
    3.4811  -11.5738    0.0000 C   0  0
    7.7654   -5.7952    0.0000 C   0  0
    7.0514   -7.0349    0.0000 C   0  0
   18.2219   -6.0630    0.0000 C   0  0
   14.8102   -4.9191    0.0000 C   0  0
   14.1953   -9.5109    0.0000 C   0  0
    2.7604  -11.9837    0.0000 C   0  0
    7.0514   -5.3852    0.0000 C   0  0
    6.3373   -6.6183    0.0000 C   0  0
    6.3373   -5.7952    0.0000 C   0  0
  2  1  1  0
  7  3  1  6
  4 11  1  0
 13  5  1  6
  6  5  1  0
  7  1  1  0
  8 14  1  0
  9 12  1  0
 10 28  1  0
 16 11  1  1
 19 12  1  1
 13  4  1  0
 20 14  1  6
 15  3  1  0
 16  8  1  0
 17 10  1  0
 16 18  1  0
 19  6  1  0
 20  2  1  0
 21  9  1  0
 22 46  2  0
 23 45  2  0
 24 25  1  0
 21 25  1  1
 26 29  1  0
 27 18  1  0
 28 15  1  6
 29 17  1  1
 30 22  1  0
 31 23  1  0
 32  2  2  0
 33  3  2  0
 34  4  2  0
 35  6  2  0
 36  8  2  0
 37  9  2  0
 38 10  2  0
 21 39  1  0
 19 40  1  0
 41 24  2  0
 42 26  2  0
 43 67  2  0
 44 27  2  0
 45 71  1  0
 46 70  1  0
 47 24  1  0
 48 22  1  0
 49 23  1  0
 50  1  1  0
 13 51  1  0
 52 27  1  0
 53 39  1  0
 54 26  1  0
 55 61  1  0
 56 40  1  0
 57 47  1  0
 58 53  2  0
 59 53  1  0
 60 58  1  0
 61 59  2  0
 62  7  1  0
 63 55  1  0
 64 50  1  0
 20 65  1  0
 66 74  2  0
 67 75  1  0
 28 68  1  0
 29 69  1  0
 70 80  1  0
 71 79  1  0
 72 51  1  0
 73 51  1  0
 74 57  1  0
 75 57  2  0
 76 63  1  0
 77 56  2  0
 78 56  1  0
 79 68  1  0
 80 69  1  0
 81 65  1  0
 82 76  1  0
 83 77  1  0
 84 78  2  0
 85 84  1  0
 64 62  1  0
 85 83  2  0
 55 60  2  0
 66 43  1  0
M  END