
  SciTegic12231509382D

 37 40  0  0  0  0            999 V2000
    7.4362   -4.3792    0.0000 N   0  0
    7.4350   -5.2066    0.0000 C   0  0
    8.8634   -4.3756    0.0000 N   0  0
    8.1481   -3.9664    0.0000 C   0  0
    8.8663   -5.2061    0.0000 C   0  0
    8.1491   -5.6173    0.0000 C   0  0
    8.1475   -6.4422    0.0000 C   0  0
    8.8624   -6.8568    0.0000 C   0  0
    9.5804   -6.4407    0.0000 C   0  0
    9.5785   -5.6172    0.0000 C   0  0
    6.7206   -5.6192    0.0000 O   0  0
    6.0061   -5.2068    0.0000 C   0  0
    6.0106   -4.3832    0.0000 C   0  0
    5.2969   -3.9708    0.0000 C   0  0
    4.5814   -4.3834    0.0000 C   0  0
    4.5842   -5.2127    0.0000 C   0  0
    5.2984   -5.6213    0.0000 C   0  0
    3.8712   -5.6278    0.0000 N   0  0
    3.1552   -5.2179    0.0000 C   0  0
    2.4423   -5.6330    0.0000 N   0  0
    1.7263   -5.2231    0.0000 C   0  0
    3.1523   -4.3929    0.0000 O   0  0
    1.6389   -4.3995    0.0000 C   0  0
    0.8313   -4.2309    0.0000 C   0  0
    0.4214   -4.9470    0.0000 O   0  0
    0.9758   -5.5580    0.0000 N   0  0
    0.4930   -3.4785    0.0000 C   0  0
    0.9756   -2.8092    0.0000 C   0  0
   -0.3278   -3.3952    0.0000 C   0  0
    0.0750   -2.7584    0.0000 C   0  0
    1.7963   -2.8925    0.0000 F   0  0
    0.6372   -2.0568    0.0000 F   0  0
    1.3833   -2.0917    0.0000 F   0  0
    8.8623   -7.6818    0.0000 O   0  0
    8.1479   -8.0943    0.0000 C   0  0
   10.2958   -6.8517    0.0000 O   0  0
   10.2975   -7.6767    0.0000 C   0  0
  1  2  2  0
  2  6  1  0
  5  3  1  0
  3  4  2  0
  4  1  1  0
  5  6  1  0
  6  7  2  0
  7  8  1  0
  8  9  2  0
  9 10  1  0
 10  5  2  0
  2 11  1  0
 11 12  1  0
 12 13  2  0
 13 14  1  0
 14 15  2  0
 15 16  1  0
 16 17  2  0
 17 12  1  0
 16 18  1  0
 18 19  1  0
 19 20  1  0
 20 21  1  0
 19 22  2  0
 21 23  1  0
 23 24  2  0
 24 25  1  0
 25 26  1  0
 26 21  2  0
 24 27  1  0
 27 28  1  0
 27 29  1  0
 27 30  1  0
 28 31  1  0
 28 32  1  0
 28 33  1  0
  8 34  1  0
 34 35  1  0
  9 36  1  0
 36 37  1  0
M  END