
  SciTegic10301317112D

 32 33  0  0  0  0            999 V2000
    2.7417   -5.7750    0.0000 S   0  0
    6.0375   -5.7625    0.0000 C   0  0
   11.1375   -8.4125    0.0000 C   0  0  1  0  0  0
   11.5542   -9.1250    0.0000 C   0  0
   10.3125   -8.4167    0.0000 N   0  0
    3.5667   -5.7750    0.0000 C   0  0
    9.8292   -7.7542    0.0000 C   0  0
    6.4542   -6.4750    0.0000 N   0  0
    2.7417   -6.6000    0.0000 O   0  0
    2.7417   -4.9500    0.0000 O   0  0
    7.6917   -7.1792    0.0000 C   0  0
    5.2125   -5.7667    0.0000 C   0  0
    1.9167   -5.7667    0.0000 N   0  0
    8.5167   -7.1750    0.0000 N   0  0
   11.5417   -7.6917    0.0000 C   0  0
    6.4417   -5.0417    0.0000 O   0  0
   11.1417   -9.8417    0.0000 O   0  0
   10.1625   -7.0000    0.0000 O   0  0
    7.2875   -7.8917    0.0000 O   0  0
    3.9667   -5.0625    0.0000 C   0  0
    3.9792   -6.4875    0.0000 C   0  0
    4.8042   -6.4792    0.0000 C   0  0
    4.7917   -5.0542    0.0000 C   0  0
    7.2792   -6.4667    0.0000 C   0  0
    9.0042   -7.8417    0.0000 C   0  0
   12.3792   -9.1167    0.0000 O   0  0
   12.3667   -7.6917    0.0000 C   0  0
   12.7792   -8.4042    0.0000 C   0  0
   12.7667   -6.9750    0.0000 C   0  0
   13.5917   -6.9667    0.0000 C   0  0
   13.6042   -8.4000    0.0000 C   0  0
   14.0167   -7.6792    0.0000 C   0  0
  2 12  1  0
  3  5  1  0
  4  3  1  0
  5  7  1  0
  6  1  1  0
  7 25  1  0
  8  2  1  0
  9  1  2  0
 10  1  2  0
 11 24  1  0
 12 22  2  0
 13  1  1  0
 14 11  1  0
  3 15  1  1
 16  2  2  0
 17  4  2  0
 18  7  2  0
 19 11  2  0
 20  6  1  0
 21  6  2  0
 22 21  1  0
 23 20  2  0
 24  8  1  0
 25 14  1  0
 26  4  1  0
 27 15  1  0
 28 27  2  0
 29 27  1  0
 30 29  2  0
 31 28  1  0
 32 30  1  0
 12 23  1  0
 32 31  2  0
M  END