
          11280714492D 1   1.00000     0.00000     0

 22 23  0     0  0            999 V2000
    3.8292   -3.2125    0.0000 C   0  0  0  0  0  0           0  0  0
    4.5417   -2.8042    0.0000 C   0  0  3  0  0  0           0  0  0
    3.8292   -4.0375    0.0000 C   0  0  0  0  0  0           0  0  0
    5.2542   -3.2125    0.0000 N   0  0  0  0  0  0           0  0  0
    5.2542   -4.0417    0.0000 C   0  0  0  0  0  0           0  0  0
    3.1167   -0.3375    0.0000 N   0  3  0  0  0  0           0  0  0
    4.5417   -4.4417    0.0000 N   0  0  0  0  0  0           0  0  0
    3.1167   -2.8000    0.0000 C   0  0  0  0  0  0           0  0  0
    4.5417   -1.9792    0.0000 C   0  0  0  0  0  0           0  0  0
    3.8375   -0.7500    0.0000 C   0  0  0  0  0  0           0  0  0
    3.8375   -1.5625    0.0000 C   0  0  0  0  0  0           0  0  0
    3.1125    0.4875    0.0000 O   0  5  0  0  0  0           0  0  0
    2.4042   -0.7500    0.0000 O   0  0  0  0  0  0           0  0  0
    2.4000   -3.2042    0.0000 O   0  0  0  0  0  0           0  0  0
    5.9667   -4.4542    0.0000 S   0  0  0  0  0  0           0  0  0
    3.1167   -1.9750    0.0000 O   0  0  0  0  0  0           0  0  0
    3.1125   -4.4417    0.0000 C   0  0  0  0  0  0           0  0  0
    5.2542   -1.5750    0.0000 C   0  0  0  0  0  0           0  0  0
    4.5417   -0.3292    0.0000 C   0  0  0  0  0  0           0  0  0
    5.2542   -0.7500    0.0000 C   0  0  0  0  0  0           0  0  0
    5.9667   -5.2792    0.0000 C   0  0  0  0  0  0           0  0  0
    2.4042   -1.5542    0.0000 C   0  0  0  0  0  0           0  0  0
  2  1  1  0     0  0
  3  1  2  0     0  0
  4  2  1  0     0  0
  5  7  2  0     0  0
  6 10  1  0     0  0
  7  3  1  0     0  0
  8  1  1  0     0  0
  9  2  1  0     0  0
 10 11  2  0     0  0
 11  9  1  0     0  0
 12  6  1  0     0  0
 13  6  2  0     0  0
 14  8  2  0     0  0
 15  5  1  0     0  0
 16  8  1  0     0  0
 17  3  1  0     0  0
 18  9  2  0     0  0
 19 20  2  0     0  0
 20 18  1  0     0  0
 21 15  1  0     0  0
 22 16  1  0     0  0
  4  5  1  0     0  0
 19 10  1  0     0  0
M  CHG  2   6   1  12  -1
M  END