
          11280715492D 1   1.00000     0.00000     0

 24 26  0     0  0            999 V2000
   11.3821   -2.9813    0.0000 C   0  0  0  0  0  0           0  0  0
   11.3809   -3.8063    0.0000 O   0  0  0  0  0  0           0  0  0
   12.0972   -2.5698    0.0000 N   0  0  0  0  0  0           0  0  0
   12.8111   -2.9833    0.0000 C   0  0  0  0  0  0           0  0  0
   12.8069   -3.8063    0.0000 C   0  0  0  0  0  0           0  0  0
   13.5200   -4.2198    0.0000 C   0  0  0  0  0  0           0  0  0
   14.2360   -3.8082    0.0000 C   0  0  0  0  0  0           0  0  0
   14.2346   -2.9790    0.0000 C   0  0  0  0  0  0           0  0  0
   13.5209   -2.5692    0.0000 C   0  0  0  0  0  0           0  0  0
   14.9504   -4.2208    0.0000 Cl  0  0  0  0  0  0           0  0  0
    8.5292   -0.5083    0.0000 C   0  0  3  0  0  0           0  0  0
    8.5292   -1.3333    0.0000 C   0  0  0  0  0  0           0  0  0
    9.2412   -1.7417    0.0000 C   0  0  0  0  0  0           0  0  0
    9.9532   -1.3333    0.0000 N   0  0  3  0  0  0           0  0  0
    9.9532   -0.5083    0.0000 C   0  0  0  0  0  0           0  0  0
    9.2412   -0.0917    0.0000 C   0  0  0  0  0  0           0  0  0
    7.8135   -0.0979    0.0000 C   0  0  0  0  0  0           0  0  0
    7.1002   -0.5125    0.0000 C   0  0  0  0  0  0           0  0  0
    6.3458   -0.1793    0.0000 C   0  0  0  0  0  0           0  0  0
    5.7956   -0.7940    0.0000 N   0  0  0  0  0  0           0  0  0
    6.2102   -1.5073    0.0000 C   0  0  0  0  0  0           0  0  0
    7.0166   -1.3333    0.0000 N   0  0  0  0  0  0           0  0  0
   10.6671   -1.7469    0.0000 C   0  0  0  0  0  0           0  0  0
   10.6659   -2.5719    0.0000 C   0  0  0  0  0  0           0  0  0
  1  2  2  0     0  0
  6  7  1  0     0  0
  3  4  1  0     0  0
  7  8  2  0     0  0
 11 16  1  0     0  0
 12 13  1  0     0  0
 13 14  1  0     0  0
 14 15  1  0     0  0
 15 16  1  0     0  0
 11 17  1  0     0  0
  8  9  1  0     0  0
 17 18  1  0     0  0
 18 19  2  0     0  0
  9  4  2  0     0  0
  4  5  1  0     0  0
  7 10  1  0     0  0
 11 12  1  0     0  0
 19 20  1  0     0  0
 20 21  1  0     0  0
 21 22  2  0     0  0
 22 18  1  0     0  0
  1  3  1  0     0  0
 14 23  1  0     0  0
  5  6  2  0     0  0
 23 24  1  0     0  0
 24  1  1  0     0  0
M  END