
  SciTegic03291108492D

 25 29  0  0  0  0            999 V2000
    1.0132   -2.1720    0.0000 S   0  0
    0.5765    0.5533    0.0000 S   0  0
   -2.8081   -1.0224    0.0000 O   0  0
   -2.8081    0.3124    0.0000 O   0  0
    2.2326   -1.2860    0.0000 N   0  0
    1.9355    0.1117    0.0000 N   0  0
    0.3466    2.0053    0.0000 N   0  0
    1.6161    1.5928    0.0000 N   0  0
    0.8315    2.6728    0.0000 N   0  0
    1.6161    2.4178    0.0000 N   0  0
    0.8736   -0.8444    0.0000 C   0  0
    0.1200   -1.1800    0.0000 C   0  0
    1.4257   -1.4575    0.0000 C   0  0
    1.1286   -0.0598    0.0000 C   0  0
   -0.5945   -0.7675    0.0000 C   0  0
    0.2062   -2.0005    0.0000 C   0  0
   -1.3090   -1.1800    0.0000 C   0  0
   -2.0235   -0.7675    0.0000 C   0  0
    0.8315    1.3379    0.0000 C   0  0
   -2.0235    0.0575    0.0000 C   0  0
   -0.5945    0.0575    0.0000 C   0  0
    2.4876   -0.5014    0.0000 C   0  0
   -1.3090    0.4700    0.0000 C   0  0
   -3.2930   -0.3550    0.0000 C   0  0
   -0.4784    2.0053    0.0000 C   0  0
  1 13  1  0
  1 16  1  0
  2 14  1  0
  2 19  1  0
  3 18  1  0
  3 24  1  0
  4 20  1  0
  4 24  1  0
  5 13  2  0
  5 22  1  0
  6 14  1  0
  6 22  2  0
  7  9  1  0
  7 19  1  0
  7 25  1  0
  8 10  1  0
  8 19  2  0
  9 10  2  0
 11 12  1  0
 11 13  1  0
 11 14  2  0
 12 15  1  0
 12 16  2  0
 15 17  2  0
 15 21  1  0
 17 18  1  0
 18 20  2  0
 20 23  1  0
 21 23  2  0
M  END