
  SciTegic06051313522D

 29 32  0  0  0  0            999 V2000
    9.6717  -21.2721    0.0000 C   0  0
    8.9627  -21.6956    0.0000 N   0  0
    9.6619  -23.7685    0.0000 C   0  0
    9.6724  -22.9408    0.0000 C   0  0
    8.9618  -22.5227    0.0000 C   0  0
    8.2408  -22.9281    0.0000 C   0  0
    8.2324  -23.7521    0.0000 C   0  0
    8.9429  -24.1744    0.0000 N   0  0
   10.4429  -24.0333    0.0000 N   0  0
   10.4577  -22.6934    0.0000 C   0  0
   10.9373  -23.3699    0.0000 C   0  0
   11.7597  -23.3793    0.0000 C   0  0
   12.1608  -24.1008    0.0000 C   0  0
   12.9850  -24.1111    0.0000 C   0  0
   13.4089  -23.4004    0.0000 C   0  0
   12.9985  -22.6781    0.0000 C   0  0
   12.1756  -22.6714    0.0000 C   0  0
   14.2339  -23.4091    0.0000 F   0  0
   10.3913  -21.6796    0.0000 C   0  0
   11.0999  -21.2568    0.0000 C   0  0
   11.0896  -20.4316    0.0000 C   0  0
   10.3648  -20.0310    0.0000 C   0  0
    9.6591  -20.4521    0.0000 C   0  0
    8.9375  -20.0532    0.0000 C   0  0
    8.9243  -19.2283    0.0000 O   0  0
    8.2292  -20.4751    0.0000 N   0  0
    7.5076  -20.0762    0.0000 C   0  0
    7.5288  -22.5146    0.0000 C   0  0
    6.8177  -22.0932    0.0000 N   0  0
  3  4  1  0
  4  5  2  0
  5  6  1  0
  6  7  2  0
  7  8  1  0
  3  8  2  0
 10 11  2  0
  9 11  1  0
  3  9  1  0
  4 10  1  0
  2  5  1  0
  1  2  1  0
 12 13  2  0
 13 14  1  0
 14 15  2  0
 15 16  1  0
 16 17  2  0
 17 12  1  0
 11 12  1  0
 15 18  1  0
  1 19  2  0
 19 20  1  0
 20 21  2  0
 21 22  1  0
 22 23  2  0
 23  1  1  0
 23 24  1  0
 24 25  2  0
 24 26  1  0
 26 27  1  0
 28 29  3  0
  6 28  1  0
M  END