
  SciTegic11201309402D

 60 65  0  0  1  0            999 V2000
   10.8745   -2.4051    0.0000 C   0  0  2  0  0  0
   11.2926   -3.7107    0.0000 C   0  0  1  0  0  0
    8.9332   -3.3156    0.0000 C   0  0  2  0  0  0
   10.7027   -3.1782    0.0000 C   0  0  1  0  0  0
    8.9390   -1.8955    0.0000 C   0  0
    9.3455   -2.6113    0.0000 C   0  0
   10.4107   -1.7581    0.0000 C   0  0
    9.8437   -3.7337    0.0000 C   0  0  2  0  0  0
    9.8437   -1.4602    0.0000 C   0  0  2  0  0  0
    8.1258   -1.8955    0.0000 C   0  0
    8.1258   -3.3156    0.0000 C   0  0
    7.7135   -2.5998    0.0000 C   0  0  2  0  0  0
    6.1731   -2.1990    0.0000 C   0  0
   11.6304   -2.1532    0.0000 C   0  0  2  0  0  0
    5.4630   -2.6113    0.0000 C   0  0  1  0  0  0
   12.0485   -3.4702    0.0000 C   0  0  1  0  0  0
    9.9125   -4.7301    0.0000 O   0  0
    4.7473   -2.1990    0.0000 C   0  0  1  0  0  0
    4.0371   -0.9620    0.0000 C   0  0
    9.0878   -5.2970    0.0000 C   0  0
    6.8889   -2.6113    0.0000 O   0  0
   12.0083   -4.1230    0.0000 C   0  0
   12.2145   -2.6857    0.0000 C   0  0
   11.2868   -4.5353    0.0000 O   0  0
    4.7473   -1.3743    0.0000 N   0  0
   12.8501   -3.6821    0.0000 O   0  0
    3.3214   -1.3743    0.0000 N   0  0
    4.0371   -2.6113    0.0000 C   0  0
   11.9969   -4.9476    0.0000 C   0  0
   10.8803   -0.8647    0.0000 O   0  0
    6.1731   -1.3743    0.0000 O   0  0
    4.0371   -0.1260    0.0000 O   0  0
    8.1773   -4.8503    0.0000 O   0  0
    8.7157   -4.1116    0.0000 O   0  0
    9.1566   -6.2934    0.0000 C   0  0
   11.9911   -5.7608    0.0000 O   0  0
    9.8609   -0.6356    0.0000 O   0  0
   11.0864   -1.6034    0.0000 C   0  0
    5.4630   -3.4359    0.0000 O   0  0
   11.8022   -1.3458    0.0000 O   0  0
    9.9296   -2.0272    0.0000 C   0  0
   10.0557   -3.0236    0.0000 C   0  0
    2.6113   -0.9620    0.0000 C   0  0
    7.7135   -1.1740    0.0000 C   0  0
    3.3156   -3.0121    0.0000 C   0  0
    3.2297   -2.3879    0.0000 C   0  0
    3.8138   -3.4015    0.0000 C   0  0
   12.7127   -4.5411    0.0000 C   0  0
   10.0557   -6.7343    0.0000 C   0  0
    8.3206   -6.8603    0.0000 C   0  0
    2.6113   -0.1260    0.0000 C   0  0
    1.8955   -1.3629    0.0000 C   0  0
    8.3893   -7.8567    0.0000 C   0  0
   10.1358   -7.7307    0.0000 C   0  0
    1.1854   -0.9620    0.0000 C   0  0
    1.8955    0.2863    0.0000 C   0  0
    9.2940   -8.2976    0.0000 C   0  0
    1.1854   -0.1260    0.0000 C   0  0
   10.7027   -4.0028    0.0000 H   0  0
   12.7629   -3.0577    0.0000 H   0  0
  2  4  1  0
  3  8  1  0
  4  1  1  0
  5  9  1  0
  6  5  1  0
  7  1  1  0
  8  4  1  0
  9  7  1  0
 10  5  2  0
 11  3  1  0
 12 10  1  0
 13 21  1  0
 14  1  1  0
 15 13  1  0
 16 23  1  0
  8 17  1  6
 18 15  1  0
 19 25  1  0
 20 17  1  0
 12 21  1  6
  2 22  1  0
 23 14  1  0
  2 24  1  6
 18 25  1  6
 16 26  1  0
 27 19  1  0
 28 18  1  0
 29 24  1  0
 30  7  2  0
 31 13  2  0
 32 19  2  0
 33 20  2  0
  3 34  1  1
 35 20  1  0
 36 29  2  0
  9 37  1  1
  1 38  1  1
 15 39  1  6
 14 40  1  1
  6 41  1  0
  6 42  1  0
 43 27  1  0
 44 10  1  0
 45 28  1  0
 46 28  1  0
 47 28  1  0
 48 29  1  0
 49 35  1  0
 50 35  2  0
 51 43  2  0
 52 43  1  0
 53 50  1  0
 54 49  2  0
 55 52  2  0
 56 51  1  0
 57 53  2  0
 58 55  1  0
  4 59  1  6
  2 16  1  0
 22 26  1  0
  3  6  1  0
 11 12  1  0
 54 57  1  0
 56 58  2  0
 16 60  1  6
M  END