
  SciTegic03291108572D

 25 28  0  0  0  0            999 V2000
   -1.3491    2.3065    0.0000 S   0  0
   -4.1988    0.9544    0.0000 O   0  0
   -3.2427   -0.1075    0.0000 O   0  0
   -2.0165    0.9966    0.0000 N   0  0
   -0.6816    0.9966    0.0000 N   0  0
   -1.7616    0.2120    0.0000 C   0  0
   -1.3491    1.4815    0.0000 C   0  0
   -0.9366    0.2120    0.0000 C   0  0
   -2.1741   -0.5025    0.0000 C   0  0
   -2.8011    1.2515    0.0000 C   0  0
   -0.5241   -0.5025    0.0000 C   0  0
   -0.6346    3.5440    0.0000 C   0  0
    0.0799    3.9565    0.0000 C   0  0
   -0.6346    2.7190    0.0000 C   0  0
    0.0799    4.7815    0.0000 C   0  0
   -1.7616   -1.2170    0.0000 C   0  0
   -0.9366   -1.2170    0.0000 C   0  0
   -3.4142    0.6995    0.0000 C   0  0
   -1.3491    3.9565    0.0000 C   0  0
    0.7944    3.5440    0.0000 C   0  0
   -0.6346    5.1940    0.0000 C   0  0
    0.7944    5.1940    0.0000 C   0  0
   -1.3491    4.7815    0.0000 C   0  0
    1.5088    3.9565    0.0000 C   0  0
    1.5088    4.7815    0.0000 C   0  0
  1  7  1  0
  1 14  1  0
  2 18  2  0
  3 18  1  0
  4  6  1  0
  4  7  1  0
  4 10  1  0
  5  7  2  0
  5  8  1  0
  6  8  1  0
  6  9  2  0
  8 11  2  0
  9 16  1  0
 10 18  1  0
 11 17  1  0
 12 13  1  0
 12 14  1  0
 12 19  2  0
 13 15  1  0
 13 20  2  0
 15 21  1  0
 15 22  2  0
 16 17  2  0
 19 23  1  0
 20 24  1  0
 21 23  2  0
 22 25  1  0
 24 25  2  0
M  END