
  SciTegic12011114592D

 39 43  0  0  0  0            999 V2000
    7.9704  -10.0622    0.0000 N   0  0
    8.6856   -9.6524    0.0000 C   0  0
    8.6885   -8.8266    0.0000 N   0  0
    7.9702   -8.4121    0.0000 C   0  0
    7.9697   -7.5871    0.0000 N   0  0
    8.6843   -7.1741    0.0000 C   0  0
    9.3987  -10.0674    0.0000 S   0  0
   10.1145   -9.6573    0.0000 C   0  0
   10.8234  -10.0754    0.0000 C   0  0
   11.5388   -9.6660    0.0000 C   0  0
   11.5420   -8.8401    0.0000 C   0  0
   10.8240   -8.4253    0.0000 C   0  0
   10.1115   -8.8371    0.0000 C   0  0
   12.2574   -8.4291    0.0000 N   0  0
    9.4700   -7.4222    0.0000 C   0  0
    9.9491   -6.7506    0.0000 C   0  0
    9.4584   -6.0874    0.0000 N   0  0
    8.6760   -6.3491    0.0000 N   0  0
   10.7741   -6.7434    0.0000 C   0  0
    6.4836   -8.5730    0.0000 C   0  0
    6.0026   -9.2341    0.0000 C   0  0
    6.4828   -9.8959    0.0000 C   0  0
    7.2605   -9.6438    0.0000 N   0  0
    7.2611   -8.8261    0.0000 C   0  0
   12.9710   -8.8431    0.0000 C   0  0
   13.6863   -8.4321    0.0000 C   0  0
   14.3999   -8.8465    0.0000 N   0  0
   12.9693   -9.6681    0.0000 O   0  0
   14.3912   -9.6670    0.0000 C   0  0
   15.1731   -9.9304    0.0000 C   0  0  1  0  0  0
   15.6652   -9.2682    0.0000 C   0  0  2  0  0  0
   15.1875   -8.5956    0.0000 C   0  0
   16.4902   -9.2771    0.0000 O   0  0
   15.4195  -10.7177    0.0000 O   0  0
   16.2245  -10.8980    0.0000 C   0  0
   16.4709  -11.6853    0.0000 C   0  0
   16.2167  -10.0708    0.0000 C   0  0
   17.0458  -10.8958    0.0000 C   0  0
   15.9123  -12.2924    0.0000 C   0  0
 18  6  2  0
  3  4  2  0
 16 19  1  0
 23 24  1  0
  8  9  2  0
  4 24  1  0
 21 22  2  0
  9 10  1  0
  1  2  2  0
 10 11  2  0
 20 21  1  0
 22 23  1  0
 24 20  2  0
  4  5  1  0
 14 25  1  0
 11 12  1  0
 25 26  1  0
 23  1  1  0
 26 27  1  0
 12 13  2  0
 25 28  2  0
 27 29  1  0
 13  8  1  0
  5  6  1  0
 11 14  1  0
 17 18  1  0
 29 30  1  0
 30 31  1  0
 31 32  1  0
 32 27  1  0
  2  3  1  0
 31 33  1  6
 15 16  2  0
 30 34  1  1
  2  7  1  0
 34 35  1  0
 35 36  1  0
  7  8  1  0
 35 37  1  0
  6 15  1  0
 35 38  1  0
 16 17  1  0
 36 39  1  0
M  END