
          11280715272D 1   1.00000     0.00000     0

 48 50  0     0  0            999 V2000
   -0.2250   -4.4000    0.0000 N   0  0  3  0  0  0           0  0  0
   -0.5208   -5.1667    0.0000 C   0  0  0  0  0  0           0  0  0
    0.7125   -5.9917    0.0000 C   0  0  0  0  0  0           0  0  0
   -0.1083   -5.8750    0.0000 C   0  0  0  0  0  0           0  0  0
    0.5542   -4.1500    0.0000 C   0  0  0  0  0  0           0  0  0
    1.3125   -5.4292    0.0000 N   0  0  0  0  0  0           0  0  0
   -0.9375   -3.9875    0.0000 C   0  0  0  0  0  0           0  0  0
    1.2417   -4.6042    0.0000 C   0  0  0  0  0  0           0  0  0
    1.9167   -0.6792    0.0000 C   0  0  0  0  0  0           0  0  0
    9.7542   -0.2542    0.0000 C   0  0  0  0  0  0           0  0  0
    0.6125   -3.3250    0.0000 N   0  0  0  0  0  0           0  0  0
    0.9625   -6.7792    0.0000 O   0  0  0  0  0  0           0  0  0
    2.6292   -0.2667    0.0000 N   0  0  3  0  0  0           0  0  0
    9.0417   -0.6667    0.0000 N   0  0  3  0  0  0           0  0  0
   -0.9458   -3.1625    0.0000 C   0  0  0  0  0  0           0  0  0
   -1.6583   -4.4000    0.0000 O   0  0  0  0  0  0           0  0  0
    1.9167   -1.5042    0.0000 O   0  0  0  0  0  0           0  0  0
    9.7542    0.5708    0.0000 O   0  0  0  0  0  0           0  0  0
   -0.5208   -6.5792    0.0000 C   0  0  0  0  0  0           0  0  0
   -1.3333   -5.1667    0.0000 C   0  0  0  0  0  0           0  0  0
   -0.2250   -1.9250    0.0000 N   0  0  0  0  0  0           0  0  0
   11.1917   -2.7250    0.0000 N   0  0  0  0  0  0           0  0  0
    1.9792   -4.2417    0.0000 C   0  0  0  0  0  0           0  0  0
   -0.2250   -2.7500    0.0000 C   0  0  0  0  0  0           0  0  0
   10.4750   -0.6667    0.0000 C   0  0  0  0  0  0           0  0  0
    1.2000   -0.2667    0.0000 C   0  0  0  0  0  0           0  0  0
    1.3542   -2.9625    0.0000 C   0  0  0  0  0  0           0  0  0
    3.3417   -0.6792    0.0000 C   0  0  0  0  0  0           0  0  0
    8.3292   -0.2542    0.0000 C   0  0  0  0  0  0           0  0  0
    2.6292    0.5583    0.0000 C   0  0  0  0  0  0           0  0  0
    9.0417   -1.4917    0.0000 C   0  0  0  0  0  0           0  0  0
   -0.9458   -1.5125    0.0000 C   0  0  0  0  0  0           0  0  0
   11.1917   -1.9000    0.0000 C   0  0  0  0  0  0           0  0  0
   11.1875   -0.2500    0.0000 C   0  0  0  0  0  0           0  0  0
    0.4875   -0.6792    0.0000 C   0  0  0  0  0  0           0  0  0
    7.6167   -0.6667    0.0000 C   0  0  0  0  0  0           0  0  0
    4.0542   -0.2667    0.0000 C   0  0  0  0  0  0           0  0  0
   -0.9458   -0.6875    0.0000 C   0  0  0  0  0  0           0  0  0
   11.9042   -1.4875    0.0000 C   0  0  0  0  0  0           0  0  0
    2.0417   -3.4250    0.0000 C   0  0  0  0  0  0           0  0  0
   -1.3333   -6.5792    0.0000 C   0  0  0  0  0  0           0  0  0
   -1.7458   -5.8667    0.0000 C   0  0  0  0  0  0           0  0  0
    4.7667   -0.6750    0.0000 C   0  0  0  0  0  0           0  0  0
    5.4792   -0.2625    0.0000 C   0  0  0  0  0  0           0  0  0
    6.1917   -0.6750    0.0000 C   0  0  0  0  0  0           0  0  0
    6.9042   -0.2625    0.0000 C   0  0  0  0  0  0           0  0  0
   -0.2333   -0.2750    0.0000 C   0  0  0  0  0  0           0  0  0
   11.9000   -0.6625    0.0000 C   0  0  0  0  0  0           0  0  0
  2  1  1  0     0  0
  3  4  1  0     0  0
  4  2  2  0     0  0
  5  1  1  0     0  0
  6  8  1  0     0  0
  7  1  1  0     0  0
  8  5  2  0     0  0
  9 26  1  0     0  0
 10 14  1  0     0  0
 11  5  1  0     0  0
 12  3  2  0     0  0
 13  9  1  0     0  0
 14 29  1  0     0  0
 15  7  1  0     0  0
 16  7  2  0     0  0
 17  9  2  0     0  0
 18 10  2  0     0  0
 19  4  1  0     0  0
 20  2  1  0     0  0
 21 24  1  0     0  0
 22 33  1  0     0  0
 23  8  1  0     0  0
 24 15  1  0     0  0
 25 10  1  0     0  0
 26 35  1  0     0  0
 27 11  2  0     0  0
 28 13  1  0     0  0
 29 36  1  0     0  0
 30 13  1  0     0  0
 31 14  1  0     0  0
 32 21  1  0     0  0
 33 39  1  0     0  0
 34 25  1  0     0  0
 35 47  1  0     0  0
 36 46  1  0     0  0
 37 28  1  0     0  0
 38 32  1  0     0  0
 39 48  1  0     0  0
 40 27  1  0     0  0
 41 42  1  0     0  0
 42 20  2  0     0  0
 43 37  1  0     0  0
 44 43  1  0     0  0
 45 44  1  0     0  0
 46 45  1  0     0  0
 47 38  1  0     0  0
 48 34  1  0     0  0
  3  6  1  0     0  0
 23 40  2  0     0  0
 19 41  2  0     0  0
M  END