
  SciTegic06051313552D

 54 60  0  0  0  0            999 V2000
   31.7260   -9.5215    0.0000 O   0  0
   30.9088   -9.5215    0.0000 S   0  0
   31.3174  -10.2292    0.0000 O   0  0
   36.6869  -17.6356    0.0000 O   0  0
   36.6911  -18.4528    0.0000 S   0  0
   37.3967  -18.0407    0.0000 O   0  0
   28.0853  -13.5992    0.0000 C   0  0
   28.7906  -13.1947    0.0000 N   0  0
   28.7906  -12.3776    0.0000 C   0  0
   28.0853  -11.9648    0.0000 N   0  0
   27.3800  -13.1947    0.0000 C   0  0
   27.3800  -12.3776    0.0000 C   0  0
   26.6762  -11.9712    0.0000 C   0  0
   25.9679  -12.3776    0.0000 C   0  0
   25.9679  -13.1947    0.0000 C   0  0
   26.6762  -13.6056    0.0000 C   0  0
   29.4995  -11.9710    0.0000 C   0  0
   28.0853  -14.4164    0.0000 O   0  0
   29.4977  -13.6044    0.0000 C   0  0
   29.4965  -14.4216    0.0000 C   0  0
   30.2026  -12.3855    0.0000 C   0  0
   30.9111  -11.9796    0.0000 C   0  0
   30.9139  -11.1616    0.0000 C   0  0
   30.2024  -10.7511    0.0000 C   0  0
   29.4969  -11.1593    0.0000 C   0  0
   30.2036  -14.8312    0.0000 C   0  0
   30.2025  -15.6484    0.0000 C   0  0
   30.9096  -16.0580    0.0000 N   0  0
   30.9971  -16.8696    0.0000 N   0  0
   31.7962  -17.0407    0.0000 N   0  0
   32.2058  -16.3335    0.0000 C   0  0
   31.6598  -15.7255    0.0000 C   0  0
   33.0220  -16.3314    0.0000 C   0  0
   33.4288  -15.6227    0.0000 N   0  0
   34.2457  -15.6251    0.0000 C   0  0
   34.6524  -14.9205    0.0000 N   0  0
   33.0161  -14.9207    0.0000 C   0  0
   33.4273  -14.2115    0.0000 C   0  0
   34.2440  -14.2134    0.0000 C   0  0
   34.6517  -13.5110    0.0000 C   0  0
   34.2473  -12.8021    0.0000 C   0  0
   33.4306  -12.8003    0.0000 C   0  0
   33.0183  -13.5072    0.0000 C   0  0
   32.1989  -14.9231    0.0000 O   0  0
   34.6521  -16.3305    0.0000 C   0  0
   34.2408  -17.0379    0.0000 C   0  0
   34.6477  -17.7457    0.0000 C   0  0
   35.4658  -17.7473    0.0000 C   0  0
   35.8752  -17.0352    0.0000 C   0  0
   35.4660  -16.3303    0.0000 C   0  0
   35.8743  -18.4550    0.0000 O   0  0
   37.1000  -19.1628    0.0000 O   0  0
   30.2019   -9.9339    0.0000 O   0  0
   30.9089   -8.7077    0.0000 O   0  0
  2  1  2  0
  3  2  2  0
  5  4  2  0
  6  5  2  0
 12 10  1  0
 11  7  1  0
  7  8  1  0
  8  9  1  0
  9 10  2  0
 11 12  1  0
 11 16  2  0
 12 13  2  0
 13 14  1  0
 14 15  2  0
 15 16  1  0
  9 17  1  0
  7 18  2  0
  8 19  1  0
 19 20  1  0
 17 21  2  0
 21 22  1  0
 22 23  2  0
 23 24  1  0
 24 25  2  0
 25 17  1  0
 20 26  1  0
 26 27  1  0
 27 28  1  0
 28 29  1  0
 29 30  2  0
 30 31  1  0
 31 32  2  0
 32 28  1  0
 31 33  1  0
 33 34  1  0
 34 35  1  0
 34 37  1  0
 35 36  2  0
 36 39  1  0
 38 37  1  0
 38 39  2  0
 38 43  1  0
 39 40  1  0
 40 41  2  0
 41 42  1  0
 42 43  2  0
 37 44  2  0
 45 46  2  0
 46 47  1  0
 47 48  2  0
 48 49  1  0
 49 50  2  0
 50 45  1  0
 35 45  1  0
 48 51  1  0
 51  5  1  0
  5 52  1  0
 24 53  1  0
 53  2  1  0
  2 54  1  0
M  END