
          08180812472D 1   1.00000     0.00000     0

 27 30  0     1  0            999 V2000
   -6.6945   -9.1180    0.0000 C   0  0  3  0  0  0           0  0  0
   -7.4943   -8.9014    0.0000 C   0  0  0  0  0  0           0  0  0
   -7.9409   -9.5952    0.0000 C   0  0  0  0  0  0           0  0  0
   -7.4275  -10.2406    0.0000 C   0  0  0  0  0  0           0  0  0
   -6.6522   -9.9457    0.0000 C   0  0  0  0  0  0           0  0  0
   -4.5409   -7.4404    0.0000 O   0  0  0  0  0  0           0  0  0
   -5.3658   -7.4362    0.0000 C   0  0  0  0  0  0           0  0  0
   -4.1298   -8.1529    0.0000 C   0  0  2  0  0  0           0  0  0
   -4.5532   -8.8666    0.0000 C   0  0  1  0  0  0           0  0  0
   -4.0053   -9.4899    0.0000 O   0  0  0  0  0  0           0  0  0
   -3.2431   -9.1613    0.0000 C   0  0  3  0  0  0           0  0  0
   -3.3202   -8.3351    0.0000 O   0  0  0  0  0  0           0  0  0
   -3.2494   -9.9858    0.0000 C   0  0  0  0  0  0           0  0  0
   -2.4204   -9.1609    0.0000 C   0  0  0  0  0  0           0  0  0
   -3.7244   -7.4362    0.0000 C   0  0  0  0  0  0           0  0  0
   -2.8995   -7.4289    0.0000 N   0  0  0  0  0  0           0  0  0
   -2.4934   -6.7111    0.0000 S   0  0  3  0  0  0           0  0  0
   -2.0871   -5.9907    0.0000 N   0  0  0  0  0  0           0  0  0
   -1.7752   -7.1167    0.0000 O   0  0  0  0  0  0           0  0  0
   -3.2126   -6.3073    0.0000 O   0  0  0  0  0  0           0  0  0
   -4.9699   -9.5776    0.0000 H   0  0  0  0  0  0           0  0  0
   -5.3730   -8.8616    0.0000 C   0  0  1  0  0  0           0  0  0
   -5.7762   -8.1411    0.0000 C   0  0  2  0  0  0           0  0  0
   -6.5867   -8.3021    0.0000 O   0  0  0  0  0  0           0  0  0
   -5.9336   -9.4677    0.0000 O   0  0  0  0  0  0           0  0  0
   -5.9948   -7.3404    0.0000 H   0  0  0  0  0  0           0  0  0
   -4.9658   -8.1444    0.0000 H   0  0  0  0  0  0           0  0  0
  1  2  1  0     0  0
 11 13  1  0     0  0
 11 14  1  0     0  0
  6  8  1  0     0  0
  8 15  1  6     0  0
  7 23  1  0     0  0
 15 16  1  0     0  0
 22  9  1  0     0  0
 16 17  1  0     0  0
  8  9  1  0     0  0
 17 18  1  0     0  0
  2  3  1  0     0  0
 17 19  2  0     0  0
  3  4  1  0     0  0
 17 20  2  0     0  0
  4  5  1  0     0  0
  9 21  1  6     0  0
 22 23  1  0     0  0
  5  1  1  0     0  0
  6  7  1  0     0  0
  9 10  1  0     0  0
 10 11  1  0     0  0
 23 24  1  0     0  0
 24  1  1  0     0  0
  1 25  1  0     0  0
 25 22  1  0     0  0
 11 12  1  0     0  0
 23 26  1  1     0  0
 12  8  1  0     0  0
 22 27  1  1     0  0
M  END