
          11280715072D 1   1.00000     0.00000     0

 25 27  0     1  0            999 V2000
    0.6542   -2.4542    0.0000 O   0  0  0  0  0  0           0  0  0
    0.6542   -1.2375    0.0000 S   0  0  0  0  0  0           0  0  0
    4.3000   -2.1542    0.0000 C   0  0  0  0  0  0           0  0  0
    0.1292   -2.1500    0.0000 C   0  0  0  0  0  0           0  0  0
    0.1292   -1.5417    0.0000 C   0  0  0  0  0  0           0  0  0
    1.1792   -2.1500    0.0000 C   0  0  1  0  0  0           0  0  0
    4.8167   -2.4542    0.0000 C   0  0  0  0  0  0           0  0  0
    4.3000   -1.5625    0.0000 C   0  0  0  0  0  0           0  0  0
    1.1792   -1.5417    0.0000 C   0  0  0  0  0  0           0  0  0
    3.7792   -2.4542    0.0000 O   0  0  0  0  0  0           0  0  0
    2.2167   -2.1542    0.0000 N   0  0  0  0  0  0           0  0  0
    3.7792   -1.2625    0.0000 O   0  0  0  0  0  0           0  0  0
    4.8167   -3.0542    0.0000 O   0  0  0  0  0  0           0  0  0
    1.7000   -2.4542    0.0000 C   0  0  0  0  0  0           0  0  0
    5.3375   -1.5625    0.0000 C   0  0  0  0  0  0           0  0  0
   -0.3875   -2.4500    0.0000 C   0  0  0  0  0  0           0  0  0
    4.8167   -1.2542    0.0000 C   0  0  0  0  0  0           0  0  0
    5.3375   -2.1625    0.0000 C   0  0  0  0  0  0           0  0  0
   -0.3875   -1.2417    0.0000 C   0  0  0  0  0  0           0  0  0
    2.7417   -2.4542    0.0000 C   0  0  0  0  0  0           0  0  0
    3.2542   -2.1542    0.0000 C   0  0  0  0  0  0           0  0  0
    3.2542   -1.5625    0.0000 C   0  0  0  0  0  0           0  0  0
    5.3292   -3.3542    0.0000 C   0  0  0  0  0  0           0  0  0
   -0.9083   -2.1500    0.0000 C   0  0  0  0  0  0           0  0  0
   -0.9083   -1.5500    0.0000 C   0  0  0  0  0  0           0  0  0
  2  9  1  0     0  0
  3 10  1  0     0  0
  4  1  1  0     0  0
  5  4  2  0     0  0
  6  1  1  0     0  0
  7  3  2  0     0  0
  8  3  1  0     0  0
  9  6  1  0     0  0
 10 21  1  0     0  0
 11 14  1  0     0  0
 12  8  1  0     0  0
 13  7  1  0     0  0
  6 14  1  1     0  0
 15 17  1  0     0  0
 16  4  1  0     0  0
 17  8  2  0     0  0
 18  7  1  0     0  0
 19  5  1  0     0  0
 20 11  1  0     0  0
 21 20  1  0     0  0
 22 12  1  0     0  0
 23 13  1  0     0  0
 24 16  2  0     0  0
 25 24  1  0     0  0
  2  5  1  0     0  0
 25 19  2  0     0  0
 15 18  2  0     0  0
M  END