
  SciTegic05061116452D

 40 41  0  0  0  0            999 V2000
   12.5939   -7.7282    0.0000 C   0  0  2  0  0  0
   11.8774   -8.1369    0.0000 C   0  0  1  0  0  0
   11.8775   -8.9584    0.0000 C   0  0  1  0  0  0
   12.5870   -9.3750    0.0000 C   0  0  2  0  0  0
   13.2996   -8.9621    0.0000 C   0  0  1  0  0  0
   13.3066   -8.1366    0.0000 O   0  0
   14.0127   -9.3811    0.0000 O   0  0
   12.5836  -10.2007    0.0000 O   0  0
   11.1608   -9.3712    0.0000 O   0  0
   11.1624   -7.7253    0.0000 O   0  0
   12.5938   -6.9026    0.0000 C   0  0
   13.3052   -6.4876    0.0000 O   0  0
   14.7277   -8.1396    0.0000 C   0  0  2  0  0  0
   14.7277   -8.9652    0.0000 C   0  0  2  0  0  0
   15.4408   -9.3759    0.0000 C   0  0  1  0  0  0
   16.1538   -8.9652    0.0000 C   0  0  2  0  0  0
   16.1538   -8.1396    0.0000 C   0  0  2  0  0  0
   15.4408   -7.7247    0.0000 O   0  0
   16.8706   -7.7310    0.0000 O   0  0
   17.5848   -8.1438    0.0000 C   0  0
   18.3016   -7.7352    0.0000 C   0  0
   19.0117   -8.1480    0.0000 C   0  0
   19.7285   -7.7394    0.0000 C   0  0
   20.4428   -8.1522    0.0000 C   0  0
   21.1595   -7.7435    0.0000 C   0  0
   21.8738   -8.1562    0.0000 C   0  0
   22.5906   -7.7476    0.0000 C   0  0
   23.3049   -8.1604    0.0000 C   0  0
   24.0217   -7.7518    0.0000 C   0  0
   24.7318   -8.1646    0.0000 C   0  0
   25.4486   -7.7560    0.0000 C   0  0
   26.1629   -8.1688    0.0000 S   0  0
   15.4408  -10.2014    0.0000 O   0  0
   14.0109   -7.7310    0.0000 C   0  0
   14.0085   -6.9054    0.0000 O   0  0
   13.2922   -9.7867    0.0000 H   0  0
   16.8688   -9.3811    0.0000 N   0  0
   16.8676  -10.2066    0.0000 C   0  0
   17.5825  -10.6184    0.0000 C   0  0
   16.1514  -10.6163    0.0000 O   0  0
 19 20  1  0
  2 10  1  1
 20 21  1  0
  3  4  1  0
 21 22  1  0
  1 11  1  1
 22 23  1  0
  4  5  1  0
 23 24  1  0
 11 12  1  0
 24 25  1  0
 13 14  1  0
 25 26  1  0
  5  6  1  0
 26 27  1  0
 27 28  1  0
  5  7  1  0
 28 29  1  0
  1  2  1  0
 29 30  1  0
  4  8  1  6
 30 31  1  0
  1  6  1  0
 31 32  1  0
 13 18  1  0
 15 33  1  1
 14  7  1  6
 14 15  1  0
 13 34  1  1
 15 16  1  0
 34 35  1  0
 16 17  1  0
  5 36  1  6
 17 18  1  0
 16 37  1  6
  3  9  1  1
 37 38  1  0
 17 19  1  6
 38 39  1  0
  2  3  1  0
 38 40  2  0
M  END