
  SciTegic05171617262D

 46 52  0  0  0  0            999 V2000
  -12.6818   -4.9909    0.0000 C   0  0
  -12.6881   -3.7909    0.0000 C   0  0
  -11.3928   -3.0329    0.0000 N   0  0
  -10.0904   -3.7787    0.0000 C   0  0
  -10.0854   -4.9787    0.0000 C   0  0
  -11.4007   -1.5321    0.0000 C   0  0
  -12.4433   -0.9379    0.0000 O   0  0
  -10.1054   -0.7740    0.0000 C   0  0
  -10.1112    0.7260    0.0000 C   0  0
   -8.8150    1.4810    0.0000 C   0  0
   -7.5130    0.7360    0.0000 N   0  0
   -7.5074   -0.7640    0.0000 C   0  0
   -8.8035   -1.5190    0.0000 C   0  0
   -6.2150    1.4893    0.0000 C   0  0
   -6.2184    2.9893    0.0000 C   0  0
   -4.9210    3.7422    0.0000 C   0  0
   -3.6203    2.9951    0.0000 C   0  0
   -3.6168    1.4950    0.0000 C   0  0
   -4.9143    0.7422    0.0000 C   0  0
   -2.3155    0.7475    0.0000 C   0  0
   -2.3155   -0.7475    0.0000 C   0  0
   -1.0028   -1.5132    0.0000 C   0  0
    0.2917   -0.7475    0.0000 C   0  0
    1.7138   -1.2033    0.0000 N   0  0
    2.5889    0.0182    0.0000 C   0  0
    4.0896    0.0290    0.0000 C   0  0
    4.7453   -1.3220    0.0000 C   0  0
    6.2418   -1.4248    0.0000 C   0  0
    7.0791   -0.1803    0.0000 C   0  0
    6.4199    1.1671    0.0000 N   0  0
    4.9234    1.2700    0.0000 C   0  0
    4.3957    2.3477    0.0000 N   0  0
    1.7138    1.2033    0.0000 N   0  0
    2.1749    2.6315    0.0000 C   0  0
    1.2517    3.8078    0.0000 C   0  0
    1.8114    5.1995    0.0000 C   0  0
    3.2965    5.4106    0.0000 C   0  0
    4.2218    4.2301    0.0000 C   0  0
    3.6621    2.8384    0.0000 C   0  0
    3.8566    6.8030    0.0000 C   0  0
    5.0450    6.9694    0.0000 N   0  0
    2.4252    6.9116    0.0000 C   0  0
    2.6073    8.4005    0.0000 C   0  0
    4.0962    8.2184    0.0000 C   0  0
    0.2917    0.7475    0.0000 C   0  0
   -1.0028    1.5132    0.0000 N   0  0
  1  2  1  0
  2  3  1  0
  3  4  1  0
  4  5  1  0
  3  6  1  0
  6  7  2  0
  6  8  1  0
  8  9  1  0
  9 10  1  0
 10 11  1  0
 11 12  1  0
 12 13  1  0
  8 13  1  0
 11 14  1  0
 14 15  2  0
 15 16  1  0
 16 17  2  0
 17 18  1  0
 18 19  2  0
 14 19  1  0
 18 20  1  0
 20 21  2  0
 21 22  1  0
 22 23  2  0
 23 24  1  0
 24 25  2  0
 25 26  1  0
 26 27  2  0
 27 28  1  0
 28 29  2  0
 29 30  1  0
 30 31  2  0
 26 31  1  0
 31 32  1  0
 25 33  1  0
 33 34  1  0
 34 35  2  0
 35 36  1  0
 36 37  2  0
 37 38  1  0
 38 39  2  0
 34 39  1  0
 37 40  1  0
 40 41  1  0
 40 42  1  0
 42 43  1  0
 43 44  1  0
 40 44  1  0
 33 45  1  0
 23 45  1  0
 45 46  2  0
 20 46  1  0
M  END