
  SciTegic05171617292D

 28 30  0  0  0  0            999 V2000
    3.6331   -3.6060    0.0000 C   0  0
    2.5951   -3.0039    0.0000 C   0  0
    2.5973   -1.5031    0.0000 O   0  0
    1.2990   -0.7500    0.0000 C   0  0
    1.2990    0.7500    0.0000 C   0  0
    0.0000    1.5000    0.0000 C   0  0
   -1.2990    0.7500    0.0000 C   0  0
   -2.6003    1.4977    0.0000 C   0  0
   -3.8990    0.7455    0.0000 C   0  0
   -4.0317   -0.7359    0.0000 S   0  0
   -5.4979   -1.0529    0.0000 C   0  0
   -5.9821   -2.1508    0.0000 S   0  0
   -6.2524    0.2436    0.0000 N   0  0
   -7.7426    0.3981    0.0000 C   0  0
   -8.3559    1.7679    0.0000 C   0  0
   -9.8487    1.9227    0.0000 N   0  0
  -10.4619    3.2925    0.0000 C   0  0
  -11.9537    3.4494    0.0000 N   0  0
  -12.5638    4.8197    0.0000 C   0  0
  -13.7573    4.9452    0.0000 C   0  0
  -11.6821    6.0333    0.0000 N   0  0
  -10.1904    5.8765    0.0000 C   0  0
   -9.4850    6.8473    0.0000 Cl  0  0
   -9.5803    4.5062    0.0000 N   0  0
   -5.2526    1.3618    0.0000 C   0  0
   -5.4992    2.5362    0.0000 O   0  0
   -1.2990   -0.7500    0.0000 C   0  0
    0.0000   -1.5000    0.0000 C   0  0
  1  2  1  0
  2  3  1  0
  3  4  1  0
  4  5  2  0
  5  6  1  0
  6  7  2  0
  7  8  1  0
  8  9  2  0
  9 10  1  0
 10 11  1  0
 11 12  2  0
 11 13  1  0
 13 14  1  0
 14 15  1  0
 15 16  1  0
 16 17  1  0
 17 18  2  0
 18 19  1  0
 19 20  1  0
 19 21  2  0
 21 22  1  0
 22 23  1  0
 22 24  2  0
 17 24  1  0
 13 25  1  0
  9 25  1  0
 25 26  2  0
  7 27  1  0
 27 28  2  0
  4 28  1  0
M  END