
  SciTegic10011413212D

 73 77  0  0  0  0            999 V2000
   21.7304  -18.8094    0.0000 N   0  0
   17.9598  -22.7429    0.0000 O   0  0
   10.6811  -25.0940    0.0000 O   0  0
   21.0736  -19.9615    0.0000 C   0  0  1  0  0  0
   19.1721  -21.6344    0.0000 C   0  0
   15.6103  -21.9996    0.0000 C   0  0
   10.2276  -25.7817    0.0000 O   0  0
    7.8670  -26.1656    0.0000 C   0  0
   21.8192  -19.6257    0.0000 C   0  0  2  0  0  0
    7.1531  -26.5728    0.0000 C   0  0
    8.5910  -22.4695    0.0000 C   0  0
    8.5806  -24.9335    0.0000 C   0  0
    7.8785  -22.8785    0.0000 O   0  0
   10.0136  -22.4731    0.0000 O   0  0
   22.5274  -19.2095    0.0000 H   0  0
   10.2889  -28.5119    0.0000 C   0  0
   14.2608  -26.5771    0.0000 C   0  0
    9.2903  -25.3469    0.0000 C   0  0
   12.1267  -27.8093    0.0000 C   0  0
   13.6149  -22.8604    0.0000 C   0  0
   12.8380  -26.5771    0.0000 O   0  0
    6.4384  -27.8035    0.0000 O   0  0
    9.2812  -27.8093    0.0000 C   0  0
   20.9299  -18.6443    0.0000 C   0  0
   11.7505  -21.8399    0.0000 N   0  0
   11.4153  -27.3986    0.0000 C   0  0  1  0  0  0
   14.2211  -22.3061    0.0000 C   0  0
    7.8731  -25.3441    0.0000 C   0  0
   14.9721  -26.1665    0.0000 C   0  0
    8.5743  -26.5762    0.0000 C   0  0  1  0  0  0
    7.1640  -24.1088    0.0000 C   0  0
   20.3578  -20.3667    0.0000 H   0  0
   14.2608  -27.3986    0.0000 C   0  0
    7.1512  -27.3952    0.0000 C   0  0
   11.5030  -22.6264    0.0000 C   0  0
    7.8780  -23.7007    0.0000 C   0  0
   22.3757  -20.2277    0.0000 C   0  0
   11.1066  -28.5145    0.0000 O   0  0
   12.5719  -21.8334    0.0000 N   0  0
    8.5870  -24.1142    0.0000 C   0  0
    6.4537  -23.6962    0.0000 O   0  0
   20.5614  -21.3279    0.0000 C   0  0
   16.9996  -21.6931    0.0000 N   0  0
   21.9705  -20.9422    0.0000 S   0  0
   11.5020  -25.1494    0.0000 O   0  0
    6.4558  -22.8749    0.0000 C   0  0
   19.7783  -21.0800    0.0000 C   0  0
   15.0042  -22.5539    0.0000 O   0  0
   12.8380  -27.3986    0.0000 C   0  0  1  0  0  0
   16.3935  -22.2473    0.0000 C   0  0
   21.1677  -20.7735    0.0000 C   0  0  2  0  0  0
   11.0473  -25.8335    0.0000 P   0  0
   12.1710  -23.1006    0.0000 C   0  0
   17.8176  -26.1665    0.0000 O   0  0
   15.6834  -26.5771    0.0000 C   0  0
    9.3012  -22.8820    0.0000 C   0  0
   12.8317  -22.6126    0.0000 N   0  0
   20.5925  -17.8914    0.0000 O   0  0
   17.7828  -21.9409    0.0000 C   0  0
    7.1635  -24.9346    0.0000 C   0  0
    7.8630  -27.8104    0.0000 O   0  0
    8.5699  -27.3986    0.0000 C   0  0  1  0  0  0
   16.3948  -26.1665    0.0000 C   0  0
   13.5494  -27.8093    0.0000 C   0  0
    9.9926  -27.3986    0.0000 C   0  0
   11.4153  -26.5771    0.0000 O   0  0
   20.5240  -19.3532    0.0000 N   0  0
   18.3889  -21.3866    0.0000 C   0  0
   17.1062  -26.5771    0.0000 C   0  0
   10.7000  -27.8052    0.0000 C   0  0  1  0  0  0
    9.2871  -26.1682    0.0000 O   0  0
   10.7239  -22.8856    0.0000 C   0  0
    7.1682  -22.4659    0.0000 C   0  0
 37  9  1  0
 60 28  2  0
 30 71  1  6
 34 22  2  0
  9 15  1  6
 18 12  1  0
 62 61  1  0
 62 30  1  0
 73 13  1  0
 41 46  1  0
 49 21  1  1
 70 38  1  6
 40 36  1  0
 25 35  1  0
 17 29  2  0
 71 18  1  0
 34 61  1  0
 50 43  1  0
  6 50  1  0
 68  5  1  0
 72 35  1  0
 30  8  1  0
 20 27  1  0
 14 72  1  0
 23 65  2  0
 52  3  1  0
 70 26  1  0
  5 47  1  0
 36 31  2  0
  9  1  1  0
 67  4  1  0
 51 42  1  1
 26 66  1  6
 46 73  1  0
 52  7  2  0
 24 58  2  0
 24 67  1  0
 59 68  1  0
 66 52  1  0
 59  2  2  0
 49 64  1  0
 65 70  1  0
 64 33  2  0
 29 55  1  0
 19 49  1  0
 13 11  1  0
 63 69  1  0
 51 44  1  0
 43 59  1  0
 16 70  1  0
  4 32  1  6
 55 63  2  0
 39 25  2  0
 10 34  1  0
 11 56  1  0
 56 14  1  0
 35 53  2  0
 62 23  1  6
 69 54  1  0
 48  6  1  0
 57 39  1  0
 31 41  1  0
  4  9  1  0
  4 51  1  0
  1 24  1  0
 27 48  1  0
 28 12  1  0
 31 60  1  0
 53 57  1  0
 33 17  1  0
 47 42  1  0
  8 10  2  0
 52 45  1  0
 26 19  1  0
 12 40  2  0
 57 20  1  0
 44 37  1  0
M  END