
          11280714522D 1   1.00000     0.00000     0

 33 37  0     0  0            999 V2000
    6.5167   -5.2417    0.0000 C   0  0  0  0  0  0           0  0  0
    7.2250   -4.8292    0.0000 C   0  0  0  0  0  0           0  0  0
    5.8000   -4.8292    0.0000 O   0  0  0  0  0  0           0  0  0
    6.5167   -6.0667    0.0000 C   0  0  0  0  0  0           0  0  0
    5.0875   -5.2500    0.0000 C   0  0  0  0  0  0           0  0  0
    5.0875   -6.0750    0.0000 C   0  0  0  0  0  0           0  0  0
    5.8000   -6.4875    0.0000 C   0  0  0  0  0  0           0  0  0
    7.2167   -4.0042    0.0000 C   0  0  0  0  0  0           0  0  0
    4.3750   -4.8375    0.0000 C   0  0  0  0  0  0           0  0  0
    7.9417   -5.2375    0.0000 C   0  0  0  0  0  0           0  0  0
    7.2292   -6.4792    0.0000 C   0  0  0  0  0  0           0  0  0
    7.9417   -6.0667    0.0000 C   0  0  0  0  0  0           0  0  0
    5.8042   -7.3125    0.0000 O   0  0  0  0  0  0           0  0  0
    3.3917   -0.2292    0.0000 C   0  0  0  0  0  0           0  0  0
    6.5042   -3.5917    0.0000 O   0  0  0  0  0  0           0  0  0
    4.3750   -4.0042    0.0000 C   0  0  0  0  0  0           0  0  0
    3.5000   -1.0500    0.0000 C   0  0  0  0  0  0           0  0  0
    2.6375    0.0875    0.0000 C   0  0  0  0  0  0           0  0  0
    1.9792   -0.4042    0.0000 C   0  0  0  0  0  0           0  0  0
    3.6542   -2.7750    0.0000 O   0  0  0  0  0  0           0  0  0
    2.8417   -1.5500    0.0000 C   0  0  0  0  0  0           0  0  0
    3.6625   -3.6000    0.0000 C   0  0  0  0  0  0           0  0  0
    7.9292   -3.5875    0.0000 O   0  0  0  0  0  0           0  0  0
    8.6625   -6.4750    0.0000 Br  0  0  0  0  0  0           0  0  0
    2.9417   -2.3667    0.0000 C   0  0  0  0  0  0           0  0  0
    2.0792   -1.2250    0.0000 C   0  0  0  0  0  0           0  0  0
    3.6625   -5.2500    0.0000 C   0  0  0  0  0  0           0  0  0
    2.9417   -4.8292    0.0000 C   0  0  0  0  0  0           0  0  0
    4.0542    0.2583    0.0000 C   0  0  0  0  0  0           0  0  0
    2.9500   -4.0042    0.0000 C   0  0  0  0  0  0           0  0  0
    2.5292    0.9083    0.0000 C   0  0  0  0  0  0           0  0  0
    3.9542    1.0833    0.0000 C   0  0  0  0  0  0           0  0  0
    3.1917    1.4000    0.0000 C   0  0  0  0  0  0           0  0  0
  2  1  1  0     0  0
  3  1  1  0     0  0
  4  1  2  0     0  0
  5  3  1  0     0  0
  6  7  1  0     0  0
  7  4  1  0     0  0
  8  2  1  0     0  0
  9  5  1  0     0  0
 10  2  2  0     0  0
 11  4  1  0     0  0
 12 11  2  0     0  0
 13  7  2  0     0  0
 14 17  1  0     0  0
 15  8  2  0     0  0
 16  9  1  0     0  0
 17 21  2  0     0  0
 18 19  1  0     0  0
 19 26  2  0     0  0
 20 22  1  0     0  0
 21 25  1  0     0  0
 22 16  2  0     0  0
 23  8  1  0     0  0
 24 12  1  0     0  0
 25 20  1  0     0  0
 26 21  1  0     0  0
 27  9  2  0     0  0
 28 27  1  0     0  0
 29 14  1  0     0  0
 30 28  2  0     0  0
 31 18  1  0     0  0
 32 29  2  0     0  0
 33 31  2  0     0  0
 12 10  1  0     0  0
  6  5  2  0     0  0
 30 22  1  0     0  0
 18 14  2  0     0  0
 33 32  1  0     0  0
M  END