
          11280715132D 1   1.00000     0.00000     0

 33 36  0     0  0            999 V2000
    2.3167   -2.6917    0.0000 N   0  0  3  0  0  0           0  0  0
    3.9625   -3.2917    0.0000 S   0  0  3  0  0  0           0  0  0
    2.8417   -3.5875    0.0000 C   0  0  0  0  0  0           0  0  0
    2.3167   -3.2917    0.0000 C   0  0  3  0  0  0           0  0  0
    3.3625   -3.2917    0.0000 N   0  0  0  0  0  0           0  0  0
    2.8417   -2.3917    0.0000 N   0  0  0  0  0  0           0  0  0
    1.8000   -2.4000    0.0000 C   0  0  0  0  0  0           0  0  0
    1.8042   -3.6000    0.0000 C   0  0  0  0  0  0           0  0  0
    1.8000   -1.8000    0.0000 C   0  0  0  0  0  0           0  0  0
    4.5625   -3.2917    0.0000 C   0  0  0  0  0  0           0  0  0
    1.2792   -3.3000    0.0000 C   0  0  0  0  0  0           0  0  0
    0.7667   -3.6000    0.0000 C   0  0  0  0  0  0           0  0  0
    3.9625   -4.1292    0.0000 O   0  0  0  0  0  0           0  0  0
    3.9625   -2.4500    0.0000 O   0  0  0  0  0  0           0  0  0
    2.8375   -1.8000    0.0000 C   0  0  0  0  0  0           0  0  0
    2.3167   -1.5000    0.0000 C   0  0  0  0  0  0           0  0  0
    2.8375   -4.1875    0.0000 O   0  0  0  0  0  0           0  0  0
    0.7667   -4.1917    0.0000 C   0  0  0  0  0  0           0  0  0
    0.1917   -3.4125    0.0000 O   0  0  0  0  0  0           0  0  0
    0.1917   -4.3792    0.0000 O   0  0  0  0  0  0           0  0  0
    1.8042   -4.1917    0.0000 C   0  0  0  0  0  0           0  0  0
   -0.1625   -3.9000    0.0000 C   0  0  0  0  0  0           0  0  0
    1.2792   -2.7000    0.0000 O   0  0  0  0  0  0           0  0  0
    5.7542   -3.2917    0.0000 C   0  0  0  0  0  0           0  0  0
    4.8542   -2.7750    0.0000 C   0  0  0  0  0  0           0  0  0
    4.8542   -3.8125    0.0000 C   0  0  0  0  0  0           0  0  0
    1.2792   -4.5000    0.0000 C   0  0  0  0  0  0           0  0  0
    5.4542   -3.8125    0.0000 C   0  0  0  0  0  0           0  0  0
    5.4542   -2.7750    0.0000 C   0  0  0  0  0  0           0  0  0
    6.3542   -3.2917    0.0000 C   0  0  3  0  0  0           0  0  0
    3.3542   -1.5000    0.0000 C   0  0  0  0  0  0           0  0  0
    6.6542   -3.8167    0.0000 C   0  0  0  0  0  0           0  0  0
    6.6542   -2.7750    0.0000 C   0  0  0  0  0  0           0  0  0
  2  5  1  0     0  0
  3  4  1  0     0  0
  4  1  1  0     0  0
  5  3  1  0     0  0
  6  1  1  0     0  0
  7  1  1  0     0  0
  8  4  1  0     0  0
  9  7  1  0     0  0
 10  2  1  0     0  0
 11  8  2  0     0  0
 12 11  1  0     0  0
 13  2  2  0     0  0
 14  2  2  0     0  0
 15  6  2  0     0  0
 16  9  2  0     0  0
 17  3  2  0     0  0
 18 27  1  0     0  0
 19 12  1  0     0  0
 20 18  1  0     0  0
 21  8  1  0     0  0
 22 19  1  0     0  0
 23  7  2  0     0  0
 24 28  2  0     0  0
 25 10  1  0     0  0
 26 10  2  0     0  0
 27 21  2  0     0  0
 28 26  1  0     0  0
 29 25  2  0     0  0
 30 24  1  0     0  0
 31 15  1  0     0  0
 32 30  1  0     0  0
 33 30  1  0     0  0
 15 16  1  0     0  0
 12 18  2  0     0  0
 22 20  1  0     0  0
 24 29  1  0     0  0
M  END