
  SciTegic10011413212D

 33 36  0  0  0  0            999 V2000
    4.1320   -2.1459    0.0000 C   0  0
    4.1308   -2.9732    0.0000 C   0  0
    4.8457   -3.3861    0.0000 C   0  0
    5.5622   -2.9727    0.0000 C   0  0
    5.5592   -2.1422    0.0000 C   0  0
    4.8439   -1.7330    0.0000 C   0  0
    6.2722   -1.7270    0.0000 C   0  0
    6.9882   -2.1369    0.0000 N   0  0
    6.2691   -0.9020    0.0000 O   0  0
    7.7012   -1.7216    0.0000 C   0  0
    8.4536   -2.0573    0.0000 N   0  0
    9.0033   -1.4422    0.0000 N   0  0
    8.5881   -0.7291    0.0000 C   0  0
    7.7818   -0.9039    0.0000 C   0  0
    3.4174   -1.7335    0.0000 O   0  0
    2.7030   -2.1462    0.0000 C   0  0  2  0  0  0
    1.9885   -1.7338    0.0000 C   0  0
    2.7032   -2.9712    0.0000 C   0  0
    1.2741   -2.1466    0.0000 O   0  0
    4.8455   -4.2112    0.0000 O   0  0
    4.1309   -4.6235    0.0000 C   0  0
    3.4199   -4.2077    0.0000 C   0  0
    2.7059   -4.6193    0.0000 C   0  0
    2.7052   -5.4453    0.0000 C   0  0
    3.4246   -5.8578    0.0000 C   0  0
    4.1357   -5.4437    0.0000 C   0  0
    1.9912   -5.8585    0.0000 C   0  0
    1.2762   -5.4468    0.0000 N   0  0
    1.9921   -6.6835    0.0000 O   0  0
    1.0589   -4.6519    0.0000 C   0  0
    0.2623   -4.8663    0.0000 C   0  0
    0.4767   -5.6629    0.0000 C   0  0
    9.8241   -1.5253    0.0000 C   0  0
  1  2  2  0
  2  3  1  0
  3  4  2  0
  4  5  1  0
  5  6  2  0
  6  1  1  0
  5  7  1  0
  7  8  1  0
  7  9  2  0
  8 10  1  0
 10 11  2  0
 11 12  1  0
 12 13  1  0
 13 14  2  0
 14 10  1  0
  1 15  1  0
 15 16  1  0
 16 17  1  0
 16 18  1  1
 17 19  1  0
  3 20  1  0
 20 21  1  0
 21 22  2  0
 22 23  1  0
 23 24  2  0
 24 25  1  0
 25 26  2  0
 26 21  1  0
 24 27  1  0
 27 28  1  0
 27 29  2  0
 28 30  1  0
 30 31  1  0
 31 32  1  0
 32 28  1  0
 12 33  1  0
M  END