
  SciTegic02271514512D

 34 38  0  0  0  0            999 V2000
    3.0287   -7.5295    0.0000 N   0  0
    1.2076   -8.6963    0.0000 C   0  0
    2.0023   -8.5049    0.0000 N   0  0
    2.2340   -7.7209    0.0000 C   0  0
    1.6708   -7.1284    0.0000 C   0  0
    0.8761   -7.3198    0.0000 C   0  0
    0.6445   -8.1037    0.0000 N   0  0
    1.9024   -6.3444    0.0000 F   0  0
    0.2276  -10.5709    0.0000 C   0  0
    0.2056   -9.7537    0.0000 C   0  0
   -0.5187   -9.3642    0.0000 C   0  0
   -1.2170   -9.7918    0.0000 C   0  0
   -1.1895  -10.6090    0.0000 C   0  0
   -0.4719  -10.9985    0.0000 N   0  0
    1.0116  -10.8025    0.0000 N   0  0
    0.9760   -9.4803    0.0000 C   0  0
    1.4741  -10.1285    0.0000 C   0  0
   -1.9346   -9.4022    0.0000 Cl  0  0
    3.5917   -8.1219    0.0000 C   0  0  1  0  0  0
    3.3568   -8.9062    0.0000 C   0  0
    3.9159   -9.4973    0.0000 C   0  0
    4.7117   -9.3100    0.0000 C   0  0
    4.9453   -8.5259    0.0000 C   0  0  2  0  0  0
    4.3832   -7.9292    0.0000 C   0  0
    5.7405   -8.3373    0.0000 N   0  0
    6.3014   -8.9316    0.0000 C   0  0
    6.0672   -9.7145    0.0000 O   0  0
    7.0965   -8.7429    0.0000 C   0  0
    7.6574   -9.3372    0.0000 N   0  0
    7.4200  -10.1185    0.0000 C   0  0
    7.9771  -10.7116    0.0000 C   0  0
    8.7735  -10.5270    0.0000 O   0  0
    9.0099   -9.7437    0.0000 C   0  0
    8.4498   -9.1450    0.0000 C   0  0
  2  3  1  0
  3  4  2  0
  4  5  1  0
  5  6  2  0
  6  7  1  0
  2  7  2  0
  5  8  1  0
  9 10  1  0
 10 11  2  0
 11 12  1  0
 12 13  2  0
 13 14  1  0
  9 14  2  0
 16 17  2  0
 15 17  1  0
  9 15  1  0
 10 16  1  0
 12 18  1  0
  2 16  1  0
  1  4  1  0
 19  1  1  6
 19 20  1  0
 19 24  1  0
 20 21  1  0
 21 22  1  0
 22 23  1  0
 23 24  1  0
 23 25  1  6
 25 26  1  0
 26 27  2  0
 26 28  1  0
 28 29  1  0
 29 30  1  0
 29 34  1  0
 30 31  1  0
 31 32  1  0
 32 33  1  0
 33 34  1  0
M  END