
  SciTegic02271217242D

 22 24  0  0  0  0            999 V2000
    3.0400    0.0625    0.0000 S   0  0
    3.8598   -0.0716    0.0000 O   0  0
    3.3337   -0.7157    0.0000 O   0  0
    4.0827    1.1045    0.0000 C   0  0
    4.7941    0.6981    0.0000 N   0  0
    5.5059    1.1107    0.0000 C   0  0
    5.5007    1.9354    0.0000 C   0  0
    4.7849    2.3419    0.0000 C   0  0
    4.0775    1.9291    0.0000 N   0  0
    3.2958    2.1808    0.0000 N   0  0
    2.8146    1.5132    0.0000 C   0  0
    3.2999    0.8513    0.0000 C   0  0
    1.9933    1.5058    0.0000 N   0  0
    4.7832    3.1642    0.0000 N   0  0
    1.5773    2.2197    0.0000 C   0  0
    6.2215    0.7043    0.0000 C   0  0
    2.3162   -0.3440    0.0000 C   0  0
    2.3072   -1.1726    0.0000 C   0  0
    1.5854   -1.5772    0.0000 C   0  0
    0.8700   -1.1512    0.0000 C   0  0
    0.8850   -0.3162    0.0000 C   0  0
    1.6113    0.0847    0.0000 C   0  0
  7  8  2  0
  8  9  1  0
  4  9  1  0
 10 11  2  0
 11 12  1  0
  9 10  1  0
  4 12  2  0
 11 13  1  0
  8 14  1  0
 13 15  1  0
  6 16  1  0
 12  1  1  0
  2  1  2  0
  1 17  1  0
  1  3  2  0
 17 18  2  0
 18 19  1  0
  4  5  1  0
 19 20  2  0
  5  6  2  0
 20 21  1  0
  6  7  1  0
 21 22  2  0
 22 17  1  0
M  END