
  SciTegic11261411102D

 33 36  0  0  0  0            999 V2000
    8.3427   -4.6905    0.0000 S   0  0
    7.9302   -5.4050    0.0000 O   0  0
    8.7552   -3.9760    0.0000 O   0  0
   10.4861   -5.9280    0.0000 O   0  0
    4.0558   -3.0405    0.0000 O   0  0
    9.0571   -5.1030    0.0000 N   0  0
    5.4848   -3.0405    0.0000 N   0  0
   11.2005   -4.6905    0.0000 N   0  0
    7.6282   -4.2780    0.0000 C   0  0
    9.7716   -4.6905    0.0000 C   0  0
    6.1992   -4.2780    0.0000 C   0  0
    6.1992   -3.4530    0.0000 C   0  0
    6.9137   -4.6905    0.0000 C   0  0
    7.6282   -3.4530    0.0000 C   0  0
   10.4861   -5.1030    0.0000 C   0  0
    9.7716   -3.8655    0.0000 C   0  0
    6.9137   -3.0405    0.0000 C   0  0
    5.4848   -4.6905    0.0000 C   0  0
   11.9150   -5.1030    0.0000 C   0  0
    4.7703   -3.4530    0.0000 C   0  0
    4.7703   -4.2780    0.0000 C   0  0
    9.0571   -3.4530    0.0000 C   0  0
   10.4861   -3.4530    0.0000 C   0  0
   12.6295   -4.6905    0.0000 C   0  0
   11.9150   -5.9280    0.0000 C   0  0
   13.3440   -5.1030    0.0000 C   0  0
   12.6295   -6.3405    0.0000 C   0  0
    9.0571   -2.6280    0.0000 C   0  0
   10.4861   -2.6280    0.0000 C   0  0
   13.3440   -5.9280    0.0000 C   0  0
    9.7716   -2.2155    0.0000 C   0  0
   12.6295   -3.8655    0.0000 C   0  0
   11.2005   -6.3405    0.0000 C   0  0
  1  2  2  0
  1  3  2  0
  1  6  1  0
  1  9  1  0
  4 15  2  0
  5 20  2  0
  6 10  1  0
  7 12  1  0
  7 20  1  0
  8 15  1  0
  8 19  1  0
  9 13  1  0
  9 14  2  0
 10 15  1  0
 10 16  1  0
 11 12  1  0
 11 13  2  0
 11 18  1  0
 12 17  2  0
 14 17  1  0
 16 22  2  0
 16 23  1  0
 18 21  1  0
 19 24  1  0
 19 25  2  0
 20 21  1  0
 22 28  1  0
 23 29  2  0
 24 26  2  0
 24 32  1  0
 25 27  1  0
 25 33  1  0
 26 30  1  0
 27 30  2  0
 28 31  2  0
 29 31  1  0
M  END