
  SciTegic01161211252D

 45 47  0  0  0  0            999 V2000
   14.0582    0.4270    0.0000 C   0  0  1  0  0  0
   14.0582   -0.4022    0.0000 C   0  0  2  0  0  0
   14.7704   -0.8125    0.0000 C   0  0  2  0  0  0
   15.4867   -0.4022    0.0000 C   0  0
   15.4867    0.4270    0.0000 C   0  0  2  0  0  0
   14.7704    0.8458    0.0000 O   0  0
   16.1989    0.0103    0.0000 O   0  0
   15.8922    1.1420    0.0000 C   0  0
   16.7213    1.1534    0.0000 O   0  0
   15.4741    1.8563    0.0000 O   0  5
   13.3406    0.8363    0.0000 C   0  0  2  0  0  0
   12.6224    0.4207    0.0000 C   0  0  2  0  0  0
   11.1969   -0.4125    0.0000 C   0  0
   10.4787   -0.8281    0.0000 C   0  0
   11.1932    0.4167    0.0000 O   0  0
    9.7661   -0.4132    0.0000 C   0  0
    9.0486   -0.8278    0.0000 C   0  0
    9.0516   -1.6583    0.0000 C   0  0
    9.7769   -2.0674    0.0000 C   0  0
   10.4857   -1.6491    0.0000 C   0  0
   13.3391   -0.8162    0.0000 N   0  0
   12.6223   -0.4053    0.0000 C   0  0
   14.0369    1.2517    0.0000 H   0  0
   16.1942   -0.8146    0.0000 C   0  0
   16.9062   -1.2312    0.0000 C   0  0
   16.8969   -2.0550    0.0000 C   0  0
   17.6082   -2.4715    0.0000 C   0  0
   17.6163   -0.8210    0.0000 C   0  0
    8.3400   -2.0757    0.0000 Cl  0  0
   18.3281   -1.2338    0.0000 C   0  0
   18.3227   -2.0604    0.0000 C   0  0
   17.6170    0.0040    0.0000 F   0  0
   19.0443   -0.8243    0.0000 F   0  0
   13.3382   -1.6412    0.0000 C   0  0
   12.6232   -2.0529    0.0000 C   0  0
   14.0521   -2.0546    0.0000 O   0  0
   12.6222   -2.8779    0.0000 C   0  0
   12.0397   -3.4573    0.0000 C   0  0
   12.6224   -4.0413    0.0000 C   0  0
   13.2065   -3.4586    0.0000 C   0  0
   19.1875   -3.5917    0.0000 Na  0  3
   13.3369    1.6655    0.0000 O   0  0
   11.9044    0.8340    0.0000 O   0  0
   11.9117   -0.8244    0.0000 N   0  0
   14.7704   -1.6375    0.0000 O   0  0
 16 17  1  0
 17 18  2  0
 18 19  1  0
 19 20  2  0
 20 14  1  0
  2 21  1  1
  1 23  1  1
  7 24  1  0
 24 25  1  0
  1  2  1  0
 25 26  2  0
  1  6  1  0
 26 27  1  0
 27 31  2  0
  2  3  1  0
 30 28  2  0
 28 25  1  0
  3  4  1  0
 18 29  1  0
  4  5  1  0
  5  6  1  0
 30 31  1  0
  5  7  1  0
 28 32  1  0
  5  8  1  1
 30 33  1  0
  8  9  2  0
 21 34  1  0
  8 10  1  0
 34 35  1  0
  1 11  1  0
 34 36  2  0
 35 37  1  0
 37 38  1  0
 11 12  1  0
 12 22  1  0
 38 39  1  0
 39 40  1  0
 40 37  1  0
 13 14  1  0
 13 15  2  0
 14 16  2  0
 12 43  1  1
 22 44  1  0
 44 13  1  0
 11 42  1  6
  3 45  1  6
M  CHG  2  10  -1  41   1
M  END