
          11280715372D 1   1.00000     0.00000     0

 39 40  0     1  0            999 V2000
    2.5792   -2.8667    0.0000 P   0  0  3  0  0  0           0  0  0
    5.7250   -5.0667    0.0000 C   0  0  0  0  0  0           0  0  0
    6.0750   -4.5917    0.0000 N   0  0  0  0  0  0           0  0  0
    7.0375   -4.1792    0.0000 C   0  0  0  0  0  0           0  0  0
    5.1250   -5.0042    0.0000 C   0  0  1  0  0  0           0  0  0
    6.6792   -4.6542    0.0000 C   0  0  2  0  0  0           0  0  0
    4.7667   -5.4792    0.0000 N   0  0  0  0  0  0           0  0  0
    7.6375   -4.2417    0.0000 N   0  0  0  0  0  0           0  0  0
    4.1625   -5.4167    0.0000 C   0  0  0  0  0  0           0  0  0
    9.6250   -3.7292    0.0000 C   0  0  0  0  0  0           0  0  0
    3.1750   -2.7542    0.0000 O   0  0  0  0  0  0           0  0  0
    2.4667   -2.2792    0.0000 O   0  0  0  0  0  0           0  0  0
    5.9667   -5.6292    0.0000 O   0  0  0  0  0  0           0  0  0
    9.6875   -4.3167    0.0000 C   0  0  0  0  0  0           0  0  0
    4.8792   -4.4417    0.0000 C   0  0  0  0  0  0           0  0  0
    6.7917   -3.6292    0.0000 O   0  0  0  0  0  0           0  0  0
    9.0750   -3.4792    0.0000 C   0  0  0  0  0  0           0  0  0
    6.9250   -5.2167    0.0000 C   0  0  0  0  0  0           0  0  0
    3.9250   -4.8667    0.0000 O   0  0  0  0  0  0           0  0  0
    2.6917   -3.4667    0.0000 O   0  0  0  0  0  0           0  0  0
    1.9875   -2.9917    0.0000 O   0  0  0  0  0  0           0  0  0
    9.2000   -4.6792    0.0000 C   0  0  0  0  0  0           0  0  0
    8.5875   -3.8292    0.0000 C   0  0  0  0  0  0           0  0  0
    3.5750   -3.2167    0.0000 C   0  0  0  0  0  0           0  0  0
    7.9917   -3.7667    0.0000 C   0  0  0  0  0  0           0  0  0
    4.3625   -4.1417    0.0000 C   0  0  0  0  0  0           0  0  0
    8.6542   -4.4292    0.0000 C   0  0  0  0  0  0           0  0  0
   10.1125   -3.3792    0.0000 O   0  0  0  0  0  0           0  0  0
    4.5542   -3.5667    0.0000 C   0  0  0  0  0  0           0  0  0
    3.7625   -4.2417    0.0000 C   0  0  0  0  0  0           0  0  0
    4.1625   -3.1167    0.0000 C   0  0  0  0  0  0           0  0  0
    3.3750   -3.7917    0.0000 C   0  0  0  0  0  0           0  0  0
   10.2292   -4.5667    0.0000 O   0  0  0  0  0  0           0  0  0
    7.2917   -5.6792    0.0000 C   0  0  3  0  0  0           0  0  0
    3.8125   -5.8917    0.0000 C   0  0  0  0  0  0           0  0  0
   10.6625   -3.6167    0.0000 C   0  0  0  0  0  0           0  0  0
   10.2917   -5.1667    0.0000 C   0  0  0  0  0  0           0  0  0
    7.0750   -6.2417    0.0000 C   0  0  0  0  0  0           0  0  0
    7.8875   -5.7542    0.0000 C   0  0  0  0  0  0           0  0  0
  2  5  1  0     0  0
  3  2  1  0     0  0
  4  6  1  0     0  0
  5 15  1  1     0  0
  6  3  1  0     0  0
  7  5  1  0     0  0
  8  4  1  0     0  0
  9  7  1  0     0  0
 10 17  1  0     0  0
 11  1  1  0     0  0
 12  1  2  0     0  0
 13  2  2  0     0  0
 14 22  1  0     0  0
 15 26  1  0     0  0
 16  4  2  0     0  0
 17 23  2  0     0  0
  6 18  1  6     0  0
 19  9  2  0     0  0
 20  1  1  0     0  0
 21  1  1  0     0  0
 22 27  2  0     0  0
 23 25  1  0     0  0
 24 11  1  0     0  0
 25  8  1  0     0  0
 26 30  2  0     0  0
 27 23  1  0     0  0
 28 10  1  0     0  0
 29 31  2  0     0  0
 30 32  1  0     0  0
 31 24  1  0     0  0
 32 24  2  0     0  0
 33 14  1  0     0  0
 34 18  1  0     0  0
 35  9  1  0     0  0
 36 28  1  0     0  0
 37 33  1  0     0  0
 38 34  1  0     0  0
 39 34  1  0     0  0
 26 29  1  0     0  0
 14 10  2  0     0  0
M  END