
  SciTegic01091216402D

 18 19  0  0  0  0            999 V2000
   20.9858   -3.3739    0.0000 S   0  0
   20.5706   -2.6611    0.0000 O   0  0
   20.1609   -3.3770    0.0000 O   0  0
   20.2770   -4.6115    0.0000 C   0  0
   20.2759   -5.4388    0.0000 C   0  0
   20.9907   -5.8516    0.0000 C   0  0
   21.7070   -5.4383    0.0000 C   0  0
   21.7042   -4.6079    0.0000 C   0  0
   20.9889   -4.1988    0.0000 C   0  0
   21.6986   -2.9588    0.0000 C   0  0
   22.4129   -3.3719    0.0000 C   0  0
   23.1252   -2.9575    0.0000 C   0  0
   23.1226   -2.1317    0.0000 N   0  0
   22.4016   -1.7221    0.0000 C   0  0
   21.6923   -2.1390    0.0000 N   0  0
   22.3956   -0.8972    0.0000 N   0  0
   23.8410   -3.3676    0.0000 C   0  0
   20.9905   -6.6766    0.0000 C   0  0
  1  3  2  0
  1 10  1  0
  5  6  1  0
 10 11  2  0
 11 12  1  0
  6  7  2  0
 12 13  2  0
  2  1  2  0
 13 14  1  0
  7  8  1  0
 14 15  2  0
 15 10  1  0
  4  5  2  0
 14 16  1  0
  8  9  2  0
 12 17  1  0
  1  9  1  0
  9  4  1  0
  6 18  1  0
M  END