
          11290713132D 1   1.00000     0.00000     0

 32 35  0     0  0            999 V2000
   -1.0932   -5.6087    0.0000 C   0  0  0  0  0  0           0  0  0
   -1.0943   -6.4362    0.0000 C   0  0  0  0  0  0           0  0  0
   -0.3794   -6.8491    0.0000 C   0  0  0  0  0  0           0  0  0
   -0.3812   -5.1960    0.0000 C   0  0  0  0  0  0           0  0  0
   -1.8091   -6.8481    0.0000 O   0  0  0  0  0  0           0  0  0
   -2.5234   -6.4351    0.0000 C   0  0  0  0  0  0           0  0  0
   -3.2383   -6.8470    0.0000 C   0  0  0  0  0  0           0  0  0
   -4.6671   -7.6690    0.0000 C   0  0  0  0  0  0           0  0  0
   -3.9479   -8.0819    0.0000 C   0  0  0  0  0  0           0  0  0
   -3.2365   -7.6682    0.0000 C   0  0  0  0  0  0           0  0  0
   -4.6660   -6.8430    0.0000 C   0  0  0  0  0  0           0  0  0
   -3.9465   -6.4324    0.0000 C   0  0  0  0  0  0           0  0  0
    1.1176   -6.6838    0.0000 N   0  0  0  0  0  0           0  0  0
    1.5995   -6.0170    0.0000 C   0  0  0  0  0  0           0  0  0
    1.1143   -5.3525    0.0000 C   0  0  0  0  0  0           0  0  0
    0.3323   -5.6087    0.0000 C   0  0  0  0  0  0           0  0  0
    0.3344   -6.4316    0.0000 C   0  0  0  0  0  0           0  0  0
    1.3672   -4.5673    0.0000 C   0  0  0  0  0  0           0  0  0
    2.1738   -4.3936    0.0000 C   0  0  3  0  0  0           0  0  0
    2.4268   -3.6083    0.0000 C   0  0  0  0  0  0           0  0  0
    2.7274   -5.0054    0.0000 N   0  0  0  0  0  0           0  0  0
    3.5341   -4.8318    0.0000 C   0  0  0  0  0  0           0  0  0
    4.0876   -5.4435    0.0000 C   0  0  0  0  0  0           0  0  0
    3.7870   -4.0465    0.0000 O   0  0  0  0  0  0           0  0  0
    3.2334   -3.4348    0.0000 O   0  0  0  0  0  0           0  0  0
    1.8731   -2.9965    0.0000 O   0  0  0  0  0  0           0  0  0
    3.8323   -6.2277    0.0000 C   0  0  0  0  0  0           0  0  0
    4.3851   -6.8391    0.0000 C   0  0  0  0  0  0           0  0  0
    5.1927   -6.6658    0.0000 C   0  0  0  0  0  0           0  0  0
    5.4444   -5.8756    0.0000 C   0  0  0  0  0  0           0  0  0
    4.8899   -5.2675    0.0000 C   0  0  0  0  0  0           0  0  0
    5.7472   -7.2768    0.0000 Cl  0  0  0  0  0  0           0  0  0
  6  7  1  0     0  0
  1  2  1  0     0  0
 13 14  1  0     0  0
 15 16  1  0     0  0
 17 13  1  0     0  0
  7 12  2  0     0  0
 15 18  1  0     0  0
 16  4  1  0     0  0
 18 19  1  0     0  0
  4  1  2  0     0  0
 19 20  1  0     0  0
 11  8  2  0     0  0
 19 21  1  0     0  0
  8  9  1  0     0  0
 21 22  1  0     0  0
  2  5  1  0     0  0
 22 23  1  0     0  0
  9 10  2  0     0  0
 22 24  2  0     0  0
 11 12  1  0     0  0
 20 25  1  0     0  0
 20 26  2  0     0  0
 10  7  1  0     0  0
 23 27  2  0     0  0
 16 17  2  0     0  0
 27 28  1  0     0  0
  2  3  2  0     0  0
 28 29  2  0     0  0
  5  6  1  0     0  0
 29 30  1  0     0  0
 14 15  2  0     0  0
 30 31  2  0     0  0
 31 23  1  0     0  0
  3 17  1  0     0  0
 29 32  1  0     0  0
M  END