
          11280714552D 1   1.00000     0.00000     0

 33 37  0     0  0            999 V2000
    2.9417   -1.2542    0.0000 C   0  0  0  0  0  0           0  0  0
    2.1042   -0.9917    0.0000 N   0  0  0  0  0  0           0  0  0
    2.2042   -2.3625    0.0000 N   0  0  3  0  0  0           0  0  0
    5.7250   -4.8417    0.0000 C   0  0  0  0  0  0           0  0  0
    2.9875   -2.0792    0.0000 C   0  0  0  0  0  0           0  0  0
    1.6917   -1.7125    0.0000 C   0  0  0  0  0  0           0  0  0
    6.5792   -3.7167    0.0000 N   0  0  0  0  0  0           0  0  0
    6.5042   -5.1000    0.0000 N   0  0  3  0  0  0           0  0  0
    5.7292   -4.0167    0.0000 N   0  0  0  0  0  0           0  0  0
    6.9917   -4.4375    0.0000 N   0  0  0  0  0  0           0  0  0
    5.0542   -5.3292    0.0000 C   0  0  0  0  0  0           0  0  0
    4.2542   -5.5292    0.0000 C   0  0  0  0  0  0           0  0  0
    3.5667   -0.7167    0.0000 C   0  0  0  0  0  0           0  0  0
    1.9750   -3.1542    0.0000 C   0  0  0  0  0  0           0  0  0
    3.6875   -4.9375    0.0000 C   0  0  0  0  0  0           0  0  0
    3.3417    0.0833    0.0000 O   0  0  0  0  0  0           0  0  0
    3.9167   -4.1292    0.0000 C   0  0  0  0  0  0           0  0  0
    2.8792   -5.1292    0.0000 C   0  0  0  0  0  0           0  0  0
    2.5417   -3.7500    0.0000 C   0  0  0  0  0  0           0  0  0
    3.6542   -2.5625    0.0000 C   0  0  0  0  0  0           0  0  0
    0.8667   -1.7417    0.0000 C   0  0  0  0  0  0           0  0  0
    6.7542   -5.8875    0.0000 C   0  0  0  0  0  0           0  0  0
    3.3417   -3.5500    0.0000 C   0  0  0  0  0  0           0  0  0
    2.3125   -4.5375    0.0000 C   0  0  0  0  0  0           0  0  0
    5.6250   -5.9167    0.0000 C   0  0  0  0  0  0           0  0  0
    4.0250   -6.3167    0.0000 C   0  0  0  0  0  0           0  0  0
    4.3792   -0.8542    0.0000 C   0  0  0  0  0  0           0  0  0
    0.4292   -1.0417    0.0000 C   0  0  0  0  0  0           0  0  0
    4.4500   -2.3417    0.0000 C   0  0  0  0  0  0           0  0  0
    5.4000   -6.7167    0.0000 C   0  0  0  0  0  0           0  0  0
    4.5917   -6.9125    0.0000 C   0  0  0  0  0  0           0  0  0
    4.7667   -1.5792    0.0000 C   0  0  0  0  0  0           0  0  0
   -0.3958   -1.0792    0.0000 C   0  0  0  0  0  0           0  0  0
  2  1  1  0     0  0
  3  5  1  0     0  0
  4 11  1  0     0  0
  5  1  2  0     0  0
  6  2  2  0     0  0
  7  9  1  0     0  0
  8  4  1  0     0  0
  9  4  2  0     0  0
 10  8  1  0     0  0
 11 12  1  0     0  0
 12 15  1  0     0  0
 13  1  1  0     0  0
 14  3  1  0     0  0
 15 18  2  0     0  0
 16 13  2  0     0  0
 17 23  2  0     0  0
 18 24  1  0     0  0
 19 14  1  0     0  0
 20  5  1  0     0  0
 21  6  1  0     0  0
 22  8  1  0     0  0
 23 19  1  0     0  0
 24 19  2  0     0  0
 25 11  2  0     0  0
 26 12  2  0     0  0
 27 13  1  0     0  0
 28 21  1  0     0  0
 29 20  1  0     0  0
 30 31  2  0     0  0
 31 26  1  0     0  0
 32 27  1  0     0  0
 33 28  1  0     0  0
  6  3  1  0     0  0
 32 29  1  0     0  0
 17 15  1  0     0  0
 30 25  1  0     0  0
 10  7  2  0     0  0
M  END