
          11280714482D 1   1.00000     0.00000     0

 20 21  0     0  0            999 V2000
    1.8792    0.2750    0.0000 N   0  0  3  0  0  0           0  0  0
    1.1625    0.6833    0.0000 C   0  0  0  0  0  0           0  0  0
    0.4542    0.2708    0.0000 N   0  0  0  0  0  0           0  0  0
    1.8792   -0.5500    0.0000 C   0  0  0  0  0  0           0  0  0
    1.1667   -0.9667    0.0000 C   0  0  0  0  0  0           0  0  0
   -0.2583   -1.7917    0.0000 C   0  0  0  0  0  0           0  0  0
    4.0167    0.6958    0.0000 N   0  0  0  0  0  0           0  0  0
    0.4542   -0.5542    0.0000 C   0  0  0  0  0  0           0  0  0
    1.1667   -1.7917    0.0000 C   0  0  0  0  0  0           0  0  0
   -0.2583   -0.9667    0.0000 C   0  0  0  0  0  0           0  0  0
    0.4542   -2.2042    0.0000 C   0  0  0  0  0  0           0  0  0
   -0.9708   -2.2042    0.0000 O   0  0  0  0  0  0           0  0  0
    2.5917    0.6958    0.0000 C   0  0  0  0  0  0           0  0  0
    1.1625    1.5125    0.0000 C   0  0  0  0  0  0           0  0  0
   -0.2625    0.6750    0.0000 C   0  0  0  0  0  0           0  0  0
    3.3042    0.2833    0.0000 C   0  0  0  0  0  0           0  0  0
    4.7375    0.2875    0.0000 C   0  0  0  0  0  0           0  0  0
   -0.9708   -3.0292    0.0000 C   0  0  0  0  0  0           0  0  0
    0.4417    1.9208    0.0000 C   0  0  0  0  0  0           0  0  0
   -0.2708    1.5083    0.0000 C   0  0  0  0  0  0           0  0  0
  2  1  1  0     0  0
  3  2  1  0     0  0
  4  1  1  0     0  0
  5  4  1  0     0  0
  6 11  1  0     0  0
  7 16  1  0     0  0
  8  5  2  0     0  0
  9  5  1  0     0  0
 10  8  1  0     0  0
 11  9  2  0     0  0
 12  6  1  0     0  0
 13  1  1  0     0  0
 14  2  2  0     0  0
 15  3  2  0     0  0
 16 13  1  0     0  0
 17  7  1  0     0  0
 18 12  1  0     0  0
 19 14  1  0     0  0
 20 19  2  0     0  0
 10  6  2  0     0  0
 15 20  1  0     0  0
M  END