
          11280715192D 1   1.00000     0.00000     0

 31 32  0     1  0            999 V2000
    0.1167   -1.5667    0.0000 C   0  0  0  0  0  0           0  0  0
    0.8292   -1.9792    0.0000 C   0  0  0  0  0  0           0  0  0
    0.1167   -0.7417    0.0000 C   0  0  0  0  0  0           0  0  0
   -0.5958   -1.9792    0.0000 C   0  0  0  0  0  0           0  0  0
    1.5417   -3.2167    0.0000 C   0  0  0  0  0  0           0  0  0
    6.5500   -2.8125    0.0000 C   0  0  0  0  0  0           0  0  0
    0.8292   -2.8042    0.0000 C   0  0  1  0  0  0           0  0  0
    7.2625   -3.2250    0.0000 C   0  0  1  0  0  0           0  0  0
   -1.3083   -1.5667    0.0000 C   0  0  0  0  0  0           0  0  0
   -0.5958   -0.3292    0.0000 C   0  0  0  0  0  0           0  0  0
   -1.3125   -0.7417    0.0000 C   0  0  0  0  0  0           0  0  0
    1.5417   -4.0417    0.0000 O   0  0  0  0  0  0           0  0  0
    6.5500   -1.9875    0.0000 O   0  0  0  0  0  0           0  0  0
    7.2625   -4.0500    0.0000 C   0  0  0  0  0  0           0  0  0
    2.2542   -2.8042    0.0000 N   0  0  0  0  0  0           0  0  0
    5.8292   -3.2167    0.0000 N   0  0  0  0  0  0           0  0  0
    0.1167   -3.2167    0.0000 N   0  0  0  0  0  0           0  0  0
    7.9792   -2.8125    0.0000 N   0  0  0  0  0  0           0  0  0
    7.9792   -4.4625    0.0000 C   0  0  0  0  0  0           0  0  0
   -2.0333   -0.3292    0.0000 O   0  0  0  0  0  0           0  0  0
   -0.5625   -2.6167    0.0000 C   0  0  0  0  0  0           0  0  0
    0.8292   -0.3292    0.0000 C   0  0  0  0  0  0           0  0  0
    5.1167   -2.8042    0.0000 C   0  0  0  0  0  0           0  0  0
    2.9667   -3.2167    0.0000 C   0  0  0  0  0  0           0  0  0
    7.9750   -5.2875    0.0000 C   0  0  0  0  0  0           0  0  0
    8.6875   -4.0500    0.0000 C   0  0  0  0  0  0           0  0  0
    3.6875   -2.8042    0.0000 C   0  0  0  0  0  0           0  0  0
    4.4000   -3.2167    0.0000 C   0  0  0  0  0  0           0  0  0
    9.4000   -4.4542    0.0000 C   0  0  0  0  0  0           0  0  0
    8.6875   -5.7000    0.0000 C   0  0  0  0  0  0           0  0  0
    9.4042   -5.2875    0.0000 C   0  0  0  0  0  0           0  0  0
  2  1  1  0     0  0
  3  1  2  0     0  0
  4  1  1  0     0  0
  5  7  1  0     0  0
  6 16  1  0     0  0
  7  2  1  1     0  0
  8  6  1  0     0  0
  9  4  2  0     0  0
 10  3  1  0     0  0
 11  9  1  0     0  0
 12  5  2  0     0  0
 13  6  2  0     0  0
  8 14  1  6     0  0
 15  5  1  0     0  0
 16 23  1  0     0  0
 17  7  1  0     0  0
 18  8  1  0     0  0
 19 14  1  0     0  0
 20 11  1  0     0  0
 21  4  1  0     0  0
 22  3  1  0     0  0
 23 28  1  0     0  0
 24 15  1  0     0  0
 25 19  2  0     0  0
 26 19  1  0     0  0
 27 24  1  0     0  0
 28 27  1  0     0  0
 29 26  2  0     0  0
 30 25  1  0     0  0
 31 29  1  0     0  0
 10 11  2  0     0  0
 30 31  2  0     0  0
M  END