
  CDK    9/16/09,9:55

 33 36  0  0  0  0  0  0  0  0999 V2000
   -1.8999  -19.0615    0.0000 C   0  0  0  0  0  0  0  0  0  0  0  0
   -1.8704  -19.8959    0.0000 N   0  0  0  0  0  0  0  0  0  0  0  0
   -1.1367  -20.2791    0.0000 C   0  0  0  0  0  0  0  0  0  0  0  0
   -0.4356  -19.8354    0.0000 C   0  0  0  0  0  0  0  0  0  0  0  0
   -0.4721  -19.0054    0.0000 N   0  0  0  0  0  0  0  0  0  0  0  0
   -1.2071  -18.6169    0.0000 C   0  0  0  0  0  0  0  0  0  0  0  0
    0.2330  -18.5653    0.0000 S   0  0  0  0  0  0  0  0  0  0  0  0
    0.9195  -18.1158    0.0000 C   0  0  0  0  0  0  0  0  0  0  0  0
    0.6760  -19.2559    0.0000 O   0  0  0  0  0  0  0  0  0  0  0  0
   -0.2126  -17.8652    0.0000 O   0  0  0  0  0  0  0  0  0  0  0  0
   -2.5666  -20.3317    0.0000 C   0  0  0  0  0  0  0  0  0  0  0  0
   -3.2944  -19.9531    0.0000 N   0  0  0  0  0  0  0  0  0  0  0  0
   -3.9985  -20.3931    0.0000 C   0  0  0  0  0  0  0  0  0  0  0  0
   -3.9627  -21.2189    0.0000 C   0  0  0  0  0  0  0  0  0  0  0  0
   -3.2275  -21.6017    0.0000 C   0  0  0  0  0  0  0  0  0  0  0  0
   -2.5271  -21.1590    0.0000 C   0  0  0  0  0  0  0  0  0  0  0  0
   -4.6576  -21.6635    0.0000 C   0  0  0  0  0  0  0  0  0  0  0  0
   -5.3791  -22.0749    0.0000 F   0  0  0  0  0  0  0  0  0  0  0  0
   -4.2325  -22.3706    0.0000 F   0  0  0  0  0  0  0  0  0  0  0  0
   -5.0821  -20.9502    0.0000 F   0  0  0  0  0  0  0  0  0  0  0  0
    0.9255  -17.3011    0.0000 C   0  0  0  0  0  0  0  0  0  0  0  0
    0.1947  -17.6009    0.0000 C   0  0  0  0  0  0  0  0  0  0  0  0
    0.6321  -17.0854    0.0000 C   0  0  0  0  0  0  0  0  0  0  0  0
    1.2496  -16.7303    0.0000 C   0  0  0  0  0  0  0  0  0  0  0  0
    1.0439  -16.0646    0.0000 C   0  0  0  0  0  0  0  0  0  0  0  0
    1.9291  -17.2150    0.0000 C   0  0  0  0  0  0  0  0  0  0  0  0
    1.6138  -17.7600    0.0000 C   0  0  0  0  0  0  0  0  0  0  0  0
    1.2491  -15.2727    0.0000 C   0  0  0  0  0  0  0  0  0  0  0  0
    0.3298  -15.6527    0.0000 C   0  0  0  0  0  0  0  0  0  0  0  0
    1.8285  -16.1425    0.0000 H   0  0  0  0  0  0  0  0  0  0  0  0
   -1.8023  -21.5360    0.0000 F   0  0  0  0  0  0  0  0  0  0  0  0
    1.7993  -18.5557    0.0000 O   0  0  0  0  0  0  0  0  0  0  0  0
   -2.6237  -18.6823    0.0000 C   0  0  0  0  0  0  0  0  0  0  0  0
 15 16  2  0  0  0  0 
 16 11  1  0  0  0  0 
  2 11  1  0  0  0  0 
 14 17  1  0  0  0  0 
  5  7  1  0  0  0  0 
 17 18  1  0  0  0  0 
  1  2  1  0  0  0  0 
 17 19  1  0  0  0  0 
 17 20  1  0  0  0  0 
  7  8  1  0  0  0  0 
  1  6  1  0  0  0  0 
  7  9  2  0  0  0  0 
  2  3  1  0  0  0  0 
  7 10  2  0  0  0  0 
  3  4  1  0  0  0  0 
 22 23  1  0  0  0  0 
 23 24  1  0  0  0  0 
 22 21  1  0  0  0  0 
 21 25  1  0  0  0  0 
 25 24  1  0  0  0  0 
 24 26  1  0  0  0  0 
 26 27  1  0  0  0  0 
 27 21  1  0  0  0  0 
 11 12  2  0  0  0  0 
 25 28  1  0  0  0  0 
 12 13  1  0  0  0  0 
 25 29  1  0  0  0  0 
 13 14  2  0  0  0  0 
 24 30  1  6  0  0  0 
  4  5  1  0  0  0  0 
 21  8  1  1  0  0  0 
 16 31  1  0  0  0  0 
 14 15  1  0  0  0  0 
 27 32  2  0  0  0  0 
  5  6  1  0  0  0  0 
  1 33  1  1  0  0  0 
M  END