
          11280715132D 1   1.00000     0.00000     0

 41 45  0     1  0            999 V2000
    2.3667   -3.4125    0.0000 C   0  0  2  0  0  0           0  0  0
    2.3500   -1.5417    0.0000 N   0  0  3  0  0  0           0  0  0
    2.7792   -4.1250    0.0000 C   0  0  1  0  0  0           0  0  0
    1.7125   -2.9000    0.0000 C   0  0  0  0  0  0           0  0  0
    1.7125   -2.0667    0.0000 C   0  0  0  0  0  0           0  0  0
    2.5750   -5.6292    0.0000 C   0  0  0  0  0  0           0  0  0
    3.1792   -3.2167    0.0000 N   0  0  0  0  0  0           0  0  0
    2.1000   -0.7542    0.0000 C   0  0  0  0  0  0           0  0  0
    2.6542   -0.1500    0.0000 C   0  0  0  0  0  0           0  0  0
    3.1625   -1.7250    0.0000 C   0  0  0  0  0  0           0  0  0
    2.9500    1.2458    0.0000 C   0  0  0  0  0  0           0  0  0
    2.4000    0.6333    0.0000 C   0  0  0  0  0  0           0  0  0
    3.5750   -4.3375    0.0000 C   0  0  0  0  0  0           0  0  0
    2.3625   -4.8375    0.0000 O   0  0  0  0  0  0           0  0  0
    3.3625   -5.8417    0.0000 N   0  0  0  0  0  0           0  0  0
    1.9875   -6.2125    0.0000 N   0  0  0  0  0  0           0  0  0
    3.5292   -2.4667    0.0000 C   0  0  0  0  0  0           0  0  0
    3.7625    1.0708    0.0000 C   0  0  0  0  0  0           0  0  0
    1.7792   -3.9917    0.0000 C   0  0  0  0  0  0           0  0  0
    3.5792   -6.6292    0.0000 C   0  0  0  0  0  0           0  0  0
    2.1917   -7.0042    0.0000 C   0  0  0  0  0  0           0  0  0
    3.4542   -0.3250    0.0000 C   0  0  0  0  0  0           0  0  0
    2.9917   -7.2167    0.0000 C   0  0  0  0  0  0           0  0  0
    3.6667   -1.0750    0.0000 O   0  0  0  0  0  0           0  0  0
    3.7875   -5.1292    0.0000 O   0  0  0  0  0  0           0  0  0
    4.0125    0.2833    0.0000 C   0  0  0  0  0  0           0  0  0
    2.6917    2.0333    0.0000 F   0  0  0  0  0  0           0  0  0
    1.5917    0.8000    0.0000 F   0  0  0  0  0  0           0  0  0
    4.3667   -4.1167    0.0000 O   0  0  0  0  0  0           0  0  0
    0.9917   -3.3125    0.0000 C   0  0  0  0  0  0           0  0  0
    4.3125    1.6833    0.0000 F   0  0  0  0  0  0           0  0  0
    0.9917   -1.6542    0.0000 C   0  0  0  0  0  0           0  0  0
    1.9917   -4.7917    0.0000 C   0  0  0  0  0  0           0  0  0
    0.9792   -3.7667    0.0000 C   0  0  0  0  0  0           0  0  0
    1.6167   -7.5917    0.0000 C   0  0  0  0  0  0           0  0  0
    4.3750   -6.8417    0.0000 C   0  0  0  0  0  0           0  0  0
    0.2792   -2.9000    0.0000 C   0  0  0  0  0  0           0  0  0
    0.2792   -2.0750    0.0000 C   0  0  0  0  0  0           0  0  0
    0.3917   -4.3417    0.0000 C   0  0  0  0  0  0           0  0  0
    1.3917   -5.3667    0.0000 C   0  0  0  0  0  0           0  0  0
    0.6000   -5.1417    0.0000 C   0  0  0  0  0  0           0  0  0
  2  5  1  0     0  0
  3  1  1  0     0  0
  4  1  1  0     0  0
  5  4  1  0     0  0
  6 14  1  0     0  0
  7  1  1  0     0  0
  8  2  1  0     0  0
  9  8  1  0     0  0
 10 17  1  0     0  0
 11 12  2  0     0  0
 12  9  1  0     0  0
 13  3  1  0     0  0
  3 14  1  1     0  0
 15  6  1  0     0  0
 16  6  2  0     0  0
 17  7  1  0     0  0
 18 26  2  0     0  0
  1 19  1  1     0  0
 20 15  2  0     0  0
 21 16  1  0     0  0
 22  9  2  0     0  0
 23 21  2  0     0  0
 24 10  2  0     0  0
 25 13  2  0     0  0
 26 22  1  0     0  0
 27 11  1  0     0  0
 28 12  1  0     0  0
 29 13  1  0     0  0
 30  4  2  0     0  0
 31 18  1  0     0  0
 32  5  2  0     0  0
 33 19  1  0     0  0
 34 19  2  0     0  0
 35 21  1  0     0  0
 36 20  1  0     0  0
 37 30  1  0     0  0
 38 37  2  0     0  0
 39 34  1  0     0  0
 40 33  2  0     0  0
 41 39  2  0     0  0
  2 10  1  0     0  0
 40 41  1  0     0  0
 32 38  1  0     0  0
 20 23  1  0     0  0
 11 18  1  0     0  0
M  END