
          11280715342D 1   1.00000     0.00000     0

 31 34  0     0  0            999 V2000
    1.3667   -3.9875    0.0000 N   0  0  3  0  0  0           0  0  0
    1.2375   -3.2542    0.0000 C   0  0  0  0  0  0           0  0  0
   -0.1583   -2.9500    0.0000 O   0  0  0  0  0  0           0  0  0
    0.7667   -4.5500    0.0000 C   0  0  0  0  0  0           0  0  0
    0.6250   -2.7000    0.0000 C   0  0  0  0  0  0           0  0  0
    1.7875   -4.7000    0.0000 C   0  0  0  0  0  0           0  0  0
   -0.0458   -4.4292    0.0000 C   0  0  0  0  0  0           0  0  0
   -0.4583   -3.7167    0.0000 C   0  0  0  0  0  0           0  0  0
    2.0250   -3.0125    0.0000 C   0  0  0  0  0  0           0  0  0
    2.6125   -6.1250    0.0000 C   0  0  0  0  0  0           0  0  0
   -0.7000   -7.5500    0.0000 C   0  0  0  0  0  0           0  0  0
   -1.1125   -6.8375    0.0000 O   0  0  0  0  0  0           0  0  0
    3.0250   -5.4042    0.0000 N   0  0  0  0  0  0           0  0  0
    2.6125   -4.6917    0.0000 C   0  0  0  0  0  0           0  0  0
    1.3750   -5.4167    0.0000 O   0  0  0  0  0  0           0  0  0
   -1.2583   -8.1667    0.0000 C   0  0  0  0  0  0           0  0  0
    1.7792   -6.1250    0.0000 C   0  0  0  0  0  0           0  0  0
   -1.9208   -7.0125    0.0000 C   0  0  0  0  0  0           0  0  0
    0.8042   -1.8917    0.0000 C   0  0  0  0  0  0           0  0  0
   -2.0000   -7.8292    0.0000 C   0  0  0  0  0  0           0  0  0
    3.0250   -6.8375    0.0000 O   0  0  0  0  0  0           0  0  0
    2.2042   -2.2000    0.0000 C   0  0  0  0  0  0           0  0  0
    1.5917   -1.6417    0.0000 C   0  0  0  0  0  0           0  0  0
    0.5417   -6.8375    0.0000 S   0  0  0  0  0  0           0  0  0
    3.0042   -1.9417    0.0000 Cl  0  0  0  0  0  0           0  0  0
    0.1292   -7.5500    0.0000 C   0  0  0  0  0  0           0  0  0
   -0.4583   -5.1500    0.0000 C   0  0  0  0  0  0           0  0  0
    1.3667   -6.8375    0.0000 C   0  0  0  0  0  0           0  0  0
   -1.2833   -3.7167    0.0000 C   0  0  0  0  0  0           0  0  0
   -1.2875   -5.1500    0.0000 C   0  0  0  0  0  0           0  0  0
   -1.7000   -4.4292    0.0000 C   0  0  0  0  0  0           0  0  0
  2  1  1  0     0  0
  3  5  1  0     0  0
  4  1  1  0     0  0
  5  2  1  0     0  0
  6  1  1  0     0  0
  7  4  1  0     0  0
  8  7  2  0     0  0
  9  2  2  0     0  0
 10 13  1  0     0  0
 11 26  1  0     0  0
 12 11  1  0     0  0
 13 14  1  0     0  0
 14  6  1  0     0  0
 15  6  2  0     0  0
 16 11  2  0     0  0
 17 10  1  0     0  0
 18 12  1  0     0  0
 19  5  2  0     0  0
 20 16  1  0     0  0
 21 10  2  0     0  0
 22  9  1  0     0  0
 23 22  2  0     0  0
 24 28  1  0     0  0
 25 22  1  0     0  0
 26 24  1  0     0  0
 27  7  1  0     0  0
 28 17  1  0     0  0
 29  8  1  0     0  0
 30 27  2  0     0  0
 31 30  1  0     0  0
  8  3  1  0     0  0
 23 19  1  0     0  0
 29 31  2  0     0  0
 20 18  2  0     0  0
M  END