
  CDK    9/16/09,10:2

 36 40  0  0  0  0  0  0  0  0999 V2000
    3.5478   -3.4867    0.0000 N   0  0  0  0  0  0  0  0  0  0  0  0
    3.5467   -4.3148    0.0000 C   0  0  0  0  0  0  0  0  0  0  0  0
    4.2622   -4.7281    0.0000 N   0  0  0  0  0  0  0  0  0  0  0  0
    4.2604   -3.0735    0.0000 C   0  0  0  0  0  0  0  0  0  0  0  0
    4.9765   -3.4830    0.0000 C   0  0  0  0  0  0  0  0  0  0  0  0
    4.9767   -4.3103    0.0000 C   0  0  0  0  0  0  0  0  0  0  0  0
    5.7636   -4.5656    0.0000 N   0  0  0  0  0  0  0  0  0  0  0  0
    6.2498   -3.8962    0.0000 C   0  0  0  0  0  0  0  0  0  0  0  0
    5.7632   -3.2272    0.0000 N   0  0  0  0  0  0  0  0  0  0  0  0
    4.2579   -2.2477    0.0000 N   0  0  0  0  0  0  0  0  0  0  0  0
    6.0190   -5.3510    0.0000 C   0  0  0  0  0  0  0  0  0  0  0  0
    5.5343   -6.0185    0.0000 C   0  0  0  0  0  0  0  0  0  0  0  0
    6.0198   -6.6865    0.0000 C   0  0  0  0  0  0  0  0  0  0  0  0
    6.8052   -6.4311    0.0000 C   0  0  0  0  0  0  0  0  0  0  0  0
    6.8049   -5.6053    0.0000 O   0  0  0  0  0  0  0  0  0  0  0  0
    7.4734   -6.9162    0.0000 C   0  0  0  0  0  0  0  0  0  0  0  0
    5.7649   -7.4719    0.0000 O   0  0  0  0  0  0  0  0  0  0  0  0
    4.7085   -6.0188    0.0000 O   0  0  0  0  0  0  0  0  0  0  0  0
    7.3875   -7.7376    0.0000 O   0  0  0  0  0  0  0  0  0  0  0  0
    7.0756   -3.8959    0.0000 N   0  0  0  0  0  0  0  0  0  0  0  0
    7.4887   -4.6110    0.0000 C   0  0  0  0  0  0  0  0  0  0  0  0
    8.3145   -4.6107    0.0000 C   0  0  0  0  0  0  0  0  0  0  0  0
    8.7229   -5.3274    0.0000 C   0  0  0  0  0  0  0  0  0  0  0  0
    9.5479   -5.3274    0.0000 C   0  0  0  0  0  0  0  0  0  0  0  0
    9.9614   -4.6115    0.0000 C   0  0  0  0  0  0  0  0  0  0  0  0
    9.5438   -3.8942    0.0000 C   0  0  0  0  0  0  0  0  0  0  0  0
    8.7201   -3.8976    0.0000 C   0  0  0  0  0  0  0  0  0  0  0  0
    9.9539   -3.1774    0.0000 Cl  0  0  0  0  0  0  0  0  0  0  0  0
   10.7872   -4.6102    0.0000 Cl  0  0  0  0  0  0  0  0  0  0  0  0
    8.0557   -8.2227    0.0000 C   0  0  0  0  0  0  0  0  0  0  0  0
    8.8031   -7.8840    0.0000 C   0  0  0  0  0  0  0  0  0  0  0  0
    9.4689   -8.3631    0.0000 C   0  0  0  0  0  0  0  0  0  0  0  0
   10.2158   -8.0251    0.0000 C   0  0  0  0  0  0  0  0  0  0  0  0
   10.2968   -7.2077    0.0000 C   0  0  0  0  0  0  0  0  0  0  0  0
    9.6248   -6.7293    0.0000 C   0  0  0  0  0  0  0  0  0  0  0  0
    8.8806   -7.0700    0.0000 C   0  0  0  0  0  0  0  0  0  0  0  0
  8  9  2  0  0  0  0 
 16 19  1  0  0  0  0 
  9  5  1  0  0  0  0 
  8 20  1  0  0  0  0 
  4  1  1  0  0  0  0 
 20 21  1  0  0  0  0 
  4 10  1  0  0  0  0 
 21 22  1  0  0  0  0 
  5  6  1  0  0  0  0 
 22 23  2  0  0  0  0 
 11  7  1  6  0  0  0 
 23 24  1  0  0  0  0 
 11 12  1  0  0  0  0 
 24 25  2  0  0  0  0 
 25 26  1  0  0  0  0 
  2  3  1  0  0  0  0 
 26 27  2  0  0  0  0 
 27 22  1  0  0  0  0 
  3  6  2  0  0  0  0 
 26 28  1  0  0  0  0 
  1  2  2  0  0  0  0 
 25 29  1  0  0  0  0 
 12 13  1  0  0  0  0 
 19 30  1  0  0  0  0 
 13 14  1  0  0  0  0 
 14 15  1  0  0  0  0 
 15 11  1  0  0  0  0 
  5  4  2  0  0  0  0 
 14 16  1  6  0  0  0 
 31 30  1  0  0  0  0 
 31 32  2  0  0  0  0 
  6  7  1  0  0  0  0 
 32 33  1  0  0  0  0 
 13 17  1  1  0  0  0 
 33 34  2  0  0  0  0 
  7  8  1  0  0  0  0 
 34 35  1  0  0  0  0 
 12 18  1  1  0  0  0 
 35 36  2  0  0  0  0 
 36 31  1  0  0  0  0 
M  END