
  SciTegic04091415222D

 31 34  0  0  0  0            999 V2000
    0.9396  -16.5378    0.0000 C   0  0
    2.3533  -16.5342    0.0000 C   0  0
    1.6447  -16.1289    0.0000 C   0  0
    2.3562  -17.3568    0.0000 C   0  0
    2.3523  -18.9919    0.0000 C   0  0
    3.0635  -18.5797    0.0000 C   0  0
    3.0616  -17.7639    0.0000 C   0  0
    1.6457  -17.7641    0.0000 C   0  0
    0.9384  -17.3573    0.0000 C   0  0
    0.2346  -17.7663    0.0000 C   0  0
    0.2368  -18.5819    0.0000 O   0  0
    0.9487  -18.9869    0.0000 C   0  0
    1.6496  -18.5755    0.0000 C   0  0
    3.0565  -16.1242    0.0000 C   0  0
    3.7660  -16.5318    0.0000 N   0  0
    4.4717  -16.1213    0.0000 C   0  0
    4.4690  -15.3032    0.0000 N   0  0
    3.7548  -14.8975    0.0000 C   0  0
    3.0521  -15.3104    0.0000 N   0  0
    1.6423  -15.3117    0.0000 Cl  0  0
    3.7489  -14.0803    0.0000 N   0  0
    5.1807  -16.5275    0.0000 S   0  0
    5.8871  -16.1166    0.0000 C   0  0
    6.5961  -16.5229    0.0000 C   0  0  1  0  0  0
    7.3025  -16.1120    0.0000 C   0  0
    8.0115  -16.5182    0.0000 N   0  0
    7.2998  -15.2948    0.0000 O   0  0
    6.5988  -17.3401    0.0000 N   0  0
    7.3079  -17.7463    0.0000 C   0  0
    7.3105  -18.5635    0.0000 C   0  0
    8.0142  -17.3354    0.0000 O   0  0
  1  9  2  0
  4  2  1  0
  2  3  2  0
  3  1  1  0
  4  8  1  0
 13  5  1  0
  5  6  2  0
  6  7  1  0
  7  4  2  0
  8  9  1  0
  9 10  1  0
 10 11  1  0
 11 12  1  0
 12 13  1  0
 13  8  2  0
 14 15  2  0
 15 16  1  0
 16 17  2  0
 17 18  1  0
 18 19  2  0
 19 14  1  0
  2 14  1  0
  3 20  1  0
 18 21  1  0
 16 22  1  0
 22 23  1  0
 23 24  1  0
 24 25  1  0
 25 26  1  0
 25 27  2  0
 24 28  1  1
 28 29  1  0
 29 30  1  0
 29 31  2  0
M  END