
  SciTegic12211613262D

 26 28  0  0  0  0            999 V2000
   -1.2964   -1.4973    0.0000 C   0  0
   -1.2964    1.4973    0.0000 C   0  0
   -2.6111    0.7486    0.0000 C   0  0
   -2.6111   -0.7486    0.0000 N   0  0
   -1.2928   -2.6973    0.0000 O   0  0
   -3.6486   -1.3517    0.0000 C   0  0
   -1.2919    2.9980    0.0000 C   0  0
   -2.5891    3.7515    0.0000 C   0  0
   -2.5853    5.2515    0.0000 C   0  0
   -1.2844    5.9982    0.0000 C   0  0
    0.0127    5.2449    0.0000 C   0  0
    0.0089    3.7449    0.0000 C   0  0
    1.3159    5.9894    0.0000 O   0  0
    2.3528    5.3853    0.0000 C   0  0
   -3.8924    3.0072    0.0000 O   0  0
   -4.9292    3.6114    0.0000 C   0  0
   -1.2837    7.4991    0.0000 C   0  0
   -2.5826    8.2509    0.0000 N   0  0
   -2.5820    9.4509    0.0000 C   0  0
   -3.6223    7.6518    0.0000 C   0  0
    0.0000   -0.7486    0.0000 C   0  0
    0.0000    0.7486    0.0000 C   0  0
    1.2964    1.4973    0.0000 C   0  0
    2.5929    0.7486    0.0000 C   0  0
    2.5929   -0.7486    0.0000 N   0  0
    1.2964   -1.4973    0.0000 C   0  0
  1 21  1  0
 22  2  1  0
  2  3  2  0
  3  4  1  0
  1  4  1  0
  1  5  2  0
  4  6  1  0
  7  8  1  0
  8  9  2  0
  9 10  1  0
 10 11  2  0
 11 12  1  0
  7 12  2  0
 13 14  1  0
 11 13  1  0
 15 16  1  0
  8 15  1  0
 18 19  1  0
 18 20  1  0
 17 18  1  0
 10 17  1  0
  2  7  1  0
 21 22  2  0
 22 23  1  0
 23 24  2  0
 24 25  1  0
 25 26  2  0
 26 21  1  0
M  END