
          11280715492D 1   1.00000     0.00000     0

 26 29  0     0  0            999 V2000
   -4.5556   -6.8833    0.0000 N   0  0  0  0  0  0           0  0  0
   -4.5568   -7.7107    0.0000 C   0  0  0  0  0  0           0  0  0
   -3.8419   -8.1235    0.0000 C   0  0  0  0  0  0           0  0  0
   -3.1255   -7.7102    0.0000 C   0  0  0  0  0  0           0  0  0
   -3.1284   -6.8797    0.0000 C   0  0  0  0  0  0           0  0  0
   -3.8437   -6.4705    0.0000 C   0  0  0  0  0  0           0  0  0
   -2.4104   -8.1216    0.0000 C   0  0  0  0  0  0           0  0  0
   -1.5189   -9.1174    0.0000 N   0  0  0  0  0  0           0  0  0
   -1.1073   -8.4059    0.0000 C   0  0  0  0  0  0           0  0  0
   -1.6680   -7.7834    0.0000 N   0  0  0  0  0  0           0  0  0
   -2.3260   -8.9390    0.0000 C   0  0  0  0  0  0           0  0  0
   -2.9417   -9.4871    0.0000 C   0  0  0  0  0  0           0  0  0
   -3.6631   -9.0846    0.0000 C   0  0  0  0  0  0           0  0  0
   -4.3703   -9.5080    0.0000 C   0  0  0  0  0  0           0  0  0
   -4.3572  -10.3338    0.0000 C   0  0  0  0  0  0           0  0  0
   -3.6310  -10.7343    0.0000 C   0  0  0  0  0  0           0  0  0
   -2.9269  -10.3086    0.0000 C   0  0  0  0  0  0           0  0  0
   -3.6146  -11.5592    0.0000 Cl  0  0  0  0  0  0           0  0  0
   -0.2825   -8.3863    0.0000 C   0  0  0  0  0  0           0  0  0
    0.1427   -9.0909    0.0000 C   0  0  0  0  0  0           0  0  0
    0.9667   -9.0716    0.0000 C   0  0  0  0  0  0           0  0  0
    1.3629   -8.3470    0.0000 C   0  0  0  0  0  0           0  0  0
    0.9291   -7.6403    0.0000 C   0  0  0  0  0  0           0  0  0
    0.1065   -7.6630    0.0000 C   0  0  0  0  0  0           0  0  0
   -5.0642  -10.7589    0.0000 C   0  0  0  0  0  0           0  0  0
   -5.7859  -10.3591    0.0000 O   0  0  0  0  0  0           0  0  0
 12 13  2  0     0  0
  1  2  2  0     0  0
 13 14  1  0     0  0
  4  7  1  0     0  0
 14 15  2  0     0  0
  3  4  2  0     0  0
 15 16  1  0     0  0
 16 17  2  0     0  0
 17 12  1  0     0  0
 11 12  1  0     0  0
  4  5  1  0     0  0
 16 18  1  0     0  0
  2  3  1  0     0  0
  9 19  1  0     0  0
  8  9  1  0     0  0
 19 20  2  0     0  0
  9 10  2  0     0  0
 20 21  1  0     0  0
 10  7  1  0     0  0
 21 22  2  0     0  0
  7 11  2  0     0  0
 22 23  1  0     0  0
 11  8  1  0     0  0
 23 24  2  0     0  0
 24 19  1  0     0  0
  5  6  2  0     0  0
 15 25  1  0     0  0
  6  1  1  0     0  0
 25 26  1  0     0  0
M  END