
  SciTegic12231509382D

 14 14  0  0  0  0            999 V2000
   -0.6333   -3.3500    0.0000 C   0  0
   -1.2500   -3.0042    0.0000 C   0  0
    0.5917   -3.3292    0.0000 N   0  0
    1.2125   -3.6667    0.0000 C   0  0  1  0  0  0
    1.8125   -3.3042    0.0000 C   0  0
   -0.0125   -3.6917    0.0000 C   0  0
    2.4292   -3.6542    0.0000 C   0  0
    0.5917   -2.6250    0.0000 C   0  0
    1.2125   -4.3792    0.0000 C   0  0
    3.0417   -3.3042    0.0000 C   0  0
    2.4250   -4.3667    0.0000 C   0  0
    3.0542   -4.7042    0.0000 C   0  0
    3.6542   -3.6292    0.0000 C   0  0
    3.6750   -4.3417    0.0000 C   0  0
  2  1  3  0
  3  6  1  0
  4  3  1  0
  5  4  1  0
  6  1  1  0
  7  5  1  0
  8  3  1  0
  4  9  1  1
 10  7  1  0
 11  7  2  0
 12 11  1  0
 13 10  2  0
 14 13  1  0
 14 12  2  0
M  END