
          11280714442D 1   1.00000     0.00000     0

 60 65  0     1  0            999 V2000
    8.8125   -3.1167    0.0000 N   0  0  3  0  0  0           0  0  0
    9.4875   -1.9875    0.0000 C   0  0  0  0  0  0           0  0  0
    8.2875   -2.4875    0.0000 C   0  0  0  0  0  0           0  0  0
    9.5750   -2.8125    0.0000 C   0  0  0  0  0  0           0  0  0
    9.2250   -4.5042    0.0000 C   0  0  0  0  0  0           0  0  0
    8.7000   -1.7875    0.0000 C   0  0  0  0  0  0           0  0  0
    8.6375   -3.9250    0.0000 C   0  0  0  0  0  0           0  0  0
    2.6500   -1.7417    0.0000 N   0  0  0  0  0  0           0  0  0
    3.3750   -2.1542    0.0000 C   0  0  0  0  0  0           0  0  0
    5.5375   -1.7375    0.0000 C   0  0  0  0  0  0           0  0  0
    1.9250   -2.1542    0.0000 C   0  0  2  0  0  0           0  0  0
    1.1875   -1.7417    0.0000 C   0  0  0  0  0  0           0  0  0
    4.8000   -2.1542    0.0000 N   0  0  0  0  0  0           0  0  0
    4.0750   -1.7417    0.0000 C   0  0  1  0  0  0           0  0  0
   10.1125   -1.4500    0.0000 C   0  0  0  0  0  0           0  0  0
    7.4625   -2.4625    0.0000 C   0  0  0  0  0  0           0  0  0
    0.8292   -5.3875    0.0000 C   0  0  0  0  0  0           0  0  0
   10.8875   -1.7417    0.0000 N   0  0  3  0  0  0           0  0  0
    6.2625   -2.1500    0.0000 N   0  0  0  0  0  0           0  0  0
    0.4625   -2.1750    0.0000 N   0  0  0  0  0  0           0  0  0
    8.2917   -1.0542    0.0000 C   0  0  0  0  0  0           0  0  0
    4.5167    1.2500    0.0000 C   0  0  0  0  0  0           0  0  0
    9.0375   -5.3000    0.0000 C   0  0  0  0  0  0           0  0  0
   10.0125   -4.2792    0.0000 C   0  0  0  0  0  0           0  0  0
    7.0625   -1.7250    0.0000 C   0  0  0  0  0  0           0  0  0
    5.3500    1.2250    0.0000 C   0  0  0  0  0  0           0  0  0
    4.0750   -0.9167    0.0000 C   0  0  0  0  0  0           0  0  0
    5.5250   -0.9000    0.0000 O   0  0  0  0  0  0           0  0  0
    3.3750   -2.9792    0.0000 O   0  0  0  0  0  0           0  0  0
    4.0750    0.5375    0.0000 C   0  0  0  0  0  0           0  0  0
    4.4875   -0.2000    0.0000 C   0  0  0  0  0  0           0  0  0
    1.1875   -0.9167    0.0000 O   0  0  0  0  0  0           0  0  0
    1.6042   -5.7250    0.0000 O   0  0  0  0  0  0           0  0  0
    0.7292   -4.5625    0.0000 C   0  0  3  0  0  0           0  0  0
    1.9250   -3.0000    0.0000 N   0  0  0  0  0  0           0  0  0
    5.7500    0.4958    0.0000 C   0  0  0  0  0  0           0  0  0
    7.4750   -1.0250    0.0000 C   0  0  0  0  0  0           0  0  0
   -0.2500   -1.7625    0.0000 C   0  0  0  0  0  0           0  0  0
    4.1292    1.9750    0.0000 F   0  0  0  0  0  0           0  0  0
    0.1625   -5.8917    0.0000 O   0  0  0  0  0  0           0  0  0
    5.3125   -0.2167    0.0000 C   0  0  0  0  0  0           0  0  0
    8.3375   -5.7125    0.0000 Cl  0  0  0  0  0  0           0  0  0
   10.2000   -3.4750    0.0000 Cl  0  0  0  0  0  0           0  0  0
    5.7875    1.9250    0.0000 F   0  0  0  0  0  0           0  0  0
   -0.0375   -4.2375    0.0000 N   0  0  0  0  0  0           0  0  0
    1.4042   -4.0625    0.0000 C   0  0  0  0  0  0           0  0  0
    1.3000   -3.2375    0.0000 C   0  0  0  0  0  0           0  0  0
   -0.9750   -2.1875    0.0000 C   0  0  0  0  0  0           0  0  0
   11.4500   -1.2875    0.0000 C   0  0  0  0  0  0           0  0  0
   11.0000   -2.5500    0.0000 C   0  0  0  0  0  0           0  0  0
   10.4250   -5.6542    0.0000 C   0  0  0  0  0  0           0  0  0
    9.6250   -5.8875    0.0000 C   0  0  0  0  0  0           0  0  0
   10.6000   -4.8500    0.0000 C   0  0  0  0  0  0           0  0  0
   -0.9625   -3.0125    0.0000 C   0  0  0  0  0  0           0  0  0
   -1.7000   -1.7750    0.0000 C   0  0  0  0  0  0           0  0  0
   11.8250   -2.5792    0.0000 C   0  0  0  0  0  0           0  0  0
   12.1000   -1.8042    0.0000 C   0  0  0  0  0  0           0  0  0
   -1.6875   -3.4375    0.0000 C   0  0  0  0  0  0           0  0  0
   -2.4125   -2.1875    0.0000 C   0  0  0  0  0  0           0  0  0
   -2.4250   -3.0125    0.0000 C   0  0  0  0  0  0           0  0  0
  2  4  2  0     0  0
  3  1  1  0     0  0
  4  1  1  0     0  0
  5  7  1  0     0  0
  6  3  2  0     0  0
  7  1  1  0     0  0
  8  9  1  0     0  0
  9 14  1  0     0  0
 10 19  1  0     0  0
 11  8  1  0     0  0
 12 11  1  0     0  0
 13 10  1  0     0  0
 14 13  1  0     0  0
 15  2  1  0     0  0
 16  3  1  0     0  0
 17 34  1  0     0  0
 18 15  1  0     0  0
 19 25  1  0     0  0
 20 12  1  0     0  0
 21  6  1  0     0  0
 22 30  1  0     0  0
 23  5  1  0     0  0
 24  5  2  0     0  0
 25 16  2  0     0  0
 26 36  1  0     0  0
 14 27  1  6     0  0
 28 10  2  0     0  0
 29  9  2  0     0  0
 30 31  2  0     0  0
 31 27  1  0     0  0
 32 12  2  0     0  0
 33 17  2  0     0  0
 34 46  1  0     0  0
 11 35  1  1     0  0
 36 41  2  0     0  0
 37 25  1  0     0  0
 38 20  1  0     0  0
 39 22  1  0     0  0
 40 17  1  0     0  0
 41 31  1  0     0  0
 42 23  1  0     0  0
 43 24  1  0     0  0
 44 26  1  0     0  0
 45 34  1  0     0  0
 46 47  1  0     0  0
 47 35  1  0     0  0
 48 38  1  0     0  0
 49 18  1  0     0  0
 50 18  1  0     0  0
 51 53  2  0     0  0
 52 23  2  0     0  0
 53 24  1  0     0  0
 54 48  2  0     0  0
 55 48  1  0     0  0
 56 50  1  0     0  0
 57 49  1  0     0  0
 58 54  1  0     0  0
 59 55  2  0     0  0
 60 59  1  0     0  0
  6  2  1  0     0  0
 52 51  1  0     0  0
 37 21  2  0     0  0
 57 56  1  0     0  0
 22 26  2  0     0  0
 60 58  2  0     0  0
M  END