
  SciTegic01161211242D

 44 45  0  0  0  0            999 V2000
   18.8556  -12.9450    0.0000 Na  0  3
   14.2193  -13.6710    0.0000 C   0  0  1  0  0  0
   14.2193  -14.4993    0.0000 C   0  0  2  0  0  0
   14.9308  -14.9092    0.0000 C   0  0  2  0  0  0
   15.6463  -14.4993    0.0000 C   0  0
   15.6463  -13.6710    0.0000 C   0  0  2  0  0  0
   14.9308  -13.2526    0.0000 O   0  0
   16.3578  -14.0872    0.0000 O   0  0
   16.0514  -12.9567    0.0000 C   0  0
   16.8797  -12.9453    0.0000 O   0  0
   15.6337  -12.2431    0.0000 O   0  5
   13.5024  -13.2621    0.0000 C   0  0  2  0  0  0
   12.7850  -13.6773    0.0000 C   0  0  2  0  0  0
   11.3577  -14.5126    0.0000 C   0  0
   10.6403  -14.9278    0.0000 C   0  0
   11.3541  -13.6843    0.0000 O   0  0
    9.9284  -14.5133    0.0000 C   0  0
    9.2117  -14.9275    0.0000 C   0  0
    9.2147  -15.7571    0.0000 C   0  0
    9.9392  -16.1658    0.0000 C   0  0
   10.6473  -15.7479    0.0000 C   0  0
   12.7849  -14.5024    0.0000 C   0  0
   13.5061  -15.7359    0.0000 C   0  0
   12.7919  -16.1496    0.0000 O   0  0
   14.2264  -16.1464    0.0000 C   0  0
   14.1980  -12.8471    0.0000 H   0  0
   16.3531  -14.9113    0.0000 C   0  0
   17.0644  -15.3275    0.0000 C   0  0
   17.0551  -16.1504    0.0000 C   0  0
   17.7656  -16.5665    0.0000 C   0  0
   18.4827  -16.1585    0.0000 C   0  0
   18.4848  -15.3301    0.0000 C   0  0
   17.7737  -14.9177    0.0000 C   0  0
    8.5038  -16.1741    0.0000 Cl  0  0
   19.1947  -16.5738    0.0000 F   0  0
   17.7744  -14.0935    0.0000 F   0  0
   19.1995  -14.9196    0.0000 F   0  0
   16.3378  -16.5563    0.0000 F   0  0
   17.7604  -17.3906    0.0000 F   0  0
   13.5021  -12.4318    0.0000 O   0  0
   12.0703  -13.2629    0.0000 O   0  0
   12.0743  -14.9215    0.0000 N   0  0
   14.9341  -15.7314    0.0000 O   0  0
   13.5043  -14.9109    0.0000 N   0  0
 14 15  1  0
 14 16  2  0
 15 17  2  0
 17 18  1  0
 18 19  2  0
 19 20  1  0
 20 21  2  0
 21 15  1  0
 23 24  2  0
 23 25  1  0
  2 26  1  1
  8 27  1  0
 27 28  1  0
  2  3  1  0
 28 29  2  0
  2  7  1  0
 29 30  1  0
  3  4  1  0
 30 31  2  0
  4  5  1  0
 31 32  1  0
  5  6  1  0
 32 33  2  0
 33 28  1  0
  6  7  1  0
 19 34  1  0
  6  8  1  0
 31 35  1  0
  6  9  1  1
 33 36  1  0
  9 10  2  0
 32 37  1  0
  9 11  1  0
 29 38  1  0
  2 12  1  0
 30 39  1  0
 12 13  1  0
 13 22  1  0
 13 41  1  1
 42 14  1  0
 22 42  1  0
 12 40  1  6
  4 43  1  6
  3 44  1  1
 44 23  1  0
M  CHG  2   1   1  11  -1
M  END