
  SciTegic12171313052D

 32 37  0  0  0  0            999 V2000
   14.3464   -9.4405    0.0000 C   0  0
   14.3464  -10.2665    0.0000 N   0  0
   15.0593  -10.6754    0.0000 C   0  0
   15.7722  -10.2665    0.0000 C   0  0
   15.7722   -9.4405    0.0000 C   0  0
   15.0593   -9.0234    0.0000 C   0  0
   15.7732   -8.6145    0.0000 C   0  0
   16.4860   -9.8494    0.0000 N   0  0
   17.1989   -9.4405    0.0000 C   0  0
   17.1989   -8.6145    0.0000 C   0  0
   16.4860   -8.1974    0.0000 C   0  0
   17.9136   -9.8545    0.0000 O   0  0
   13.6317  -10.6805    0.0000 C   0  0
   12.9165  -10.2673    0.0000 N   0  0
   12.9239  -11.9193    0.0000 N   0  0
   13.6352  -11.5037    0.0000 C   0  0
   12.2030  -11.5075    0.0000 C   0  0
   12.2006  -10.6837    0.0000 C   0  0
   11.4871  -10.2756    0.0000 C   0  0
   10.7754  -10.6901    0.0000 C   0  0
   10.7818  -11.5172    0.0000 C   0  0
   11.4958  -11.9216    0.0000 C   0  0
   16.4863  -10.6754    0.0000 C   0  0
   17.2017  -11.0882    0.0000 C   0  0
   18.6281  -11.9107    0.0000 C   0  0
   18.6252  -11.0804    0.0000 C   0  0
   17.9101  -10.6714    0.0000 C   0  0
   17.9119  -12.3239    0.0000 C   0  0
   17.1983  -11.9132    0.0000 C   0  0
   16.5871  -12.4649    0.0000 C   0  0
   16.9230  -13.2168    0.0000 C   0  0
   17.7417  -13.1295    0.0000 N   0  0
  1  2  1  0
  1  6  1  0
  2  3  1  0
  3  4  1  0
  4  5  1  0
  5  6  1  0
  7  5  1  0
  7 11  1  0
  5  8  1  0
  8  9  1  0
  9 10  1  0
 10 11  1  0
  9 12  2  0
  2 13  1  0
 13 14  2  0
 14 18  1  0
 17 15  1  0
 15 16  2  0
 16 13  1  0
 17 18  1  0
 18 19  2  0
 19 20  1  0
 20 21  2  0
 21 22  1  0
 22 17  2  0
  8 23  1  0
 23 24  1  0
 24 29  2  0
 28 25  2  0
 25 26  1  0
 26 27  2  0
 27 24  1  0
 28 29  1  0
 29 30  1  0
 30 31  2  0
 31 32  1  0
 32 28  1  0
M  END