
  SciTegic12171313022D

 16 17  0  0  0  0            999 V2000
    5.7287   -2.5259    0.0000 O   0  0
    6.2808   -3.1390    0.0000 C   0  0
    5.8683   -3.8534    0.0000 N   0  0
    5.0613   -3.6819    0.0000 N   0  0
    4.9751   -2.8614    0.0000 C   0  0
    7.1012   -3.0527    0.0000 N   0  0
    4.2606   -2.4489    0.0000 C   0  0
    3.5461   -2.8614    0.0000 C   0  0
    2.8316   -2.4489    0.0000 C   0  0
    2.8316   -1.6239    0.0000 C   0  0
    3.5461   -1.2114    0.0000 C   0  0
    4.2606   -1.6239    0.0000 C   0  0
    2.1172   -2.8614    0.0000 C   0  0
    2.1172   -3.6643    0.0000 F   0  0
    1.4027   -3.2739    0.0000 F   0  0
    1.3216   -2.4711    0.0000 F   0  0
  1  2  1  0
  2  3  2  0
  3  4  1  0
  4  5  2  0
  1  5  1  0
  2  6  1  0
  7  8  1  0
  8  9  2  0
  9 10  1  0
 10 11  2  0
 11 12  1  0
  7 12  2  0
 13 14  1  0
 13 15  1  0
 13 16  1  0
  9 13  1  0
  5  7  1  0
M  END