
  CDK    9/16/09,9:59

 65 69  0  0  0  0  0  0  0  0999 V2000
   -0.2333  -13.4167    0.0000 C   0  0  0  0  0  0  0  0  0  0  0  0
   -0.2333  -14.2417    0.0000 C   0  0  0  0  0  0  0  0  0  0  0  0
    0.4787  -14.6500    0.0000 O   0  0  0  0  0  0  0  0  0  0  0  0
    1.1902  -14.2434    0.0000 C   0  0  0  0  0  0  0  0  0  0  0  0
    1.1907  -13.4167    0.0000 C   0  0  0  0  0  0  0  0  0  0  0  0
    0.4787  -13.0000    0.0000 C   0  0  0  0  0  0  0  0  0  0  0  0
    2.0123  -14.2735    0.0000 O   0  0  0  0  0  0  0  0  0  0  0  0
    1.5664  -14.9726    0.0000 C   0  0  0  0  0  0  0  0  0  0  0  0
    1.1256  -15.6631    0.0000 O   0  0  0  0  0  0  0  0  0  0  0  0
    2.3886  -15.0115    0.0000 O   0  0  0  0  0  0  0  0  0  0  0  0
   -0.9472  -14.6552    0.0000 C   0  0  0  0  0  0  0  0  0  0  0  0
   -1.6623  -14.2437    0.0000 C   0  0  0  0  0  0  0  0  0  0  0  0
   -0.9460  -15.4802    0.0000 O   0  0  0  0  0  0  0  0  0  0  0  0
   -2.3761  -14.6573    0.0000 O   0  0  0  0  0  0  0  0  0  0  0  0
   -1.6635  -13.4187    0.0000 C   0  0  0  0  0  0  0  0  0  0  0  0
   -2.3785  -13.0073    0.0000 N   0  0  0  0  0  0  0  0  0  0  0  0
   -0.9490  -13.0063    0.0000 N   0  0  0  0  0  0  0  0  0  0  0  0
   -0.9514  -12.1813    0.0000 C   0  0  0  0  0  0  0  0  0  0  0  0
   -1.6671  -11.7709    0.0000 C   0  0  0  0  0  0  0  0  0  0  0  0
   -0.2382  -11.7667    0.0000 O   0  0  0  0  0  0  0  0  0  0  0  0
   -0.2375  -15.0667    0.0000 H   0  0  0  0  0  0  0  0  0  0  0  0
    0.4787  -12.1750    0.0000 O   0  0  0  0  0  0  0  0  0  0  0  0
    2.4506  -13.5746    0.0000 C   0  0  0  0  0  0  0  0  0  0  0  0
    3.2764  -13.6074    0.0000 C   0  0  0  0  0  0  0  0  0  0  0  0
    3.7145  -12.9126    0.0000 C   0  0  0  0  0  0  0  0  0  0  0  0
    3.3320  -12.1813    0.0000 O   0  0  0  0  0  0  0  0  0  0  0  0
    2.5067  -12.1491    0.0000 C   0  0  0  0  0  0  0  0  0  0  0  0
    2.0638  -12.8483    0.0000 C   0  0  0  0  0  0  0  0  0  0  0  0
    2.8583  -14.2833    0.0000 H   0  0  0  0  0  0  0  0  0  0  0  0
    1.2394  -12.8172    0.0000 O   0  0  0  0  0  0  0  0  0  0  0  0
    2.1231  -11.4187    0.0000 C   0  0  0  0  0  0  0  0  0  0  0  0
    2.5638  -10.7213    0.0000 O   0  0  0  0  0  0  0  0  0  0  0  0
    3.6605  -14.3376    0.0000 O   0  0  0  0  0  0  0  0  0  0  0  0
    4.5388  -12.9459    0.0000 O   0  0  0  0  0  0  0  0  0  0  0  0
    4.9798  -12.2487    0.0000 C   0  0  0  0  0  0  0  0  0  0  0  0
    5.8065  -12.2848    0.0000 C   0  0  0  0  0  0  0  0  0  0  0  0
    6.2472  -11.5916    0.0000 C   0  0  0  0  0  0  0  0  0  0  0  0
    5.8675  -10.8588    0.0000 O   0  0  0  0  0  0  0  0  0  0  0  0
    5.0423  -10.8235    0.0000 C   0  0  0  0  0  0  0  0  0  0  0  0
    4.5968  -11.5210    0.0000 C   0  0  0  0  0  0  0  0  0  0  0  0
    3.7725  -11.4865    0.0000 O   0  0  0  0  0  0  0  0  0  0  0  0
    5.3875  -12.9583    0.0000 H   0  0  0  0  0  0  0  0  0  0  0  0
    4.6614  -10.0917    0.0000 C   0  0  0  0  0  0  0  0  0  0  0  0
    5.1048   -9.3959    0.0000 O   0  0  0  0  0  0  0  0  0  0  0  0
   -3.0924  -13.4208    0.0000 C   0  0  0  0  0  0  0  0  0  0  0  0
   -3.8075  -13.0094    0.0000 C   0  0  0  0  0  0  0  0  0  0  0  0
   -3.0912  -14.2458    0.0000 O   0  0  0  0  0  0  0  0  0  0  0  0
   -3.8050  -12.1843    0.0000 C   0  0  0  0  0  0  0  0  0  0  0  0
   -4.5193  -11.7729    0.0000 C   0  0  0  0  0  0  0  0  0  0  0  0
   -5.2341  -12.1865    0.0000 C   0  0  0  0  0  0  0  0  0  0  0  0
   -5.2303  -13.0158    0.0000 C   0  0  0  0  0  0  0  0  0  0  0  0
   -4.5155  -13.4234    0.0000 C   0  0  0  0  0  0  0  0  0  0  0  0
    5.9290   -9.4320    0.0000 C   0  0  0  0  0  0  0  0  0  0  0  0
    6.3067  -10.1635    0.0000 C   0  0  0  0  0  0  0  0  0  0  0  0
    7.1301  -10.1999    0.0000 C   0  0  0  0  0  0  0  0  0  0  0  0
    7.5743   -9.5036    0.0000 C   0  0  0  0  0  0  0  0  0  0  0  0
    7.1892   -8.7693    0.0000 C   0  0  0  0  0  0  0  0  0  0  0  0
    6.3670   -8.7364    0.0000 C   0  0  0  0  0  0  0  0  0  0  0  0
    8.3980   -9.5376    0.0000 C   0  0  0  0  0  0  0  0  0  0  0  0
    8.7792  -10.2706    0.0000 C   0  0  0  0  0  0  0  0  0  0  0  0
    9.6026  -10.3059    0.0000 C   0  0  0  0  0  0  0  0  0  0  0  0
   10.0459   -9.6090    0.0000 C   0  0  0  0  0  0  0  0  0  0  0  0
    9.6598   -8.8752    0.0000 C   0  0  0  0  0  0  0  0  0  0  0  0
    8.8375   -8.8434    0.0000 C   0  0  0  0  0  0  0  0  0  0  0  0
    1.5583  -16.4250    0.0000 Na  0  0  0  0  0  0  0  0  0  0  0  0
 12 15  1  0  0  0  0 
 31 32  1  0  0  0  0 
  4  7  1  1  0  0  0 
 24 33  1  6  0  0  0 
 15 16  1  0  0  0  0 
 25 34  1  1  0  0  0 
 34 35  1  0  0  0  0 
 35 36  1  0  0  0  0 
  1 17  1  6  0  0  0 
  4  8  1  0  0  0  0 
 17 18  1  0  0  0  0 
  1  2  1  0  0  0  0 
 18 19  1  0  0  0  0 
 35 40  1  0  0  0  0 
 36 37  1  0  0  0  0 
 37 38  1  0  0  0  0 
 38 39  1  0  0  0  0 
 39 40  1  0  0  0  0 
  1  6  1  0  0  0  0 
 40 41  1  1  0  0  0 
 18 20  2  0  0  0  0 
 35 42  1  6  0  0  0 
  8  9  1  0  0  0  0 
 39 43  1  1  0  0  0 
  2 21  1  6  0  0  0 
 43 44  1  0  0  0  0 
  8 10  2  0  0  0  0 
 16 45  1  0  0  0  0 
  6 22  1  1  0  0  0 
 45 46  1  0  0  0  0 
  2  3  1  0  0  0  0 
 45 47  2  0  0  0  0 
  7 23  1  0  0  0  0 
 46 48  2  0  0  0  0 
 23 24  1  0  0  0  0 
 48 49  1  0  0  0  0 
  2 11  1  0  0  0  0 
 49 50  2  0  0  0  0 
  3  4  1  0  0  0  0 
 50 51  1  0  0  0  0 
 11 12  1  0  0  0  0 
 51 52  2  0  0  0  0 
 52 46  1  0  0  0  0 
  4  5  1  0  0  0  0 
 44 53  1  0  0  0  0 
 11 13  1  1  0  0  0 
 53 54  2  0  0  0  0 
 23 28  1  0  0  0  0 
 54 55  1  0  0  0  0 
 24 25  1  0  0  0  0 
 55 56  2  0  0  0  0 
 25 26  1  0  0  0  0 
 56 57  1  0  0  0  0 
 26 27  1  0  0  0  0 
 57 58  2  0  0  0  0 
 58 53  1  0  0  0  0 
 27 28  1  0  0  0  0 
  5  6  1  0  0  0  0 
 59 60  2  0  0  0  0 
 23 29  1  6  0  0  0 
 60 61  1  0  0  0  0 
 12 14  1  6  0  0  0 
 61 62  2  0  0  0  0 
 28 30  1  1  0  0  0 
 62 63  1  0  0  0  0 
 63 64  2  0  0  0  0 
 64 59  1  0  0  0  0 
 56 59  1  0  0  0  0 
 27 31  1  1  0  0  0 
M  CHG  1   9  -1
M  CHG  1  65   1
M  END