
  CDK    9/16/09,9:41

 87 87  0  0  0  0  0  0  0  0999 V2000
   -3.8854   -6.5328    0.0000 N   0  0  0  0  0  0  0  0  0  0  0  0
   -3.1825   -6.9539    0.0000 C   0  0  0  0  0  0  0  0  0  0  0  0
   -2.4477   -5.7301    0.0000 O   0  0  0  0  0  0  0  0  0  0  0  0
   -2.4594   -6.5548    0.0000 C   0  0  0  0  0  0  0  0  0  0  0  0
   -3.1968   -7.7819    0.0000 C   0  0  0  0  0  0  0  0  0  0  0  0
   -2.4826   -8.2098    0.0000 C   0  0  0  0  0  0  0  0  0  0  0  0
   -2.4973   -9.0304    0.0000 C   0  0  0  0  0  0  0  0  0  0  0  0
   -1.7807   -9.4596    0.0000 C   0  0  0  0  0  0  0  0  0  0  0  0
   -1.7517   -6.9788    0.0000 N   0  0  0  0  0  0  0  0  0  0  0  0
   -1.0299   -6.5741    0.0000 C   0  0  0  0  0  0  0  0  0  0  0  0
   -0.3406   -7.8126    0.0000 O   0  0  0  0  0  0  0  0  0  0  0  0
   -0.3271   -6.9950    0.0000 C   0  0  0  0  0  0  0  0  0  0  0  0
   -1.0156   -5.7461    0.0000 C   0  0  0  0  0  0  0  0  0  0  0  0
    0.3997   -6.5920    0.0000 N   0  0  0  0  0  0  0  0  0  0  0  0
    1.1018   -7.0126    0.0000 C   0  0  0  0  0  0  0  0  0  0  0  0
    1.8426   -5.7759    0.0000 O   0  0  0  0  0  0  0  0  0  0  0  0
    1.8269   -6.6069    0.0000 C   0  0  0  0  0  0  0  0  0  0  0  0
    1.1170   -7.8318    0.0000 C   0  0  0  0  0  0  0  0  0  0  0  0
    0.3734   -8.2286    0.0000 C   0  0  0  0  0  0  0  0  0  0  0  0
    3.2553   -6.6413    0.0000 C   0  0  0  0  0  0  0  0  0  0  0  0
    3.9411   -7.8805    0.0000 O   0  0  0  0  0  0  0  0  0  0  0  0
    3.9572   -7.0617    0.0000 C   0  0  0  0  0  0  0  0  0  0  0  0
    5.3829   -7.0776    0.0000 C   0  0  0  0  0  0  0  0  0  0  0  0
    6.1219   -5.8440    0.0000 O   0  0  0  0  0  0  0  0  0  0  0  0
    6.1099   -6.6773    0.0000 C   0  0  0  0  0  0  0  0  0  0  0  0
    6.8081   -7.0957    0.0000 N   0  0  0  0  0  0  0  0  0  0  0  0
    7.5372   -6.6918    0.0000 C   0  0  0  0  0  0  0  0  0  0  0  0
    8.2251   -7.9274    0.0000 O   0  0  0  0  0  0  0  0  0  0  0  0
    8.2390   -7.1123    0.0000 C   0  0  0  0  0  0  0  0  0  0  0  0
    7.5493   -5.8585    0.0000 C   0  0  0  0  0  0  0  0  0  0  0  0
    6.8359   -5.4310    0.0000 C   0  0  0  0  0  0  0  0  0  0  0  0
    6.8519   -4.6124    0.0000 C   0  0  0  0  0  0  0  0  0  0  0  0
    6.1384   -4.1850    0.0000 C   0  0  0  0  0  0  0  0  0  0  0  0
    9.6666   -7.1336    0.0000 C   0  0  0  0  0  0  0  0  0  0  0  0
   10.4079   -5.8964    0.0000 O   0  0  0  0  0  0  0  0  0  0  0  0
    9.6564   -7.9508    0.0000 C   0  0  0  0  0  0  0  0  0  0  0  0
   10.3959   -6.7297    0.0000 C   0  0  0  0  0  0  0  0  0  0  0  0
   11.0976   -7.1502    0.0000 N   0  0  0  0  0  0  0  0  0  0  0  0
   11.8630   -6.8829    0.0000 C   0  0  0  0  0  0  0  0  0  0  0  0
   11.2146   -5.6337    0.0000 O   0  0  0  0  0  0  0  0  0  0  0  0
   11.9202   -6.0590    0.0000 C   0  0  0  0  0  0  0  0  0  0  0  0
   12.5435   -7.3559    0.0000 C   0  0  0  0  0  0  0  0  0  0  0  0
   11.2534   -8.0286    0.0000 C   0  0  0  0  0  0  0  0  0  0  0  0
   12.1432   -8.1619    0.0000 C   0  0  0  0  0  0  0  0  0  0  0  0
   10.5517   -1.9142    0.0000 C   0  0  0  0  0  0  0  0  0  0  0  0
   12.6522   -4.8269    0.0000 C   0  0  0  0  0  0  0  0  0  0  0  0
   14.0808   -4.8507    0.0000 O   0  0  0  0  0  0  0  0  0  0  0  0
   13.3733   -4.4291    0.0000 C   0  0  0  0  0  0  0  0  0  0  0  0
   11.9465   -4.4017    0.0000 C   0  0  0  0  0  0  0  0  0  0  0  0
   11.9618   -3.5786    0.0000 C   0  0  0  0  0  0  0  0  0  0  0  0
   11.2524   -3.1514    0.0000 C   0  0  0  0  0  0  0  0  0  0  0  0
   14.1161   -3.2170    0.0000 C   0  0  0  0  0  0  0  0  0  0  0  0
   13.4221   -1.9668    0.0000 O   0  0  0  0  0  0  0  0  0  0  0  0
   14.1333   -2.3903    0.0000 C   0  0  0  0  0  0  0  0  0  0  0  0
   14.8218   -3.6423    0.0000 C   0  0  0  0  0  0  0  0  0  0  0  0
   15.5447   -3.2407    0.0000 C   0  0  0  0  0  0  0  0  0  0  0  0
   16.2504   -3.6660    0.0000 C   0  0  0  0  0  0  0  0  0  0  0  0
   16.9715   -3.2681    0.0000 C   0  0  0  0  0  0  0  0  0  0  0  0
   14.8725   -1.1588    0.0000 C   0  0  0  0  0  0  0  0  0  0  0  0
   15.6108    0.0658    0.0000 O   0  0  0  0  0  0  0  0  0  0  0  0
   15.5954   -0.7572    0.0000 C   0  0  0  0  0  0  0  0  0  0  0  0
   14.1667   -0.7335    0.0000 C   0  0  0  0  0  0  0  0  0  0  0  0
   14.1821    0.0895    0.0000 C   0  0  0  0  0  0  0  0  0  0  0  0
   13.4727    0.5167    0.0000 C   0  0  0  0  0  0  0  0  0  0  0  0
   13.4900    1.3435    0.0000 O   0  0  0  0  0  0  0  0  0  0  0  0
   11.1506   -6.4568    0.0000 H   0  0  0  0  0  0  0  0  0  0  0  0
    6.8661   -2.9565    0.0000 C   0  0  0  0  0  0  0  0  0  0  0  0
    6.8765   -2.1317    0.0000 O   0  0  0  0  0  0  0  0  0  0  0  0
    7.5752   -3.3780    0.0000 C   0  0  0  0  0  0  0  0  0  0  0  0
    8.2948   -2.9745    0.0000 F   0  0  0  0  0  0  0  0  0  0  0  0
    7.5648   -4.2029    0.0000 F   0  0  0  0  0  0  0  0  0  0  0  0
   -1.7984  -10.2695    0.0000 N   0  0  0  0  0  0  0  0  0  0  0  0
   -0.3127   -5.3494    0.0000 O   0  0  0  0  0  0  0  0  0  0  0  0
    1.8279   -8.2605    0.0000 O   0  0  0  0  0  0  0  0  0  0  0  0
    2.5312   -7.0366    0.0000 N   0  0  0  0  0  0  0  0  0  0  0  0
    4.6747   -6.6544    0.0000 N   0  0  0  0  0  0  0  0  0  0  0  0
    6.1465   -3.3600    0.0000 N   0  0  0  0  0  0  0  0  0  0  0  0
    8.9590   -6.7095    0.0000 N   0  0  0  0  0  0  0  0  0  0  0  0
   11.2663   -2.3265    0.0000 N   0  0  0  0  0  0  0  0  0  0  0  0
    9.8222   -2.2971    0.0000 N   0  0  0  0  0  0  0  0  0  0  0  0
   10.5567   -1.0708    0.0000 N   0  0  0  0  0  0  0  0  0  0  0  0
   12.6377   -5.6518    0.0000 N   0  0  0  0  0  0  0  0  0  0  0  0
   13.3876   -3.6042    0.0000 N   0  0  0  0  0  0  0  0  0  0  0  0
   17.6746   -3.6881    0.0000 N   0  0  0  0  0  0  0  0  0  0  0  0
   14.8511   -1.9834    0.0000 N   0  0  0  0  0  0  0  0  0  0  0  0
   12.7516    0.1189    0.0000 N   0  0  0  0  0  0  0  0  0  0  0  0
   16.3011   -1.1825    0.0000 O   0  0  0  0  0  0  0  0  0  0  0  0
 12 11  2  0  0  0  0 
 10 13  1  0  0  0  0 
 15 14  1  6  0  0  0 
 15 17  1  0  0  0  0 
 17 16  2  0  0  0  0 
 15 18  1  0  0  0  0 
 18 19  1  0  0  0  0 
 20 22  1  0  0  0  0 
 22 21  2  0  0  0  0 
 23 25  1  0  0  0  0 
 25 24  2  0  0  0  0 
 27 26  1  1  0  0  0 
 27 29  1  0  0  0  0 
 29 28  2  0  0  0  0 
 27 30  1  0  0  0  0 
 30 31  1  0  0  0  0 
 31 32  1  0  0  0  0 
 32 33  1  0  0  0  0 
 34 37  1  0  0  0  0 
 37 35  2  0  0  0  0 
 34 36  1  6  0  0  0 
 38 39  1  0  0  0  0 
 39 41  1  0  0  0  0 
 41 40  2  0  0  0  0 
 39 42  1  0  0  0  0 
 43 44  1  0  0  0  0 
 44 42  1  0  0  0  0 
 43 38  1  0  0  0  0 
 46 48  1  0  0  0  0 
 48 47  2  0  0  0  0 
 46 49  1  1  0  0  0 
 49 50  1  0  0  0  0 
 50 51  1  0  0  0  0 
 52 54  1  0  0  0  0 
 54 53  2  0  0  0  0 
 52 55  1  6  0  0  0 
 55 56  1  0  0  0  0 
 56 57  1  0  0  0  0 
 57 58  1  0  0  0  0 
 59 61  1  0  0  0  0 
 61 60  2  0  0  0  0 
 59 62  1  1  0  0  0 
 62 63  1  0  0  0  0 
 63 64  1  0  0  0  0 
 64 65  2  0  0  0  0 
 39 66  1  1  0  0  0 
  4  9  1  0  0  0  0 
 12 14  1  0  0  0  0 
 67 68  2  0  0  0  0 
 67 69  1  0  0  0  0 
 69 70  1  0  0  0  0 
 25 26  1  0  0  0  0 
 69 71  1  0  0  0  0 
 37 38  1  0  0  0  0 
  2  1  1  6  0  0  0 
  2  4  1  0  0  0  0 
  4  3  2  0  0  0  0 
  2  5  1  0  0  0  0 
  5  6  1  0  0  0  0 
  6  7  1  0  0  0  0 
  7  8  1  0  0  0  0 
 10  9  1  1  0  0  0 
 10 12  1  0  0  0  0 
 79 45  1  0  0  0  0 
 51 79  1  0  0  0  0 
 75 20  1  0  0  0  0 
 17 75  1  0  0  0  0 
 45 80  1  0  0  0  0 
 13 73  1  0  0  0  0 
 45 81  2  0  0  0  0 
 76 23  1  0  0  0  0 
 22 76  1  0  0  0  0 
 82 46  1  0  0  0  0 
 41 82  1  0  0  0  0 
  8 72  1  0  0  0  0 
 83 52  1  0  0  0  0 
 48 83  1  0  0  0  0 
 33 77  1  0  0  0  0 
 77 67  1  0  0  0  0 
 58 84  1  0  0  0  0 
 18 74  1  6  0  0  0 
 85 59  1  0  0  0  0 
 54 85  1  0  0  0  0 
 78 34  1  0  0  0  0 
 29 78  1  0  0  0  0 
 64 86  1  0  0  0  0 
 61 87  1  0  0  0  0 
M  END