
  SciTegic10311217562D

 42 40  0  0  0  0            999 V2000
    0.9417   -2.8375    0.0000 C   0  0  2  0  0  0
    0.9417   -3.6625    0.0000 C   0  0  1  0  0  0
    1.6537   -4.0708    0.0000 C   0  0  2  0  0  0
    2.3657   -3.6625    0.0000 O   0  0
    2.3657   -2.8375    0.0000 C   0  0  1  0  0  0
    1.6537   -2.4208    0.0000 C   0  0  1  0  0  0
    3.0814   -2.4271    0.0000 C   0  0
    0.2260   -2.4271    0.0000 O   0  0
    0.2278   -4.0760    0.0000 O   0  0
    1.6537   -1.5958    0.0000 O   0  0
    1.6537   -4.8958    0.0000 O   0  0
    3.7946   -2.8417    0.0000 N   0  0
    2.3682   -5.3083    0.0000 C   0  0
    4.5103   -2.4312    0.0000 C   0  0
    5.2236   -2.8458    0.0000 C   0  0
    4.5127   -1.6063    0.0000 O   0  0
    5.9393   -2.4354    0.0000 N   0  0
    6.6525   -2.8500    0.0000 C   0  0
    7.3682   -2.4396    0.0000 O   0  0
    0.9392   -1.1833    0.0000 S   0  0
    0.2247   -1.5958    0.0000 O   0  5
    0.5208   -0.4666    0.0000 O   0  0
    1.3458   -0.4666    0.0000 O   0  0
   -0.4873   -2.8417    0.0000 S   0  0
   -1.2029   -2.4312    0.0000 O   0  5
   -0.9042   -3.5541    0.0000 O   0  0
   -0.0792   -3.5541    0.0000 O   0  0
    0.2290   -4.9010    0.0000 S   0  0
   -0.4849   -5.3145    0.0000 O   0  5
    1.0500   -4.9000    0.0000 O   0  0
    0.6333   -5.6125    0.0000 O   0  0
    5.9405   -1.6128    0.0000 C   0  0
    6.6501   -3.6750    0.0000 C   0  0
    5.1999   -1.2538    0.0000 C   0  0
    5.0159   -0.4500    0.0000 C   0  0
    6.6798   -1.2535    0.0000 C   0  0
    5.5252    0.1945    0.0000 C   0  0
    6.8625   -0.4500    0.0000 C   0  0
    6.3467    0.1922    0.0000 C   0  0
   -2.2833   -3.6833    0.0000 Na  0  3
   -1.7208   -1.4333    0.0000 Na  0  3
   -1.5958   -5.9917    0.0000 Na  0  3
 20 21  1  0
  3  4  1  0
  3 11  1  6
 20 22  2  0
  4  5  1  0
 20 23  2  0
  7 12  1  0
  8 24  1  0
  5  6  1  0
 24 25  1  0
 11 13  1  0
 24 26  2  0
 24 27  2  0
 12 14  1  0
  5  7  1  1
  9 28  1  0
 14 15  1  0
 28 29  1  0
  1  2  1  0
 28 30  2  0
 14 16  2  0
 28 31  2  0
  1  8  1  1
 15 17  1  0
 17 32  1  0
  1  6  1  0
 18 33  1  0
 17 18  1  0
 32 34  1  0
  2  9  1  1
 34 35  1  0
 18 19  2  0
 32 36  1  0
  2  3  1  0
 35 37  1  0
 10 20  1  0
 36 38  1  0
  6 10  1  6
 37 39  1  0
 38 39  1  0
M  CHG  6  21  -1  25  -1  29  -1  40   1  41   1  42   1
M  END