
          11280715252D 1   1.00000     0.00000     0

 28 30  0     0  0            999 V2000
   -2.3625   -5.2167    0.0000 N   0  0  3  0  0  0           0  0  0
   -1.8083   -4.6042    0.0000 C   0  0  0  0  0  0           0  0  0
   -3.0333   -4.0667    0.0000 N   0  0  0  0  0  0           0  0  0
   -2.2208   -3.8917    0.0000 C   0  0  0  0  0  0           0  0  0
   -3.1125   -4.8792    0.0000 C   0  0  0  0  0  0           0  0  0
    1.4750   -6.1375    0.0000 C   0  0  0  0  0  0           0  0  0
    1.0542   -6.8375    0.0000 C   0  0  0  0  0  0           0  0  0
    1.2292   -5.3500    0.0000 C   0  0  0  0  0  0           0  0  0
   -2.1875   -6.0167    0.0000 C   0  0  0  0  0  0           0  0  0
    2.2917   -6.1417    0.0000 N   0  0  0  0  0  0           0  0  0
    0.1542   -6.7792    0.0000 C   0  0  0  0  0  0           0  0  0
   -1.8875   -3.1375    0.0000 Cl  0  0  0  0  0  0           0  0  0
    0.4250   -5.1667    0.0000 O   0  0  0  0  0  0           0  0  0
   -1.0125   -4.8167    0.0000 C   0  0  0  0  0  0           0  0  0
   -0.4583   -7.3375    0.0000 C   0  0  0  0  0  0           0  0  0
   -0.0208   -5.9750    0.0000 C   0  0  0  0  0  0           0  0  0
   -1.4083   -6.2750    0.0000 C   0  0  0  0  0  0           0  0  0
    1.7875   -4.7417    0.0000 O   0  0  0  0  0  0           0  0  0
   -3.8333   -5.3000    0.0000 C   0  0  0  0  0  0           0  0  0
   -0.8000   -5.7167    0.0000 C   0  0  0  0  0  0           0  0  0
   -1.2375   -7.0792    0.0000 C   0  0  0  0  0  0           0  0  0
   -0.4333   -4.2292    0.0000 O   0  0  0  0  0  0           0  0  0
    1.4542   -7.5542    0.0000 C   0  0  0  0  0  0           0  0  0
    2.7000   -6.8625    0.0000 C   0  0  0  0  0  0           0  0  0
   -4.5458   -4.8917    0.0000 C   0  0  0  0  0  0           0  0  0
    2.2792   -7.5667    0.0000 C   0  0  0  0  0  0           0  0  0
   -5.2583   -5.3042    0.0000 C   0  0  0  0  0  0           0  0  0
   -5.9708   -4.8917    0.0000 C   0  0  0  0  0  0           0  0  0
  2  1  1  0     0  0
  3  5  2  0     0  0
  4  2  2  0     0  0
  5  1  1  0     0  0
  6  7  2  0     0  0
  7 11  1  0     0  0
  8  6  1  0     0  0
  9  1  1  0     0  0
 10  6  1  0     0  0
 11 15  2  0     0  0
 12  4  1  0     0  0
 13  8  2  0     0  0
 14  2  1  0     0  0
 15 21  1  0     0  0
 16 20  2  0     0  0
 17  9  1  0     0  0
 18  8  1  0     0  0
 19  5  1  0     0  0
 20 17  1  0     0  0
 21 17  2  0     0  0
 22 14  1  0     0  0
 23  7  1  0     0  0
 24 26  1  0     0  0
 25 19  1  0     0  0
 26 23  2  0     0  0
 27 25  1  0     0  0
 28 27  1  0     0  0
  4  3  1  0     0  0
 11 16  1  0     0  0
 10 24  2  0     0  0
M  END