
  SciTegic04181615532D

 36 40  0  0  0  0            999 V2000
    3.3214   -1.2765    0.0000 C   0  0
    2.5889    0.0182    0.0000 C   0  0
    3.1649    1.0710    0.0000 C   0  0
   -1.0028   -1.5132    0.0000 C   0  0
   -1.0028    1.5132    0.0000 C   0  0
   -2.3155    0.7475    0.0000 C   0  0
   -2.3155   -0.7475    0.0000 C   0  0
   -0.9971   -3.0138    0.0000 O   0  0
   -2.2935   -3.7700    0.0000 C   0  0
   -2.2901   -5.2700    0.0000 C   0  0
   -3.5873   -6.0231    0.0000 C   0  0
   -4.8881   -5.2761    0.0000 C   0  0
   -4.8917   -3.7761    0.0000 C   0  0
   -3.5944   -3.0231    0.0000 C   0  0
   -5.9323   -3.1786    0.0000 F   0  0
   -6.1845   -6.0323    0.0000 C   0  0
   -6.1788   -7.5331    0.0000 N   0  0
   -7.2262   -5.4366    0.0000 O   0  0
   -7.2336   -8.5483    0.0000 C   0  0
   -6.1667   -9.6027    0.0000 C   0  0
   -5.1123   -8.5358    0.0000 C   0  0
   -3.6217    1.4865    0.0000 C   0  0
   -4.9153    0.7255    0.0000 N   0  0
   -3.6319    2.6865    0.0000 O   0  0
   -6.2216    1.4644    0.0000 C   0  0
   -7.5156    0.7056    0.0000 N   0  0
   -8.8197    1.4467    0.0000 C   0  0
   -8.8299    2.9467    0.0000 C   0  0
   -7.5360    3.7055    0.0000 C   0  0
   -6.2319    2.9644    0.0000 C   0  0
   -9.8732    3.5396    0.0000 C   0  0
    0.2917    0.7475    0.0000 C   0  0
    0.2917   -0.7475    0.0000 C   0  0
    1.7138   -1.2033    0.0000 C   0  0
    1.7138    1.2033    0.0000 O   0  0
    2.7293   -2.3202    0.0000 O   0  0
  2  1  1  0
  3  2  1  0
  4 33  2  0
 32  5  2  0
  5  6  1  0
  6  7  2  0
  7  4  1  0
  4  8  1  0
  8  9  1  0
  9 10  2  0
 10 11  1  0
 11 12  2  0
 12 13  1  0
 13 14  2  0
 14  9  1  0
 13 15  1  0
 12 16  1  0
 16 17  1  0
 16 18  2  0
 17 19  1  0
 19 20  1  0
 20 21  1  0
 21 17  1  0
  6 22  1  0
 22 23  1  0
 22 24  2  0
 25 23  1  0
 25 26  2  0
 26 27  1  0
 27 28  2  0
 28 29  1  0
 29 30  2  0
 30 25  1  0
 28 31  1  0
 32 33  1  0
 33 34  1  0
 34  2  1  0
  2 35  1  0
 35 32  1  0
  1 36  1  0
M  END