
  CDK    9/16/09,9:57

 22 23  0  0  0  0  0  0  0  0999 V2000
    6.4126    0.4407    0.0000 C   0  0  0  0  0  0  0  0  0  0  0  0
    6.4372   -0.3840    0.0000 C   0  0  0  0  0  0  0  0  0  0  0  0
    7.1643   -0.7731    0.0000 N   0  0  0  0  0  0  0  0  0  0  0  0
    7.8667   -0.3415    0.0000 C   0  0  0  0  0  0  0  0  0  0  0  0
    8.5896   -0.7305    0.0000 N   0  0  0  0  0  0  0  0  0  0  0  0
    7.8422    0.4832    0.0000 N   0  0  0  0  0  0  0  0  0  0  0  0
    9.2921   -0.2990    0.0000 C   0  0  0  0  0  0  0  0  0  0  0  0
   10.0192   -0.6880    0.0000 C   0  0  0  0  0  0  0  0  0  0  0  0
    9.2675    0.5257    0.0000 O   0  0  0  0  0  0  0  0  0  0  0  0
    5.6856    0.8339    0.0000 C   0  0  0  0  0  0  0  0  0  0  0  0
    5.6611    1.6586    0.0000 C   0  0  0  0  0  0  0  0  0  0  0  0
    6.0734    2.9254    0.0000 C   0  0  0  0  0  0  0  0  0  0  0  0
    5.2484    2.9264    0.0000 N   0  0  0  0  0  0  0  0  0  0  0  0
    4.9919    2.1423    0.0000 C   0  0  0  0  0  0  0  0  0  0  0  0
    6.3280    2.1407    0.0000 N   0  0  0  0  0  0  0  0  0  0  0  0
   10.7216   -0.2564    0.0000 C   0  0  0  0  0  0  0  0  0  0  0  0
   10.6971    0.5683    0.0000 C   0  0  0  0  0  0  0  0  0  0  0  0
   11.3988    0.9998    0.0000 C   0  0  0  0  0  0  0  0  0  0  0  0
   11.3747    1.8238    0.0000 C   0  0  0  0  0  0  0  0  0  0  0  0
   10.6470    2.2136    0.0000 C   0  0  0  0  0  0  0  0  0  0  0  0
    9.9423    1.7776    0.0000 C   0  0  0  0  0  0  0  0  0  0  0  0
    9.9700    0.9552    0.0000 C   0  0  0  0  0  0  0  0  0  0  0  0
 12 13  1  0  0  0  0 
  4  6  2  0  0  0  0 
  1  2  1  0  0  0  0 
  5  7  1  0  0  0  0 
  3  4  1  0  0  0  0 
 13 14  1  0  0  0  0 
 14 11  2  0  0  0  0 
 11 15  1  0  0  0  0 
 15 12  2  0  0  0  0 
  7  8  1  0  0  0  0 
  8 16  1  0  0  0  0 
 16 17  1  0  0  0  0 
  7  9  2  0  0  0  0 
 17 18  2  0  0  0  0 
  4  5  1  0  0  0  0 
 18 19  1  0  0  0  0 
  1 10  1  0  0  0  0 
 19 20  2  0  0  0  0 
  2  3  1  0  0  0  0 
 20 21  1  0  0  0  0 
 10 11  1  0  0  0  0 
 21 22  2  0  0  0  0 
 22 17  1  0  0  0  0 
M  END