
  SciTegic05171617272D

 27 28  0  0  1  0            999 V2000
    3.6387   -0.8963    0.0000 C   0  0
    2.6003   -1.4977    0.0000 O   0  0
    1.2990   -0.7500    0.0000 C   0  0  2  0  0  0
    1.2990    0.7500    0.0000 O   0  0
    0.0000    1.5000    0.0000 C   0  0
    0.0031    3.0008    0.0000 C   0  0
    1.0432    3.5994    0.0000 O   0  0
   -1.2990    0.7500    0.0000 C   0  0  1  0  0  0
   -2.5973    1.5031    0.0000 O   0  0
   -2.5951    3.0039    0.0000 C   0  0  2  0  0  0
   -1.2935    3.7495    0.0000 O   0  0
   -1.2883    5.2495    0.0000 C   0  0
    0.0156    5.9928    0.0000 C   0  0
    1.0519    5.3877    0.0000 O   0  0
   -2.5848    6.0040    0.0000 C   0  0  2  0  0  0
   -2.5806    7.2040    0.0000 O   0  0
   -3.8864    5.2585    0.0000 C   0  0  2  0  0  0
   -4.9235    5.8620    0.0000 O   0  0
   -3.8915    3.7585    0.0000 C   0  0
   -4.9329    3.1621    0.0000 O   0  0
   -1.2990   -0.7500    0.0000 C   0  0  2  0  0  0
   -2.3383   -1.3500    0.0000 O   0  0
    0.0000   -1.5000    0.0000 C   0  0
    0.0031   -3.0008    0.0000 N   0  0
    1.3039   -3.7494    0.0000 C   0  0
    2.3421   -3.1476    0.0000 C   0  0
    1.3064   -4.9494    0.0000 O   0  0
  1  2  1  0
  3  2  1  1
  3  4  1  0
  4  5  1  0
  5  6  1  0
  6  7  1  0
  5  8  1  0
  8  9  1  6
 10  9  1  1
 10 11  1  0
 11 12  1  0
 12 13  1  0
 13 14  1  0
 12 15  1  0
 15 16  1  1
 15 17  1  0
 17 18  1  1
 17 19  1  0
 10 19  1  0
 19 20  1  0
  8 21  1  0
 21 22  1  1
 21 23  1  0
  3 23  1  0
 23 24  1  0
 24 25  1  0
 25 26  1  0
 25 27  2  0
M  END