
  SciTegic12011113542D

332370  0  0  0  0            999 V2000
    2.0575   -0.9478    0.0000 O   0  0
    1.5742   -0.2794    0.0000 C   0  0
    0.7536   -0.3568    0.0000 C   0  0  1  0  0  0
   -0.4655   -0.8973    0.0000 C   0  0
   -0.5470   -0.0750    0.0000 C   0  0  1  0  0  0
    0.2072    0.2552    0.0000 O   0  0
   -1.2594    0.3411    0.0000 N   0  0
   -1.9802   -0.0670    0.0000 C   0  0
   -1.9814   -0.8953    0.0000 O   0  0
   -2.6926    0.3490    0.0000 N   0  0
   -2.6878    1.1752    0.0000 C   0  0
   -3.4003    1.5912    0.0000 O   0  0
   -1.9727    1.5818    0.0000 C   0  0
   -1.2603    1.1658    0.0000 C   0  0
    5.6133    1.9241    0.0000 O   0  0
    4.8827    2.3104    0.0000 C   0  0
    4.2095    1.8382    0.0000 C   0  0  2  0  0  0
    4.1911    1.0150    0.0000 C   0  0  1  0  0  0
    4.8496    0.5155    0.0000 O   0  0
    3.4045    0.7742    0.0000 C   0  0
    2.9332    1.4514    0.0000 C   0  0  1  0  0  0
    3.4277    2.1068    0.0000 O   0  0
    2.1091    1.4658    0.0000 N   0  0
    1.6096    0.8073    0.0000 C   0  0
    0.8278    1.0759    0.0000 N   0  0
    0.8431    1.9041    0.0000 C   0  0
    0.2432    2.4668    0.0000 C   0  0
   -0.5474    2.2270    0.0000 O   0  0
    0.4298    3.2705    0.0000 N   0  0
    1.2163    3.5113    0.0000 C   0  0
    1.4029    4.3184    0.0000 N   0  0
    1.8203    2.9476    0.0000 N   0  0
    1.6337    2.1440    0.0000 C   0  0
    9.9359    0.7649    0.0000 O   0  0
    9.9184    1.5911    0.0000 C   0  0
    9.1785    1.9499    0.0000 C   0  0  2  0  0  0
    8.4501    1.5660    0.0000 C   0  0
    7.8574    2.1364    0.0000 C   0  0  1  0  0  0
    7.0435    1.9912    0.0000 O   0  0
    8.2202    2.8774    0.0000 C   0  0  1  0  0  0
    9.0333    2.7638    0.0000 O   0  0
    7.8322    3.6046    0.0000 N   0  0
    7.0139    3.7211    0.0000 C   0  0
    6.8687    4.5401    0.0000 N   0  0
    7.6000    4.9260    0.0000 C   0  0
    7.8002    5.7281    0.0000 C   0  0
    7.2063    6.3037    0.0000 O   0  0
    8.5933    5.9506    0.0000 N   0  0
    9.1860    5.3793    0.0000 C   0  0
    9.9790    5.6102    0.0000 N   0  0
    8.9869    4.5812    0.0000 N   0  0
    8.1939    4.3503    0.0000 C   0  0
   12.2406   -1.7783    0.0000 O   0  0
   11.9496   -1.0007    0.0000 C   0  0
   12.4268   -0.3288    0.0000 C   0  0  2  0  0  0
   12.1590    0.4515    0.0000 C   0  0  1  0  0  0
   11.3660    0.6966    0.0000 O   0  0
   12.8137    0.9481    0.0000 C   0  0
   13.4909    0.4743    0.0000 C   0  0  1  0  0  0
   13.2472   -0.3146    0.0000 O   0  0
   14.2017    0.8900    0.0000 N   0  0
   14.1990    1.7183    0.0000 C   0  0
   13.4774    2.1250    0.0000 O   0  0
   14.9106    2.1357    0.0000 N   0  0
   15.6286    1.7269    0.0000 C   0  0
   16.3403    2.1442    0.0000 O   0  0
   15.6328    0.9043    0.0000 C   0  0
   16.3508    0.4954    0.0000 C   0  0
   14.9212    0.4869    0.0000 C   0  0
   13.5463   -4.0708    0.0000 O   0  0
   14.3667   -3.9850    0.0000 C   0  0
   14.7087   -3.2352    0.0000 C   0  0  2  0  0  0
   14.2986   -2.5194    0.0000 C   0  0  1  0  0  0
   13.4698   -2.5077    0.0000 O   0  0
   14.8479   -1.9082    0.0000 C   0  0
   15.6024   -2.2473    0.0000 C   0  0  1  0  0  0
   15.5117   -3.0666    0.0000 O   0  0
   16.3166   -1.8369    0.0000 N   0  0
   16.3208   -1.0086    0.0000 C   0  0
   15.6027   -0.5958    0.0000 O   0  0
   17.0359   -0.5972    0.0000 N   0  0
   17.7504   -1.0121    0.0000 C   0  0
   18.4656   -0.6007    0.0000 O   0  0
   17.7477   -1.8347    0.0000 C   0  0
   17.0326   -2.2460    0.0000 C   0  0
   10.7504   -5.5284    0.0000 C   0  0
   11.4074   -6.0229    0.0000 C   0  0  2  0  0  0
   12.1960   -5.7863    0.0000 C   0  0  1  0  0  0
   12.4678   -5.0058    0.0000 O   0  0
   12.6679   -6.4601    0.0000 C   0  0
   12.1693   -7.1175    0.0000 C   0  0  1  0  0  0
   11.3932   -6.8495    0.0000 O   0  0
   12.4100   -7.9058    0.0000 N   0  0
   13.1906   -8.1776    0.0000 C   0  0
   13.1764   -9.0041    0.0000 N   0  0
   12.3840   -9.2452    0.0000 C   0  0
   12.0339   -9.9896    0.0000 C   0  0
   12.5061  -10.6675    0.0000 O   0  0
   11.2119  -10.0602    0.0000 N   0  0
   10.7400   -9.3864    0.0000 C   0  0
    9.9180   -9.4570    0.0000 N   0  0
   11.0897   -8.6379    0.0000 N   0  0
   11.9117   -8.5673    0.0000 C   0  0
    9.9923   -5.8511    0.0000 O   0  0
    7.7019   -6.0506    0.0000 C   0  0
    7.7398   -6.8720    0.0000 C   0  0  2  0  0  0
    8.4249   -7.3288    0.0000 C   0  0  1  0  0  0
    9.1984   -7.0406    0.0000 O   0  0
    8.2066   -8.1219    0.0000 C   0  0
    7.3822   -8.1568    0.0000 C   0  0  1  0  0  0
    7.0940   -7.3881    0.0000 O   0  0
    6.9284   -8.8448    0.0000 N   0  0
    7.2166   -9.6195    0.0000 C   0  0
    6.5707  -10.1355    0.0000 N   0  0
    5.8798   -9.6787    0.0000 C   0  0
    5.0831   -9.8835    0.0000 C   0  0
    4.8619  -10.6795    0.0000 O   0  0
    4.5047   -9.2952    0.0000 N   0  0
    4.7230   -8.5021    0.0000 C   0  0
    4.1446   -7.9138    0.0000 N   0  0
    5.5226   -8.2944    0.0000 N   0  0
    6.1010   -8.8826    0.0000 C   0  0
    9.2503   -6.2173    0.0000 P   0  0
    6.9693   -5.6712    0.0000 O   0  0
    8.4202   -6.2244    0.0000 O   0  0
    8.8292   -5.5079    0.0000 N   0  0
   13.2782   -4.8512    0.0000 P   0  0
   13.4875   -5.6458    0.0000 N   0  0
   14.1000   -4.8500    0.0000 O   0  0
   13.0672   -1.7876    0.0000 P   0  0
   13.7792   -1.3708    0.0000 O   0  0
   13.0625   -0.9625    0.0000 N   0  0
   10.6329    0.3180    0.0000 P   0  0
   10.2125   -0.3917    0.0000 N   0  0
   11.0375   -0.3917    0.0000 O   0  0
    6.3101    2.3695    0.0000 P   0  0
    5.7208    2.9583    0.0000 N   0  0
    6.7167    3.0875    0.0000 O   0  0
    6.3648   -6.2326    0.0000 C   0  0
    5.5763   -5.9898    0.0000 C   0  0
    6.5487   -7.0368    0.0000 O   0  0
    4.9718   -6.5512    0.0000 C   0  0
    4.1833   -6.3084    0.0000 C   0  0
    3.9994   -5.5042    0.0000 C   0  0
    4.6037   -4.9433    0.0000 C   0  0  2  0  0  0
    5.3720   -5.2334    0.0000 S   0  0
    5.8892   -4.5907    0.0000 C   0  0
    4.6415   -4.1163    0.0000 C   0  0  2  0  0  0
    5.4329   -3.8992    0.0000 C   0  0  1  0  0  0
    5.4711   -3.0794    0.0000 N   0  0
    4.7032   -2.7897    0.0000 C   0  0
    4.1906   -3.4306    0.0000 N   0  0
    3.8589   -4.3898    0.0000 H   0  0
    6.2059   -3.6205    0.0000 H   0  0
    4.4850   -1.9941    0.0000 O   0  0
    4.7465   -0.3030    0.0000 P   0  0
    5.5708   -0.3000    0.0000 N   0  0
    4.9583   -1.0958    0.0000 O   0  0
    5.1859  -13.9575    0.0000 O   0  0
    5.2050  -14.7821    0.0000 C   0  0
    5.2779  -15.6022    0.0000 C   0  0  2  0  0  0
    5.9895  -16.0197    0.0000 C   0  0
    5.8168  -16.8211    0.0000 C   0  0
    4.9934  -16.9022    0.0000 C   0  0  1  0  0  0
    4.6648  -16.1474    0.0000 O   0  0
    4.5760  -17.6138    0.0000 N   0  0
    4.9826  -18.3355    0.0000 C   0  0
    5.8109  -18.3383    0.0000 O   0  0
    4.5651  -19.0470    0.0000 N   0  0
    3.7389  -19.0406    0.0000 C   0  0
    3.3214  -19.7521    0.0000 O   0  0
    3.3338  -18.3246    0.0000 C   0  0
    3.7513  -17.6131    0.0000 C   0  0
    2.2123  -13.2040    0.0000 C   0  0
    2.7166  -13.8535    0.0000 C   0  0  2  0  0  0
    3.5397  -13.8320    0.0000 C   0  0  1  0  0  0
    4.0067  -13.1501    0.0000 O   0  0
    3.8183  -14.6060    0.0000 C   0  0
    3.1647  -15.1095    0.0000 C   0  0  1  0  0  0
    2.4861  -14.6474    0.0000 O   0  0
    3.1903  -15.9334    0.0000 N   0  0
    3.8722  -16.4004    0.0000 C   0  0
    3.6418  -17.1943    0.0000 N   0  0
    2.8139  -17.2191    0.0000 C   0  0
    2.2808  -17.8456    0.0000 C   0  0
    2.5587  -18.6237    0.0000 O   0  0
    1.4691  -17.6982    0.0000 N   0  0
    1.1904  -16.9242    0.0000 C   0  0
    0.3787  -16.7768    0.0000 N   0  0
    1.7242  -16.2936    0.0000 N   0  0
    2.5359  -16.4410    0.0000 C   0  0
    4.8292  -13.2134    0.0000 P   0  0
    4.8850  -12.3824    0.0000 O   0  0
    5.5675  -12.8458    0.0000 N   0  0
    2.5236  -12.4400    0.0000 O   0  0
    0.4273  -10.2528    0.0000 O   0  0
   -0.1776  -10.8160    0.0000 C   0  0
    0.0168  -11.5879    0.0000 C   0  0  2  0  0  0
    0.7929  -11.8629    0.0000 C   0  0  1  0  0  0
    1.5072  -11.4370    0.0000 O   0  0
    0.7756  -12.6853    0.0000 C   0  0
   -0.0151  -12.9211    0.0000 C   0  0  1  0  0  0
   -0.4829  -12.2465    0.0000 O   0  0
   -0.2865  -13.6994    0.0000 N   0  0
    0.1827  -14.3798    0.0000 C   0  0
   -0.3170  -15.0384    0.0000 N   0  0
   -1.0988  -14.7648    0.0000 C   0  0
   -1.8210  -15.1586    0.0000 C   0  0
   -1.8405  -15.9846    0.0000 O   0  0
   -2.5259  -14.7300    0.0000 N   0  0
   -2.5087  -13.9076    0.0000 C   0  0
   -3.2136  -13.4789    0.0000 N   0  0
   -1.7843  -13.5102    0.0000 N   0  0
   -1.0794  -13.9388    0.0000 C   0  0
   -0.7035   -7.4029    0.0000 O   0  0
   -1.4231   -7.8059    0.0000 C   0  0
   -1.4409   -8.6300    0.0000 C   0  0  2  0  0  0
   -0.7812   -9.1254    0.0000 C   0  0  1  0  0  0
    0.0118   -8.8835    0.0000 O   0  0
   -1.0443   -9.9038    0.0000 C   0  0
   -1.8708   -9.8894    0.0000 C   0  0  1  0  0  0
   -2.1119   -9.1022    0.0000 O   0  0
   -2.3662  -10.5491    0.0000 N   0  0
   -2.0440  -11.3121    0.0000 C   0  0
   -1.2214  -11.4088    0.0000 O   0  0
   -2.5394  -11.9718    0.0000 N   0  0
   -3.3596  -11.8718    0.0000 C   0  0
   -3.8550  -12.5315    0.0000 O   0  0
   -3.6809  -11.1146    0.0000 C   0  0
   -4.5011  -11.0145    0.0000 C   0  0
   -3.1855  -10.4549    0.0000 C   0  0
   -0.6946   -6.5823    0.0000 P   0  0
    0.1292   -6.5792    0.0000 O   0  0
    0.6148   -9.4466    0.0000 P   0  0
    1.1958   -8.8583    0.0000 N   0  0
    1.3250   -9.8583    0.0000 O   0  0
    2.3058  -11.6441    0.0000 P   0  0
    2.3588  -10.8135    0.0000 O   0  0
    3.0427  -11.2749    0.0000 N   0  0
    0.6133   -3.6566    0.0000 O   0  0
   -0.1858   -3.4456    0.0000 C   0  0
   -0.7347   -4.0579    0.0000 C   0  0  2  0  0  0
   -0.5664   -4.8639    0.0000 C   0  0  1  0  0  0
    0.1880   -5.2015    0.0000 O   0  0
   -1.2781   -5.2764    0.0000 C   0  0
   -1.8904   -4.7233    0.0000 C   0  0  1  0  0  0
   -1.5570   -3.9730    0.0000 O   0  0
   -2.6964   -4.8957    0.0000 N   0  0
   -3.0340   -5.6501    0.0000 C   0  0
   -3.8563   -5.5653    0.0000 N   0  0
   -4.0287   -4.7551    0.0000 C   0  0
   -4.7404   -4.3426    0.0000 C   0  0
   -5.4563   -4.7551    0.0000 O   0  0
   -4.7404   -3.5176    0.0000 N   0  0
   -4.0287   -3.1051    0.0000 C   0  0
   -4.0287   -2.2801    0.0000 N   0  0
   -3.3129   -3.5176    0.0000 N   0  0
   -3.3129   -4.3426    0.0000 C   0  0
    1.3040   -2.4064    0.0000 O   0  0
    1.3205   -3.2312    0.0000 P   0  0
    2.1417   -3.2292    0.0000 N   0  0
    1.7250   -3.9417    0.0000 O   0  0
   -1.2833   -5.9917    0.0000 N   0  0
    0.3292   -1.1083    0.0000 C   0  0
    6.5447  -17.2095    0.0000 O   0  0
   14.2774  -14.3796    0.0000 O   0  0
   15.0948  -14.2581    0.0000 C   0  0
   15.3575  -13.4788    0.0000 C   0  0  2  0  0  0
   14.8848  -12.8047    0.0000 C   0  0  1  0  0  0
   14.0584  -12.7923    0.0000 O   0  0
   15.3759  -12.1447    0.0000 C   0  0
   16.1567  -12.4112    0.0000 C   0  0  1  0  0  0
   16.1465  -13.2322    0.0000 O   0  0
   16.8293  -11.9347    0.0000 N   0  0
   16.8416  -11.1083    0.0000 C   0  0
   17.6307  -10.8616    0.0000 N   0  0
   18.1089  -11.5380    0.0000 C   0  0
   18.9256  -11.6360    0.0000 C   0  0
   19.4205  -10.9745    0.0000 O   0  0
   19.2512  -12.3941    0.0000 N   0  0
   18.7602  -13.0540    0.0000 C   0  0
   19.0858  -13.8120    0.0000 N   0  0
   17.9396  -12.9576    0.0000 N   0  0
   17.6140  -12.1995    0.0000 C   0  0
   11.2678  -14.6780    0.0000 O   0  0
   11.4162  -15.4910    0.0000 C   0  0
   12.2037  -15.7279    0.0000 C   0  0  2  0  0  0
   12.8619  -15.2332    0.0000 C   0  0  1  0  0  0
   12.8470  -14.4068    0.0000 O   0  0
   13.5376  -15.7023    0.0000 C   0  0
   13.2970  -16.4915    0.0000 C   0  0  1  0  0  0
   12.4762  -16.5083    0.0000 O   0  0
   13.7955  -17.1479    0.0000 N   0  0
   14.6219  -17.1331    0.0000 C   0  0
   14.8944  -17.9135    0.0000 N   0  0
   14.2342  -18.4138    0.0000 C   0  0
   14.1630  -19.2333    0.0000 C   0  0
   14.8406  -19.7061    0.0000 O   0  0
   13.4162  -19.5837    0.0000 N   0  0
   12.7404  -19.1147    0.0000 C   0  0
   11.9936  -19.4651    0.0000 N   0  0
   12.8098  -18.2914    0.0000 N   0  0
   13.5566  -17.9409    0.0000 C   0  0
    8.2287  -14.2917    0.0000 O   0  0
    8.2338  -15.1165    0.0000 C   0  0
    8.9466  -15.5303    0.0000 C   0  0  2  0  0  0
    9.6991  -15.1922    0.0000 C   0  0  1  0  0  0
    9.8706  -14.3810    0.0000 O   0  0
   10.2535  -15.7987    0.0000 C   0  0
    9.8414  -16.5153    0.0000 C   0  0  1  0  0  0
    9.0358  -16.3459    0.0000 O   0  0
   10.1796  -17.2678    0.0000 N   0  0
   11.0033  -17.3545    0.0000 C   0  0
   11.4855  -16.6810    0.0000 O   0  0
   11.3415  -18.1070    0.0000 N   0  0
   10.8576  -18.7766    0.0000 C   0  0
   11.1957  -19.5292    0.0000 O   0  0
   10.0393  -18.6921    0.0000 C   0  0
    9.5554  -19.3618    0.0000 C   0  0
    9.7012  -17.9396    0.0000 C   0  0
    6.8291  -14.0189    0.0000 O   0  0
    7.6090  -13.7498    0.0000 P   0  0
    7.1917  -13.0292    0.0000 O   0  0
    8.0167  -13.0292    0.0000 N   0  0
   10.6550  -14.1252    0.0000 P   0  0
   10.2375  -13.4083    0.0000 N   0  0
   11.0625  -13.4083    0.0000 O   0  0
   13.5540  -13.9815    0.0000 P   0  0
   13.1333  -13.2625    0.0000 N   0  0
   13.9583  -13.2625    0.0000 O   0  0
   18.4612   -2.2489    0.0000 C   0  0
   -1.1357   -1.3783    0.0000 O   0  0
 13 14  2  0
156158  2  0
  1156  1  0
  7 14  1  0
  1  2  1  0
 70 71  1  0
 72 71  1  6
 72 73  1  0
 73 74  1  1
 75 76  1  0
 76 77  1  0
 72 77  1  0
 76 78  1  6
 78 79  1  0
 79 80  2  0
 79 81  1  0
 81 82  1  0
159160  1  0
161160  1  6
161162  1  0
163164  1  0
164165  1  0
161165  1  0
164166  1  6
166167  1  0
167168  2  0
167169  1  0
169170  1  0
170171  2  0
170172  1  0
172173  2  0
166173  1  0
 82 83  2  0
 82 84  1  0
 84 85  2  0
 78 85  1  0
  3  2  1  6
 15 16  1  0
 17 16  1  6
 17 18  1  0
 34 35  1  0
 36 35  1  6
 36 37  1  0
 37 38  1  0
 38 39  1  1
 38 40  1  0
 40 41  1  0
 36 41  1  0
 40 42  1  6
 42 43  1  0
175174  1  6
175176  1  0
176177  1  1
176178  1  0
178179  1  0
179180  1  0
175180  1  0
179181  1  6
181182  1  0
182183  2  0
183184  1  0
184185  1  0
185186  2  0
185187  1  0
187188  1  0
188189  1  0
188190  2  0
190191  1  0
184191  2  0
181191  1  0
 43 44  2  0
177192  1  0
192159  1  0
 44 45  1  0
192193  2  0
 45 46  1  0
192194  1  0
 46 47  2  0
174195  1  0
 87 86  1  6
 87 88  1  0
 88 89  1  1
 88 90  1  0
 90 91  1  0
 91 92  1  0
 87 92  1  0
 91 93  1  6
 93 94  1  0
 94 95  2  0
 95 96  1  0
 96 97  1  0
 97 98  2  0
 97 99  1  0
 99100  1  0
100101  1  0
100102  2  0
102103  1  0
 96103  2  0
196197  1  0
198197  1  6
198199  1  0
199200  1  1
199201  1  0
201202  1  0
202203  1  0
198203  1  0
202204  1  6
204205  1  0
205206  2  0
206207  1  0
207208  1  0
208209  2  0
208210  1  0
210211  1  0
211212  1  0
211213  2  0
213214  1  0
207214  2  0
204214  1  0
 93103  1  0
 46 48  1  0
 86104  1  0
 48 49  1  0
 49 50  1  0
 49 51  2  0
 51 52  1  0
 45 52  2  0
 42 52  1  0
 18 19  1  1
 18 20  1  0
 20 21  1  0
 21 22  1  0
 17 22  1  0
 21 23  1  6
 23 24  1  0
 24 25  2  0
215216  1  0
217216  1  6
217218  1  0
218219  1  1
218220  1  0
220221  1  0
221222  1  0
217222  1  0
221223  1  6
223224  1  0
224225  2  0
224226  1  0
226227  1  0
227228  2  0
227229  1  0
229230  1  0
229231  2  0
223231  1  0
 25 26  1  0
 26 27  1  0
232233  2  0
232215  1  0
 27 28  2  0
219234  1  0
234196  1  0
 27 29  1  0
234235  1  0
106105  1  6
234236  2  0
106107  1  0
200237  1  0
237195  1  0
107108  1  1
237238  2  0
107109  1  0
237239  1  0
109110  1  0
110111  1  0
106111  1  0
110112  1  6
112113  1  0
113114  2  0
114115  1  0
115116  1  0
116117  2  0
116118  1  0
118119  1  0
119120  1  0
119121  2  0
121122  1  0
115122  2  0
112122  1  0
 29 30  1  0
108123  1  0
123104  1  0
240241  1  0
242241  1  6
242243  1  0
243244  1  1
243245  1  0
245246  1  0
246247  1  0
242247  1  0
246248  1  6
248249  1  0
249250  2  0
250251  1  0
251252  1  0
252253  2  0
252254  1  0
254255  1  0
255256  1  0
255257  2  0
257258  1  0
251258  2  0
248258  1  0
 30 31  1  0
105124  1  0
259260  1  0
260240  1  0
 30 32  2  0
260261  1  0
123125  2  0
260262  2  0
232244  1  0
 32 33  1  0
232263  1  0
264259  1  0
123126  1  0
 26 33  2  0
163265  1  0
 89127  1  0
127 70  1  0
 53 54  1  0
127128  1  0
 55 54  1  6
127129  2  0
 55 56  1  0
 74130  1  0
130 53  1  0
 56 57  1  1
130131  2  0
 56 58  1  0
130132  1  0
 58 59  1  0
 57133  1  0
133 34  1  0
 59 60  1  0
133134  1  0
 55 60  1  0
266267  1  0
268267  1  6
268269  1  0
269270  1  1
269271  1  0
271272  1  0
272273  1  0
268273  1  0
272274  1  6
274275  1  0
275276  2  0
276277  1  0
277278  1  0
278279  2  0
278280  1  0
280281  1  0
281282  1  0
281283  2  0
283284  1  0
277284  2  0
274284  1  0
133135  2  0
 59 61  1  6
 39136  1  0
136 15  1  0
 61 62  1  0
136137  1  0
 62 63  2  0
136138  2  0
 62 64  1  0
124139  1  0
 64 65  1  0
139140  1  0
 65 66  2  0
139141  2  0
 65 67  1  0
140142  1  0
 67 68  1  0
142143  1  0
 67 69  2  0
285286  1  0
287286  1  6
287288  1  0
288289  1  1
288290  1  0
290291  1  0
291292  1  0
287292  1  0
291293  1  6
293294  1  0
294295  2  0
295296  1  0
296297  1  0
297298  2  0
297299  1  0
299300  1  0
300301  1  0
300302  2  0
302303  1  0
296303  2  0
293303  1  0
143144  1  0
 61 69  1  0
145144  1  1
145146  1  0
 23 33  1  0
  3264  1  0
146147  1  0
147149  1  0
148145  1  0
148149  1  0
  4  5  1  0
  5  6  1  0
  3  6  1  0
  5  7  1  6
  7  8  1  0
149150  1  0
150151  1  0
304305  1  0
306305  1  6
306307  1  0
307308  1  1
307309  1  0
309310  1  0
310311  1  0
306311  1  0
310312  1  6
312313  1  0
313314  2  0
313315  1  0
315316  1  0
316317  2  0
316318  1  0
318319  1  0
318320  2  0
312320  1  0
151152  1  0
152148  1  0
321322  1  0
322304  1  0
  8  9  2  0
322323  2  0
148153  1  6
322324  1  0
  8 10  1  0
308325  1  0
325285  1  0
149154  1  6
325326  1  0
 10 11  1  0
325327  2  0
151155  2  0
289328  1  0
328266  1  0
 11 12  2  0
328329  1  0
 19156  1  0
328330  2  0
162321  1  0
 11 13  1  0
 84331  1  0
 73 75  1  0
156157  1  0
  4332  1  0
M  END