
          11280715012D 1   1.00000     0.00000     0

 28 30  0     0  0            999 V2000
   12.4542   -3.6917    0.0000 N   0  0  0  0  0  0           0  0  0
    8.7792   -4.9375    0.0000 C   0  0  0  0  0  0           0  0  0
   13.6792   -4.2375    0.0000 N   0  0  0  0  0  0           0  0  0
   13.2667   -3.5167    0.0000 C   0  0  0  0  0  0           0  0  0
   12.3667   -4.5167    0.0000 C   0  0  0  0  0  0           0  0  0
    8.7792   -5.7667    0.0000 N   0  0  0  0  0  0           0  0  0
    4.4750   -5.7542    0.0000 N   0  0  0  0  0  0           0  0  0
   13.1292   -4.8542    0.0000 C   0  0  0  0  0  0           0  0  0
    5.1917   -4.5167    0.0000 C   0  0  3  0  0  0           0  0  0
    4.4750   -4.9375    0.0000 C   0  0  0  0  0  0           0  0  0
    9.5000   -4.5167    0.0000 N   0  0  0  0  0  0           0  0  0
    8.0625   -4.5167    0.0000 N   0  0  0  0  0  0           0  0  0
    5.1917   -3.6917    0.0000 C   0  0  0  0  0  0           0  0  0
   11.6500   -4.9375    0.0000 C   0  0  0  0  0  0           0  0  0
    3.7542   -6.1750    0.0000 C   0  0  0  0  0  0           0  0  0
    5.9042   -4.9375    0.0000 C   0  0  0  0  0  0           0  0  0
    3.7542   -4.5167    0.0000 C   0  0  0  0  0  0           0  0  0
    7.3417   -4.9375    0.0000 C   0  0  0  0  0  0           0  0  0
   10.2167   -4.9375    0.0000 C   0  0  0  0  0  0           0  0  0
    5.9125   -3.2792    0.0000 C   0  0  0  0  0  0           0  0  0
    4.4750   -3.2792    0.0000 C   0  0  0  0  0  0           0  0  0
   10.9375   -4.5167    0.0000 C   0  0  0  0  0  0           0  0  0
    6.6250   -4.5167    0.0000 C   0  0  0  0  0  0           0  0  0
    3.0375   -5.7625    0.0000 C   0  0  0  0  0  0           0  0  0
    3.0375   -4.9292    0.0000 C   0  0  0  0  0  0           0  0  0
    5.9125   -2.4542    0.0000 C   0  0  0  0  0  0           0  0  0
    4.4750   -2.4542    0.0000 C   0  0  0  0  0  0           0  0  0
    5.1917   -2.0292    0.0000 C   0  0  0  0  0  0           0  0  0
  2 11  1  0     0  0
  3  4  1  0     0  0
  4  1  2  0     0  0
  5  1  1  0     0  0
  6  2  2  0     0  0
  7 10  1  0     0  0
  8  5  2  0     0  0
  9 16  1  0     0  0
 10  9  1  0     0  0
 11 19  1  0     0  0
 12  2  1  0     0  0
 13  9  1  0     0  0
 14  5  1  0     0  0
 15  7  2  0     0  0
 16 23  1  0     0  0
 17 10  2  0     0  0
 18 12  1  0     0  0
 19 22  1  0     0  0
 20 13  2  0     0  0
 21 13  1  0     0  0
 22 14  1  0     0  0
 23 18  1  0     0  0
 24 25  2  0     0  0
 25 17  1  0     0  0
 26 20  1  0     0  0
 27 21  2  0     0  0
 28 27  1  0     0  0
  3  8  1  0     0  0
 28 26  2  0     0  0
 15 24  1  0     0  0
M  END