
  SciTegic05061409512D

 25 28  0  0  0  0            999 V2000
   26.2368  -22.8855    0.0000 C   0  0
   25.4196  -22.8855    0.0000 C   0  0
   25.0133  -23.5893    0.0000 C   0  0
   25.4196  -24.2976    0.0000 C   0  0
   26.2368  -24.2976    0.0000 C   0  0
   26.6476  -23.5893    0.0000 N   0  0
   24.1977  -23.5845    0.0000 N   0  0
   23.7182  -22.9227    0.0000 C   0  0
   22.9407  -23.1742    0.0000 C   0  0
   22.9396  -23.9914    0.0000 C   0  0
   23.7164  -24.2449    0.0000 C   0  0
   27.4611  -23.5891    0.0000 C   0  0
   27.8701  -24.2978    0.0000 C   0  0
   28.6865  -24.2970    0.0000 C   0  0
   29.0950  -23.5882    0.0000 C   0  0
   28.6810  -22.8787    0.0000 C   0  0
   27.8659  -22.8830    0.0000 C   0  0
   29.9121  -23.5860    0.0000 C   0  0
   30.3188  -22.8772    0.0000 C   0  0
   31.1360  -22.8750    0.0000 N   0  0
   31.5441  -23.5817    0.0000 C   0  0
   32.3577  -23.5814    0.0000 C   0  0
   32.7682  -22.8744    0.0000 C   0  0
   32.3589  -22.1660    0.0000 C   0  0
   31.5391  -22.1646    0.0000 C   0  0
  1  2  1  0
  1  6  1  0
  2  3  1  0
  3  4  1  0
  4  5  1  0
  5  6  1  0
  7  8  1  0
  8  9  1  0
  9 10  1  0
 10 11  1  0
 11  7  1  0
  3  7  1  0
 12 13  2  0
 13 14  1  0
 14 15  2  0
 15 16  1  0
 16 17  2  0
 17 12  1  0
  6 12  1  0
 15 18  1  0
 18 19  1  0
 19 20  1  0
 20 21  1  0
 20 25  1  0
 21 22  1  0
 22 23  1  0
 23 24  1  0
 24 25  1  0
M  END