
  SciTegic07101214422D

 21 23  0  0  0  0            999 V2000
   12.2527    0.8500    0.0000 C   0  0
   12.2516    0.0227    0.0000 C   0  0
   12.9664   -0.3902    0.0000 N   0  0
   13.6828    0.0231    0.0000 C   0  0
   13.6800    0.8537    0.0000 N   0  0
   12.9646    1.2628    0.0000 N   0  0
   14.3980   -0.3882    0.0000 N   0  0
   11.5382    1.2624    0.0000 C   0  0
   11.5368   -0.3893    0.0000 C   0  0
   11.5414    2.0883    0.0000 C   0  0
   10.8277    2.5006    0.0000 C   0  0
   10.1123    2.0878    0.0000 C   0  0
   10.1152    1.2586    0.0000 C   0  0
   10.8295    0.8501    0.0000 C   0  0
   10.8243    0.0252    0.0000 C   0  0
   10.1100   -0.3860    0.0000 C   0  0
   10.1089   -1.2119    0.0000 C   0  0
   10.8280   -1.6248    0.0000 C   0  0
   11.5394   -1.2112    0.0000 C   0  0
   10.8279    3.3256    0.0000 Cl  0  0
    9.4023    0.8434    0.0000 Cl  0  0
  2  3  1  0
 10 11  1  0
  5  6  2  0
 11 12  2  0
  6  1  1  0
 12 13  1  0
  1  2  2  0
 13 14  2  0
 14  8  1  0
  4  7  1  0
  9 15  2  0
  3  4  2  0
 15 16  1  0
  1  8  1  0
 16 17  2  0
 17 18  1  0
  2  9  1  0
 18 19  2  0
 19  9  1  0
  4  5  1  0
 11 20  1  0
  8 10  2  0
 13 21  1  0
M  END