
          02060813482D 1   1.00000     0.00000     0

 53 57  0     1  0            999 V2000
   24.2646   -9.5709    0.0000 C   0  0  0  0  0  0           0  0  0
   24.9756   -9.9905    0.0000 C   0  0  0  0  0  0           0  0  0
   25.6914   -9.5817    0.0000 C   0  0  0  0  0  0           0  0  0
   25.6952   -8.7559    0.0000 C   0  0  0  0  0  0           0  0  0
   24.9775   -8.3405    0.0000 C   0  0  0  0  0  0           0  0  0
   24.2648   -8.7517    0.0000 C   0  0  0  0  0  0           0  0  0
   14.9875   -7.4846    0.0000 N   0  0  0  0  0  0           0  0  0
   15.7019   -7.0721    0.0000 C   0  0  2  0  0  0           0  0  0
   16.4164   -7.4846    0.0000 C   0  0  0  0  0  0           0  0  0
   15.7019   -6.2471    0.0000 C   0  0  0  0  0  0           0  0  0
   14.9875   -5.8346    0.0000 C   0  0  0  0  0  0           0  0  0
   14.9902   -5.0085    0.0000 C   0  0  0  0  0  0           0  0  0
   14.2767   -4.5961    0.0000 C   0  0  0  0  0  0           0  0  0
   13.5612   -5.0086    0.0000 C   0  0  0  0  0  0           0  0  0
   13.5639   -5.8379    0.0000 C   0  0  0  0  0  0           0  0  0
   14.2781   -6.2466    0.0000 C   0  0  0  0  0  0           0  0  0
   14.2807   -7.0716    0.0000 C   0  0  0  0  0  0           0  0  0
   15.7056   -4.5973    0.0000 C   0  0  0  0  0  0           0  0  0
   12.8461   -4.5971    0.0000 O   0  0  0  0  0  0           0  0  0
   16.4164   -8.3096    0.0000 O   0  0  0  0  0  0           0  0  0
   17.1310   -7.0721    0.0000 N   0  0  3  0  0  0           0  0  0
   17.8398   -7.4870    0.0000 C   0  0  1  0  0  0           0  0  0
   18.5522   -7.0781    0.0000 C   0  0  0  0  0  0           0  0  0
   17.1235   -6.2487    0.0000 C   0  0  0  0  0  0           0  0  0
   17.8421   -5.8380    0.0000 C   0  0  0  0  0  0           0  0  0
   18.5534   -6.2524    0.0000 C   0  0  0  0  0  0           0  0  0
   19.2657   -5.8435    0.0000 C   0  0  0  0  0  0           0  0  0
   19.2679   -5.0206    0.0000 C   0  0  0  0  0  0           0  0  0
   18.5519   -4.6082    0.0000 C   0  0  0  0  0  0           0  0  0
   17.8426   -5.0193    0.0000 C   0  0  0  0  0  0           0  0  0
   17.8363   -8.3120    0.0000 C   0  0  0  0  0  0           0  0  0
   17.1201   -8.7216    0.0000 O   0  0  0  0  0  0           0  0  0
   18.5491   -8.7276    0.0000 N   0  0  0  0  0  0           0  0  0
   17.8337   -6.6596    0.0000 H   0  0  0  0  0  0           0  0  0
   19.2652   -8.3181    0.0000 C   0  0  0  0  0  0           0  0  0
   19.9780   -8.7336    0.0000 C   0  0  0  0  0  0           0  0  0
   20.6942   -8.3241    0.0000 C   0  0  0  0  0  0           0  0  0
   21.4069   -8.7396    0.0000 C   0  0  0  0  0  0           0  0  0
   22.1231   -8.3301    0.0000 C   0  0  1  0  0  0           0  0  0
   22.8358   -8.7457    0.0000 C   0  0  0  0  0  0           0  0  0
   22.1266   -7.5052    0.0000 N   0  0  0  0  0  0           0  0  0
   22.8324   -9.5707    0.0000 O   0  0  0  0  0  0           0  0  0
   23.5520   -8.3361    0.0000 N   0  0  0  0  0  0           0  0  0
   22.8428   -7.0957    0.0000 C   0  0  0  0  0  0           0  0  0
   23.5555   -7.5111    0.0000 O   0  0  0  0  0  0           0  0  0
   22.8462   -6.2707    0.0000 O   0  0  0  0  0  0           0  0  0
   23.5624   -5.8611    0.0000 C   0  0  0  0  0  0           0  0  0
   23.5660   -5.0361    0.0000 C   0  0  0  0  0  0           0  0  0
   24.2808   -4.6290    0.0000 C   0  0  0  0  0  0           0  0  0
   24.2847   -3.8048    0.0000 C   0  0  0  0  0  0           0  0  0
   23.5713   -3.3884    0.0000 C   0  0  0  0  0  0           0  0  0
   22.8528   -3.8024    0.0000 C   0  0  0  0  0  0           0  0  0
   22.8525   -4.6252    0.0000 C   0  0  0  0  0  0           0  0  0
 25 26  2  0     0  0
  1  2  2  0     0  0
 26 27  1  0     0  0
 13 14  2  0     0  0
 27 28  2  0     0  0
  3  4  2  0     0  0
 28 29  1  0     0  0
 14 15  1  0     0  0
 29 30  2  0     0  0
 30 25  1  0     0  0
  7  8  1  0     0  0
 22 31  1  0     0  0
 15 16  2  0     0  0
 31 32  2  0     0  0
 16 11  1  0     0  0
 31 33  1  0     0  0
 22 34  1  6     0  0
 16 17  1  0     0  0
 33 35  1  0     0  0
  8  9  1  0     0  0
 35 36  1  0     0  0
 12 18  1  0     0  0
 36 37  1  0     0  0
  4  5  1  0     0  0
 37 38  1  0     0  0
 14 19  1  0     0  0
 38 39  1  0     0  0
  8 10  1  1     0  0
 39 40  1  0     0  0
  9 20  2  0     0  0
 39 41  1  6     0  0
  2  3  1  0     0  0
 40 42  2  0     0  0
  9 21  1  0     0  0
 40 43  1  0     0  0
 21 22  1  0     0  0
 41 44  1  0     0  0
 43  6  1  0     0  0
 10 11  1  0     0  0
 44 45  2  0     0  0
  5  6  2  0     0  0
 44 46  1  0     0  0
 11 12  2  0     0  0
 46 47  1  0     0  0
 21 24  1  0     0  0
 47 48  1  0     0  0
 22 23  1  0     0  0
 48 49  2  0     0  0
 23 26  1  0     0  0
 49 50  1  0     0  0
 25 24  1  0     0  0
 50 51  2  0     0  0
  6  1  1  0     0  0
 51 52  1  0     0  0
 12 13  1  0     0  0
 52 53  2  0     0  0
 53 48  1  0     0  0
M  END