
  SciTegic12091219302D

 21 22  0  0  0  0            999 V2000
   -1.4833    1.4625    0.0000 N   0  3
   -1.4833   -1.7375    0.0000 N   0  3
   -2.7208   -1.7375    0.0000 C   0  0
   -2.8750    1.4625    0.0000 C   0  0
   -3.6458   -0.2542    0.0000 O   0  0
    2.4167    0.4833    0.0000 N   0  0
    2.3167   -0.8792    0.0000 N   0  0
   -0.9333    0.4833    0.0000 C   0  0
   -0.9625   -2.6667    0.0000 C   0  0
   -0.9958   -0.8250    0.0000 C   0  0
   -0.9333    2.4208    0.0000 C   0  0
    1.6917   -1.6792    0.0000 C   0  0
    1.8625    1.4625    0.0000 C   0  0
    0.7167    1.4625    0.0000 C   0  0
    0.6542   -1.6792    0.0000 C   0  0
    3.7000    0.4833    0.0000 O   0  0
    3.4375   -0.8792    0.0000 O   0  0
    0.2125    2.4208    0.0000 C   0  0
    0.1667    0.4833    0.0000 C   0  0
    0.1042   -2.6667    0.0000 C   0  0
    0.1375   -0.8250    0.0000 C   0  0
  2  3  1  0
  3  5  1  0
  4  1  1  0
  5  4  1  0
  6 13  2  0
  7 12  2  0
  8  1  1  0
  9  2  1  0
 10  2  2  0
 11  1  2  0
 12 15  1  0
 13 14  1  0
 14 19  1  0
 15 20  1  0
 16  6  1  0
 17  7  1  0
 18 11  1  0
 19  8  2  0
 20  9  2  0
 21 10  1  0
 18 14  2  0
 21 15  2  0
M  CHG  2   1   1   2   1
M  END