
          11280715352D 1   1.00000     0.00000     0

 37 40  0     1  0            999 V2000
    4.6417   -3.9542    0.0000 C   0  0  0  0  0  0           0  0  0
    3.6250   -5.7042    0.0000 N   0  0  3  0  0  0           0  0  0
    4.6375   -5.1292    0.0000 C   0  0  0  0  0  0           0  0  0
    4.1375   -4.8417    0.0000 C   0  0  0  0  0  0           0  0  0
    4.6375   -5.7167    0.0000 C   0  0  0  0  0  0           0  0  0
    4.1375   -4.2542    0.0000 C   0  0  0  0  0  0           0  0  0
    3.6292   -5.1167    0.0000 C   0  0  0  0  0  0           0  0  0
    5.1500   -4.2542    0.0000 C   0  0  2  0  0  0           0  0  0
    5.6625   -3.9667    0.0000 N   0  0  3  0  0  0           0  0  0
    5.1500   -4.8417    0.0000 C   0  0  0  0  0  0           0  0  0
    4.6500   -3.3667    0.0000 C   0  0  0  0  0  0           0  0  0
    6.1917   -2.5042    0.0000 C   0  0  0  0  0  0           0  0  0
    5.1625   -3.0792    0.0000 C   0  0  2  0  0  0           0  0  0
    5.6750   -3.3792    0.0000 C   0  0  0  0  0  0           0  0  0
    8.7000   -5.2667    0.0000 C   0  0  0  0  0  0           0  0  0
    7.4917   -5.2542    0.0000 C   0  0  0  0  0  0           0  0  0
    8.4000   -4.7417    0.0000 C   0  0  0  0  0  0           0  0  0
    7.8000   -4.7417    0.0000 C   0  0  0  0  0  0           0  0  0
    5.6875   -2.2042    0.0000 O   0  0  0  0  0  0           0  0  0
    3.2000   -6.1167    0.0000 C   0  0  3  0  0  0           0  0  0
    6.1875   -3.0917    0.0000 O   0  0  0  0  0  0           0  0  0
    7.8000   -5.7792    0.0000 O   0  0  0  0  0  0           0  0  0
    9.3000   -5.2667    0.0000 O   0  0  0  0  0  0           0  0  0
    6.7042   -2.2167    0.0000 C   0  0  3  0  0  0           0  0  0
    5.1667   -2.4917    0.0000 C   0  0  0  0  0  0           0  0  0
    3.1250   -4.8417    0.0000 C   0  0  0  0  0  0           0  0  0
    3.6250   -3.9542    0.0000 C   0  0  0  0  0  0           0  0  0
    6.1750   -4.2667    0.0000 C   0  0  0  0  0  0           0  0  0
    8.4000   -5.7792    0.0000 O   0  0  0  0  0  0           0  0  0
    6.8917   -5.2542    0.0000 O   0  0  0  0  0  0           0  0  0
    3.1250   -4.2542    0.0000 C   0  0  0  0  0  0           0  0  0
    7.4375   -1.8167    0.0000 C   0  0  0  0  0  0           0  0  0
    7.2750   -2.3792    0.0000 C   0  0  0  0  0  0           0  0  0
    6.8667   -1.6542    0.0000 C   0  0  0  0  0  0           0  0  0
    3.3500   -6.7042    0.0000 C   0  0  0  0  0  0           0  0  0
    2.6167   -5.9542    0.0000 C   0  0  0  0  0  0           0  0  0
    5.6625   -4.5542    0.0000 H   0  0  0  0  0  0           0  0  0
  2  7  1  0     0  0
  3 10  1  0     0  0
  4  6  2  0     0  0
  5  3  2  0     0  0
  6  1  1  0     0  0
  7  4  1  0     0  0
  8  1  1  0     0  0
  9  8  1  0     0  0
 10  8  1  0     0  0
 11  1  2  0     0  0
 12 19  1  0     0  0
 13 11  1  0     0  0
 14 13  1  0     0  0
 16 18  1  0     0  0
 17 15  1  0     0  0
 18 17  2  0     0  0
 19 25  1  0     0  0
 20  2  1  0     0  0
 21 12  2  0     0  0
 22 16  2  0     0  0
 23 15  2  0     0  0
 24 12  1  0     0  0
 13 25  1  1     0  0
 26  7  2  0     0  0
 27  6  1  0     0  0
 28  9  1  0     0  0
 29 15  1  0     0  0
 30 16  1  0     0  0
 31 27  2  0     0  0
 32 34  1  0     0  0
 33 24  1  0     0  0
 34 24  1  0     0  0
 35 20  1  0     0  0
 36 20  1  0     0  0
  8 37  1  1     0  0
  3  4  1  0     0  0
 14  9  1  0     0  0
 31 26  1  0     0  0
  5  2  1  0     0  0
 32 33  1  0     0  0
M  END