
  SciTegic10311316262D

 32 34  0  0  0  0            999 V2000
    2.1404   -9.8229    0.0000 O   0  0
    1.7320   -9.1104    0.0000 S   0  0
    1.3192   -9.8203    0.0000 O   0  0
    2.4515   -7.8729    0.0000 C   0  0
    2.4503   -8.7003    0.0000 C   0  0
    3.1651   -9.1131    0.0000 C   0  0
    3.8815   -8.6998    0.0000 C   0  0
    3.8787   -7.8693    0.0000 C   0  0
    3.1633   -7.4601    0.0000 C   0  0
    1.0214   -8.6991    0.0000 N   0  0
    4.5916   -7.4541    0.0000 N   0  0
    5.3076   -7.8639    0.0000 C   0  0
    6.0205   -7.4487    0.0000 C   0  0
    5.3107   -8.6889    0.0000 O   0  0
    6.7366   -7.8585    0.0000 S   0  0
    7.4495   -7.4433    0.0000 C   0  0
    8.1654   -7.8563    0.0000 N   0  0
    8.8762   -7.4446    0.0000 C   0  0
    8.8773   -6.6193    0.0000 C   0  0
    8.1614   -6.2072    0.0000 C   0  0
    7.4444   -6.6206    0.0000 N   0  0
    8.1611   -5.3822    0.0000 O   0  0
    9.5925   -6.2110    0.0000 C   0  0
   10.3069   -5.7985    0.0000 N   0  0
    9.5890   -7.8562    0.0000 C   0  0
    9.5876   -8.6823    0.0000 C   0  0
   10.3012   -9.0948    0.0000 C   0  0
   11.0167   -8.6822    0.0000 C   0  0
   11.0140   -7.8530    0.0000 C   0  0
   10.2998   -7.4443    0.0000 C   0  0
    6.0174   -6.6237    0.0000 C   0  0
   11.7317   -9.0938    0.0000 Cl  0  0
  2  1  2  0
  3  2  2  0
  4  5  2  0
  5  6  1  0
  6  7  2  0
  7  8  1  0
  8  9  2  0
  9  4  1  0
  5  2  1  0
  2 10  1  0
  8 11  1  0
 11 12  1  0
 12 13  1  0
 12 14  2  0
 13 15  1  0
 15 16  1  0
 16 17  2  0
 16 21  1  0
 17 18  1  0
 18 19  2  0
 19 20  1  0
 20 21  1  0
 20 22  2  0
 23 24  3  0
 19 23  1  0
 25 26  2  0
 26 27  1  0
 27 28  2  0
 28 29  1  0
 29 30  2  0
 30 25  1  0
 18 25  1  0
 13 31  1  0
 28 32  1  0
M  END