
  SciTegic02211115552D

 14 15  0  0  0  0            999 V2000
   10.3069   -0.3166    0.0000 C   0  0
   10.3057   -1.1440    0.0000 C   0  0
   11.0206   -1.5569    0.0000 C   0  0
   11.7370   -1.1435    0.0000 C   0  0
   11.7341   -0.3130    0.0000 C   0  0
   11.0188    0.0961    0.0000 C   0  0
   11.0254   -2.3818    0.0000 N   0  0
   10.3579   -2.8666    0.0000 C   0  0
   10.6126   -3.6513    0.0000 C   0  0
   11.4377   -3.6515    0.0000 C   0  0
   11.6927   -2.8669    0.0000 C   0  0
   12.4773   -2.6121    0.0000 O   0  0
    9.5733   -2.6115    0.0000 O   0  0
   11.0163    0.9211    0.0000 O   0  0
  1  2  2  0
  3  4  2  0
  4  5  1  0
  2  3  1  0
  8  9  1  0
  9 10  1  0
 10 11  1  0
 11  7  1  0
  3  7  1  0
  5  6  2  0
 11 12  2  0
  6  1  1  0
  8 13  2  0
  7  8  1  0
  6 14  1  0
M  END