
  SciTegic01161211252D

 18 18  0  0  0  0            999 V2000
   -5.2901  -10.9519    0.0000 C   0  0
   -4.5762  -10.5385    0.0000 C   0  0
   -3.8622  -10.9476    0.0000 C   0  0
   -3.1482  -10.5343    0.0000 C   0  0
   -2.4342  -10.9434    0.0000 C   0  0
   -1.7203  -10.5301    0.0000 C   0  0
   -1.0063  -10.9393    0.0000 C   0  0
   -0.2916  -10.5237    0.0000 O   0  0
    0.4257  -10.9347    0.0000 C   0  0
    0.4257  -11.7587    0.0000 C   0  0
    1.1422  -12.1698    0.0000 C   0  0
    1.8577  -11.7540    0.0000 C   0  0
    1.8524  -10.9231    0.0000 C   0  0
    1.1354  -10.5158    0.0000 C   0  0
    1.1286   -9.6891    0.0000 O   0  0
    2.5756  -12.1642    0.0000 C   0  0
    2.5793  -12.9909    0.0000 O   0  0
    3.2897  -11.7476    0.0000 O   0  0
  4  5  1  0
  9 10  2  0
  2  3  1  0
 10 11  1  0
  5  6  1  0
 11 12  2  0
  1  2  1  0
 12 13  1  0
  6  7  1  0
 13 14  2  0
 14  9  1  0
  3  4  1  0
 14 15  1  0
  7  8  1  0
 12 16  1  0
 16 17  2  0
  8  9  1  0
 16 18  1  0
M  END