
          11280714542D 1   1.00000     0.00000     0

 32 33  0     0  0            999 V2000
   13.2542   -2.9375    0.0000 C   0  0  0  0  0  0           0  0  0
   12.8417   -3.6542    0.0000 C   0  0  0  0  0  0           0  0  0
    2.1917   -6.8667    0.0000 N   0  0  3  0  0  0           0  0  0
    9.3375   -4.3917    0.0000 C   0  0  0  0  0  0           0  0  0
    9.3375   -3.5667    0.0000 N   0  0  0  0  0  0           0  0  0
    8.6167   -4.8042    0.0000 C   0  0  0  0  0  0           0  0  0
   12.8417   -2.2167    0.0000 O   0  0  0  0  0  0           0  0  0
   13.2542   -4.3792    0.0000 O   0  0  0  0  0  0           0  0  0
    2.9042   -7.2792    0.0000 C   0  0  0  0  0  0           0  0  0
    8.6167   -5.6375    0.0000 C   0  0  0  0  0  0           0  0  0
    7.9000   -4.3917    0.0000 C   0  0  0  0  0  0           0  0  0
    6.4792   -6.0417    0.0000 O   0  0  0  0  0  0           0  0  0
    7.1917   -5.6292    0.0000 C   0  0  0  0  0  0           0  0  0
   14.0875   -2.9375    0.0000 O   0  0  0  0  0  0           0  0  0
   12.0125   -3.6542    0.0000 O   0  0  0  0  0  0           0  0  0
    3.6167   -6.8667    0.0000 C   0  0  0  0  0  0           0  0  0
    5.0500   -6.0417    0.0000 C   0  0  0  0  0  0           0  0  0
    5.7667   -5.6292    0.0000 C   0  0  0  0  0  0           0  0  0
    7.9042   -6.0417    0.0000 C   0  0  0  0  0  0           0  0  0
    7.1917   -4.8125    0.0000 C   0  0  0  0  0  0           0  0  0
   10.0500   -3.1542    0.0000 O   0  0  0  0  0  0           0  0  0
    3.6167   -6.0417    0.0000 C   0  0  0  0  0  0           0  0  0
    4.3292   -7.2792    0.0000 C   0  0  0  0  0  0           0  0  0
    5.0500   -6.8667    0.0000 C   0  0  0  0  0  0           0  0  0
    4.3292   -5.6292    0.0000 C   0  0  0  0  0  0           0  0  0
    1.4792   -7.2750    0.0000 C   0  0  0  0  0  0           0  0  0
    2.1917   -6.0417    0.0000 C   0  0  0  0  0  0           0  0  0
   10.0542   -4.8042    0.0000 C   0  0  0  0  0  0           0  0  0
   10.0500   -2.3292    0.0000 C   0  0  0  0  0  0           0  0  0
    0.7667   -6.8667    0.0000 C   0  0  0  0  0  0           0  0  0
    1.4792   -5.6250    0.0000 C   0  0  0  0  0  0           0  0  0
    0.7667   -6.0417    0.0000 C   0  0  0  0  0  0           0  0  0
  2  1  1  0     0  0
  4  6  1  0     0  0
  5  4  2  0     0  0
  6 11  1  0     0  0
  7  1  2  0     0  0
  8  2  2  0     0  0
  9  3  1  0     0  0
 10 19  1  0     0  0
 11 20  2  0     0  0
 12 18  1  0     0  0
 13 12  1  0     0  0
 14  1  1  0     0  0
 15  2  1  0     0  0
 16  9  1  0     0  0
 17 24  2  0     0  0
 18 17  1  0     0  0
 19 13  2  0     0  0
 20 13  1  0     0  0
 21  5  1  0     0  0
 22 16  1  0     0  0
 23 16  2  0     0  0
 24 23  1  0     0  0
 25 22  2  0     0  0
 26  3  1  0     0  0
 27  3  1  0     0  0
 28  4  1  0     0  0
 29 21  1  0     0  0
 30 26  1  0     0  0
 31 27  1  0     0  0
 32 31  1  0     0  0
 30 32  1  0     0  0
 17 25  1  0     0  0
  6 10  2  0     0  0
M  END