
  SciTegic04191613082D

178188  0  0  1  0            999 V2000
  -13.2528   31.0203    0.0000 C   0  0
  -11.7714   31.2557    0.0000 C   0  0
  -10.8269   30.0903    0.0000 C   0  0
  -11.3638   28.6897    0.0000 C   0  0
  -12.8453   28.4544    0.0000 C   0  0
  -13.7898   29.6197    0.0000 C   0  0
  -13.2748   27.3339    0.0000 O   0  0
  -11.2313   32.6560    0.0000 C   0  0
   -9.7369   32.8911    0.0000 C   0  0  2  0  0  0
   -8.8919   31.6518    0.0000 N   0  0
   -7.8275   30.5948    0.0000 C   0  0
   -8.4616   29.8215    0.0000 O   0  0
   -6.5824   29.7584    0.0000 C   0  0  1  0  0  0
   -5.2015   29.1727    0.0000 N   0  0
   -3.7347   28.8589    0.0000 C   0  0
   -3.8730   27.6669    0.0000 O   0  0
   -2.2350   28.8284    0.0000 C   0  0  2  0  0  0
   -2.1247   27.3197    0.0000 C   0  0
   -0.7742   26.6651    0.0000 C   0  0
    0.4825   27.5052    0.0000 C   0  0
    1.8290   26.8510    0.0000 C   0  0
    3.0687   27.6902    0.0000 C   0  0
    4.4153   27.0359    0.0000 C   0  0
    4.5220   25.5424    0.0000 C   0  0
    3.2823   24.7032    0.0000 C   0  0
    1.9358   25.3575    0.0000 C   0  0
    0.6961   24.5183    0.0000 C   0  0
   -0.6687   25.1713    0.0000 C   0  0
   -0.7566   29.0823    0.0000 N   0  0
    0.6470   29.6113    0.0000 C   0  0
    1.1750   28.5338    0.0000 O   0  0
    1.9251   30.3965    0.0000 C   0  0  1  0  0  0
    2.2558   28.9244    0.0000 C   0  0
    3.6862   28.4727    0.0000 C   0  0
    4.7926   29.4855    0.0000 C   0  0
    4.4687   30.9501    0.0000 C   0  0
    3.0315   31.4093    0.0000 N   0  0
    3.9263   32.6132    0.0000 C   0  0
    4.7820   32.0957    0.0000 O   0  0
    4.5770   33.9647    0.0000 C   0  0  1  0  0  0
    5.9952   33.4382    0.0000 C   0  0
    7.1516   34.3948    0.0000 C   0  0
    8.0891   34.0468    0.0000 O   0  0
    6.9512   35.5780    0.0000 O   0  0
    4.9602   35.4149    0.0000 N   0  0
    5.0621   36.9115    0.0000 C   0  0
    6.2616   36.9442    0.0000 O   0  0
    4.8788   38.4002    0.0000 C   0  0
    4.4171   39.8274    0.0000 N   0  0
    5.6151   39.8982    0.0000 C   0  0
    3.6937   41.1414    0.0000 C   0  0
    2.7347   42.2948    0.0000 C   0  0  1  0  0  0
    1.5747   43.2458    0.0000 N   0  0
    0.2557   43.9601    0.0000 C   0  0
    0.6462   44.8808    0.0000 O   0  0
   -1.1746   44.4119    0.0000 C   0  0
   -2.6646   44.5848    0.0000 C   0  0
   -4.1604   44.4727    0.0000 C   0  0
   -2.6602   44.5191    0.0000 C   0  0
   -1.1790   44.2823    0.0000 C   0  0
   -0.5715   44.3378    0.0000 C   0  0
    0.2242   43.7522    0.0000 C   0  0
    0.6704   44.6471    0.0000 O   0  0
    1.4919   42.9504    0.0000 N   0  0
    2.5724   41.9099    0.0000 C   0  0
    3.4212   40.6732    0.0000 C   0  0  1  0  0  0
    4.9170   40.8980    0.0000 C   0  0
    5.6645   39.9593    0.0000 O   0  0
    5.4667   42.2945    0.0000 N   0  0
    6.9509   42.5176    0.0000 C   0  0  1  0  0  0
    7.5006   43.9141    0.0000 C   0  0
    8.9848   44.1372    0.0000 C   0  0
    9.5345   45.5338    0.0000 C   0  0
   11.0187   45.7568    0.0000 C   0  0
   11.4583   46.8734    0.0000 N   0  0
    7.8882   41.3455    0.0000 C   0  0
    9.0747   41.5252    0.0000 O   0  0
    7.4510   40.2280    0.0000 O   0  0
    4.0037   39.2909    0.0000 N   0  0
    4.2961   37.8197    0.0000 C   0  0
    4.2863   36.3197    0.0000 C   0  0  2  0  0  0
    5.6450   35.6550    0.0000 C   0  0
    6.8908   36.4920    0.0000 C   0  0
    8.2389   35.8325    0.0000 C   0  0
    9.4847   36.6694    0.0000 N   0  0
   10.8328   36.0099    0.0000 C   0  0
   10.9147   34.8127    0.0000 N   0  0
   11.8289   36.6791    0.0000 N   0  0
    3.9748   34.8524    0.0000 N   0  0
    3.3743   33.4779    0.0000 C   0  0
    2.5094   32.2524    0.0000 C   0  0  1  0  0  0
    1.4155   31.2260    0.0000 N   0  0
    0.1373   30.4409    0.0000 C   0  0
    0.5719   29.5402    0.0000 O   0  0
   -1.2727   29.9291    0.0000 C   0  0  1  0  0  0
   -2.7568   29.7117    0.0000 N   0  0
   -4.2544   29.7974    0.0000 C   0  0
   -4.4438   28.6125    0.0000 O   0  0
   -5.7040   30.1829    0.0000 C   0  0  1  0  0  0
   -7.0464   30.8522    0.0000 N   0  0
   -8.2265   31.7781    0.0000 C   0  0
   -9.0589   30.9137    0.0000 O   0  0
   -9.1961   32.9226    0.0000 C   0  0  1  0  0  0
   -9.9155   34.2388    0.0000 N   0  0
  -10.3552   35.6729    0.0000 C   0  0
  -10.4972   37.1662    0.0000 C   0  0  1  0  0  0
  -10.3357   38.6575    0.0000 N   0  0
   -9.8774   40.0857    0.0000 C   0  0
  -10.9802   40.5589    0.0000 O   0  0
   -9.1578   41.4029    0.0000 C   0  0  1  0  0  0
   -9.9340   40.1194    0.0000 N   0  0
  -10.4534   38.7121    0.0000 C   0  0
  -10.6970   37.2320    0.0000 C   0  0  2  0  0  0
  -10.6561   35.7326    0.0000 N   0  0
  -10.3322   34.2680    0.0000 C   0  0
  -11.4739   33.8987    0.0000 O   0  0
  -11.6947   37.2999    0.0000 C   0  0
  -11.6135   39.0187    0.0000 O   0  0
   -8.1526   42.5163    0.0000 C   0  0
   -6.9549   43.4193    0.0000 N   0  0
   -5.6080   44.0794    0.0000 C   0  0
   -6.0312   45.2023    0.0000 O   0  0
  -11.9209   36.6554    0.0000 C   0  0
  -13.0668   37.6247    0.0000 C   0  0
  -14.5668   37.6337    0.0000 C   0  0
  -15.3090   38.9373    0.0000 C   0  0
  -14.5512   40.2318    0.0000 C   0  0
  -13.0512   40.2228    0.0000 C   0  0
  -12.3090   38.9193    0.0000 C   0  0
  -11.5322   35.4390    0.0000 O   0  0
  -10.4415   32.0642    0.0000 C   0  0
  -11.7974   32.7077    0.0000 C   0  0
  -11.9289   34.2136    0.0000 C   0  0
  -13.2820   34.8541    0.0000 C   0  0
  -13.4037   36.3462    0.0000 C   0  0
  -14.7568   36.9867    0.0000 C   0  0
  -15.9883   36.1351    0.0000 C   0  0
  -15.8667   34.6430    0.0000 C   0  0
  -14.5136   34.0025    0.0000 C   0  0
  -14.3919   32.5103    0.0000 C   0  0
  -13.0284   31.8548    0.0000 C   0  0
   -6.2358   28.7669    0.0000 C   0  0
   -5.2836   27.6068    0.0000 C   0  0
   -5.8113   26.2018    0.0000 C   0  0
   -4.8591   25.0417    0.0000 N   0  0
   -5.3868   23.6367    0.0000 C   0  0
   -4.7523   22.8637    0.0000 N   0  0
   -6.5707   23.4408    0.0000 N   0  0
   -1.4241   28.4242    0.0000 C   0  0
   -2.7921   27.8068    0.0000 C   0  0
   -2.4226   26.3522    0.0000 C   0  0
   -3.4970   25.3042    0.0000 N   0  0
   -3.1275   23.8496    0.0000 C   0  0
   -3.9865   23.0117    0.0000 N   0  0
   -1.9724   23.5243    0.0000 N   0  0
    3.9223   31.7126    0.0000 C   0  0
    5.0878   32.6582    0.0000 C   0  0
    6.4898   32.1226    0.0000 C   0  0
    7.6552   33.0683    0.0000 N   0  0
    9.0572   32.5327    0.0000 C   0  0
    9.2465   31.3477    0.0000 N   0  0
    9.9890   33.2888    0.0000 N   0  0
    4.4197   32.8887    0.0000 O   0  0
    5.4907   37.9333    0.0000 O   0  0
    2.1266   44.6500    0.0000 C   0  0
    3.6240   44.5625    0.0000 C   0  0
    4.0035   43.1112    0.0000 C   0  0
    4.5199   41.7048    0.0000 O   0  0
   -7.3054   28.4296    0.0000 C   0  0
   -6.5231   27.1487    0.0000 C   0  0
   -7.2403   25.8304    0.0000 C   0  0
   -6.4580   24.5496    0.0000 N   0  0
   -7.1752   23.2312    0.0000 C   0  0
   -8.3748   23.2012    0.0000 N   0  0
   -6.6539   22.3778    0.0000 N   0  0
   -9.6564   40.5360    0.0000 H   0  0
    3.7231   42.1427    0.0000 H   0  0
    1.5362   29.4752    0.0000 H   0  0
  1  2  1  0
  2  3  2  0
  3  4  1  0
  4  5  2  0
  5  6  1  0
  6  1  2  0
  5  7  1  0
  8  2  1  0
  9  8  1  1
 10  9  1  0
 11 10  1  0
 11 12  2  0
 13 11  1  0
 14 13  1  0
 15 14  1  0
 15 16  2  0
 17 15  1  0
 17 18  1  1
 18 19  1  0
 19 20  2  0
 20 21  1  0
 21 22  2  0
 22 23  1  0
 23 24  2  0
 24 25  1  0
 25 26  2  0
 26 27  1  0
 27 28  2  0
 28 19  1  0
 26 21  1  0
 17 29  1  0
 29 30  1  0
 30 31  2  0
 32 30  1  0
 32 33  1  0
 33 34  1  0
 34 35  1  0
 35 36  1  0
 36 37  1  0
 32 37  1  0
 37 38  1  0
 38 39  2  0
 38 40  1  0
 40 41  1  6
 41 42  1  0
 42 43  2  0
 42 44  1  0
 40 45  1  0
 45 46  1  0
 46 47  2  0
 46 48  1  0
 48 49  1  0
 49 50  1  0
 49 51  1  0
 52 51  1  0
 53 52  1  0
 53 54  1  0
 54 55  2  0
 54 56  1  0
 57 56  1  0
 58 57  2  0
 59 58  1  0
 60 59  2  0
 61 60  1  0
 56 61  2  0
 60 62  1  0
 62 63  2  0
 62 64  1  0
 64 65  1  0
 66 65  1  0
 66 67  1  1
 67 68  2  0
 67 69  1  0
 70 69  1  1
 70 71  1  0
 71 72  1  0
 72 73  1  0
 73 74  1  0
 74 75  1  0
 70 76  1  0
 76 77  2  0
 76 78  1  0
 66 79  1  0
 79 80  1  0
 80 81  1  0
 81 82  1  6
 82 83  1  0
 83 84  1  0
 84 85  1  0
 85 86  1  0
 86 87  1  0
 86 88  2  0
 81 89  1  0
 89 90  1  0
 90 91  1  0
 91 92  1  0
 93 92  1  0
 93 94  2  0
 95 93  1  0
 96 95  1  0
 97 96  1  0
 97 98  2  0
 99 97  1  0
100 99  1  0
101100  1  0
101102  2  0
103101  1  0
104103  1  0
105104  1  0
106105  1  0
107106  1  0
108107  1  0
108109  2  0
110108  1  0
111110  1  0
112111  1  0
113112  1  0
114113  1  0
115114  1  0
115116  2  0
  9115  1  0
113117  1  6
112118  2  0
110119  1  0
119120  1  0
121120  1  0
121122  2  0
 58121  1  0
106123  1  6
123124  1  0
124125  2  0
125126  1  0
126127  2  0
127128  1  0
128129  2  0
129124  1  0
105130  2  0
103131  1  6
131132  1  0
132133  2  0
133134  1  0
134135  2  0
135136  1  0
136137  2  0
137138  1  0
138139  2  0
139134  1  0
139140  1  0
140141  2  0
141132  1  0
 99142  1  6
142143  1  0
143144  1  0
144145  1  0
145146  1  0
146147  2  0
146148  1  0
 95149  1  6
149150  1  0
150151  1  0
151152  1  0
152153  1  0
153154  2  0
153155  1  0
 91156  1  6
156157  1  0
157158  1  0
158159  1  0
159160  1  0
160161  1  0
160162  2  0
 90163  2  0
 80164  2  0
165 53  1  0
166165  1  0
167166  1  0
 52167  1  0
 51168  2  0
 13169  1  1
169170  1  0
170171  1  0
171172  1  0
172173  1  0
173174  1  0
173175  2  0
110176  1  6
 52177  1  6
 32178  1  1
M  END