
  SciTegic01161211242D

 27 28  0  0  0  0            999 V2000
    0.2917    0.7475    0.0000 C   0  0
    0.2917   -0.7475    0.0000 N   0  0
    2.5889    0.0182    0.0000 C   0  0
    1.7138    1.2033    0.0000 C   0  0
    1.7138   -1.2033    0.0000 N   0  0
   -1.0028    1.5132    0.0000 C   0  0
   -2.3155    0.7475    0.0000 N   0  0
    4.0872    0.0320    0.0000 C   0  0
   -1.0028   -1.5132    0.0000 C   0  0
    8.6154   -2.5245    0.0000 C   0  0
   -0.9991    2.7132    0.0000 O   0  0
   -2.3155   -0.7475    0.0000 C   0  0
   -3.6217    1.4865    0.0000 C   0  0
   -8.8299    2.9467    0.0000 N   0  0
    7.1146   -2.5384    0.0000 C   0  0
    4.6772    1.0770    0.0000 O   0  0
    9.2257   -3.5577    0.0000 O   0  0
    4.8506   -1.2602    0.0000 N   0  0
    6.3513   -1.2462    0.0000 C   0  0
    9.2053   -1.4795    0.0000 O   0  0
   -4.9153    0.7255    0.0000 C   0  0
   11.8787   -0.0556    0.0000 Cl  0  0
   -6.2216    1.4644    0.0000 C   0  0
   -7.5360    3.7055    0.0000 C   0  0
   -8.8197    1.4467    0.0000 C   0  0
   -7.5156    0.7056    0.0000 C   0  0
   -6.2319    2.9644    0.0000 C   0  0
  1  2  1  0
  1  4  2  0
  3  4  1  0
  2  5  1  0
  3  5  2  0
  1  6  1  0
  6  7  1  0
  3  8  1  0
  2  9  1  0
  6 11  2  0
  7 12  1  0
  9 12  1  0
  7 13  1  0
 10 15  1  0
  8 16  2  0
 10 17  2  0
  8 18  1  0
 15 19  1  0
 18 19  1  0
 10 20  1  0
 13 21  1  0
 21 23  1  0
 14 24  1  0
 14 25  1  0
 23 26  1  0
 25 26  1  0
 23 27  1  0
 24 27  1  0
M  END