
  SciTegic04021211102D

 48 53  0  0  0  0            999 V2000
   14.6921   -5.0174    0.0000 C   0  0
   15.1021   -5.7361    0.0000 C   0  0
   15.9276   -5.7393    0.0000 C   0  0
   16.3441   -5.0247    0.0000 C   0  0
   15.9290   -4.3053    0.0000 C   0  0
   15.1049   -4.3056    0.0000 C   0  0
   14.6863   -6.4486    0.0000 C   0  0
   16.3372   -6.4555    0.0000 S   0  0
   17.1622   -6.4588    0.0000 C   0  0
   17.5700   -7.1767    0.0000 C   0  0
   18.3964   -5.7485    0.0000 C   0  0
   17.5735   -5.7484    0.0000 C   0  0
   19.6141   -6.6451    0.0000 N   0  0
   18.8104   -6.4670    0.0000 C   0  0
   18.3933   -7.1774    0.0000 N   0  0
   18.9413   -7.7929    0.0000 C   0  0
   19.6952   -7.4607    0.0000 N   0  0
   18.7660   -8.5990    0.0000 C   0  0
   13.8613   -6.4449    0.0000 N   0  0
   13.4455   -7.1574    0.0000 C   0  0
   12.6206   -7.1536    0.0000 N   0  0
   13.8548   -7.8738    0.0000 O   0  0
   12.2045   -7.8662    0.0000 C   0  0
   11.3849   -7.8828    0.0000 C   0  0
   11.1482   -8.6735    0.0000 C   0  0
   11.8277   -9.1429    0.0000 N   0  0
   12.4830   -8.6401    0.0000 N   0  0
   10.4356   -9.0893    0.0000 C   0  0
    9.7192   -8.6801    0.0000 C   0  0
   10.4394   -9.9143    0.0000 C   0  0
   13.1968   -9.0533    0.0000 C   0  0
   13.1948   -9.8759    0.0000 C   0  0
   13.9085  -10.2883    0.0000 C   0  0
   14.6239   -9.8756    0.0000 C   0  0
   14.6212   -9.0464    0.0000 C   0  0
   13.9069   -8.6378    0.0000 C   0  0
    9.7653   -9.5743    0.0000 C   0  0
   17.9815   -8.8477    0.0000 C   0  0
   17.8061   -9.6530    0.0000 C   0  0
   18.4169  -10.2088    0.0000 C   0  0
   19.2060   -9.9537    0.0000 C   0  0
   19.3777   -9.1490    0.0000 C   0  0
   20.1624   -8.8941    0.0000 S   0  0
   20.7754   -9.4461    0.0000 C   0  0
   21.5601   -9.1912    0.0000 C   0  0
   22.1732   -9.7432    0.0000 O   0  0
   15.3390  -10.2871    0.0000 O   0  0
   15.3341   -8.6313    0.0000 Cl  0  0
 21 23  1  0
 24 25  1  0
 14 11  1  0
  5  6  2  0
 11 12  2  0
 12  9  1  0
 23 24  2  0
 25 26  2  0
 26 27  1  0
 27 23  1  0
 14 15  1  0
 25 28  1  0
  6  1  1  0
 28 29  1  0
  1  2  2  0
 28 30  1  0
  2  7  1  0
 27 31  1  0
  3  4  2  0
 31 32  2  0
  3  8  1  0
 32 33  1  0
 13 14  2  0
 33 34  2  0
 15 16  1  0
 34 35  1  0
 16 17  2  0
 35 36  2  0
 36 31  1  0
 17 13  1  0
 28 37  1  0
 18 38  2  0
 16 18  1  0
 38 39  1  0
  8  9  1  0
 39 40  2  0
  7 19  1  0
 40 41  1  0
  4  5  1  0
 41 42  2  0
 42 18  1  0
 19 20  1  0
 42 43  1  0
  9 10  2  0
 43 44  1  0
 20 21  1  0
 44 45  1  0
 10 15  1  0
 45 46  1  0
 20 22  2  0
 34 47  1  0
  2  3  1  0
 35 48  1  0
M  END