
          11290713132D 1   1.00000     0.00000     0

 70 77  0     1  0            999 V2000
   10.4601    2.4183    0.0000 N   0  0  0  0  0  0           0  0  0
   11.1759    2.0081    0.0000 C   0  0  0  0  0  0           0  0  0
   11.1785    1.1831    0.0000 O   0  0  0  0  0  0           0  0  0
   11.8890    2.4229    0.0000 C   0  0  0  0  0  0           0  0  0
   12.6048    2.0127    0.0000 O   0  0  0  0  0  0           0  0  0
   12.6075    1.1877    0.0000 C   0  0  0  0  0  0           0  0  0
   11.8959    0.7760    0.0000 C   0  0  0  0  0  0           0  0  0
   11.8982   -0.0482    0.0000 C   0  0  0  0  0  0           0  0  0
   12.6145   -0.4592    0.0000 C   0  0  0  0  0  0           0  0  0
   13.3300   -0.0400    0.0000 C   0  0  0  0  0  0           0  0  0
   13.3242    0.7829    0.0000 C   0  0  0  0  0  0           0  0  0
   12.6183   -1.2842    0.0000 C   0  0  0  0  0  0           0  0  0
   13.3346   -1.6935    0.0000 C   0  0  0  0  0  0           0  0  0
   13.3384   -2.5185    0.0000 C   0  0  0  0  0  0           0  0  0
   12.6751   -3.0074    0.0000 C   0  0  0  0  0  0           0  0  0
   12.9336   -3.7909    0.0000 C   0  0  0  0  0  0           0  0  0
   14.0099   -3.0013    0.0000 N   0  3  0  0  0  0           0  0  0
   13.7596   -3.7831    0.0000 C   0  0  0  0  0  0           0  0  0
   14.3084   -4.3874    0.0000 C   0  0  0  0  0  0           0  0  0
   14.8090   -2.8239    0.0000 B   0  5  0  0  0  0           0  0  0
   15.3607   -3.4339    0.0000 N   0  0  3  0  0  0           0  0  0
   15.1143   -4.2145    0.0000 C   0  0  0  0  0  0           0  0  0
   15.7805   -4.6900    0.0000 C   0  0  0  0  0  0           0  0  0
   16.4388   -4.2034    0.0000 C   0  0  0  0  0  0           0  0  0
   16.1792   -3.4271    0.0000 C   0  0  0  0  0  0           0  0  0
   14.5917   -2.0208    0.0000 F   0  0  0  0  0  0           0  0  0
   15.6042   -2.6042    0.0000 F   0  0  0  0  0  0           0  0  0
   16.6585   -2.7556    0.0000 C   0  0  0  0  0  0           0  0  0
   17.4832   -2.7471    0.0000 C   0  0  0  0  0  0           0  0  0
   17.7316   -1.9603    0.0000 C   0  0  0  0  0  0           0  0  0
   17.0600   -1.4810    0.0000 C   0  0  0  0  0  0           0  0  0
   16.3968   -1.9716    0.0000 S   0  0  0  0  0  0           0  0  0
    6.1781    0.7554    0.0000 N   0  0  0  0  0  0           0  0  0
    6.8913    1.1702    0.0000 C   0  0  0  0  0  0           0  0  0
    7.6071    0.7600    0.0000 O   0  0  0  0  0  0           0  0  0
    6.8886    1.9951    0.0000 C   0  0  0  0  0  0           0  0  0
    7.6017    2.4100    0.0000 C   0  0  0  0  0  0           0  0  0
    8.3175    1.9998    0.0000 C   0  0  0  0  0  0           0  0  0
    9.0307    2.4146    0.0000 C   0  0  0  0  0  0           0  0  0
    9.7465    2.0044    0.0000 C   0  0  0  0  0  0           0  0  0
   -0.2461   -2.1527    0.0000 N   0  0  0  0  0  0           0  0  0
    0.4703   -1.7394    0.0000 C   0  0  0  0  0  0           0  0  0
    0.4675   -0.9088    0.0000 N   0  0  0  0  0  0           0  0  0
   -0.2479   -0.4997    0.0000 C   0  0  0  0  0  0           0  0  0
   -0.9609   -1.7398    0.0000 C   0  0  0  0  0  0           0  0  0
   -0.9643   -0.9155    0.0000 C   0  0  0  0  0  0           0  0  0
   -1.7493   -0.6639    0.0000 N   0  0  0  0  0  0           0  0  0
   -2.2311   -1.3328    0.0000 C   0  0  0  0  0  0           0  0  0
   -1.7439   -1.9977    0.0000 N   0  0  3  0  0  0           0  0  0
   -2.1625   -2.7083    0.0000 C   0  0  2  0  0  0           0  0  0
   -2.9830   -2.7919    0.0000 O   0  0  0  0  0  0           0  0  0
   -3.1616   -3.5972    0.0000 C   0  0  1  0  0  0           0  0  0
   -2.4508   -4.0159    0.0000 C   0  0  2  0  0  0           0  0  0
   -1.8332   -3.4693    0.0000 C   0  0  1  0  0  0           0  0  0
   -3.9182   -3.9262    0.0000 C   0  0  0  0  0  0           0  0  0
   -4.5813   -3.4354    0.0000 O   0  0  0  0  0  0           0  0  0
   -4.0116   -4.7458    0.0000 N   0  0  0  0  0  0           0  0  0
   -4.7681   -5.0748    0.0000 C   0  0  0  0  0  0           0  0  0
   -4.8615   -5.8945    0.0000 C   0  0  0  0  0  0           0  0  0
   -2.3717   -4.8371    0.0000 O   0  0  0  0  0  0           0  0  0
   -1.0279   -3.6485    0.0000 O   0  0  0  0  0  0           0  0  0
   -0.2506    0.3253    0.0000 N   0  0  0  0  0  0           0  0  0
    0.4626    0.7401    0.0000 C   0  0  0  0  0  0           0  0  0
    1.1784    0.3299    0.0000 C   0  0  0  0  0  0           0  0  0
    1.8915    0.7447    0.0000 C   0  0  0  0  0  0           0  0  0
    2.6073    0.3345    0.0000 C   0  0  0  0  0  0           0  0  0
    3.3204    0.7493    0.0000 C   0  0  0  0  0  0           0  0  0
    4.0362    0.3391    0.0000 C   0  0  0  0  0  0           0  0  0
    4.7494    0.7539    0.0000 C   0  0  0  0  0  0           0  0  0
    5.4652    0.3437    0.0000 C   0  0  0  0  0  0           0  0  0
 16 18  1  0     0  0
 33 34  1  0     0  0
 17 14  2  0     0  0
 34 35  2  0     0  0
 17 18  1  0     0  0
 34 36  1  0     0  0
 36 37  1  0     0  0
  8  9  2  0     0  0
 37 38  1  0     0  0
  4  5  1  0     0  0
 38 39  1  0     0  0
  9 10  1  0     0  0
 39 40  1  0     0  0
 40  1  1  0     0  0
 17 20  1  0     0  0
 45 41  1  0     0  0
 18 19  2  0     0  0
 41 42  2  0     0  0
 19 22  1  0     0  0
 42 43  1  0     0  0
 21 20  1  0     0  0
 43 44  2  0     0  0
 44 46  1  0     0  0
 45 46  2  0     0  0
 21 22  1  0     0  0
  2  3  2  0     0  0
 10 11  2  0     0  0
 11  6  1  0     0  0
  5  6  1  0     0  0
 46 47  1  0     0  0
 47 48  2  0     0  0
 48 49  1  0     0  0
 49 45  1  0     0  0
  9 12  1  0     0  0
 50 49  1  1     0  0
 50 51  1  0     0  0
 22 23  2  0     0  0
 23 24  1  0     0  0
 24 25  2  0     0  0
 25 21  1  0     0  0
 51 52  1  0     0  0
 52 53  1  0     0  0
 53 54  1  0     0  0
 54 50  1  0     0  0
  1  2  1  0     0  0
 52 55  1  1     0  0
 20 26  1  0     0  0
 55 56  2  0     0  0
 12 13  2  0     0  0
 55 57  1  0     0  0
 20 27  1  0     0  0
 57 58  1  0     0  0
  6  7  2  0     0  0
 58 59  1  0     0  0
 25 28  1  0     0  0
 53 60  1  6     0  0
 28 29  2  0     0  0
 54 61  1  6     0  0
 13 14  1  0     0  0
 44 62  1  0     0  0
 14 15  1  0     0  0
 62 63  1  0     0  0
  2  4  1  0     0  0
 63 64  1  0     0  0
  7  8  1  0     0  0
 64 65  1  0     0  0
 29 30  1  0     0  0
 65 66  1  0     0  0
 30 31  2  0     0  0
 66 67  1  0     0  0
 31 32  1  0     0  0
 67 68  1  0     0  0
 32 28  1  0     0  0
 68 69  1  0     0  0
 15 16  2  0     0  0
 69 70  1  0     0  0
 70 33  1  0     0  0
M  CHG  2  17   1  20  -1
M  END