
          11280715072D 1   1.00000     0.00000     0

 15 16  0     0  0            999 V2000
    6.1667   -0.9375    0.0000 C   0  0  0  0  0  0           0  0  0
    5.4542   -0.5250    0.0000 C   0  0  0  0  0  0           0  0  0
    4.7417   -0.9417    0.0000 C   0  0  0  0  0  0           0  0  0
    6.1667   -1.7667    0.0000 C   0  0  0  0  0  0           0  0  0
    4.7417   -1.7667    0.0000 C   0  0  0  0  0  0           0  0  0
    5.4542   -2.1792    0.0000 C   0  0  0  0  0  0           0  0  0
    6.8792   -0.5167    0.0000 C   0  0  0  0  0  0           0  0  0
    3.9542   -2.0167    0.0000 O   0  0  0  0  0  0           0  0  0
    3.9542   -0.6875    0.0000 C   0  0  0  0  0  0           0  0  0
    3.4750   -1.3542    0.0000 C   0  0  0  0  0  0           0  0  0
    6.8792    0.3083    0.0000 O   0  0  0  0  0  0           0  0  0
    5.4542    0.2958    0.0000 O   0  0  0  0  0  0           0  0  0
    6.8875   -2.1792    0.0000 O   0  0  0  0  0  0           0  0  0
    7.6000   -0.9292    0.0000 C   0  0  0  0  0  0           0  0  0
    4.7417    0.7083    0.0000 C   0  0  0  0  0  0           0  0  0
  2  1  2  0     0  0
  3  2  1  0     0  0
  4  1  1  0     0  0
  5  6  1  0     0  0
  6  4  2  0     0  0
  7  1  1  0     0  0
  8  5  1  0     0  0
  9  3  1  0     0  0
 10  9  2  0     0  0
 11  7  2  0     0  0
 12  2  1  0     0  0
 13  4  1  0     0  0
 14  7  1  0     0  0
 15 12  1  0     0  0
  3  5  2  0     0  0
  8 10  1  0     0  0
M  END