
          11280715492D 1   1.00000     0.00000     0

 25 27  0     0  0            999 V2000
    0.8073   -8.0656    0.0000 C   0  0  0  0  0  0           0  0  0
    0.8061   -7.2406    0.0000 O   0  0  0  0  0  0           0  0  0
    1.5224   -8.4771    0.0000 N   0  0  0  0  0  0           0  0  0
    2.2363   -8.0635    0.0000 C   0  0  0  0  0  0           0  0  0
    2.2321   -7.2406    0.0000 C   0  0  0  0  0  0           0  0  0
    2.9451   -6.8271    0.0000 C   0  0  0  0  0  0           0  0  0
    3.6612   -7.2386    0.0000 C   0  0  0  0  0  0           0  0  0
    3.6597   -8.0679    0.0000 C   0  0  0  0  0  0           0  0  0
    2.9461   -8.4776    0.0000 C   0  0  0  0  0  0           0  0  0
    4.3756   -6.8260    0.0000 Cl  0  0  0  0  0  0           0  0  0
   -2.7583   -6.0000    0.0000 C   0  0  3  0  0  0           0  0  0
   -2.7583   -6.8250    0.0000 C   0  0  0  0  0  0           0  0  0
   -2.0463   -7.2333    0.0000 C   0  0  0  0  0  0           0  0  0
   -1.3343   -6.8250    0.0000 N   0  0  3  0  0  0           0  0  0
   -1.3343   -6.0000    0.0000 C   0  0  0  0  0  0           0  0  0
   -2.0463   -5.5833    0.0000 C   0  0  0  0  0  0           0  0  0
   -3.4740   -5.5896    0.0000 C   0  0  0  0  0  0           0  0  0
   -4.1873   -6.0042    0.0000 C   0  0  0  0  0  0           0  0  0
   -4.9417   -5.6710    0.0000 C   0  0  0  0  0  0           0  0  0
   -5.4919   -6.2857    0.0000 N   0  0  0  0  0  0           0  0  0
   -5.0773   -6.9990    0.0000 C   0  0  0  0  0  0           0  0  0
   -4.2709   -6.8250    0.0000 N   0  0  0  0  0  0           0  0  0
   -0.6204   -7.2385    0.0000 C   0  0  0  0  0  0           0  0  0
   -0.6216   -8.0635    0.0000 C   0  0  0  0  0  0           0  0  0
    0.0923   -8.4771    0.0000 C   0  0  0  0  0  0           0  0  0
  6  7  1  0     0  0
  3  4  1  0     0  0
  7  8  2  0     0  0
 11 16  1  0     0  0
 12 13  1  0     0  0
 13 14  1  0     0  0
 14 15  1  0     0  0
 15 16  1  0     0  0
 11 17  1  0     0  0
  8  9  1  0     0  0
 17 18  1  0     0  0
 18 19  2  0     0  0
  9  4  2  0     0  0
  4  5  1  0     0  0
  7 10  1  0     0  0
 11 12  1  0     0  0
 19 20  1  0     0  0
 20 21  1  0     0  0
 21 22  2  0     0  0
 22 18  1  0     0  0
  1  3  1  0     0  0
 14 23  1  0     0  0
  5  6  2  0     0  0
 23 24  1  0     0  0
  1  2  2  0     0  0
 24 25  1  0     0  0
 25  1  1  0     0  0
M  END