
  CDK    9/16/09,9:50

 39 42  0  0  0  0  0  0  0  0999 V2000
    6.9090  -19.3044    0.0000 C   0  0  0  0  0  0  0  0  0  0  0  0
    7.3203  -18.5880    0.0000 C   0  0  0  0  0  0  0  0  0  0  0  0
    6.9031  -17.8774    0.0000 C   0  0  0  0  0  0  0  0  0  0  0  0
    6.0719  -17.8818    0.0000 C   0  0  0  0  0  0  0  0  0  0  0  0
    5.6750  -18.6029    0.0000 C   0  0  0  0  0  0  0  0  0  0  0  0
    6.0905  -19.3106    0.0000 C   0  0  0  0  0  0  0  0  0  0  0  0
    7.3144  -17.1589    0.0000 C   0  0  0  0  0  0  0  0  0  0  0  0
    6.8953  -16.4449    0.0000 N   0  0  0  0  0  0  0  0  0  0  0  0
    8.1467  -18.5840    0.0000 N   0  0  0  0  0  0  0  0  0  0  0  0
    8.5595  -19.2985    0.0000 C   0  0  0  0  0  0  0  0  0  0  0  0
    9.3822  -19.2964    0.0000 C   0  0  0  0  0  0  0  0  0  0  0  0
    9.7978  -18.5800    0.0000 N   0  0  0  0  0  0  0  0  0  0  0  0
    9.3803  -17.8640    0.0000 C   0  0  0  0  0  0  0  0  0  0  0  0
    8.5513  -17.8645    0.0000 C   0  0  0  0  0  0  0  0  0  0  0  0
   10.6242  -18.5790    0.0000 C   0  0  0  0  0  0  0  0  0  0  0  0
   11.0345  -17.8624    0.0000 C   0  0  0  0  0  0  0  0  0  0  0  0
   11.0361  -19.2948    0.0000 O   0  0  0  0  0  0  0  0  0  0  0  0
   11.8610  -17.8615    0.0000 N   0  0  0  0  0  0  0  0  0  0  0  0
   12.2770  -18.5773    0.0000 C   0  0  0  0  0  0  0  0  0  0  0  0
   13.1034  -18.5763    0.0000 C   0  0  0  0  0  0  0  0  0  0  0  0
   11.8626  -19.2939    0.0000 O   0  0  0  0  0  0  0  0  0  0  0  0
   10.6226  -17.1467    0.0000 C   0  0  0  0  0  0  0  0  0  0  0  0
   11.0330  -16.4300    0.0000 C   0  0  0  0  0  0  0  0  0  0  0  0
   11.8578  -16.4317    0.0000 C   0  0  0  0  0  0  0  0  0  0  0  0
   12.2722  -15.7159    0.0000 C   0  0  0  0  0  0  0  0  0  0  0  0
   11.0254  -15.0069    0.0000 C   0  0  0  0  0  0  0  0  0  0  0  0
    7.3066  -15.7266    0.0000 C   0  0  0  0  0  0  0  0  0  0  0  0
    6.8930  -15.0159    0.0000 C   0  0  0  0  0  0  0  0  0  0  0  0
    7.3015  -14.3023    0.0000 C   0  0  0  0  0  0  0  0  0  0  0  0
    7.1254  -13.4977    0.0000 C   0  0  0  0  0  0  0  0  0  0  0  0
    7.8384  -13.0848    0.0000 C   0  0  0  0  0  0  0  0  0  0  0  0
    8.4532  -13.6331    0.0000 C   0  0  0  0  0  0  0  0  0  0  0  0
    8.1186  -14.3893    0.0000 S   0  0  0  0  0  0  0  0  0  0  0  0
   13.5153  -19.2879    0.0000 C   0  0  0  0  0  0  0  0  0  0  0  0
   14.3375  -19.2870    0.0000 N   0  0  0  0  0  0  0  0  0  0  0  0
   10.6188  -15.7192    0.0000 C   0  0  0  0  0  0  0  0  0  0  0  0
   11.8560  -15.0033    0.0000 C   0  0  0  0  0  0  0  0  0  0  0  0
    9.7938  -15.7187    0.0000 Cl  0  0  0  0  0  0  0  0  0  0  0  0
   12.2685  -14.2888    0.0000 Cl  0  0  0  0  0  0  0  0  0  0  0  0
  2  9  1  0  0  0  0 
 18 19  1  0  0  0  0 
  9 10  1  0  0  0  0 
 19 20  1  0  0  0  0 
  4  5  1  0  0  0  0 
 19 21  2  0  0  0  0 
  2  3  1  0  0  0  0 
 16 22  1  1  0  0  0 
  5  6  2  0  0  0  0 
 22 23  1  0  0  0  0 
  6  1  1  0  0  0  0 
 23 24  2  0  0  0  0 
  1  2  2  0  0  0  0 
 24 25  1  0  0  0  0 
  9 14  1  0  0  0  0 
 25 37  2  0  0  0  0 
 10 11  1  0  0  0  0 
 37 26  1  0  0  0  0 
 11 12  1  0  0  0  0 
 26 36  2  0  0  0  0 
 36 23  1  0  0  0  0 
 12 13  1  0  0  0  0 
 13 14  1  0  0  0  0 
  8 27  1  0  0  0  0 
  3  7  1  0  0  0  0 
 27 28  1  0  0  0  0 
 12 15  1  0  0  0  0 
 28 29  1  0  0  0  0 
  3  4  2  0  0  0  0 
 15 16  1  0  0  0  0 
  7  8  1  0  0  0  0 
 15 17  2  0  0  0  0 
 29 30  2  0  0  0  0 
 30 31  1  0  0  0  0 
 31 32  2  0  0  0  0 
 32 33  1  0  0  0  0 
 29 33  1  0  0  0  0 
 20 34  1  0  0  0  0 
 16 18  1  0  0  0  0 
 34 35  1  0  0  0  0 
 36 38  1  0  0  0  0 
 37 39  1  0  0  0  0 
M  END