
  SciTegic05161214222D

 23 26  0  0  0  0            999 V2000
    9.3197  -20.0274    0.0000 C   0  0
    9.3185  -20.8183    0.0000 C   0  0
   10.0051  -21.2151    0.0000 C   0  0
   10.0033  -19.6308    0.0000 C   0  0
    8.6319  -21.2142    0.0000 Cl  0  0
   12.5180  -20.3978    0.0000 N   0  0
   12.1743  -21.1550    0.0000 N   0  0
   11.3718  -21.3463    0.0000 C   0  0
   10.6915  -20.8158    0.0000 C   0  0
   10.6862  -20.0237    0.0000 C   0  0
   11.1874  -22.1891    0.0000 C   0  0
   10.3642  -22.4459    0.0000 C   0  0
   10.1797  -23.2876    0.0000 C   0  0
   10.8169  -23.8706    0.0000 C   0  0
   11.6416  -23.6056    0.0000 C   0  0
   11.8220  -22.7645    0.0000 C   0  0
   13.3747  -20.3714    0.0000 C   0  0
   11.3161  -19.5011    0.0000 N   0  0
   12.1177  -19.6396    0.0000 C   0  0
   12.4960  -18.9191    0.0000 N   0  0
   11.9302  -18.3354    0.0000 N   0  0
   11.1967  -18.6965    0.0000 C   0  0
   10.4984  -18.3299    0.0000 C   0  0
  8 11  1  0
  2  5  1  0
 11 12  2  0
  2  3  1  0
 12 13  1  0
  3  9  2  0
 13 14  2  0
  1  2  2  0
 14 15  1  0
 10  4  2  0
 15 16  2  0
 16 11  1  0
  4  1  1  0
  6 17  1  0
 18 19  1  0
  6 19  1  0
  6  7  1  0
  8  9  1  0
  9 10  1  0
 10 18  1  0
 19 20  2  0
 20 21  1  0
 21 22  2  0
 22 18  1  0
  7  8  2  0
 22 23  1  0
M  END