
  SciTegic11201309402D

 71 74  0  0  1  0            999 V2000
    2.0417    1.9583    0.0000 N   0  0
    3.4667    1.1458    0.0000 C   0  0
    3.7917   -1.9417    0.0000 N   0  0
    3.9167    0.4583    0.0000 N   0  0
   -0.2708    1.3458    0.0000 N   0  0
    1.2167    2.0083    0.0000 C   0  0
    4.0792   -1.1667    0.0000 C   0  0
   -0.7958    0.6958    0.0000 C   0  0
    3.2667   -2.5917    0.0000 C   0  0  1  0  0  0
    2.8167    1.6583    0.0000 C   0  0  2  0  0  0
    4.1292   -0.3417    0.0000 C   0  0  1  0  0  0
   -1.1333   -0.9042    0.0000 N   0  0
    0.4292    1.7958    0.0000 C   0  0  1  0  0  0
   -0.9208   -1.6917    0.0000 C   0  0
   -1.0833   -0.0792    0.0000 C   0  0  2  0  0  0
    4.9542   -0.2542    0.0000 C   0  0
    3.8167   -3.2042    0.0000 C   0  0
    4.8917   -6.9417    0.0000 C   0  0
   -0.4708   -2.3917    0.0000 C   0  0
    1.7792   -3.2417    0.0000 S   0  0
    0.9792   -3.2542    0.0000 S   0  0
    7.3667   -4.0917    0.0000 C   0  0
    5.6292   -0.7542    0.0000 C   0  0
    0.1792   -2.9042    0.0000 C   0  0
    5.3042   -7.6542    0.0000 N   0  0
    4.0792    1.6958    0.0000 O   0  0
    1.0667    2.6208    0.0000 O   0  0
   -1.5083    1.1083    0.0000 O   0  0
    4.8917   -1.3417    0.0000 O   0  0
    2.5792   -3.0417    0.0000 C   0  0
   -1.8958    0.0958    0.0000 C   0  0
    0.0792    2.5458    0.0000 C   0  0
   -1.6708   -2.0292    0.0000 O   0  0
    3.5667   -3.9917    0.0000 O   0  0
    7.7667   -3.3667    0.0000 O   0  0
    5.4417   -1.3792    0.0000 O   0  0
    5.3042   -6.2292    0.0000 N   0  0
    4.6292   -3.0292    0.0000 N   0  0
    6.5417   -4.0917    0.0000 N   0  0
    7.7792   -4.8042    0.0000 C   0  0  1  0  0  0
    4.0667   -6.9417    0.0000 N   0  0
    3.2292    2.3833    0.0000 C   0  0
    6.4542   -0.6667    0.0000 N   0  0
   -2.6083   -0.3042    0.0000 C   0  0
   -4.0458   -1.1167    0.0000 C   0  0
    8.5917   -4.8042    0.0000 N   0  0
    0.5667    3.2208    0.0000 C   0  0
   -3.3208    0.1083    0.0000 C   0  0
   -2.6208   -1.1292    0.0000 C   0  0
   -3.3333   -1.5417    0.0000 C   0  0
   -4.0458   -0.2917    0.0000 C   0  0
   -4.7708   -1.5292    0.0000 O   0  0
    0.6417   -3.5292    0.0000 C   0  0
   -0.5958   -2.8167    0.0000 C   0  0
    5.1792   -3.6417    0.0000 C   0  0
    5.9917   -3.4667    0.0000 C   0  0
    6.1292   -6.2292    0.0000 C   0  0
    7.3667   -5.5167    0.0000 C   0  0
    2.8167    3.0958    0.0000 C   0  0
    4.0667    2.3833    0.0000 C   0  0
   -4.7708   -2.3542    0.0000 C   0  0
    1.3917    3.1333    0.0000 C   0  0
    0.2292    3.9708    0.0000 C   0  0
    6.5417   -5.5167    0.0000 C   0  0
   -4.0583   -2.7667    0.0000 C   0  0
   -1.0083   -3.5292    0.0000 C   0  0
    0.2292   -4.2542    0.0000 C   0  0
    1.8792    3.7958    0.0000 C   0  0
    0.7167    4.6417    0.0000 C   0  0
   -0.5958   -4.2542    0.0000 C   0  0
    1.5417    4.5542    0.0000 C   0  0
  2 10  1  0
  3  7  1  0
  4  2  1  0
  5 13  1  0
  6  1  1  0
  7 11  1  0
  8  5  1  0
  9  3  1  0
 10  1  1  0
 11  4  1  0
 12 15  1  0
 13  6  1  0
 14 12  1  0
 15  8  1  0
 11 16  1  6
  9 17  1  1
 18 37  2  0
 19 14  1  0
 20 30  1  0
 21 20  1  0
 22 39  1  0
 23 16  1  0
 24 19  1  0
 25 18  1  0
 26  2  2  0
 27  6  2  0
 28  8  2  0
 29  7  2  0
  9 30  1  0
 15 31  1  6
 13 32  1  6
 33 14  2  0
 34 17  2  0
 35 22  2  0
 36 23  2  0
 37 57  1  0
 38 17  1  0
 39 56  1  0
 40 22  1  0
 41 18  1  0
 10 42  1  1
 43 23  1  0
 44 31  1  0
 45 50  1  0
 40 46  1  1
 47 32  1  0
 48 44  2  0
 49 44  1  0
 50 49  2  0
 51 48  1  0
 52 45  1  0
 53 24  1  0
 54 24  1  0
 55 38  1  0
 56 55  1  0
 57 64  1  0
 40 58  1  0
 59 42  1  0
 60 42  1  0
 61 52  1  0
 62 47  1  0
 63 47  2  0
 64 58  1  0
 65 61  1  0
 66 54  1  0
 67 53  1  0
 68 62  2  0
 69 63  1  0
 70 66  1  0
 71 69  2  0
 68 71  1  0
 51 45  2  0
 24 21  1  0
 67 70  1  0
M  END