
          11280715352D 1   1.00000     0.00000     0

 35 38  0     1  0            999 V2000
    4.4417   -5.3542    0.0000 C   0  0  0  0  0  0           0  0  0
    4.4417   -4.1792    0.0000 C   0  0  1  0  0  0           0  0  0
    4.9542   -4.4792    0.0000 C   0  0  2  0  0  0           0  0  0
    3.9417   -4.4750    0.0000 C   0  0  0  0  0  0           0  0  0
    5.4667   -4.1917    0.0000 N   0  0  3  0  0  0           0  0  0
    3.9417   -5.0625    0.0000 C   0  0  0  0  0  0           0  0  0
    4.9542   -5.0667    0.0000 C   0  0  0  0  0  0           0  0  0
    4.4542   -3.5917    0.0000 C   0  0  0  0  0  0           0  0  0
    4.4417   -5.9417    0.0000 C   0  0  0  0  0  0           0  0  0
    3.4292   -5.9292    0.0000 N   0  0  0  0  0  0           0  0  0
    4.9667   -3.3042    0.0000 C   0  0  0  0  0  0           0  0  0
    5.9917   -2.7292    0.0000 C   0  0  0  0  0  0           0  0  0
    5.4792   -3.6042    0.0000 C   0  0  0  0  0  0           0  0  0
    3.4292   -5.3417    0.0000 C   0  0  0  0  0  0           0  0  0
    8.3917   -5.4542    0.0000 C   0  0  0  0  0  0           0  0  0
    7.1792   -5.4500    0.0000 C   0  0  0  0  0  0           0  0  0
    8.0792   -4.9375    0.0000 C   0  0  0  0  0  0           0  0  0
    7.4792   -4.9375    0.0000 C   0  0  0  0  0  0           0  0  0
    5.4917   -2.4250    0.0000 O   0  0  0  0  0  0           0  0  0
    5.9917   -3.3167    0.0000 O   0  0  0  0  0  0           0  0  0
    8.9917   -5.4542    0.0000 O   0  0  0  0  0  0           0  0  0
    7.4792   -5.9750    0.0000 O   0  0  0  0  0  0           0  0  0
    4.9667   -2.7125    0.0000 C   0  0  0  0  0  0           0  0  0
    6.5042   -2.4417    0.0000 C   0  0  3  0  0  0           0  0  0
    3.4292   -4.1792    0.0000 C   0  0  0  0  0  0           0  0  0
    5.9792   -4.4917    0.0000 C   0  0  0  0  0  0           0  0  0
    8.0792   -5.9750    0.0000 O   0  0  0  0  0  0           0  0  0
    6.5792   -5.4500    0.0000 O   0  0  0  0  0  0           0  0  0
    2.9292   -4.4750    0.0000 C   0  0  0  0  0  0           0  0  0
    2.9292   -5.0625    0.0000 C   0  0  0  0  0  0           0  0  0
    7.2417   -2.0417    0.0000 C   0  0  0  0  0  0           0  0  0
    7.0792   -2.6042    0.0000 C   0  0  0  0  0  0           0  0  0
    6.6667   -1.8792    0.0000 C   0  0  0  0  0  0           0  0  0
    3.6917   -3.6292    0.0000 H   0  0  0  0  0  0           0  0  0
    5.4667   -4.7750    0.0000 H   0  0  0  0  0  0           0  0  0
  2  3  1  0     0  0
  3  7  1  0     0  0
  4  6  2  0     0  0
  5  3  1  0     0  0
  6  1  1  0     0  0
  7  1  1  0     0  0
  8  2  1  0     0  0
  9  1  2  0     0  0
 10  9  1  0     0  0
 11 13  1  0     0  0
 12 19  1  0     0  0
 13  5  1  0     0  0
 14  6  1  0     0  0
 16 18  1  0     0  0
 17 15  1  0     0  0
 18 17  2  0     0  0
 19 23  1  0     0  0
 20 12  2  0     0  0
 21 15  2  0     0  0
 22 16  2  0     0  0
 23 11  1  0     0  0
 24 12  1  0     0  0
 25  4  1  0     0  0
 26  5  1  0     0  0
 27 15  1  0     0  0
 28 16  1  0     0  0
 29 25  2  0     0  0
 30 14  2  0     0  0
 31 33  1  0     0  0
 32 24  1  0     0  0
 33 24  1  0     0  0
  2 34  1  6     0  0
  3 35  1  1     0  0
  2  4  1  0     0  0
 10 14  1  0     0  0
 30 29  1  0     0  0
  8 11  2  0     0  0
 31 32  1  0     0  0
M  END