
          11280714442D 1   1.00000     0.00000     0

 23 23  0     0  0            999 V2000
    4.4417   -3.1167    0.0000 C   0  0  0  0  0  0           0  0  0
    5.2625   -3.1000    0.0000 C   0  0  0  0  0  0           0  0  0
   11.0542   -4.4417    0.0000 C   0  0  0  0  0  0           0  0  0
    5.6917   -3.8042    0.0000 O   0  0  0  0  0  0           0  0  0
    4.0125   -2.4125    0.0000 C   0  0  0  0  0  0           0  0  0
   10.2292   -4.4417    0.0000 N   0  0  0  0  0  0           0  0  0
    5.6625   -2.3750    0.0000 O   0  0  0  0  0  0           0  0  0
    8.1667   -3.7500    0.0000 N   0  0  0  0  0  0           0  0  0
    8.9917   -3.7292    0.0000 C   0  0  3  0  0  0           0  0  0
   11.4667   -3.7292    0.0000 O   0  0  0  0  0  0           0  0  0
    9.8167   -3.7292    0.0000 C   0  0  0  0  0  0           0  0  0
    6.9417   -4.4917    0.0000 C   0  0  3  0  0  0           0  0  0
    6.5167   -3.7875    0.0000 C   0  0  0  0  0  0           0  0  0
    7.7667   -4.4750    0.0000 C   0  0  0  0  0  0           0  0  0
    4.4125   -1.6917    0.0000 F   0  0  0  0  0  0           0  0  0
    4.0417   -3.8417    0.0000 C   0  0  0  0  0  0           0  0  0
    6.5500   -5.2167    0.0000 O   0  0  0  0  0  0           0  0  0
   11.4667   -5.1542    0.0000 C   0  0  0  0  0  0           0  0  0
    3.1875   -2.4292    0.0000 C   0  0  0  0  0  0           0  0  0
    9.3875   -3.0042    0.0000 C   0  0  0  0  0  0           0  0  0
    9.4167   -4.4375    0.0000 C   0  0  0  0  0  0           0  0  0
    3.2125   -3.8542    0.0000 C   0  0  0  0  0  0           0  0  0
    2.7875   -3.1500    0.0000 C   0  0  0  0  0  0           0  0  0
  2  1  1  0     0  0
  3  6  1  0     0  0
  4  2  1  0     0  0
  5  1  1  0     0  0
  6 11  1  0     0  0
  7  2  2  0     0  0
  8 14  1  0     0  0
  9  8  1  0     0  0
 10  3  2  0     0  0
 11  9  1  0     0  0
 12 13  1  0     0  0
 13  4  1  0     0  0
 14 12  1  0     0  0
 15  5  1  0     0  0
 16  1  2  0     0  0
 17 12  1  0     0  0
 18  3  1  0     0  0
 19  5  2  0     0  0
 20  9  1  0     0  0
 21  9  1  0     0  0
 22 16  1  0     0  0
 23 22  2  0     0  0
 23 19  1  0     0  0
M  END