
  SciTegic12231509382D

 34 37  0  0  0  0            999 V2000
    0.0000    0.7486    0.0000 C   0  0
    1.2964    1.4973    0.0000 C   0  0
   -1.2964    1.4973    0.0000 C   0  0
    0.0000   -0.7486    0.0000 C   0  0
   -2.6111    0.7486    0.0000 C   0  0
    2.5929    0.7486    0.0000 N   0  0
   -1.2964   -1.4973    0.0000 C   0  0
    1.2995    2.9981    0.0000 N   0  0
   -3.9091    1.5019    0.0000 N   0  0
   -2.6111   -0.7486    0.0000 C   0  0
   -3.9067    3.0027    0.0000 C   0  0
    3.9072    5.9922    0.0000 C   0  0
    1.2964   -1.4973    0.0000 N   0  0
    2.6056    5.2467    0.0000 C   0  0
   -6.5006   -6.0101    0.0000 N   0  0
    2.5929   -0.7486    0.0000 C   0  0
    2.6003    3.7467    0.0000 C   0  0
    5.2037    5.2377    0.0000 C   0  0
   -5.2049    3.7560    0.0000 C   0  0
   -2.8664    3.6008    0.0000 O   0  0
   -9.0986   -7.5105    0.0000 O   0  0
    5.1985    3.7377    0.0000 C   0  0
   -5.2030    4.9560    0.0000 C   0  0
    3.9114    7.1922    0.0000 Cl  0  0
    3.8969    2.9922    0.0000 C   0  0
    6.2450    5.8341    0.0000 F   0  0
   -3.9091   -1.5019    0.0000 O   0  0
   -5.2025   -5.2568    0.0000 C   0  0
   -5.2049   -3.7560    0.0000 C   0  0
   -6.5005   -7.5101    0.0000 C   0  0
   -7.7999   -5.2603    0.0000 C   0  0
   -7.7994   -8.2603    0.0000 C   0  0
   -9.0988   -6.0105    0.0000 C   0  0
   -3.9067   -3.0027    0.0000 C   0  0
  1  2  2  0
  1  3  1  0
  1  4  1  0
  3  5  2  0
  2  6  1  0
  4  7  1  0
  2  8  1  0
  5  9  1  0
  5 10  1  0
  7 10  2  0
  9 11  1  0
  4 13  2  0
 12 14  1  0
  6 16  2  0
 13 16  1  0
  8 17  1  0
 14 17  2  0
 12 18  2  0
 11 19  1  0
 11 20  2  0
 18 22  1  0
 19 23  2  0
 12 24  1  0
 17 25  1  0
 22 25  2  0
 18 26  1  0
 10 27  1  0
 15 28  1  0
 28 29  1  0
 15 30  1  0
 15 31  1  0
 21 32  1  0
 30 32  1  0
 21 33  1  0
 31 33  1  0
 27 34  1  0
 29 34  1  0
M  END