
  SciTegic09171211542D

 21 22  0  0  0  0            999 V2000
   -1.9389  -18.9916    0.0000 C   0  0
   -1.9401  -19.8190    0.0000 C   0  0
   -1.2253  -20.2319    0.0000 C   0  0
   -1.2271  -18.5789    0.0000 C   0  0
   -0.5117  -18.9880    0.0000 C   0  0
   -0.5069  -19.8144    0.0000 C   0  0
    0.2806  -20.0653    0.0000 N   0  0
    0.7626  -19.3938    0.0000 C   0  0
    0.2728  -18.7281    0.0000 S   0  0
    1.5875  -19.3889    0.0000 S   0  0
   -2.6535  -18.5793    0.0000 N   0  0
   -2.6537  -17.7543    0.0000 C   0  0
   -3.3683  -17.3420    0.0000 C   0  0
   -1.9393  -17.3416    0.0000 O   0  0
   -4.0826  -17.7546    0.0000 C   0  0
   -4.7972  -17.3423    0.0000 C   0  0
   -5.5116  -17.7550    0.0000 O   0  0
   -4.7974  -16.5173    0.0000 O   0  0
    2.0042  -20.1009    0.0000 C   0  0
    2.8292  -20.0961    0.0000 C   0  0
    3.2459  -20.8081    0.0000 C   0  0
  8 10  1  0
  5  6  1  0
  1 11  1  0
 11 12  1  0
  2  3  1  0
 12 13  1  0
  3  6  2  0
 12 14  2  0
  1  2  2  0
 13 15  1  0
  5  4  2  0
 15 16  1  0
  6  7  1  0
 16 17  1  0
  7  8  2  0
 16 18  2  0
  8  9  1  0
 10 19  1  0
  9  5  1  0
 19 20  1  0
  4  1  1  0
 20 21  1  0
M  END