
  SciTegic01161211252D

 27 30  0  0  0  0            999 V2000
   11.2757  -20.7456    0.0000 N   0  0
   12.0766  -20.5666    0.0000 C   0  0
   12.7225  -21.0829    0.0000 C   0  0
   10.9149  -21.4899    0.0000 C   0  0
   12.7243  -21.9065    0.0000 N   0  0
   11.2727  -22.2348    0.0000 C   0  0
   12.0782  -22.4173    0.0000 C   0  0
   13.4381  -22.3199    0.0000 C   0  0
   13.4361  -23.1449    0.0000 O   0  0
   14.1534  -21.9099    0.0000 C   0  0  2  0  0  0
   14.8238  -22.3849    0.0000 N   0  0
   15.4841  -21.8903    0.0000 C   0  0
   15.2176  -21.1094    0.0000 C   0  0  2  0  0  0
   14.3928  -21.1216    0.0000 C   0  0
   15.6928  -20.4348    0.0000 O   0  0
   15.2875  -19.7162    0.0000 C   0  0
   15.7088  -19.0090    0.0000 C   0  0
   15.3041  -18.2910    0.0000 C   0  0
   14.4783  -18.2822    0.0000 C   0  0
   14.0588  -18.9976    0.0000 C   0  0
   14.4658  -19.7127    0.0000 C   0  0
   10.6947  -20.1600    0.0000 C   0  0
   14.0720  -17.5642    0.0000 F   0  0
   10.9088  -19.3670    0.0000 C   0  0
   10.2185  -18.9151    0.0000 C   0  0
    9.5754  -19.4319    0.0000 C   0  0
    9.8683  -20.2032    0.0000 C   0  0
 12 13  1  0
 13 14  1  0
 14 10  1  0
  6  7  1  0
 13 15  1  6
  1  4  1  0
 15 16  1  0
  5  8  1  0
 16 17  2  0
 17 18  1  0
  8  9  2  0
 18 19  2  0
  3  5  1  0
 19 20  1  0
 10  8  1  1
 20 21  2  0
 21 16  1  0
 10 11  1  0
  1 22  1  0
  2  3  1  0
 19 23  1  0
 22 24  1  0
  4  6  1  0
  1  2  1  0
  5  7  1  0
 11 12  1  0
 24 25  1  0
 25 26  1  0
 26 27  1  0
 27 22  1  0
M  END