
          11280715352D 1   1.00000     0.00000     0

 36 39  0     1  0            999 V2000
    4.4917   -5.3417    0.0000 C   0  0  0  0  0  0           0  0  0
    4.4917   -4.1667    0.0000 C   0  0  1  0  0  0           0  0  0
    5.0042   -4.4667    0.0000 C   0  0  2  0  0  0           0  0  0
    3.9917   -4.4667    0.0000 C   0  0  0  0  0  0           0  0  0
    5.5167   -4.1792    0.0000 N   0  0  3  0  0  0           0  0  0
    3.9917   -5.0542    0.0000 C   0  0  0  0  0  0           0  0  0
    5.0042   -5.0542    0.0000 C   0  0  0  0  0  0           0  0  0
    4.5042   -3.5792    0.0000 C   0  0  0  0  0  0           0  0  0
    4.4917   -5.9292    0.0000 C   0  0  0  0  0  0           0  0  0
    3.4792   -5.9167    0.0000 N   0  0  0  0  0  0           0  0  0
    5.0167   -3.2917    0.0000 C   0  0  0  0  0  0           0  0  0
    6.0417   -2.7167    0.0000 C   0  0  0  0  0  0           0  0  0
    5.5292   -3.5917    0.0000 C   0  0  0  0  0  0           0  0  0
    3.4792   -5.3292    0.0000 C   0  0  0  0  0  0           0  0  0
    8.4417   -5.4417    0.0000 C   0  0  0  0  0  0           0  0  0
    7.2292   -5.4417    0.0000 C   0  0  0  0  0  0           0  0  0
    8.1292   -4.9292    0.0000 C   0  0  0  0  0  0           0  0  0
    7.5292   -4.9292    0.0000 C   0  0  0  0  0  0           0  0  0
    5.5417   -2.4167    0.0000 O   0  0  0  0  0  0           0  0  0
    6.0417   -3.3042    0.0000 O   0  0  0  0  0  0           0  0  0
    9.0417   -5.4417    0.0000 O   0  0  0  0  0  0           0  0  0
    7.5292   -5.9667    0.0000 O   0  0  0  0  0  0           0  0  0
    5.0167   -2.7042    0.0000 C   0  0  0  0  0  0           0  0  0
    6.5542   -2.4292    0.0000 C   0  0  3  0  0  0           0  0  0
    3.4792   -4.1667    0.0000 C   0  0  0  0  0  0           0  0  0
    6.0292   -4.4792    0.0000 C   0  0  0  0  0  0           0  0  0
    8.1292   -5.9667    0.0000 O   0  0  0  0  0  0           0  0  0
    6.6292   -5.4417    0.0000 O   0  0  0  0  0  0           0  0  0
    2.9792   -4.4667    0.0000 C   0  0  0  0  0  0           0  0  0
    2.9792   -5.0542    0.0000 C   0  0  0  0  0  0           0  0  0
    7.0917   -2.6792    0.0000 C   0  0  0  0  0  0           0  0  0
    6.6292   -1.8417    0.0000 C   0  0  0  0  0  0           0  0  0
    7.2042   -1.7292    0.0000 C   0  0  0  0  0  0           0  0  0
    7.4917   -2.2417    0.0000 C   0  0  0  0  0  0           0  0  0
    5.5167   -4.7667    0.0000 H   0  0  0  0  0  0           0  0  0
    3.7417   -3.6167    0.0000 H   0  0  0  0  0  0           0  0  0
  2  3  1  0     0  0
  3  7  1  0     0  0
  4  6  2  0     0  0
  5  3  1  0     0  0
  6  1  1  0     0  0
  7  1  1  0     0  0
  8  2  1  0     0  0
  9  1  2  0     0  0
 10  9  1  0     0  0
 11 13  1  0     0  0
 12 19  1  0     0  0
 13  5  1  0     0  0
 14  6  1  0     0  0
 16 18  1  0     0  0
 17 15  1  0     0  0
 18 17  2  0     0  0
 19 23  1  0     0  0
 20 12  2  0     0  0
 21 15  2  0     0  0
 22 16  2  0     0  0
 23 11  1  0     0  0
 24 12  1  0     0  0
 25  4  1  0     0  0
 26  5  1  0     0  0
 27 15  1  0     0  0
 28 16  1  0     0  0
 29 25  2  0     0  0
 30 14  2  0     0  0
 31 24  1  0     0  0
 32 24  1  0     0  0
 33 32  1  0     0  0
 34 31  1  0     0  0
  3 35  1  1     0  0
  2 36  1  6     0  0
  2  4  1  0     0  0
 10 14  1  0     0  0
 30 29  1  0     0  0
  8 11  2  0     0  0
 33 34  1  0     0  0
M  END