
          01230816042D 1   1.00000     0.00000     0

 41 45  0     0  0            999 V2000
    3.7319   -9.8958    0.0000 C   0  0  0  0  0  0           0  0  0
    3.7307  -10.7232    0.0000 C   0  0  0  0  0  0           0  0  0
    4.4456  -11.1360    0.0000 C   0  0  0  0  0  0           0  0  0
    4.4437   -9.4830    0.0000 C   0  0  0  0  0  0           0  0  0
    5.8249  -11.2391    0.0000 C   0  0  0  0  0  0           0  0  0
    6.6580  -11.0200    0.0000 N   0  0  0  0  0  0           0  0  0
    6.9767  -10.2688    0.0000 N   0  0  3  0  0  0           0  0  0
    5.1594  -10.7249    0.0000 C   0  0  0  0  0  0           0  0  0
    5.1591   -9.8922    0.0000 C   0  0  0  0  0  0           0  0  0
    5.8383   -9.3505    0.0000 N   0  0  3  0  0  0           0  0  0
    6.6180   -9.5302    0.0000 C   0  0  0  0  0  0           0  0  0
    7.1320   -8.8850    0.0000 O   0  0  0  0  0  0           0  0  0
    7.8014  -10.2478    0.0000 C   0  0  0  0  0  0           0  0  0
    8.2320  -10.9516    0.0000 C   0  0  0  0  0  0           0  0  0
    9.0567  -10.9306    0.0000 N   0  0  0  0  0  0           0  0  0
    7.8378  -11.6763    0.0000 O   0  0  0  0  0  0           0  0  0
    9.4873  -11.6343    0.0000 C   0  0  0  0  0  0           0  0  0
    9.0908  -12.3579    0.0000 C   0  0  0  0  0  0           0  0  0
    9.5206  -13.0612    0.0000 C   0  0  0  0  0  0           0  0  0
   10.3463  -13.0406    0.0000 C   0  0  0  0  0  0           0  0  0
   10.7402  -12.3109    0.0000 C   0  0  0  0  0  0           0  0  0
   10.3080  -11.6106    0.0000 C   0  0  0  0  0  0           0  0  0
    5.8032   -8.5262    0.0000 C   0  0  0  0  0  0           0  0  0
    5.6607  -12.0476    0.0000 C   0  0  3  0  0  0           0  0  0
    4.8779  -12.3050    0.0000 C   0  0  0  0  0  0           0  0  0
    4.7125  -13.1095    0.0000 C   0  0  0  0  0  0           0  0  0
    5.3281  -13.6594    0.0000 C   0  0  0  0  0  0           0  0  0
    6.1119  -13.3989    0.0000 C   0  0  0  0  0  0           0  0  0
    6.2802  -12.5886    0.0000 C   0  0  0  0  0  0           0  0  0
    5.0718   -8.1445    0.0000 C   0  0  0  0  0  0           0  0  0
    4.3756   -8.5870    0.0000 O   0  0  0  0  0  0           0  0  0
    5.0367   -7.3203    0.0000 C   0  0  3  0  0  0           0  0  0
    5.6804   -6.8102    0.0000 C   0  0  0  0  0  0           0  0  0
    5.3923   -6.0372    0.0000 C   0  0  0  0  0  0           0  0  0
    4.5680   -6.0723    0.0000 C   0  0  0  0  0  0           0  0  0
    4.3468   -6.8670    0.0000 C   0  0  0  0  0  0           0  0  0
   11.5648  -12.2870    0.0000 S   0  0  0  0  0  0           0  0  0
   11.9978  -12.9892    0.0000 C   0  0  0  0  0  0           0  0  0
   12.8225  -12.9653    0.0000 C   0  0  0  0  0  0           0  0  0
   13.2555  -13.6675    0.0000 O   0  0  0  0  0  0           0  0  0
   13.2141  -12.2392    0.0000 O   0  0  0  0  0  0           0  0  0
 19 20  2  0     0  0
  9 10  1  0     0  0
 20 21  1  0     0  0
 10 11  1  0     0  0
 21 22  2  0     0  0
 22 17  1  0     0  0
 11  7  1  0     0  0
 10 23  1  0     0  0
  8  9  1  0     0  0
  5 24  1  0     0  0
 24 25  1  0     0  0
  2  3  1  0     0  0
 11 12  2  0     0  0
  3  8  2  0     0  0
  7 13  1  0     0  0
  1  2  2  0     0  0
 24 29  1  0     0  0
 25 26  1  0     0  0
 26 27  1  0     0  0
 27 28  1  0     0  0
 28 29  1  0     0  0
 13 14  1  0     0  0
 23 30  1  0     0  0
  9  4  2  0     0  0
 30 31  2  0     0  0
 14 15  1  0     0  0
 30 32  1  0     0  0
 32 33  1  0     0  0
  4  1  1  0     0  0
 14 16  2  0     0  0
 15 17  1  0     0  0
 33 34  1  0     0  0
 34 35  1  0     0  0
 35 36  1  0     0  0
 36 32  1  0     0  0
  5  6  2  0     0  0
 21 37  1  0     0  0
 17 18  2  0     0  0
 37 38  1  0     0  0
  6  7  1  0     0  0
 38 39  1  0     0  0
 18 19  1  0     0  0
 39 40  1  0     0  0
  5  8  1  0     0  0
 39 41  2  0     0  0
M  END