
  SciTegic05161214222D

 30 33  0  0  0  0            999 V2000
   -1.5299   -5.4608    0.0000 N   0  0
   -0.7210   -5.6476    0.0000 C   0  0
   -0.3665   -6.3930    0.0000 C   0  0  1  0  0  0
   -0.7249   -7.1347    0.0000 N   0  0
   -1.5299   -7.3209    0.0000 C   0  0
   -2.1770   -6.8049    0.0000 C   0  0
   -2.1770   -5.9769    0.0000 C   0  0
   -2.8919   -7.2168    0.0000 C   0  0
   -3.6108   -6.8049    0.0000 C   0  0
   -3.6108   -5.9769    0.0000 C   0  0
   -2.8919   -5.5650    0.0000 C   0  0
   -0.8435   -4.3138    0.0000 N   0  0
   -0.3049   -4.9328    0.0000 N   0  0
   -1.6037   -4.6340    0.0000 C   0  0
   -1.7040   -8.1132    0.0000 C   0  0
   -2.5052   -8.3689    0.0000 C   0  0
   -2.6794   -9.1613    0.0000 C   0  0
   -2.0922   -9.7485    0.0000 C   0  0
   -1.2911   -9.4927    0.0000 C   0  0
   -1.1210   -8.6963    0.0000 C   0  0
   -2.3185   -4.2222    0.0000 C   0  0
    0.4573   -6.3955    0.0000 C   0  0
    0.8714   -5.6834    0.0000 C   0  0
    1.6952   -5.6859    0.0000 O   0  0
    0.4617   -4.9686    0.0000 N   0  0
    0.8758   -4.2565    0.0000 C   0  0
    1.6995   -4.2591    0.0000 C   0  0
   -2.2866  -10.5490    0.0000 Cl  0  0
   -4.3235   -5.5639    0.0000 O   0  0
   -4.3221   -4.7401    0.0000 C   0  0
  9 10  2  0
 10 11  1  0
  7 11  2  0
  6  8  2  0
 12 13  1  0
 12 14  2  0
  1 14  1  0
  2 13  2  0
 15 16  1  0
 16 17  2  0
 17 18  1  0
 18 19  2  0
 19 20  1  0
 15 20  2  0
  5 15  1  0
 14 21  1  0
  3 22  1  6
  1  2  1  0
 22 23  1  0
  2  3  1  0
 23 24  2  0
  3  4  1  0
 23 25  1  0
  4  5  2  0
 25 26  1  0
  5  6  1  0
 26 27  1  0
  6  7  1  0
 18 28  1  0
  1  7  1  0
 10 29  1  0
  8  9  1  0
 29 30  1  0
M  END