
  SciTegic03291108562D

 29 32  0  0  0  0            999 V2000
   -1.2022   -0.1023    0.0000 S   0  0
   -1.9167    2.7852    0.0000 S   0  0
   -0.4877    3.6102    0.0000 O   0  0
   -1.6147    0.6122    0.0000 O   0  0
   -0.7897   -0.8167    0.0000 O   0  0
   -4.0601   -1.7523    0.0000 O   0  0
   -0.4877    0.3102    0.0000 N   0  0
   -2.5841    4.0952    0.0000 N   0  0
   -1.2492    4.0952    0.0000 N   0  0
   -2.3292    4.8798    0.0000 N   0  0
    0.2267    1.5477    0.0000 C   0  0
   -0.4877    1.1352    0.0000 C   0  0
    0.2267    2.3727    0.0000 C   0  0
   -0.4877    2.7852    0.0000 C   0  0
   -1.2022    2.3727    0.0000 C   0  0
   -1.2022    1.5477    0.0000 C   0  0
   -1.9167   -0.5148    0.0000 C   0  0
    0.9412    1.1352    0.0000 C   0  0
    0.9412    2.7852    0.0000 C   0  0
   -1.9167    3.6102    0.0000 C   0  0
   -1.9167   -1.3398    0.0000 C   0  0
   -2.6312   -0.1023    0.0000 C   0  0
    1.6557    1.5477    0.0000 C   0  0
    1.6557    2.3727    0.0000 C   0  0
   -3.3456   -1.3398    0.0000 C   0  0
   -2.6312   -1.7523    0.0000 C   0  0
   -3.3456   -0.5148    0.0000 C   0  0
   -1.5042    4.8798    0.0000 C   0  0
   -4.0601   -2.5773    0.0000 C   0  0
  1  4  2  0
  1  5  2  0
  1  7  1  0
  1 17  1  0
  2 15  1  0
  2 20  1  0
  3 14  1  0
  6 25  1  0
  6 29  1  0
  7 12  1  0
  8 10  1  0
  8 20  2  0
  9 20  1  0
  9 28  2  0
 10 28  1  0
 11 12  1  0
 11 13  1  0
 11 18  2  0
 12 16  2  0
 13 14  1  0
 13 19  2  0
 14 15  2  0
 15 16  1  0
 17 21  2  0
 17 22  1  0
 18 23  1  0
 19 24  1  0
 21 26  1  0
 22 27  2  0
 23 24  2  0
 25 26  2  0
 25 27  1  0
M  END