
  SciTegic05061409512D

 15 16  0  0  0  0            999 V2000
   24.9315   -6.7832    0.0000 C   0  0
   24.9304   -7.6105    0.0000 C   0  0
   25.6452   -8.0234    0.0000 C   0  0
   26.3616   -7.6101    0.0000 C   0  0
   26.3588   -6.7796    0.0000 C   0  0
   25.6434   -6.3704    0.0000 C   0  0
   24.2156   -8.0225    0.0000 N   0  0
   23.5015   -7.6094    0.0000 C   0  0
   22.7867   -8.0213    0.0000 C   0  0
   23.5021   -6.7844    0.0000 O   0  0
   21.9657   -8.0214    0.0000 C   0  0
   22.3777   -8.7362    0.0000 C   0  0
   27.0739   -6.3630    0.0000 N   0  3
   27.0707   -5.5380    0.0000 O   0  0
   27.7898   -6.7728    0.0000 O   0  5
  1  2  2  0
  2  3  1  0
  3  4  2  0
  4  5  1  0
  5  6  2  0
  6  1  1  0
  2  7  1  0
  7  8  1  0
  8  9  1  0
  8 10  2  0
 11  9  1  0
 12 11  1  0
  9 12  1  0
 13 14  2  0
 13 15  1  0
  5 13  1  0
M  CHG  2  13   1  15  -1
M  END