
  SciTegic01161211252D

 28 30  0  0  0  0            999 V2000
    0.6649  -14.3357    0.0000 C   0  0
    0.6638  -15.1628    0.0000 C   0  0
    1.3783  -15.5755    0.0000 C   0  0
    2.0944  -15.1623    0.0000 C   0  0
    2.0916  -14.3321    0.0000 C   0  0
    1.3765  -13.9232    0.0000 C   0  0
   -0.0507  -15.5745    0.0000 N   0  0
   -0.7646  -15.1617    0.0000 C   0  0
   -1.4791  -15.5734    0.0000 N   0  0
   -0.7639  -14.3370    0.0000 O   0  0
   -2.1929  -15.1601    0.0000 C   0  0
   -2.4666  -14.3810    0.0000 C   0  0
   -3.2920  -14.3967    0.0000 C   0  0
   -3.5308  -15.1872    0.0000 O   0  0
   -2.8522  -15.6574    0.0000 N   0  0
   -3.7901  -13.7393    0.0000 C   0  0
   -3.4148  -13.0051    0.0000 C   0  0
   -4.6138  -13.7813    0.0000 C   0  0
   -4.3159  -13.0940    0.0000 C   0  0
    2.8042  -13.9171    0.0000 N   0  0
    3.5200  -14.3267    0.0000 C   0  0
    4.2326  -13.9117    0.0000 C   0  0
    3.5153  -15.1480    0.0000 O   0  0
    4.9467  -14.3248    0.0000 C   0  0
    5.6589  -13.9105    0.0000 C   0  0
    5.6562  -13.0849    0.0000 C   0  0
    4.9355  -12.6755    0.0000 C   0  0
    4.2263  -13.0921    0.0000 N   0  0
 11 12  1  0
 13 14  1  0
 14 15  1  0
 15 11  2  0
  3  4  2  0
 13 16  1  0
  7  8  1  0
 16 17  1  0
 16 18  1  0
  8  9  1  0
 16 19  1  0
  4  5  1  0
  5 20  1  0
  8 10  2  0
 20 21  1  0
  2  3  1  0
 21 22  1  0
  9 11  1  0
 21 23  2  0
 12 13  2  0
 22 24  2  0
  5  6  2  0
 24 25  1  0
  6  1  1  0
 25 26  2  0
  1  2  2  0
 26 27  1  0
  2  7  1  0
 27 28  2  0
 28 22  1  0
M  END