
  SciTegic01091216402D

 21 22  0  0  0  0            999 V2000
    5.1818   -4.1672    0.0000 N   0  0
    5.2693   -4.9840    0.0000 N   0  0
    6.0761   -5.1517    0.0000 C   0  0
    6.4848   -4.4350    0.0000 C   0  0
    5.9295   -3.8274    0.0000 C   0  0
    4.4651   -3.7584    0.0000 C   0  0
    3.7541   -4.1747    0.0000 N   0  0
    4.4593   -2.9333    0.0000 N   0  0
    7.3053   -4.3452    0.0000 C   0  0
    5.1702   -2.5171    0.0000 C   0  0
    5.8869   -2.9259    0.0000 C   0  0
    3.0378   -3.7657    0.0000 S   0  0
    2.3198   -4.1648    0.0000 C   0  0
    2.3051   -4.9885    0.0000 C   0  0
    1.5831   -5.3876    0.0000 C   0  0
    0.8757   -4.9630    0.0000 C   0  0
    0.8903   -4.1392    0.0000 C   0  0
    1.6125   -3.7402    0.0000 C   0  0
    1.5995   -6.2113    0.0000 Cl  0  0
    2.6213   -3.0499    0.0000 O   0  0
    3.4451   -3.0499    0.0000 O   0  0
  2  3  2  0
  3  4  1  0
  4  5  1  0
  1  5  1  0
  6  7  2  0
  6  8  1  0
  1  6  1  0
  4  9  1  0
 10 11  1  0
  8 10  1  0
 13 14  1  0
 14 15  2  0
 15 16  1  0
 16 17  2  0
 17 18  1  0
 13 18  2  0
 12 13  1  0
 15 19  1  0
  7 12  1  0
 12 20  2  0
  1  2  1  0
 12 21  2  0
M  END