
  SciTegic12231509382D

 13 14  0  0  0  0            999 V2000
    4.1379    2.9844    0.0000 N   0  0
    3.4258    2.5872    0.0000 C   0  0
    4.8645    1.7539    0.0000 N   0  0
    4.8645    2.5872    0.0000 C   0  0
    3.4258    1.7539    0.0000 C   0  0
    4.1379    1.3373    0.0000 C   0  0
    2.6410    2.8197    0.0000 N   0  0
    2.6410    1.4972    0.0000 N   0  0
    2.1469    2.1657    0.0000 C   0  0
    5.5766    2.9844    0.0000 O   0  0
    4.1379    0.5090    0.0000 O   0  0
    4.1379    3.8176    0.0000 C   0  0
    5.5766    1.3373    0.0000 C   0  0
  2  1  1  0
  3  4  1  0
  4  1  1  0
  5  2  2  0
  6  3  1  0
  7  2  1  0
  8  5  1  0
  9  7  2  0
 10  4  2  0
 11  6  2  0
 12  1  1  0
 13  3  1  0
  5  6  1  0
  8  9  1  0
M  END