
  SciTegic11141214522D

 26 29  0  0  0  0            999 V2000
   -1.8413    0.0292    0.0000 C   0  0
   -2.5882   -0.3214    0.0000 C   0  0
   -2.6581   -1.1434    0.0000 C   0  0  2  0  0  0
   -3.4050   -1.4938    0.0000 O   0  0
   -1.9811   -1.6149    0.0000 C   0  0
   -1.2343   -1.2645    0.0000 C   0  0
   -0.5574   -1.7361    0.0000 C   0  0
    0.1895   -1.3856    0.0000 C   0  0
    0.2594   -0.5635    0.0000 C   0  0  2  0  0  0
   -0.4175   -0.0920    0.0000 C   0  0  1  0  0  0
   -1.1644   -0.4424    0.0000 C   0  0  1  0  0  0
   -0.3476    0.7301    0.0000 C   0  0
    0.3992    1.0805    0.0000 C   0  0
    1.0762    0.6089    0.0000 C   0  0  1  0  0  0
    1.0062   -0.2131    0.0000 C   0  0  1  0  0  0
    1.7665   -0.5336    0.0000 C   0  0
    2.3062    0.0903    0.0000 C   0  0
    1.8796    0.7965    0.0000 C   0  0  2  0  0  0
    1.2317    1.4192    0.0000 C   0  0
   -1.0944    0.3796    0.0000 C   0  0
    2.2002    1.5566    0.0000 C   0  0
    1.7021    2.2143    0.0000 C   0  0
    3.0187    1.6592    0.0000 O   0  0
    0.2594    0.2615    0.0000 H   0  0
    1.0062   -1.0381    0.0000 H   0  0
   -0.4175   -0.9170    0.0000 H   0  0
  1  2  1  0
  1 11  1  0
  2  3  1  0
  3  4  1  1
  3  5  1  0
  5  6  1  0
  6  7  2  0
 11  6  1  0
  7  8  1  0
  9  8  1  0
  9 10  1  0
 15  9  1  0
 11 10  1  0
 10 12  1  0
 11 20  1  1
 12 13  1  0
 13 14  1  0
 14 15  1  0
 14 18  1  0
 14 19  1  1
 15 16  1  0
 16 17  1  0
 17 18  1  0
 18 21  1  1
 21 22  1  0
 21 23  2  0
  9 24  1  1
 15 25  1  6
 10 26  1  6
M  END