
  SciTegic05061116452D

 35 39  0  0  0  0            999 V2000
   19.8705   -0.6499    0.0000 N   0  0
   20.5822   -0.2413    0.0000 C   0  0
   20.5822    0.5838    0.0000 N   0  0
   19.8705    1.0001    0.0000 C   0  0
   19.1588   -0.2413    0.0000 C   0  0
   19.1588    0.5883    0.0000 C   0  0
   18.3698    0.8448    0.0000 N   0  0
   17.8821    0.1735    0.0000 C   0  0
   18.3697   -0.4975    0.0000 N   0  0
   18.1148   -1.2822    0.0000 C   0  0
   17.3078   -1.4537    0.0000 C   0  0
   17.0528   -2.2383    0.0000 O   0  0
   16.7558   -0.8406    0.0000 O   0  0
   19.8725    1.8252    0.0000 N   0  0
   21.2963   -0.6546    0.0000 N   0  0
   22.0112   -0.2430    0.0000 C   0  0
   22.7253   -0.6564    0.0000 C   0  0
   20.5880    2.2360    0.0000 C   0  0
   22.7197   -1.4797    0.0000 C   0  0
   23.4329   -1.8930    0.0000 C   0  0
   24.1488   -1.4813    0.0000 C   0  0
   24.1472   -0.6520    0.0000 C   0  0
   23.4335   -0.2425    0.0000 C   0  0
   24.8596   -1.8909    0.0000 C   0  0
   24.8577   -2.7169    0.0000 C   0  0
   25.5681   -3.1293    0.0000 C   0  0
   26.2850   -2.7202    0.0000 C   0  0
   26.2868   -1.8942    0.0000 C   0  0
   25.5719   -1.4773    0.0000 C   0  0
   21.3025    1.8168    0.0000 C   0  0
   22.0175    2.2270    0.0000 C   0  0
   22.0199    3.0493    0.0000 C   0  0
   21.3014    3.4603    0.0000 C   0  0
   20.5893    3.0478    0.0000 C   0  0
   22.7343    3.4623    0.0000 F   0  0
 16 17  1  0
  7  8  2  0
 14 18  1  0
  8  9  1  0
 17 19  2  0
  9  5  1  0
 19 20  1  0
  3  4  2  0
 20 21  2  0
  9 10  1  0
 21 22  1  0
  5  6  2  0
 22 23  2  0
 23 17  1  0
 24 25  1  0
 10 11  1  0
 11 12  1  0
  6  4  1  0
 11 13  2  0
  5  1  1  0
 24 29  1  0
 25 26  1  0
 26 27  1  0
 27 28  1  0
 28 29  1  0
 21 24  1  0
  4 14  1  0
 18 30  2  0
  1  2  2  0
 30 31  1  0
  2 15  1  0
 31 32  2  0
  2  3  1  0
 32 33  1  0
 15 16  1  0
 33 34  2  0
 34 18  1  0
  6  7  1  0
 32 35  1  0
M  END