
  SciTegic02131210002D

 22 25  0  0  0  0            999 V2000
   -4.6104  -16.7901    0.0000 C   0  0
   -4.6115  -17.6154    0.0000 C   0  0
   -3.8986  -18.0272    0.0000 C   0  0
   -3.9004  -16.3784    0.0000 C   0  0
   -3.1868  -16.7865    0.0000 C   0  0
   -3.1819  -17.6154    0.0000 C   0  0
   -2.3921  -17.8670    0.0000 O   0  0
   -2.4000  -16.5258    0.0000 C   0  0
   -1.9111  -17.1927    0.0000 C   0  0
   -1.0911  -17.1019    0.0000 C   0  0
   -0.7589  -16.3450    0.0000 N   0  0
   -1.2530  -15.6779    0.0000 C   0  0
   -2.0712  -15.7720    0.0000 N   0  0
   -0.9254  -14.9230    0.0000 N   0  0
   -5.3231  -16.3789    0.0000 Cl  0  0
   -0.6040  -17.7653    0.0000 N   0  0
   -1.0075  -18.4806    0.0000 C   0  0
   -0.5880  -19.1844    0.0000 C   0  0
    0.2352  -19.1751    0.0000 N   0  0
    0.6371  -18.4559    0.0000 C   0  0
    0.2158  -17.7460    0.0000 C   0  0
    0.6556  -19.8825    0.0000 C   0  0
  5  6  1  0
 10 11  2  0
 11 12  1  0
  2  3  1  0
 12 13  2  0
 13  8  1  0
  3  6  2  0
 12 14  1  0
  6  7  1  0
  1 15  1  0
  7  9  1  0
 10 16  1  0
 16 17  1  0
  8  5  1  0
  1  2  2  0
  5  4  2  0
  8  9  2  0
  4  1  1  0
 16 21  1  0
 17 18  1  0
 18 19  1  0
 19 20  1  0
 20 21  1  0
  9 10  1  0
 19 22  1  0
M  END