
          08180812472D 1   1.00000     0.00000     0

 21 23  0     0  0            999 V2000
   -5.5612  -14.5107    0.0000 C   0  0  0  0  0  0           0  0  0
   -5.5625  -15.3384    0.0000 C   0  0  0  0  0  0           0  0  0
   -4.8495  -15.7513    0.0000 C   0  0  0  0  0  0           0  0  0
   -4.1302  -15.3378    0.0000 C   0  0  0  0  0  0           0  0  0
   -4.1332  -14.5068    0.0000 C   0  0  0  0  0  0           0  0  0
   -4.8514  -14.0980    0.0000 C   0  0  0  0  0  0           0  0  0
   -3.4209  -14.0908    0.0000 C   0  0  0  0  0  0           0  0  0
   -2.7043  -14.4997    0.0000 C   0  0  0  0  0  0           0  0  0
   -2.7020  -15.3230    0.0000 C   0  0  0  0  0  0           0  0  0
   -1.9897  -15.7320    0.0000 O   0  0  0  0  0  0           0  0  0
   -1.9939  -14.0800    0.0000 C   0  0  0  0  0  0           0  0  0
   -3.4154  -15.7375    0.0000 O   0  0  0  0  0  0           0  0  0
   -1.2769  -14.4935    0.0000 C   0  0  0  0  0  0           0  0  0
   -1.2768  -15.3158    0.0000 C   0  0  0  0  0  0           0  0  0
   -0.5656  -15.7251    0.0000 C   0  0  0  0  0  0           0  0  0
    0.1459  -15.3132    0.0000 C   0  0  0  0  0  0           0  0  0
    0.1418  -14.4876    0.0000 C   0  0  0  0  0  0           0  0  0
   -0.5699  -14.0821    0.0000 C   0  0  0  0  0  0           0  0  0
    0.8616  -15.7235    0.0000 O   0  0  0  0  0  0           0  0  0
   -0.5646  -16.5501    0.0000 C   0  0  0  0  0  0           0  0  0
   -1.9982  -13.2550    0.0000 C   0  0  0  0  0  0           0  0  0
  8 11  2  0     0  0
  9 10  1  0     0  0
 10 14  1  0     0  0
 13 11  1  0     0  0
  5  6  2  0     0  0
  6  1  1  0     0  0
  9 12  2  0     0  0
  1  2  2  0     0  0
  5  7  1  0     0  0
 13 14  2  0     0  0
  3  4  2  0     0  0
 14 15  1  0     0  0
  7  8  1  0     0  0
 15 16  2  0     0  0
  8  9  1  0     0  0
 16 17  1  0     0  0
 17 18  2  0     0  0
 18 13  1  0     0  0
  4  5  1  0     0  0
 16 19  1  0     0  0
  2  3  1  0     0  0
 15 20  1  0     0  0
 11 21  1  0     0  0
M  END