
  SciTegic06051313522D

 27 31  0  0  0  0            999 V2000
   11.6126   -5.3571    0.0000 C   0  0
   11.6115   -6.1766    0.0000 C   0  0
   12.3195   -6.5856    0.0000 C   0  0
   12.3177   -4.9482    0.0000 C   0  0
   13.0263   -5.3535    0.0000 C   0  0
   13.0271   -6.1725    0.0000 C   0  0
   13.7356   -6.5796    0.0000 C   0  0
   14.4439   -6.1688    0.0000 C   0  0
   14.4392   -5.3466    0.0000 C   0  0
   13.7301   -4.9433    0.0000 C   0  0
   12.5315   -4.1520    0.0000 C   0  0
   13.5125   -4.1479    0.0000 C   0  0
   13.8118   -3.2136    0.0000 C   0  0
   13.0157   -2.6402    0.0000 C   0  0
   12.2245   -3.2203    0.0000 N   0  0
   13.0115   -1.6592    0.0000 O   0  0
   14.7435   -2.9065    0.0000 N   0  0
   15.4753   -3.5599    0.0000 C   0  0
   16.4071   -3.2528    0.0000 C   0  0
   17.1389   -3.9062    0.0000 C   0  0
   18.0706   -3.5992    0.0000 C   0  0
   13.7370   -7.3945    0.0000 N   0  0
   13.0284   -7.8034    0.0000 C   0  0
   13.0281   -8.6170    0.0000 C   0  0
   13.7348   -9.0280    0.0000 S   0  0
   14.4435   -8.6191    0.0000 C   0  0
   14.4454   -7.7993    0.0000 C   0  0
  1  2  2  0
  2  3  1  0
  3  6  2  0
  5  4  2  0
  4  1  1  0
  5  6  1  0
  6  7  1  0
  7  8  2  0
  8  9  1  0
  9 10  2  0
 10  5  1  0
  4 11  1  0
 10 12  1  0
 11 12  1  0
 12 13  2  0
 13 14  1  0
 14 15  1  0
 15 11  2  0
 14 16  2  0
 13 17  1  0
 17 18  1  0
 18 19  1  0
 19 20  1  0
 20 21  1  0
 22 23  1  0
 22 27  1  0
 23 24  1  0
 24 25  1  0
 25 26  1  0
 26 27  1  0
  7 22  1  0
M  END