
          11280714492D 1   1.00000     0.00000     0

 35 38  0     1  0            999 V2000
    2.5792   -0.1542    0.0000 N   0  0  0  0  0  0           0  0  0
    3.1292   -0.7750    0.0000 C   0  0  0  0  0  0           0  0  0
    1.8250   -0.5000    0.0000 C   0  0  0  0  0  0           0  0  0
    1.9167   -1.3167    0.0000 O   0  0  0  0  0  0           0  0  0
    2.7167   -1.4875    0.0000 C   0  0  0  0  0  0           0  0  0
    3.9542   -0.6875    0.0000 C   0  0  0  0  0  0           0  0  0
    1.1125   -0.0875    0.0000 C   0  0  1  0  0  0           0  0  0
    1.1125    0.7375    0.0000 C   0  0  3  0  0  0           0  0  0
    1.8250    1.1500    0.0000 C   0  0  0  0  0  0           0  0  0
    1.8250    1.9750    0.0000 C   0  0  0  0  0  0           0  0  0
    4.6875    1.9833    0.0000 C   0  0  0  0  0  0           0  0  0
    2.5417    2.3958    0.0000 C   0  0  0  0  0  0           0  0  0
    4.2917    0.0708    0.0000 O   0  0  0  0  0  0           0  0  0
    5.4000    2.3958    0.0000 O   0  0  0  0  0  0           0  0  0
    4.4417   -1.3542    0.0000 N   0  0  0  0  0  0           0  0  0
    3.2542    1.9750    0.0000 C   0  0  0  0  0  0           0  0  0
    3.9667    2.3958    0.0000 C   0  0  0  0  0  0           0  0  0
    4.6875    1.1583    0.0000 O   0  0  0  0  0  0           0  0  0
    0.3250    0.9958    0.0000 C   0  0  0  0  0  0           0  0  0
    0.3250   -0.3417    0.0000 C   0  0  0  0  0  0           0  0  0
   -0.1625    0.3250    0.0000 C   0  0  0  0  0  0           0  0  0
    1.1125    2.3958    0.0000 C   0  0  0  0  0  0           0  0  0
    5.5542   -4.1125    0.0000 C   0  0  3  0  0  0           0  0  0
    2.5417    3.2208    0.0000 C   0  0  0  0  0  0           0  0  0
    5.2542   -1.2667    0.0000 C   0  0  0  0  0  0           0  0  0
    5.8917   -3.3542    0.0000 C   0  0  0  0  0  0           0  0  0
    4.9750   -4.6917    0.0000 C   0  0  0  0  0  0           0  0  0
    5.5167   -4.8167    0.0000 C   0  0  0  0  0  0           0  0  0
    5.7417   -1.9375    0.0000 C   0  0  0  0  0  0           0  0  0
    5.4042   -2.6917    0.0000 C   0  0  0  0  0  0           0  0  0
    1.1125    3.2125    0.0000 C   0  0  0  0  0  0           0  0  0
    1.8250    3.6333    0.0000 C   0  0  0  0  0  0           0  0  0
    5.5375   -5.4917    0.0000 C   0  0  0  0  0  0           0  0  0
    6.0750   -5.5750    0.0000 C   0  0  0  0  0  0           0  0  0
    5.4875   -6.1625    0.0000 C   0  0  0  0  0  0           0  0  0
  2  1  1  0     0  0
  3  1  2  0     0  0
  4  3  1  0     0  0
  5  2  2  0     0  0
  6  2  1  0     0  0
  7  3  1  6     0  0
  8  7  1  0     0  0
  9  8  1  0     0  0
 10  9  1  0     0  0
 11 17  1  0     0  0
 12 10  2  0     0  0
 13  6  2  0     0  0
 14 11  2  0     0  0
 15  6  1  0     0  0
 16 12  1  0     0  0
 17 16  1  0     0  0
 18 11  1  0     0  0
 19  8  1  0     0  0
 20  7  1  0     0  0
 21 20  1  0     0  0
 22 10  1  0     0  0
 23 26  1  0     0  0
 24 12  1  0     0  0
 25 15  1  0     0  0
 26 30  1  0     0  0
 27 23  1  0     0  0
 28 23  1  0     0  0
 29 25  1  0     0  0
 30 29  1  0     0  0
 31 22  2  0     0  0
 32 31  1  0     0  0
 33 27  1  0     0  0
 34 28  1  0     0  0
 35 34  1  0     0  0
  5  4  1  0     0  0
 21 19  1  0     0  0
 32 24  2  0     0  0
 33 35  1  0     0  0
M  END