
  SciTegic12131016252D

 21 23  0  0  0  0            999 V2000
    3.8501   -2.8929    0.0000 C   0  0
    3.4498   -1.6179    0.0000 N   0  0
    3.1898   -2.4001    0.0000 C   0  0
    4.2775   -1.6268    0.0000 C   0  0
    4.5196   -2.4137    0.0000 C   0  0
    5.3205   -2.5962    0.0000 N   0  0
    5.8802   -1.9925    0.0000 C   0  0
    5.6334   -1.2038    0.0000 N   0  0
    4.8331   -1.0249    0.0000 C   0  0
    3.8418   -3.7180    0.0000 C   0  0
    3.1232   -4.1234    0.0000 N   0  0
    2.3697   -3.7812    0.0000 C   0  0
    1.8115   -4.3885    0.0000 C   0  0  1  0  0  0
    2.2170   -5.1076    0.0000 C   0  0  2  0  0  0
    3.0256   -4.9440    0.0000 C   0  0
    0.9864   -4.3898    0.0000 C   0  0
    0.5728   -3.6759    0.0000 S   0  0
    1.8738   -5.8579    0.0000 O   0  0
    4.5444   -0.2519    0.0000 N   0  0
   -0.2542   -3.6755    0.0000 C   0  0
   -0.6671   -4.3899    0.0000 C   0  0
  1 10  1  0
  4  5  2  0
 10 11  1  0
 11 12  1  0
  4  2  1  0
  5  6  1  0
  2  3  1  0
  6  7  2  0
 12 13  1  0
 13 14  1  0
 14 15  1  0
 15 11  1  0
  3  1  2  0
 13 16  1  1
  7  8  1  0
 16 17  1  0
  1  5  1  0
 14 18  1  6
  8  9  2  0
  9 19  1  0
  9  4  1  0
 17 20  1  0
 20 21  1  0
M  END