
  SciTegic05071317032D

 29 27  0  0  0  0            999 V2000
    9.8425  -11.2120    0.0000 N   0  0
   10.5583  -11.6250    0.0000 C   0  0
   11.2691  -11.2133    0.0000 C   0  0
   11.2703  -10.3880    0.0000 N   0  0
   10.5544   -9.9760    0.0000 C   0  0
    9.8374  -10.3893    0.0000 C   0  0
   11.9847   -9.9755    0.0000 C   0  0
   12.6992  -10.3880    0.0000 C   0  0
   13.4137   -9.9755    0.0000 C   0  0
   14.1281  -10.3880    0.0000 N   0  0
    0.5569  -11.6541    0.0000 C   0  0
    0.5558  -12.4815    0.0000 C   0  0
    1.2705  -12.8944    0.0000 C   0  0
    1.9870  -12.4810    0.0000 C   0  0
    1.9842  -11.6505    0.0000 C   0  0
    1.2687  -11.2414    0.0000 C   0  0
    2.6970  -11.2354    0.0000 O   0  0
    3.4131  -11.6451    0.0000 C   0  0
    4.1260  -11.2299    0.0000 C   0  0
    4.8420  -11.6398    0.0000 C   0  0
    5.5549  -11.2245    0.0000 C   0  0
    6.2710  -11.6343    0.0000 C   0  0
    6.9838  -11.2192    0.0000 C   0  0
    7.6999  -11.6290    0.0000 C   0  0
    8.4128  -11.2137    0.0000 C   0  0
    9.1288  -11.6236    0.0000 C   0  0
    8.7242  -13.5066    0.0000 Cl  0  0
   11.5205  -13.0527    0.0000 Cl  0  0
   10.4009  -14.7616    0.0000 Cl  0  0
  1  2  1  0
  1  6  1  0
  2  3  1  0
  3  4  1  0
  4  5  1  0
  5  6  1  0
  4  7  1  0
  7  8  1  0
  8  9  1  0
  9 10  1  0
 11 12  2  0
 12 13  1  0
 13 14  2  0
 14 15  1  0
 15 16  2  0
 16 11  1  0
 15 17  1  0
 17 18  1  0
 18 19  1  0
 19 20  1  0
 20 21  1  0
 21 22  1  0
 22 23  1  0
 23 24  1  0
 24 25  1  0
 25 26  1  0
 26  1  1  0
M  END