
  CDK    9/16/09,9:41

 88 88  0  0  0  0  0  0  0  0999 V2000
   -4.0275   -4.7648    0.0000 N   0  0  0  0  0  0  0  0  0  0  0  0
   -3.3190   -5.1764    0.0000 C   0  0  0  0  0  0  0  0  0  0  0  0
   -2.6008   -3.9428    0.0000 O   0  0  0  0  0  0  0  0  0  0  0  0
   -2.6013   -4.7675    0.0000 C   0  0  0  0  0  0  0  0  0  0  0  0
   -3.3221   -6.0044    0.0000 C   0  0  0  0  0  0  0  0  0  0  0  0
   -2.6021   -6.4227    0.0000 C   0  0  0  0  0  0  0  0  0  0  0  0
   -2.6057   -7.2433    0.0000 C   0  0  0  0  0  0  0  0  0  0  0  0
   -1.8834   -7.6629    0.0000 C   0  0  0  0  0  0  0  0  0  0  0  0
   -1.8880   -5.1819    0.0000 N   0  0  0  0  0  0  0  0  0  0  0  0
   -1.1717   -4.7674    0.0000 C   0  0  0  0  0  0  0  0  0  0  0  0
   -0.4657   -5.9965    0.0000 O   0  0  0  0  0  0  0  0  0  0  0  0
   -0.4633   -5.1789    0.0000 C   0  0  0  0  0  0  0  0  0  0  0  0
   -1.1686   -3.9394    0.0000 C   0  0  0  0  0  0  0  0  0  0  0  0
    0.2581   -4.7660    0.0000 N   0  0  0  0  0  0  0  0  0  0  0  0
    0.9657   -5.1771    0.0000 C   0  0  0  0  0  0  0  0  0  0  0  0
    1.6897   -3.9305    0.0000 O   0  0  0  0  0  0  0  0  0  0  0  0
    1.6853   -4.7616    0.0000 C   0  0  0  0  0  0  0  0  0  0  0  0
    0.9608   -5.9964    0.0000 C   0  0  0  0  0  0  0  0  0  0  0  0
    0.2539   -6.4029    0.0000 C   0  0  0  0  0  0  0  0  0  0  0  0
    3.1140   -4.7766    0.0000 C   0  0  0  0  0  0  0  0  0  0  0  0
    3.8166   -6.0064    0.0000 O   0  0  0  0  0  0  0  0  0  0  0  0
    3.8216   -5.1876    0.0000 C   0  0  0  0  0  0  0  0  0  0  0  0
    5.2473   -5.1841    0.0000 C   0  0  0  0  0  0  0  0  0  0  0  0
    5.9696   -3.9406    0.0000 O   0  0  0  0  0  0  0  0  0  0  0  0
    5.9688   -4.7741    0.0000 C   0  0  0  0  0  0  0  0  0  0  0  0
    6.6726   -5.1829    0.0000 N   0  0  0  0  0  0  0  0  0  0  0  0
    7.3962   -4.7693    0.0000 C   0  0  0  0  0  0  0  0  0  0  0  0
    8.1008   -5.9955    0.0000 O   0  0  0  0  0  0  0  0  0  0  0  0
    8.1037   -5.1802    0.0000 C   0  0  0  0  0  0  0  0  0  0  0  0
    7.3970   -3.9358    0.0000 C   0  0  0  0  0  0  0  0  0  0  0  0
    6.6779   -3.5181    0.0000 C   0  0  0  0  0  0  0  0  0  0  0  0
    6.6828   -2.6993    0.0000 C   0  0  0  0  0  0  0  0  0  0  0  0
    5.9636   -2.2816    0.0000 C   0  0  0  0  0  0  0  0  0  0  0  0
    9.5314   -5.1821    0.0000 C   0  0  0  0  0  0  0  0  0  0  0  0
   10.2559   -3.9351    0.0000 O   0  0  0  0  0  0  0  0  0  0  0  0
    9.5322   -5.9995    0.0000 C   0  0  0  0  0  0  0  0  0  0  0  0
   10.2551   -4.7685    0.0000 C   0  0  0  0  0  0  0  0  0  0  0  0
   10.9625   -5.1794    0.0000 N   0  0  0  0  0  0  0  0  0  0  0  0
   11.7243   -4.9018    0.0000 C   0  0  0  0  0  0  0  0  0  0  0  0
   11.0589   -3.6615    0.0000 O   0  0  0  0  0  0  0  0  0  0  0  0
   11.7703   -4.0771    0.0000 C   0  0  0  0  0  0  0  0  0  0  0  0
   12.4110   -5.3655    0.0000 C   0  0  0  0  0  0  0  0  0  0  0  0
   11.1301   -6.0557    0.0000 C   0  0  0  0  0  0  0  0  0  0  0  0
   12.0217   -6.1769    0.0000 C   0  0  0  0  0  0  0  0  0  0  0  0
   10.3458    0.0487    0.0000 C   0  0  0  0  0  0  0  0  0  0  0  0
   12.4855   -2.8353    0.0000 C   0  0  0  0  0  0  0  0  0  0  0  0
   13.9143   -2.8397    0.0000 O   0  0  0  0  0  0  0  0  0  0  0  0
   13.2011   -2.4278    0.0000 C   0  0  0  0  0  0  0  0  0  0  0  0
   11.7741   -2.4197    0.0000 C   0  0  0  0  0  0  0  0  0  0  0  0
   11.7783   -1.5964    0.0000 C   0  0  0  0  0  0  0  0  0  0  0  0
   11.0632   -1.1789    0.0000 C   0  0  0  0  0  0  0  0  0  0  0  0
   13.9276   -1.2058    0.0000 C   0  0  0  0  0  0  0  0  0  0  0  0
   13.2166    0.0349    0.0000 O   0  0  0  0  0  0  0  0  0  0  0  0
   13.9335   -0.3789    0.0000 C   0  0  0  0  0  0  0  0  0  0  0  0
   14.6389   -1.6214    0.0000 C   0  0  0  0  0  0  0  0  0  0  0  0
   15.3563   -1.2102    0.0000 C   0  0  0  0  0  0  0  0  0  0  0  0
   16.0678   -1.6258    0.0000 C   0  0  0  0  0  0  0  0  0  0  0  0
   16.7833   -1.2183    0.0000 C   0  0  0  0  0  0  0  0  0  0  0  0
   14.6560    0.8625    0.0000 C   0  0  0  0  0  0  0  0  0  0  0  0
   15.3776    2.0969    0.0000 O   0  0  0  0  0  0  0  0  0  0  0  0
   15.3734    1.2738    0.0000 C   0  0  0  0  0  0  0  0  0  0  0  0
   13.9445    1.2782    0.0000 C   0  0  0  0  0  0  0  0  0  0  0  0
   13.9487    2.1013    0.0000 C   0  0  0  0  0  0  0  0  0  0  0  0
   13.2336    2.5189    0.0000 C   0  0  0  0  0  0  0  0  0  0  0  0
   13.2397    3.3458    0.0000 O   0  0  0  0  0  0  0  0  0  0  0  0
   11.0061   -4.4854    0.0000 H   0  0  0  0  0  0  0  0  0  0  0  0
    6.6746   -1.0434    0.0000 C   0  0  0  0  0  0  0  0  0  0  0  0
    6.6739   -0.2185    0.0000 O   0  0  0  0  0  0  0  0  0  0  0  0
    7.3894   -1.4553    0.0000 C   0  0  0  0  0  0  0  0  0  0  0  0
    8.0995   -1.8670    0.0000 F   0  0  0  0  0  0  0  0  0  0  0  0
    7.8023   -0.7410    0.0000 F   0  0  0  0  0  0  0  0  0  0  0  0
    6.9802   -2.1715    0.0000 F   0  0  0  0  0  0  0  0  0  0  0  0
   -1.8901   -8.4729    0.0000 N   0  0  0  0  0  0  0  0  0  0  0  0
   -0.4712   -3.5332    0.0000 O   0  0  0  0  0  0  0  0  0  0  0  0
    1.6774   -6.4154    0.0000 O   0  0  0  0  0  0  0  0  0  0  0  0
    2.3953   -5.1818    0.0000 N   0  0  0  0  0  0  0  0  0  0  0  0
    4.5334   -4.7706    0.0000 N   0  0  0  0  0  0  0  0  0  0  0  0
    5.9605   -1.4566    0.0000 N   0  0  0  0  0  0  0  0  0  0  0  0
    8.8181   -4.7677    0.0000 N   0  0  0  0  0  0  0  0  0  0  0  0
   11.0659   -0.3539    0.0000 N   0  0  0  0  0  0  0  0  0  0  0  0
    9.6215   -0.3441    0.0000 N   0  0  0  0  0  0  0  0  0  0  0  0
   10.3394    0.8922    0.0000 N   0  0  0  0  0  0  0  0  0  0  0  0
   12.4822   -3.6603    0.0000 N   0  0  0  0  0  0  0  0  0  0  0  0
   13.2044   -1.6028    0.0000 N   0  0  0  0  0  0  0  0  0  0  0  0
   17.4920   -1.6287    0.0000 N   0  0  0  0  0  0  0  0  0  0  0  0
   14.6457    0.0376    0.0000 N   0  0  0  0  0  0  0  0  0  0  0  0
   12.5181    2.1113    0.0000 N   0  0  0  0  0  0  0  0  0  0  0  0
   16.0847    0.8581    0.0000 O   0  0  0  0  0  0  0  0  0  0  0  0
 10 13  1  0  0  0  0 
 15 14  1  6  0  0  0 
 15 17  1  0  0  0  0 
 17 16  2  0  0  0  0 
 15 18  1  0  0  0  0 
 18 19  1  0  0  0  0 
 20 22  1  0  0  0  0 
 22 21  2  0  0  0  0 
 23 25  1  0  0  0  0 
 25 24  2  0  0  0  0 
 27 26  1  1  0  0  0 
 27 29  1  0  0  0  0 
 29 28  2  0  0  0  0 
 27 30  1  0  0  0  0 
 30 31  1  0  0  0  0 
 31 32  1  0  0  0  0 
 32 33  1  0  0  0  0 
 34 37  1  0  0  0  0 
 37 35  2  0  0  0  0 
 34 36  1  6  0  0  0 
 38 39  1  0  0  0  0 
 39 41  1  0  0  0  0 
 41 40  2  0  0  0  0 
 39 42  1  0  0  0  0 
 43 44  1  0  0  0  0 
 44 42  1  0  0  0  0 
 43 38  1  0  0  0  0 
 46 48  1  0  0  0  0 
 48 47  2  0  0  0  0 
 46 49  1  1  0  0  0 
 49 50  1  0  0  0  0 
 50 51  1  0  0  0  0 
 52 54  1  0  0  0  0 
 54 53  2  0  0  0  0 
 52 55  1  6  0  0  0 
 55 56  1  0  0  0  0 
 56 57  1  0  0  0  0 
 57 58  1  0  0  0  0 
 59 61  1  0  0  0  0 
 61 60  2  0  0  0  0 
 59 62  1  1  0  0  0 
 62 63  1  0  0  0  0 
 63 64  1  0  0  0  0 
 64 65  2  0  0  0  0 
 39 66  1  1  0  0  0 
  4  9  1  0  0  0  0 
 12 14  1  0  0  0  0 
 67 68  2  0  0  0  0 
 67 69  1  0  0  0  0 
 69 70  1  0  0  0  0 
 25 26  1  0  0  0  0 
 69 71  1  0  0  0  0 
 69 72  1  0  0  0  0 
 37 38  1  0  0  0  0 
  2  1  1  6  0  0  0 
  2  4  1  0  0  0  0 
  4  3  2  0  0  0  0 
  2  5  1  0  0  0  0 
  5  6  1  0  0  0  0 
  6  7  1  0  0  0  0 
  7  8  1  0  0  0  0 
 10  9  1  1  0  0  0 
 10 12  1  0  0  0  0 
 12 11  2  0  0  0  0 
 80 45  1  0  0  0  0 
 51 80  1  0  0  0  0 
 76 20  1  0  0  0  0 
 17 76  1  0  0  0  0 
 45 81  1  0  0  0  0 
 13 74  1  0  0  0  0 
 45 82  2  0  0  0  0 
 77 23  1  0  0  0  0 
 22 77  1  0  0  0  0 
 83 46  1  0  0  0  0 
 41 83  1  0  0  0  0 
  8 73  1  0  0  0  0 
 84 52  1  0  0  0  0 
 48 84  1  0  0  0  0 
 33 78  1  0  0  0  0 
 78 67  1  0  0  0  0 
 58 85  1  0  0  0  0 
 18 75  1  6  0  0  0 
 86 59  1  0  0  0  0 
 54 86  1  0  0  0  0 
 79 34  1  0  0  0  0 
 29 79  1  0  0  0  0 
 64 87  1  0  0  0  0 
 61 88  1  0  0  0  0 
M  END