
  SciTegic06051315212D

 26 28  0  0  0  0            999 V2000
   11.0425  -19.8806    0.0000 C   0  0
   11.7473  -19.4698    0.0000 N   0  0
   11.7429  -18.6558    0.0000 C   0  0
   11.0345  -18.2518    0.0000 C   0  0
   10.3368  -19.4802    0.0000 C   0  0
   10.3301  -18.6695    0.0000 C   0  0
    9.6258  -18.2718    0.0000 C   0  0
    8.9278  -18.6836    0.0000 C   0  0
    8.9385  -19.4973    0.0000 C   0  0
    9.6433  -19.8914    0.0000 C   0  0
   12.4484  -18.2435    0.0000 C   0  0
   13.1583  -18.6483    0.0000 N   0  0
   13.8638  -18.2359    0.0000 C   0  0  1  0  0  0
   12.4441  -17.4263    0.0000 O   0  0
   14.5737  -18.6408    0.0000 C   0  0
   13.8592  -17.4169    0.0000 C   0  0
   14.5781  -19.4579    0.0000 O   0  0
   15.2792  -18.2284    0.0000 O   0  0
   11.0275  -17.4346    0.0000 O   0  0
   14.5646  -17.0043    0.0000 C   0  0
   15.2742  -17.4115    0.0000 C   0  0
   15.9791  -16.9996    0.0000 C   0  0
   15.9750  -16.1816    0.0000 C   0  0
   15.2600  -15.7771    0.0000 C   0  0
   14.5580  -16.1913    0.0000 C   0  0
   11.0472  -20.6978    0.0000 Cl  0  0
  1  2  2  0
  2  3  1  0
  3  4  2  0
  4  6  1  0
  5  1  1  0
  5  6  1  0
  6  7  2  0
  7  8  1  0
  8  9  2  0
  9 10  1  0
 10  5  2  0
  3 11  1  0
 11 12  1  0
 12 13  1  0
 11 14  2  0
 13 15  1  0
 13 16  1  6
 15 17  1  0
 15 18  2  0
  4 19  1  0
 16 20  1  0
 20 21  2  0
 21 22  1  0
 22 23  2  0
 23 24  1  0
 24 25  2  0
 25 20  1  0
  1 26  1  0
M  END