
  CDK    9/16/09,10:1

 26 28  0  0  0  0  0  0  0  0999 V2000
   -4.6308  -15.6159    0.0000 C   0  0  0  0  0  0  0  0  0  0  0  0
   -4.6313  -16.4420    0.0000 C   0  0  0  0  0  0  0  0  0  0  0  0
   -3.9173  -16.8539    0.0000 N   0  0  0  0  0  0  0  0  0  0  0  0
   -3.2023  -16.4406    0.0000 C   0  0  0  0  0  0  0  0  0  0  0  0
   -3.2057  -15.6113    0.0000 C   0  0  0  0  0  0  0  0  0  0  0  0
   -3.9203  -15.2033    0.0000 N   0  0  0  0  0  0  0  0  0  0  0  0
   -2.4930  -15.1957    0.0000 N   0  0  0  0  0  0  0  0  0  0  0  0
   -1.7767  -15.6050    0.0000 C   0  0  0  0  0  0  0  0  0  0  0  0
   -1.0641  -15.1893    0.0000 C   0  0  0  0  0  0  0  0  0  0  0  0
   -1.7730  -16.4301    0.0000 C   0  0  0  0  0  0  0  0  0  0  0  0
   -0.3512  -15.5991    0.0000 C   0  0  0  0  0  0  0  0  0  0  0  0
    0.3609  -15.1842    0.0000 C   0  0  0  0  0  0  0  0  0  0  0  0
    0.3576  -14.3583    0.0000 C   0  0  0  0  0  0  0  0  0  0  0  0
   -0.3637  -13.9490    0.0000 C   0  0  0  0  0  0  0  0  0  0  0  0
   -1.0729  -14.3664    0.0000 C   0  0  0  0  0  0  0  0  0  0  0  0
    1.0770  -15.5938    0.0000 N   0  0  0  0  0  0  0  0  0  0  0  0
    1.0802  -16.4188    0.0000 C   0  0  0  0  0  0  0  0  0  0  0  0
    1.7963  -16.8285    0.0000 C   0  0  0  0  0  0  0  0  0  0  0  0
    0.3674  -16.8342    0.0000 O   0  0  0  0  0  0  0  0  0  0  0  0
   -5.3457  -15.2041    0.0000 Cl  0  0  0  0  0  0  0  0  0  0  0  0
    1.7971  -17.6522    0.0000 C   0  0  0  0  0  0  0  0  0  0  0  0
    2.5125  -18.0618    0.0000 C   0  0  0  0  0  0  0  0  0  0  0  0
    3.2263  -17.6465    0.0000 C   0  0  0  0  0  0  0  0  0  0  0  0
    3.2203  -16.8172    0.0000 C   0  0  0  0  0  0  0  0  0  0  0  0
    2.5045  -16.4112    0.0000 C   0  0  0  0  0  0  0  0  0  0  0  0
    3.9317  -16.3994    0.0000 C   0  0  0  0  0  0  0  0  0  0  0  0
 12 13  2  0  0  0  0 
  1  2  2  0  0  0  0 
 13 14  1  0  0  0  0 
  5  7  1  0  0  0  0 
 14 15  2  0  0  0  0 
 15  9  1  0  0  0  0 
  3  4  2  0  0  0  0 
 12 16  1  0  0  0  0 
  7  8  1  0  0  0  0 
 16 17  1  0  0  0  0 
 17 18  1  0  0  0  0 
  8  9  1  0  0  0  0 
 17 19  2  0  0  0  0 
  4  5  1  0  0  0  0 
  1 20  1  0  0  0  0 
  8 10  1  6  0  0  0 
 18 21  2  0  0  0  0 
  2  3  1  0  0  0  0 
 21 22  1  0  0  0  0 
  9 11  2  0  0  0  0 
 22 23  2  0  0  0  0 
  5  6  2  0  0  0  0 
 23 24  1  0  0  0  0 
 11 12  1  0  0  0  0 
 24 25  2  0  0  0  0 
 25 18  1  0  0  0  0 
  6  1  1  0  0  0  0 
 24 26  1  0  0  0  0 
M  END