
          11280715502D 1   1.00000     0.00000     0

 27 30  0     0  0            999 V2000
   15.1916  -13.2959    0.0000 C   0  0  0  0  0  0           0  0  0
   14.3960  -13.1714    0.0000 N   0  0  3  0  0  0           0  0  0
   14.8458  -12.6206    0.0000 C   0  0  0  0  0  0           0  0  0
   13.7032  -13.7340    0.0000 C   0  0  0  0  0  0           0  0  0
   14.2505  -12.1589    0.0000 C   0  0  0  0  0  0           0  0  0
   14.0624  -12.5060    0.0000 C   0  0  3  0  0  0           0  0  0
   13.4022  -13.0529    0.0000 C   0  0  3  0  0  0           0  0  0
   13.8597  -11.6544    0.0000 C   0  0  0  0  0  0           0  0  0
   12.9721  -12.3447    0.0000 O   0  0  0  0  0  0           0  0  0
   12.1491  -12.3628    0.0000 C   0  0  0  0  0  0           0  0  0
   12.6881  -13.4755    0.0000 C   0  0  0  0  0  0           0  0  0
   11.9780  -13.8975    0.0000 C   0  0  0  0  0  0           0  0  0
   11.2681  -14.3196    0.0000 C   0  0  3  0  0  0           0  0  0
   10.5580  -14.7416    0.0000 C   0  0  0  0  0  0           0  0  0
   11.6887  -15.0272    0.0000 C   0  0  0  0  0  0           0  0  0
   10.8475  -13.6120    0.0000 O   0  0  0  0  0  0           0  0  0
    9.8359  -14.3384    0.0000 C   0  0  0  0  0  0           0  0  0
    9.1298  -14.7588    0.0000 C   0  0  0  0  0  0           0  0  0
    9.1398  -15.5856    0.0000 C   0  0  0  0  0  0           0  0  0
    9.8626  -15.9901    0.0000 C   0  0  0  0  0  0           0  0  0
   10.5685  -15.5666    0.0000 C   0  0  0  0  0  0           0  0  0
   12.9313  -15.7228    0.0000 N   0  0  0  0  0  0           0  0  0
   12.5092  -15.0148    0.0000 C   0  0  0  0  0  0           0  0  0
   11.2860  -15.7443    0.0000 C   0  0  0  0  0  0           0  0  0
   11.7081  -16.4522    0.0000 C   0  0  0  0  0  0           0  0  0
   12.5339  -16.4422    0.0000 C   0  0  0  0  0  0           0  0  0
   12.9105  -14.2960    0.0000 F   0  0  0  0  0  0           0  0  0
 12 13  1  0     0  0
  3  6  1  0     0  0
 13 14  1  0     0  0
  4  7  1  0     0  0
 13 15  1  0     0  0
  5  8  1  0     0  0
 13 16  1  0     0  0
  6  7  1  0     0  0
 14 17  2  0     0  0
  6  8  1  0     0  0
 17 18  1  0     0  0
 18 19  2  0     0  0
  7  9  1  0     0  0
 19 20  1  0     0  0
  1  2  1  0     0  0
 20 21  2  0     0  0
 21 14  1  0     0  0
  9 10  1  0     0  0
  1  3  1  0     0  0
  7 11  1  0     0  0
  2  4  1  0     0  0
 11 12  3  0     0  0
 22 26  2  0     0  0
 22 23  1  0     0  0
 23 15  2  0     0  0
 15 24  1  0     0  0
 24 25  2  0     0  0
 25 26  1  0     0  0
  2  5  1  0     0  0
 23 27  1  0     0  0
M  END