
          11280715152D 1   1.00000     0.00000     0

 19 22  0     0  0            999 V2000
    3.1750   -5.6042    0.0000 N   0  0  3  0  0  0           0  0  0
    3.8917   -6.0167    0.0000 C   0  0  0  0  0  0           0  0  0
    4.5042   -5.4667    0.0000 N   0  0  0  0  0  0           0  0  0
    4.1667   -4.7125    0.0000 C   0  0  0  0  0  0           0  0  0
    3.3417   -4.8000    0.0000 C   0  0  0  0  0  0           0  0  0
    3.8917   -6.8542    0.0000 C   0  0  0  0  0  0           0  0  0
    3.1750   -7.2667    0.0000 N   0  0  0  0  0  0           0  0  0
    2.4625   -6.0250    0.0000 C   0  0  0  0  0  0           0  0  0
    4.5792   -4.0000    0.0000 C   0  0  0  0  0  0           0  0  0
    2.4542   -6.8500    0.0000 C   0  0  0  0  0  0           0  0  0
    4.2417   -3.2500    0.0000 S   0  0  0  0  0  0           0  0  0
    4.6042   -7.2667    0.0000 O   0  0  0  0  0  0           0  0  0
    5.4125   -3.9125    0.0000 C   0  0  0  0  0  0           0  0  0
    4.8667   -2.7000    0.0000 C   0  0  0  0  0  0           0  0  0
    5.5792   -3.1167    0.0000 C   0  0  0  0  0  0           0  0  0
    1.7417   -5.6125    0.0000 C   0  0  0  0  0  0           0  0  0
    1.7417   -7.2667    0.0000 C   0  0  0  0  0  0           0  0  0
    1.0292   -6.0292    0.0000 C   0  0  0  0  0  0           0  0  0
    1.0292   -6.8542    0.0000 C   0  0  0  0  0  0           0  0  0
  2  1  1  0     0  0
  3  2  2  0     0  0
  4  5  2  0     0  0
  5  1  1  0     0  0
  6  2  1  0     0  0
  7 10  1  0     0  0
  8  1  1  0     0  0
  9  4  1  0     0  0
 10  8  2  0     0  0
 11  9  1  0     0  0
 12  6  1  0     0  0
 13  9  2  0     0  0
 14 11  1  0     0  0
 15 13  1  0     0  0
 16  8  1  0     0  0
 17 10  1  0     0  0
 18 16  2  0     0  0
 19 18  1  0     0  0
  4  3  1  0     0  0
  7  6  2  0     0  0
 19 17  2  0     0  0
 14 15  2  0     0  0
M  END