
  SciTegic09081514182D

 71 78  0  0  0  0            999 V2000
    1.3581   -9.7420    0.0000 N   0  0
    1.3447   -8.2412    0.0000 C   0  0
    0.0388   -7.5016    0.0000 N   0  0
    2.3787   -7.6323    0.0000 S   0  0
    0.0254   -6.0008    0.0000 C   0  0
   -1.2788   -5.2598    0.0000 C   0  0
   -1.2891   -3.7598    0.0000 C   0  0
    0.0046   -3.0009    0.0000 C   0  0
    1.3089   -3.7420    0.0000 C   0  0
    1.3192   -5.2419    0.0000 C   0  0
    0.0000   -1.5002    0.0000 C   0  0
    0.0000    1.5002    0.0000 O   0  0
   -1.2989   -0.7501    0.0000 C   0  0
   -1.2989    0.7501    0.0000 C   0  0
   -2.5978    1.5002    0.0000 C   0  0
   -3.8968    0.7501    0.0000 C   0  0
   -3.8968   -0.7501    0.0000 C   0  0
   -2.5978   -1.5002    0.0000 C   0  0
    1.2806    0.7501    0.0000 C   0  0
    1.2806   -0.7501    0.0000 C   0  0
    2.5978   -1.5002    0.0000 C   0  0
    3.8968   -0.7501    0.0000 C   0  0
    3.8968    0.7501    0.0000 C   0  0
    2.5978    1.5002    0.0000 C   0  0
   -4.9360    1.3500    0.0000 O   0  0
   -2.5955   -3.0210    0.0000 C   0  0
   -3.6297   -3.6296    0.0000 O   0  0
   -2.6041   -2.0211    0.0000 O   0  0
    4.9360    1.3500    0.0000 O   0  0
   14.3700  -14.1059    0.0000 C   0  0
   13.0827  -14.8760    0.0000 C   0  0
   11.7723  -14.1459    0.0000 C   0  0
   11.7492  -12.6461    0.0000 C   0  0
   13.0366  -11.8762    0.0000 C   0  0
   14.3470  -12.6061    0.0000 C   0  0
   15.6334  -11.8331    0.0000 N   0  0
   15.6082  -10.3325    0.0000 C   0  0
   15.4184  -14.6899    0.0000 C   0  0
   16.8947   -9.5596    0.0000 C   0  0
   14.5589   -9.7504    0.0000 O   0  0
   16.8717   -8.0597    0.0000 C   0  0
   18.1590   -7.2898    0.0000 C   0  0
   19.4694   -8.0197    0.0000 C   0  0
   19.4925   -9.5195    0.0000 C   0  0
   18.2052  -10.2894    0.0000 C   0  0
   13.1034  -16.3766    0.0000 C   0  0
   14.4127  -17.1086    0.0000 C   0  0
   14.4334  -18.6084    0.0000 N   0  0
   13.1448  -19.3763    0.0000 C   0  0
   11.8355  -18.6443    0.0000 C   0  0
   11.8148  -17.1444    0.0000 N   0  0
   20.7575   -7.2493    0.0000 C   0  0
   20.7397   -6.0495    0.0000 C   0  0
   21.8056   -7.8336    0.0000 C   0  0
   21.7876   -6.6339    0.0000 C   0  0
   15.4808  -19.1940    0.0000 C   0  0
   13.1614  -20.5762    0.0000 O   0  0
   10.5446  -19.4100    0.0000 N   0  0
    9.2357  -18.6757    0.0000 C   0  0
    7.9444  -19.4391    0.0000 C   0  0
    6.6377  -18.7026    0.0000 C   0  0
    6.6221  -17.2026    0.0000 C   0  0
    7.9134  -16.4393    0.0000 C   0  0
    9.2201  -17.1758    0.0000 C   0  0
    5.3162  -16.4630    0.0000 C   0  0
    4.2822  -17.0720    0.0000 O   0  0
    5.3028  -14.9623    0.0000 N   0  0
    3.9968  -14.2227    0.0000 C   0  0
    3.9834  -12.7219    0.0000 C   0  0
    2.6775  -11.9823    0.0000 C   0  0
    2.6641  -10.4816    0.0000 C   0  0
  1  2  1  0
  2  3  1  0
  2  4  2  0
  3  5  1  0
  5  6  2  0
  6  7  1  0
  7  8  2  0
  8  9  1  0
  9 10  2  0
 10  5  1  0
 11 20  1  0
 11 13  2  0
 19 12  1  0
 12 14  1  0
  8 11  1  0
 13 14  1  0
 13 18  1  0
 14 15  2  0
 15 16  1  0
 16 17  1  0
 17 18  2  0
 19 20  2  0
 20 21  1  0
 21 22  2  0
 22 23  1  0
 23 24  2  0
 24 19  1  0
 16 25  2  0
  7 26  1  0
 26 27  2  0
 26 28  1  0
 23 29  1  0
 30 31  2  0
 31 32  1  0
 32 33  2  0
 33 34  1  0
 34 35  2  0
 35 30  1  0
 35 36  1  0
 36 37  1  0
 30 38  1  0
 37 39  1  0
 37 40  2  0
 39 41  2  0
 41 42  1  0
 42 43  2  0
 43 44  1  0
 44 45  2  0
 45 39  1  0
 46 47  2  0
 47 48  1  0
 48 49  1  0
 49 50  1  0
 50 51  2  0
 51 46  1  0
 31 46  1  0
 43 52  1  0
 52 53  1  0
 52 54  1  0
 52 55  1  0
 48 56  1  0
 49 57  2  0
 50 58  1  0
 58 59  1  0
 59 60  2  0
 60 61  1  0
 61 62  2  0
 62 63  1  0
 63 64  2  0
 64 59  1  0
 62 65  1  0
 65 66  2  0
 65 67  1  0
 67 68  1  0
 68 69  1  0
 69 70  1  0
 70 71  1  0
 71  1  1  0
M  END