
  SciTegic11201309402D

 25 27  0  0  1  0            999 V2000
   -2.4583   -0.7500    0.0000 S   0  0
    0.0917    0.2458    0.0000 C   0  0  2  0  0  0
   -0.3250   -0.4792    0.0000 C   0  0  2  0  0  0
   -1.1458   -0.4792    0.0000 C   0  0  2  0  0  0
    2.0500    1.2083    0.0000 S   0  0
   -1.7000   -1.0875    0.0000 O   0  0
   -1.5583    0.2458    0.0000 C   0  0  2  0  0  0
    0.9042    0.0583    0.0000 O   0  0
   -2.3625    0.0708    0.0000 O   0  0
    0.2250   -1.0917    0.0000 O   0  0
    0.9875   -0.7667    0.0000 C   0  0
   -0.3208    0.9458    0.0000 O   0  0
    0.6750    0.8250    0.0000 C   0  0
    1.4750    0.6208    0.0000 N   0  0
   -2.4625   -1.5750    0.0000 O   0  0
   -3.2583   -0.5292    0.0000 O   0  0
   -1.1458    0.9458    0.0000 C   0  0
    2.4667    0.4958    0.0000 O   0  0
    1.8292    2.0083    0.0000 O   0  0
    2.8500    1.0000    0.0000 N   0  0
    1.7000   -0.3500    0.0000 C   0  0
    1.3917   -1.4792    0.0000 C   0  0
   -0.3250   -1.3042    0.0000 H   0  0
   -0.9323   -1.2761    0.0000 H   0  0
   -2.0419    0.9142    0.0000 H   0  0
  2  3  1  0
  3  4  1  0
  4  6  1  0
  5 14  1  0
  6  1  1  0
  7  9  1  0
  2  8  1  0
  9  1  1  0
  3 10  1  0
 11 10  1  0
 12 17  1  0
  2 13  1  6
 14 13  1  0
 15  1  2  0
 16  1  2  0
 17  7  1  0
 18  5  2  0
 19  5  2  0
 20  5  1  0
 21 11  1  0
 22 11  1  0
  7  4  1  0
 12  2  1  0
 11  8  1  0
  3 23  1  6
  4 24  1  1
  7 25  1  1
M  END