
  Mrv0541 04051115152D          

 20 21  0  0  0  0            999 V2000
   -4.5747    0.7103    0.0000 O   0  0  0  0  0  0  0  0  0  0  0  0
   -3.8602    0.2977    0.0000 C   0  0  0  0  0  0  0  0  0  0  0  0
   -3.1458    0.7102    0.0000 C   0  0  0  0  0  0  0  0  0  0  0  0
   -2.4313    0.2977    0.0000 O   0  0  0  0  0  0  0  0  0  0  0  0
   -1.7168    0.7103    0.0000 C   0  0  0  0  0  0  0  0  0  0  0  0
   -1.0023    0.2977    0.0000 N   0  0  0  0  0  0  0  0  0  0  0  0
   -1.0023   -0.5273    0.0000 C   0  0  0  0  0  0  0  0  0  0  0  0
   -1.7168   -0.9398    0.0000 O   0  0  0  0  0  0  0  0  0  0  0  0
   -0.2879   -0.9398    0.0000 N   0  0  0  0  0  0  0  0  0  0  0  0
    0.4266   -0.5273    0.0000 C   0  0  0  0  0  0  0  0  0  0  0  0
    1.1411   -0.9398    0.0000 O   0  0  0  0  0  0  0  0  0  0  0  0
   -0.2879    0.7102    0.0000 C   0  0  0  0  0  0  0  0  0  0  0  0
    0.4266    0.2977    0.0000 C   0  0  0  0  0  0  0  0  0  0  0  0
    1.1411    0.7102    0.0000 C   0  0  0  0  0  0  0  0  0  0  0  0
    1.8555    0.2977    0.0000 C   0  0  0  0  0  0  0  0  0  0  0  0
    1.8555   -0.5273    0.0000 C   0  0  0  0  0  0  0  0  0  0  0  0
    2.5700   -0.9398    0.0000 C   0  0  0  0  0  0  0  0  0  0  0  0
    3.2845   -0.5272    0.0000 C   0  0  0  0  0  0  0  0  0  0  0  0
    3.2845    0.2978    0.0000 C   0  0  0  0  0  0  0  0  0  0  0  0
    2.5700    0.7103    0.0000 C   0  0  0  0  0  0  0  0  0  0  0  0
  2  1  1  0  0  0  0
  2  3  1  0  0  0  0
  3  4  1  0  0  0  0
  5  4  1  0  0  0  0
  5  6  1  0  0  0  0
  7  6  1  0  0  0  0
 12  6  1  0  0  0  0
  7  8  2  0  0  0  0
  7  9  1  0  0  0  0
 10  9  1  0  0  0  0
 10 11  2  0  0  0  0
 13 10  1  0  0  0  0
 12 13  2  0  0  0  0
 14 13  1  0  0  0  0
 14 15  1  0  0  0  0
 16 15  2  0  0  0  0
 20 15  1  0  0  0  0
 16 17  1  0  0  0  0
 17 18  2  0  0  0  0
 19 18  1  0  0  0  0
 20 19  2  0  0  0  0
M  END