
  SciTegic01311317052D

 29 32  0  0  0  0            999 V2000
   -1.9373   -1.0607    0.0000 C   0  0  2  0  0  0
   -2.6518   -0.6482    0.0000 C   0  0  1  0  0  0
   -3.3663   -1.0607    0.0000 C   0  0  2  0  0  0
   -3.3663   -1.8857    0.0000 C   0  0  1  0  0  0
   -2.6518   -2.2982    0.0000 C   0  0
   -1.9373   -1.8857    0.0000 C   0  0  2  0  0  0
   -4.0807   -0.6482    0.0000 C   0  0
   -4.7952   -1.0607    0.0000 C   0  0
   -4.7952   -1.8857    0.0000 C   0  0
   -4.0808   -2.2982    0.0000 C   0  0
   -1.1527   -2.1407    0.0000 C   0  0
   -0.6678   -1.4732    0.0000 O   0  0
   -1.1527   -0.8058    0.0000 C   0  0  1  0  0  0
   -0.8977   -0.0212    0.0000 C   0  0
   -0.8978   -2.9253    0.0000 O   0  0
   -1.9373   -0.2357    0.0000 H   0  0
   -1.9373   -2.7107    0.0000 H   0  0
   -3.3663   -2.7107    0.0000 H   0  0
   -3.3663   -0.2357    0.0000 H   0  0
   -2.6518    0.1768    0.0000 C   0  0
   -1.9373    0.5893    0.0000 C   0  0
   -1.9373    1.4143    0.0000 C   0  0  2  0  0  0
   -1.2228    1.8268    0.0000 N   0  0
   -1.2228    2.6518    0.0000 C   0  0  2  0  0  0
   -1.9373    3.0643    0.0000 C   0  0
   -2.6518    2.6518    0.0000 C   0  0
   -2.6518    1.8268    0.0000 C   0  0
   -0.5084    1.4143    0.0000 C   0  0
   -0.5084    3.0643    0.0000 C   0  0
  1  2  1  0
  2  3  1  0
  4  5  1  0
  5  6  1  0
 10  4  1  0
  4  3  1  0
  3  7  1  0
  7  8  1  0
  8  9  1  0
  9 10  1  0
  6 11  1  0
  1  6  1  0
  1 13  1  0
 11 12  1  0
 12 13  1  0
 13 14  1  6
 11 15  2  0
  1 16  1  6
  6 17  1  6
  4 18  1  6
  3 19  1  1
  2 20  1  1
 20 21  2  0
 22 21  1  1
 22 23  1  0
 27 22  1  0
 23 24  1  0
 24 25  1  0
 25 26  1  0
 26 27  1  0
 23 28  1  0
 24 29  1  6
M  END