
          11280715112D 1   1.00000     0.00000     0

 20 22  0     0  0            999 V2000
   -1.3500   -1.3042    0.0000 N   0  0  0  0  0  0           0  0  0
   -1.6458   -0.7875    0.0000 C   0  0  0  0  0  0           0  0  0
   -0.7708   -1.1792    0.0000 C   0  0  0  0  0  0           0  0  0
   -1.2458   -0.3417    0.0000 N   0  0  0  0  0  0           0  0  0
   -0.7083   -0.5917    0.0000 C   0  0  0  0  0  0           0  0  0
   -3.6083   -1.6000    0.0000 N   0  0  0  0  0  0           0  0  0
   -0.3250   -1.5875    0.0000 C   0  0  0  0  0  0           0  0  0
   -3.7958   -1.0250    0.0000 C   0  0  0  0  0  0           0  0  0
   -4.5833   -1.5917    0.0000 N   0  0  0  0  0  0           0  0  0
   -4.0958   -1.9500    0.0000 C   0  0  0  0  0  0           0  0  0
   -4.3958   -1.0167    0.0000 C   0  0  0  0  0  0           0  0  0
    0.1917   -1.2917    0.0000 C   0  0  0  0  0  0           0  0  0
   -2.2375   -0.7250    0.0000 S   0  0  0  0  0  0           0  0  0
   -3.2708   -0.7292    0.0000 C   0  0  0  0  0  0           0  0  0
    0.7042   -1.5917    0.0000 C   0  0  0  0  0  0           0  0  0
   -2.7583   -1.0292    0.0000 C   0  0  0  0  0  0           0  0  0
    1.2250   -1.2875    0.0000 Br  0  0  0  0  0  0           0  0  0
   -0.3333   -2.1875    0.0000 C   0  0  0  0  0  0           0  0  0
    0.1792   -2.4875    0.0000 C   0  0  0  0  0  0           0  0  0
    0.7042   -2.1917    0.0000 C   0  0  0  0  0  0           0  0  0
  2  1  2  0     0  0
  3  1  1  0     0  0
  4  2  1  0     0  0
  5  3  2  0     0  0
  6  8  1  0     0  0
  7  3  1  0     0  0
  8 14  1  0     0  0
  9 11  1  0     0  0
 10  6  2  0     0  0
 11  8  2  0     0  0
 12  7  2  0     0  0
 13  2  1  0     0  0
 14 16  1  0     0  0
 15 12  1  0     0  0
 16 13  1  0     0  0
 17 15  1  0     0  0
 18  7  1  0     0  0
 19 18  2  0     0  0
 20 19  1  0     0  0
  4  5  1  0     0  0
 20 15  2  0     0  0
 10  9  1  0     0  0
M  END