
  SciTegic12231509382D

 29 29  0  0  0  0            999 V2000
    0.6625  -11.6625    0.0000 C   0  0  2  0  0  0
    0.6625  -12.4875    0.0000 C   0  0  2  0  0  0
    1.3746  -12.8958    0.0000 C   0  0  1  0  0  0
    2.0866  -12.4875    0.0000 C   0  0  1  0  0  0
    2.0866  -11.6625    0.0000 C   0  0  2  0  0  0
    1.3746  -11.2458    0.0000 O   0  0
    2.8022  -11.2521    0.0000 O   0  0
   -0.0513  -12.9010    0.0000 O   0  0
    2.8004  -12.9010    0.0000 O   0  0
    1.3746  -13.7208    0.0000 O   0  0
   -0.0531  -11.2521    0.0000 C   0  0
    2.8047  -10.4271    0.0000 C   0  0
    3.5155  -12.4896    0.0000 S   0  0
    4.2294  -12.9031    0.0000 O   0  0
    3.0959  -11.7708    0.0000 O   0  0
    3.9209  -11.7708    0.0000 O   0  0
    2.0890  -14.1333    0.0000 S   0  0
    2.0890  -14.9583    0.0000 O   0  0
    2.9125  -14.1333    0.0000 O   0  0
    2.4959  -13.4167    0.0000 O   0  0
   -0.7664  -12.4896    0.0000 S   0  0
   -1.4803  -12.9031    0.0000 O   0  0
   -1.1833  -11.7708    0.0000 O   0  0
   -0.3583  -11.7708    0.0000 O   0  0
   -0.0556  -10.4271    0.0000 O   0  0
   -0.7712  -10.0167    0.0000 S   0  0
   -1.4845  -10.4313    0.0000 O   0  0
   -1.1916   -9.3000    0.0000 O   0  0
   -0.3666   -9.3000    0.0000 O   0  0
  2  8  1  6
  1  6  1  0
 10 17  1  0
  4  9  1  1
 17 18  1  0
  2  3  1  0
 17 19  2  0
  3 10  1  1
 17 20  2  0
  3  4  1  0
  1 11  1  1
  8 21  1  0
  4  5  1  0
 21 22  1  0
  7 12  1  0
 21 23  2  0
  5  6  1  0
 21 24  2  0
  9 13  1  0
 11 25  1  0
 13 14  1  0
 25 26  1  0
  5  7  1  6
 26 27  1  0
 13 15  2  0
 26 28  2  0
  1  2  1  0
 26 29  2  0
 13 16  2  0
M  END