
  CDK    9/16/09,9:41

 24 26  0  0  0  0  0  0  0  0999 V2000
    5.7356   -3.9290    0.0000 C   0  0  0  0  0  0  0  0  0  0  0  0
    5.3501   -4.6584    0.0000 C   0  0  0  0  0  0  0  0  0  0  0  0
    5.7890   -5.3546    0.0000 C   0  0  0  0  0  0  0  0  0  0  0  0
    6.5553   -3.8956    0.0000 C   0  0  0  0  0  0  0  0  0  0  0  0
    6.6158   -5.3216    0.0000 C   0  0  0  0  0  0  0  0  0  0  0  0
    6.9963   -4.5888    0.0000 C   0  0  0  0  0  0  0  0  0  0  0  0
    6.9557   -6.0803    0.0000 C   0  0  0  0  0  0  0  0  0  0  0  0
    7.7606   -6.2866    0.0000 N   0  0  0  0  0  0  0  0  0  0  0  0
    8.4220   -5.7845    0.0000 C   0  0  0  0  0  0  0  0  0  0  0  0
    6.4257   -6.7093    0.0000 O   0  0  0  0  0  0  0  0  0  0  0  0
    7.9233   -7.0929    0.0000 C   0  0  0  0  0  0  0  0  0  0  0  0
    7.8094   -4.4244    0.0000 N   0  0  0  0  0  0  0  0  0  0  0  0
    8.4470   -4.9566    0.0000 C   0  0  0  0  0  0  0  0  0  0  0  0
    9.1502   -4.5146    0.0000 C   0  0  0  0  0  0  0  0  0  0  0  0
    8.9472   -3.7092    0.0000 N   0  0  0  0  0  0  0  0  0  0  0  0
    8.1185   -3.6536    0.0000 C   0  0  0  0  0  0  0  0  0  0  0  0
    9.9152   -4.8209    0.0000 C   0  0  0  0  0  0  0  0  0  0  0  0
   10.0317   -5.6351    0.0000 O   0  0  0  0  0  0  0  0  0  0  0  0
   10.5619   -4.3128    0.0000 O   0  0  0  0  0  0  0  0  0  0  0  0
   10.7951   -5.9412    0.0000 C   0  0  0  0  0  0  0  0  0  0  0  0
   10.9117   -6.7555    0.0000 C   0  0  0  0  0  0  0  0  0  0  0  0
    4.5276   -4.6651    0.0000 N   0  0  0  0  0  0  0  0  0  0  0  0
    4.1086   -3.9572    0.0000 C   0  0  0  0  0  0  0  0  0  0  0  0
    3.6799   -3.2552    0.0000 S   0  0  0  0  0  0  0  0  0  0  0  0
  8 11  1  0  0  0  0 
 12 13  1  0  0  0  0 
  2  3  1  0  0  0  0 
  5  6  1  0  0  0  0 
  6 12  1  0  0  0  0 
  3  5  2  0  0  0  0 
  5  7  1  0  0  0  0 
 13 14  2  0  0  0  0 
 14 15  1  0  0  0  0 
 15 16  2  0  0  0  0 
 16 12  1  0  0  0  0 
  1  2  2  0  0  0  0 
  7  8  1  0  0  0  0 
  6  4  2  0  0  0  0 
 17 18  1  0  0  0  0 
 17 19  2  0  0  0  0 
 14 17  1  0  0  0  0 
 13  9  1  0  0  0  0 
 18 20  1  0  0  0  0 
  8  9  1  0  0  0  0 
 20 21  1  0  0  0  0 
  4  1  1  0  0  0  0 
  2 22  1  0  0  0  0 
  7 10  2  0  0  0  0 
 22 23  2  0  0  0  0 
 23 24  2  0  0  0  0 
M  END