
          11280715342D 1   1.00000     0.00000     0

 15 14  0     0  0            999 V2000
    4.3000   -8.8667    0.0000 N   0  0  3  0  0  0           0  0  0
    4.3000   -9.6917    0.0000 C   0  0  0  0  0  0           0  0  0
    3.5792   -8.4542    0.0000 C   0  0  0  0  0  0           0  0  0
    5.7250   -8.8667    0.0000 C   0  0  0  0  0  0           0  0  0
    6.4417   -9.2792    0.0000 C   0  0  0  0  0  0           0  0  0
    7.8667   -9.2792    0.0000 N   0  3  3  0  0  0           0  0  0
    3.5792   -7.6292    0.0000 O   0  0  0  0  0  0           0  0  0
    3.5792  -10.1042    0.0000 O   0  0  0  0  0  0           0  0  0
    5.0125   -8.4542    0.0000 C   0  0  0  0  0  0           0  0  0
    7.1542   -9.6917    0.0000 C   0  0  0  0  0  0           0  0  0
    2.8667   -8.8667    0.0000 C   0  0  0  0  0  0           0  0  0
    5.0125  -10.1042    0.0000 C   0  0  0  0  0  0           0  0  0
    8.6250   -9.6125    0.0000 C   0  0  0  0  0  0           0  0  0
    7.9542   -8.4542    0.0000 C   0  0  0  0  0  0           0  0  0
    8.5792   -8.8667    0.0000 C   0  0  0  0  0  0           0  0  0
  2  1  1  0     0  0
  3  1  1  0     0  0
  4  9  1  0     0  0
  5  4  3  0     0  0
  6 10  1  0     0  0
  7  3  2  0     0  0
  8  2  2  0     0  0
  9  1  1  0     0  0
 10  5  1  0     0  0
 11  3  1  0     0  0
 12  2  1  0     0  0
 13  6  1  0     0  0
 14  6  1  0     0  0
 15  6  1  0     0  0
M  CHG  1   6   1
M  END