
  SciTegic09141214152D

 46 50  0  0  0  0            999 V2000
    8.4304    0.5643    0.0000 C   0  0
    7.0194    0.5897    0.0000 C   0  0
    7.7101    0.1193    0.0000 C   0  0  1  0  0  0
    8.4304    1.3015    0.0000 C   0  0
    7.0109    1.3651    0.0000 C   0  0
    7.7482    1.7507    0.0000 N   0  0
    8.2185   -2.5629    0.0000 N   0  3
    7.4050   -0.6645    0.0000 C   0  0
   11.6762   -3.3594    0.0000 C   0  0
    6.4770    0.3736    0.0000 C   0  0
    9.1211    0.0939    0.0000 C   0  0
    7.6931   -1.9908    0.0000 C   0  0
    7.9346   -1.2408    0.0000 C   0  0
   11.5363   -1.7112    0.0000 N   0  0
   12.3372   -2.9272    0.0000 C   0  0
   10.8965   -3.0078    0.0000 C   0  0
    9.0067   -2.4188    0.0000 O   0  5
    7.9643   -3.3256    0.0000 O   0  0
   11.1169   -3.9739    0.0000 C   0  0
   12.4008   -3.7324    0.0000 C   0  0
    6.4389   -0.4654    0.0000 O   0  0
    9.1211   -0.6815    0.0000 O   0  0
   12.2736   -2.0798    0.0000 C   0  0
   10.8245   -2.1815    0.0000 C   0  0
    9.9219    0.4626    0.0000 O   0  0
    5.7652    0.7973    0.0000 O   0  0
    6.3626    1.7889    0.0000 C   0  0
    9.2058    1.6448    0.0000 C   0  0
    6.6677   -0.8341    0.0000 C   0  0
   11.4728   -0.9061    0.0000 C   0  0
   10.7736   -0.5163    0.0000 C   0  0
    6.9304   -2.1264    0.0000 C   0  0
    6.4262   -1.5713    0.0000 C   0  0
   10.7863    0.1236    0.0000 C   0  0
   13.0872   -3.2747    0.0000 C   0  0
   11.3795   -4.7747    0.0000 C   0  0
   10.2906   -3.8298    0.0000 C   0  0
   12.4855   -4.5713    0.0000 C   0  0
    5.0533    0.4541    0.0000 C   0  0
   13.1889   -4.9230    0.0000 C   0  0
   13.8372   -3.6264    0.0000 C   0  0
   10.8118   -5.3806    0.0000 C   0  0
    9.7440   -4.4315    0.0000 C   0  0
    9.9855   -5.2197    0.0000 C   0  0
   13.8880   -4.4527    0.0000 C   0  0
    8.2143   -0.5671    0.0000 H   0  0
  2  3  1  0
  3  1  1  0
  4  1  2  0
  5  6  1  0
  6  4  1  0
  7 12  1  0
  3  8  1  6
  9 16  1  0
 10  2  1  0
 11  1  1  0
 12 13  2  0
 13  8  1  0
 14 30  1  0
 15 23  1  0
 16 24  1  0
 17  7  1  0
 18  7  2  0
 19  9  1  0
 20  9  1  0
 21 10  2  0
 22 11  2  0
 23 14  1  0
 24 14  1  0
 25 11  1  0
 26 10  1  0
 27  5  1  0
 28  4  1  0
 29  8  2  0
 30 31  1  0
 31 34  1  0
 32 33  2  0
 33 29  1  0
 34 25  1  0
 35 20  2  0
 36 19  2  0
 37 19  1  0
 38 20  1  0
 39 26  1  0
 40 38  2  0
 41 35  1  0
 42 36  1  0
 43 37  2  0
 44 43  1  0
 45 40  1  0
  3 46  1  1
  2  5  2  0
 12 32  1  0
 15  9  1  0
 41 45  2  0
 42 44  2  0
M  CHG  2   7   1  17  -1
M  END