
          11280715522D 1   1.00000     0.00000     0

 39 43  0     0  0            999 V2000
    6.8569   -0.4958    0.0000 C   0  0  0  0  0  0           0  0  0
    6.8557   -1.3232    0.0000 C   0  0  0  0  0  0           0  0  0
    7.5706   -1.7360    0.0000 C   0  0  0  0  0  0           0  0  0
    7.5688   -0.0830    0.0000 C   0  0  0  0  0  0           0  0  0
    8.2841   -0.4922    0.0000 C   0  0  0  0  0  0           0  0  0
    8.2849   -1.3190    0.0000 C   0  0  0  0  0  0           0  0  0
    9.0002   -1.7300    0.0000 N   0  0  0  0  0  0           0  0  0
    9.7152   -1.3152    0.0000 C   0  0  0  0  0  0           0  0  0
    9.7105   -0.4852    0.0000 C   0  0  0  0  0  0           0  0  0
    8.9946   -0.0780    0.0000 N   0  0  0  0  0  0           0  0  0
   10.4313   -1.7249    0.0000 O   0  0  0  0  0  0           0  0  0
   10.4224   -0.0684    0.0000 C   0  0  0  0  0  0           0  0  0
   11.1394   -0.4765    0.0000 N   0  0  0  0  0  0           0  0  0
   10.4174    0.7566    0.0000 O   0  0  0  0  0  0           0  0  0
   11.8513   -0.0597    0.0000 C   0  0  0  0  0  0           0  0  0
   12.5660   -0.4713    0.0000 C   0  0  0  0  0  0           0  0  0
   13.2775   -0.0551    0.0000 C   0  0  0  0  0  0           0  0  0
   13.2729    0.7708    0.0000 C   0  0  0  0  0  0           0  0  0
   12.5509    1.1787    0.0000 C   0  0  0  0  0  0           0  0  0
   11.8424    0.7602    0.0000 C   0  0  0  0  0  0           0  0  0
   13.9843    1.1885    0.0000 O   0  0  0  0  0  0           0  0  0
   10.4345   -2.5499    0.0000 C   0  0  0  0  0  0           0  0  0
   12.5430    2.0037    0.0000 C   0  0  0  0  0  0           0  0  0
   13.2535    2.4230    0.0000 N   0  0  3  0  0  0           0  0  0
   13.9719    2.0107    0.0000 C   0  0  0  0  0  0           0  0  0
   14.6803    2.4266    0.0000 C   0  0  0  0  0  0           0  0  0
   14.6766    3.2519    0.0000 N   0  0  3  0  0  0           0  0  0
   13.9584    3.6597    0.0000 C   0  0  0  0  0  0           0  0  0
   13.2438    3.2422    0.0000 C   0  0  0  0  0  0           0  0  0
   15.3887    3.6686    0.0000 C   0  0  0  0  0  0           0  0  0
   13.9943   -0.4636    0.0000 N   0  0  3  0  0  0           0  0  0
   13.9941   -1.2929    0.0000 C   0  0  0  0  0  0           0  0  0
   14.7067   -1.7013    0.0000 C   0  0  0  0  0  0           0  0  0
   15.4213   -1.2884    0.0000 N   0  0  3  0  0  0           0  0  0
   15.4187   -0.4624    0.0000 C   0  0  0  0  0  0           0  0  0
   14.7014   -0.0494    0.0000 C   0  0  0  0  0  0           0  0  0
   16.1366   -1.6996    0.0000 C   0  0  0  0  0  0           0  0  0
   16.1055    3.2602    0.0000 C   0  0  0  0  0  0           0  0  0
   16.1381   -2.5246    0.0000 C   0  0  0  0  0  0           0  0  0
 18 19  2  0     0  0
  4  1  2  0     0  0
 19 20  1  0     0  0
 20 15  2  0     0  0
  9 10  1  0     0  0
 18 21  1  0     0  0
 10  5  2  0     0  0
 11 22  1  0     0  0
 19 23  1  0     0  0
  8 11  1  0     0  0
 23 24  1  0     0  0
 24 25  1  0     0  0
  2  3  2  0     0  0
  9 12  1  0     0  0
  5  6  1  0     0  0
 12 13  1  0     0  0
  3  6  1  0     0  0
 24 29  1  0     0  0
 25 26  1  0     0  0
 26 27  1  0     0  0
 27 28  1  0     0  0
 28 29  1  0     0  0
 12 14  2  0     0  0
 27 30  1  0     0  0
  6  7  2  0     0  0
 17 31  1  0     0  0
 31 32  1  0     0  0
 13 15  1  0     0  0
  1  2  1  0     0  0
 15 16  1  0     0  0
  7  8  1  0     0  0
 16 17  2  0     0  0
 31 36  1  0     0  0
 32 33  1  0     0  0
 33 34  1  0     0  0
 34 35  1  0     0  0
 35 36  1  0     0  0
  5  4  1  0     0  0
 34 37  1  0     0  0
 17 18  1  0     0  0
 30 38  1  0     0  0
  8  9  2  0     0  0
 37 39  1  0     0  0
M  END