
  CDK    9/16/09,9:44

 13 14  0  0  0  0  0  0  0  0999 V2000
    4.1165   -4.9591    0.0000 C   0  0  0  0  0  0  0  0  0  0  0  0
    4.1153   -5.7858    0.0000 C   0  0  0  0  0  0  0  0  0  0  0  0
    4.8298   -6.1984    0.0000 C   0  0  0  0  0  0  0  0  0  0  0  0
    5.5457   -5.7854    0.0000 C   0  0  0  0  0  0  0  0  0  0  0  0
    5.5428   -4.9554    0.0000 C   0  0  0  0  0  0  0  0  0  0  0  0
    4.8280   -4.5466    0.0000 C   0  0  0  0  0  0  0  0  0  0  0  0
    6.2553   -4.5405    0.0000 O   0  0  0  0  0  0  0  0  0  0  0  0
    3.4030   -6.1977    0.0000 C   0  0  0  0  0  0  0  0  0  0  0  0
    2.6890   -5.7833    0.0000 C   0  0  0  0  0  0  0  0  0  0  0  0
    1.9752   -6.1942    0.0000 C   0  0  0  0  0  0  0  0  0  0  0  0
    1.9741   -7.0195    0.0000 C   0  0  0  0  0  0  0  0  0  0  0  0
    2.6928   -7.4322    0.0000 C   0  0  0  0  0  0  0  0  0  0  0  0
    3.4037   -7.0188    0.0000 C   0  0  0  0  0  0  0  0  0  0  0  0
  1  2  2  0  0  0  0 
  5  7  1  0  0  0  0 
  3  4  2  0  0  0  0 
  8  9  2  0  0  0  0 
  4  5  1  0  0  0  0 
  9 10  1  0  0  0  0 
  2  3  1  0  0  0  0 
 10 11  2  0  0  0  0 
  5  6  2  0  0  0  0 
 11 12  1  0  0  0  0 
  6  1  1  0  0  0  0 
 12 13  2  0  0  0  0 
 13  8  1  0  0  0  0 
  2  8  1  0  0  0  0 
M  END