
          11280715042D 1   1.00000     0.00000     0

 41 45  0     0  0            999 V2000
    4.5500   -3.5292    0.0000 N   0  0  3  0  0  0           0  0  0
    5.0292   -3.1792    0.0000 C   0  0  0  0  0  0           0  0  0
    4.8417   -2.6042    0.0000 N   0  0  3  0  0  0           0  0  0
    4.2417   -2.6042    0.0000 N   0  0  0  0  0  0           0  0  0
    4.0625   -3.1792    0.0000 C   0  0  0  0  0  0           0  0  0
    7.1375   -4.4292    0.0000 C   0  0  0  0  0  0           0  0  0
    7.6250   -4.0792    0.0000 N   0  0  0  0  0  0           0  0  0
    7.4375   -3.5042    0.0000 N   0  0  0  0  0  0           0  0  0
    6.6500   -4.0792    0.0000 N   0  0  0  0  0  0           0  0  0
    6.8375   -3.5167    0.0000 N   0  0  0  0  0  0           0  0  0
    5.2000   -2.1167    0.0000 C   0  0  0  0  0  0           0  0  0
    7.1417   -5.0292    0.0000 C   0  0  0  0  0  0           0  0  0
    6.6250   -5.3292    0.0000 C   0  0  0  0  0  0           0  0  0
    4.5500   -4.1292    0.0000 C   0  0  0  0  0  0           0  0  0
    5.6000   -3.3667    0.0000 O   0  0  0  0  0  0           0  0  0
    4.9500   -1.5792    0.0000 C   0  0  3  0  0  0           0  0  0
    6.1042   -5.0292    0.0000 C   0  0  0  0  0  0           0  0  0
    6.2417   -0.6542    0.0000 C   0  0  0  0  0  0           0  0  0
    5.3000   -1.0917    0.0000 O   0  0  0  0  0  0           0  0  0
    6.8417   -0.7167    0.0000 O   0  0  0  0  0  0           0  0  0
    4.3500   -1.5167    0.0000 C   0  0  0  0  0  0           0  0  0
    6.1125   -4.4292    0.0000 C   0  0  0  0  0  0           0  0  0
    5.5917   -5.3292    0.0000 C   0  0  0  0  0  0           0  0  0
    5.9000   -1.1417    0.0000 C   0  0  0  0  0  0           0  0  0
    5.0667   -4.4292    0.0000 C   0  0  0  0  0  0           0  0  0
    3.4917   -3.3667    0.0000 C   0  0  0  0  0  0           0  0  0
    6.0000   -0.1167    0.0000 O   0  0  0  0  0  0           0  0  0
    5.5875   -4.1292    0.0000 C   0  0  0  0  0  0           0  0  0
    5.0750   -5.0292    0.0000 C   0  0  0  0  0  0           0  0  0
    7.6625   -5.3292    0.0000 C   0  0  0  0  0  0           0  0  0
    6.6250   -5.9292    0.0000 C   0  0  0  0  0  0           0  0  0
    4.1042   -0.9792    0.0000 C   0  0  0  0  0  0           0  0  0
    4.0042   -2.0042    0.0000 C   0  0  0  0  0  0           0  0  0
    3.0417   -2.9667    0.0000 C   0  0  0  0  0  0           0  0  0
    2.4750   -3.1542    0.0000 C   0  0  0  0  0  0           0  0  0
    7.6625   -5.9292    0.0000 C   0  0  0  0  0  0           0  0  0
    7.1417   -6.2292    0.0000 C   0  0  0  0  0  0           0  0  0
    2.0250   -2.7542    0.0000 C   0  0  0  0  0  0           0  0  0
    3.4125   -1.9542    0.0000 C   0  0  0  0  0  0           0  0  0
    3.5125   -0.9167    0.0000 C   0  0  0  0  0  0           0  0  0
    3.1625   -1.4042    0.0000 C   0  0  0  0  0  0           0  0  0
  2  1  1  0     0  0
  3  2  1  0     0  0
  4  5  2  0     0  0
  5  1  1  0     0  0
  6 12  1  0     0  0
  7  6  2  0     0  0
  8  7  1  0     0  0
  9  6  1  0     0  0
 10  9  1  0     0  0
 11  3  1  0     0  0
 12 13  1  0     0  0
 13 17  1  0     0  0
 14  1  1  0     0  0
 15  2  2  0     0  0
 16 11  1  0     0  0
 17 23  1  0     0  0
 18 24  1  0     0  0
 19 16  1  0     0  0
 20 18  2  0     0  0
 21 16  1  0     0  0
 22 28  1  0     0  0
 23 29  2  0     0  0
 24 19  1  0     0  0
 25 14  1  0     0  0
 26  5  1  0     0  0
 27 18  1  0     0  0
 28 25  2  0     0  0
 29 25  1  0     0  0
 30 12  2  0     0  0
 31 13  2  0     0  0
 32 21  2  0     0  0
 33 21  1  0     0  0
 34 26  1  0     0  0
 35 34  1  0     0  0
 36 37  2  0     0  0
 37 31  1  0     0  0
 38 35  1  0     0  0
 39 33  2  0     0  0
 40 32  1  0     0  0
 41 39  1  0     0  0
  3  4  1  0     0  0
 17 22  2  0     0  0
 40 41  2  0     0  0
 36 30  1  0     0  0
  8 10  1  0     0  0
M  END