
  SciTegic11201309402D

 68 75  0  0  1  0            999 V2000
    3.5375   -1.6042    0.0000 C   0  0
    2.2500   -1.9667    0.0000 C   0  0
    3.0250   -2.2542    0.0000 S   0  0
    4.3542   -1.6417    0.0000 C   0  0  2  0  0  0
    5.0125   -2.1542    0.0000 C   0  0
    2.2792   -1.1500    0.0000 N   0  0
    6.9667   -3.7000    0.0000 C   0  0
    0.9292   -3.7125    0.0000 C   0  0
    7.2042   -2.0542    0.0000 C   0  0
    9.2792   -2.7750    0.0000 C   0  0
    5.7792   -1.8500    0.0000 N   0  0
    0.1375   -2.5167    0.0000 C   0  0
    3.0750   -0.9250    0.0000 C   0  0
    1.1167   -5.0417    0.0000 N   0  0
    8.2292   -4.1625    0.0000 N   0  0
    0.8167   -2.0625    0.0000 N   0  0
    7.8542   -2.5667    0.0000 N   0  0
   10.0542   -2.4667    0.0000 N   0  0
    1.5667   -2.4292    0.0000 C   0  0  1  0  0  0
    1.5042   -4.3125    0.0000 C   0  0
    7.7667   -3.4750    0.0000 C   0  0
    6.4292   -2.3667    0.0000 C   0  0  2  0  0  0
    8.6292   -2.2625    0.0000 C   0  0  1  0  0  0
   10.7042   -2.9792    0.0000 C   0  0  2  0  0  0
   11.4750   -2.6667    0.0000 C   0  0
    0.2000   -4.0667    0.0000 C   0  0
    6.9292   -4.5292    0.0000 C   0  0
    1.6167   -3.2542    0.0000 C   0  0
    6.3167   -3.1875    0.0000 C   0  0
    0.3042   -4.8875    0.0000 C   0  0
    7.7167   -4.8167    0.0000 C   0  0
    4.4792   -0.8167    0.0000 C   0  0
   -1.0833   -2.6917    0.0000 N   0  0
   -0.5500   -2.1792    0.0000 C   0  0  1  0  0  0
    4.8917   -2.9792    0.0000 O   0  0
    7.3167   -1.2375    0.0000 O   0  0
    9.1625   -3.5917    0.0000 O   0  0
    0.1792   -3.3417    0.0000 O   0  0
   10.5792   -3.8042    0.0000 C   0  0
   11.5917   -1.8542    0.0000 O   0  0
    8.7417   -1.4417    0.0000 C   0  0
   12.2542   -2.9375    0.0000 N   0  0
    5.2500   -0.5125    0.0000 C   0  0
   11.2375   -4.3167    0.0000 C   0  0
   -0.5625   -3.7542    0.0000 C   0  0
    6.2917   -5.0542    0.0000 C   0  0
   -1.7458   -2.1875    0.0000 C   0  0
    9.5167   -1.1292    0.0000 C   0  0
   -0.3375   -5.3875    0.0000 C   0  0
    7.8542   -5.6292    0.0000 C   0  0
   -0.6583   -1.4167    0.0000 C   0  0
    5.3667    0.3083    0.0000 C   0  0
   12.0042   -4.0042    0.0000 C   0  0
    5.9000   -1.0292    0.0000 C   0  0
   11.1167   -5.1417    0.0000 C   0  0
    9.6375   -0.3125    0.0000 C   0  0
   10.1667   -1.6500    0.0000 C   0  0
   -1.4750   -1.4125    0.0000 C   0  0
   -1.2125   -4.2542    0.0000 C   0  0
    6.4292   -5.8750    0.0000 C   0  0
   -1.1000   -5.0792    0.0000 C   0  0
    7.2167   -6.1667    0.0000 C   0  0
    6.6667   -0.7167    0.0000 C   0  0
   12.6542   -4.5250    0.0000 C   0  0
   11.7667   -5.6542    0.0000 C   0  0
    6.1375    0.6125    0.0000 C   0  0
    6.7917    0.1083    0.0000 C   0  0
   12.5417   -5.3500    0.0000 C   0  0
  2  3  1  0
  3  1  1  0
  4  1  1  0
  5  4  1  0
  6 13  1  0
  7 29  1  0
  8 28  1  0
  9 22  1  0
 10 23  1  0
 11  5  1  0
 12 16  1  0
 13  1  2  0
 14 20  1  0
 15 21  1  0
 19 16  1  6
 17  9  1  0
 18 10  1  0
 19  2  1  0
 20  8  2  0
 21  7  2  0
 22 11  1  1
 23 17  1  1
 24 18  1  6
 25 24  1  0
 26  8  1  0
 27  7  1  0
 19 28  1  0
 22 29  1  0
 30 26  2  0
 31 27  2  0
  4 32  1  1
 33 34  1  0
 34 12  1  1
 35  5  2  0
 36  9  2  0
 37 10  2  0
 38 12  2  0
 24 39  1  0
 40 25  2  0
 23 41  1  0
 42 25  1  0
 43 32  1  0
 44 39  1  0
 45 26  1  0
 46 27  1  0
 47 33  1  0
 48 41  1  0
 49 30  1  0
 50 31  1  0
 34 51  1  0
 52 43  1  0
 53 44  1  0
 54 43  2  0
 55 44  2  0
 56 48  1  0
 57 48  1  0
 58 51  1  0
 59 45  2  0
 60 46  2  0
 61 59  1  0
 62 60  1  0
 63 54  1  0
 64 53  2  0
 65 55  1  0
 66 52  2  0
 67 63  2  0
 68 65  2  0
  6  2  2  0
 66 67  1  0
 30 14  1  0
 31 15  1  0
 47 58  1  0
 61 49  2  0
 50 62  2  0
 64 68  1  0
M  END