
  SciTegic12091613522D

 33 36  0  0  0  0            999 V2000
   -2.3155    0.7475    0.0000 C   0  0
   -2.3155   -0.7475    0.0000 C   0  0
   -1.0028   -1.5132    0.0000 C   0  0
   -1.0028    1.5132    0.0000 C   0  0
    0.2917    0.7475    0.0000 C   0  0
    0.2917   -0.7475    0.0000 C   0  0
    1.7138   -1.2033    0.0000 N   0  0
    2.5889    0.0182    0.0000 C   0  0
    1.7138    1.2033    0.0000 C   0  0
    2.1812    2.6271    0.0000 C   0  0
    3.6500    2.9355    0.0000 N   0  0
    4.1182    4.3614    0.0000 C   0  0
    5.5870    4.6698    0.0000 C   0  0
    6.0553    6.0958    0.0000 N   0  0
    7.5241    6.4042    0.0000 C   0  0
    7.9923    7.8301    0.0000 C   0  0
    1.3808    3.5211    0.0000 O   0  0
    8.3245    5.5101    0.0000 O   0  0
    2.1825   -2.6263    0.0000 S   0  0
    1.1835   -3.7463    0.0000 C   0  0
    1.6537   -5.1707    0.0000 C   0  0
    0.6551   -6.2901    0.0000 C   0  0
   -0.8135   -5.9851    0.0000 C   0  0
   -1.2837   -4.5606    0.0000 C   0  0
   -0.2852   -3.4413    0.0000 C   0  0
    3.3574   -2.8707    0.0000 O   0  0
    2.9818   -1.7312    0.0000 O   0  0
    4.4505    2.0415    0.0000 C   0  0
    5.2548    6.9898    0.0000 C   0  0
    9.4126    8.2713    0.0000 S   0  0
    9.4141    9.7713    0.0000 C   0  0
    7.9881   10.2364    0.0000 C   0  0
    7.1051    9.0238    0.0000 C   0  0
  1  2  2  0
  2  3  1  0
  3  6  2  0
  5  4  2  0
  4  1  1  0
  5  6  1  0
  6  7  1  0
  7  8  1  0
  8  9  2  0
  9  5  1  0
  9 10  1  0
 10 11  1  0
 11 12  1  0
 12 13  1  0
 13 14  1  0
 14 15  1  0
 15 16  1  0
 10 17  2  0
 15 18  2  0
  7 19  1  0
 19 20  1  0
 20 21  2  0
 21 22  1  0
 22 23  2  0
 23 24  1  0
 24 25  2  0
 25 20  1  0
 19 26  2  0
 19 27  2  0
 11 28  1  0
 14 29  1  0
 16 30  1  0
 30 31  1  0
 31 32  2  0
 32 33  1  0
 33 16  2  0
M  END