
  Mrv0541 05211314572D          

 14 15  0  0  0  0            999 V2000
    3.5503    0.8535    0.0000 C   0  0  0  0  0  0  0  0  0  0  0  0
    3.5503    0.0285    0.0000 C   0  0  0  0  0  0  0  0  0  0  0  0
    4.2647   -0.3840    0.0000 N   0  0  0  0  0  0  0  0  0  0  0  0
    4.2647    1.2660    0.0000 C   0  0  0  0  0  0  0  0  0  0  0  0
    4.9792    0.8535    0.0000 C   0  0  0  0  0  0  0  0  0  0  0  0
    4.9792    0.0285    0.0000 C   0  0  0  0  0  0  0  0  0  0  0  0
    5.6937   -0.3840    0.0000 S   0  0  0  0  0  0  0  0  0  0  0  0
    6.4081    0.0285    0.0000 N   0  0  0  0  0  0  0  0  0  0  0  0
    6.4081    0.8535    0.0000 C   0  0  0  0  0  0  0  0  0  0  0  0
    5.6937    1.2660    0.0000 N   0  0  0  0  0  0  0  0  0  0  0  0
    5.3064   -1.1124    0.0000 O   0  0  0  0  0  0  0  0  0  0  0  0
    6.0810   -1.1124    0.0000 O   0  0  0  0  0  0  0  0  0  0  0  0
    5.6937    2.0910    0.0000 C   0  0  0  0  0  0  0  0  0  0  0  0
    4.9792    2.5035    0.0000 C   0  0  0  0  0  0  0  0  0  0  0  0
  1  2  2  0  0  0  0
  5  4  2  0  0  0  0
  4  1  1  0  0  0  0
  5 10  1  0  0  0  0
  6  7  1  0  0  0  0
  7  8  1  0  0  0  0
  8  9  1  0  0  0  0
  9 10  1  0  0  0  0
  5  6  1  0  0  0  0
  7 11  2  0  0  0  0
  7 12  2  0  0  0  0
  2  3  1  0  0  0  0
 10 13  1  0  0  0  0
  3  6  2  0  0  0  0
 13 14  1  0  0  0  0
M  END