
          11280715342D 1   1.00000     0.00000     0

 26 26  0     0  0            999 V2000
   -2.4208   -2.0292    0.0000 S   0  0  3  0  0  0           0  0  0
    0.8667   -2.0167    0.0000 C   0  0  0  0  0  0           0  0  0
   -1.6000   -2.0292    0.0000 C   0  0  0  0  0  0           0  0  0
    4.7167   -3.8417    0.0000 C   0  0  0  0  0  0           0  0  0
    3.3500   -3.4292    0.0000 N   0  0  0  0  0  0           0  0  0
    2.5292   -3.4292    0.0000 C   0  0  0  0  0  0           0  0  0
    1.2875   -2.7292    0.0000 N   0  0  0  0  0  0           0  0  0
    3.9167   -4.0292    0.0000 C   0  0  3  0  0  0           0  0  0
   -2.4250   -2.8542    0.0000 O   0  0  0  0  0  0           0  0  0
   -2.4208   -1.2042    0.0000 O   0  0  0  0  0  0           0  0  0
    4.0125   -6.2125    0.0000 C   0  0  0  0  0  0           0  0  0
    0.0417   -2.0167    0.0000 C   0  0  0  0  0  0           0  0  0
   -3.2500   -2.0250    0.0000 N   0  0  0  0  0  0           0  0  0
    1.2792   -1.3000    0.0000 O   0  0  0  0  0  0           0  0  0
    4.9542   -3.0500    0.0000 O   0  0  0  0  0  0           0  0  0
    2.1167   -4.1500    0.0000 O   0  0  0  0  0  0           0  0  0
    4.5792   -6.8125    0.0000 O   0  0  0  0  0  0           0  0  0
   -1.1958   -1.3167    0.0000 C   0  0  0  0  0  0           0  0  0
   -1.1833   -2.7417    0.0000 C   0  0  0  0  0  0           0  0  0
   -0.3625   -2.7375    0.0000 C   0  0  0  0  0  0           0  0  0
   -0.3750   -1.3042    0.0000 C   0  0  0  0  0  0           0  0  0
    3.6792   -4.8167    0.0000 C   0  0  0  0  0  0           0  0  0
    2.1125   -2.7167    0.0000 C   0  0  0  0  0  0           0  0  0
    4.2500   -5.4167    0.0000 C   0  0  0  0  0  0           0  0  0
    3.2042   -6.4042    0.0000 N   0  0  0  0  0  0           0  0  0
    5.2875   -4.4417    0.0000 O   0  0  0  0  0  0           0  0  0
  2 12  1  0     0  0
  3  1  1  0     0  0
  4  8  1  0     0  0
  5  6  1  0     0  0
  6 23  1  0     0  0
  7  2  1  0     0  0
  8  5  1  0     0  0
  9  1  2  0     0  0
 10  1  2  0     0  0
 11 24  1  0     0  0
 12 20  2  0     0  0
 13  1  1  0     0  0
 14  2  2  0     0  0
 15  4  2  0     0  0
 16  6  2  0     0  0
 17 11  2  0     0  0
 18  3  1  0     0  0
 19  3  2  0     0  0
 20 19  1  0     0  0
 21 18  2  0     0  0
 22  8  1  0     0  0
 23  7  1  0     0  0
 24 22  1  0     0  0
 25 11  1  0     0  0
 26  4  1  0     0  0
 12 21  1  0     0  0
M  END