
  Mrv0541 04051115152D          

 35 38  0  0  0  0            999 V2000
    1.0310    4.2116    0.0000 C   0  0  0  0  0  0  0  0  0  0  0  0
    1.0310    5.0366    0.0000 C   0  0  0  0  0  0  0  0  0  0  0  0
    0.3165    5.4491    0.0000 N   0  0  0  0  0  0  0  0  0  0  0  0
    0.3165    6.2741    0.0000 C   0  0  0  0  0  0  0  0  0  0  0  0
   -0.3980    5.0366    0.0000 C   0  0  0  0  0  0  0  0  0  0  0  0
   -0.3980    4.2116    0.0000 C   0  0  0  0  0  0  0  0  0  0  0  0
    0.3165    3.7991    0.0000 N   0  0  0  0  0  0  0  0  0  0  0  0
    0.3165    2.9741    0.0000 C   0  0  0  0  0  0  0  0  0  0  0  0
   -0.3980    2.5616    0.0000 C   0  0  0  0  0  0  0  0  0  0  0  0
   -0.3980    1.7366    0.0000 C   0  0  0  0  0  0  0  0  0  0  0  0
   -1.1124    1.3241    0.0000 O   0  0  0  0  0  0  0  0  0  0  0  0
   -1.8269    1.7366    0.0000 C   0  0  0  0  0  0  0  0  0  0  0  0
    1.0310    2.5616    0.0000 C   0  0  0  0  0  0  0  0  0  0  0  0
    1.0310    1.7366    0.0000 C   0  0  0  0  0  0  0  0  0  0  0  0
    0.3165    1.3241    0.0000 C   0  0  0  0  0  0  0  0  0  0  0  0
    0.3165    0.4991    0.0000 N   0  0  0  0  0  0  0  0  0  0  0  0
   -0.3980    0.0866    0.0000 C   0  0  0  0  0  0  0  0  0  0  0  0
   -0.3980   -0.7384    0.0000 N   0  0  0  0  0  0  0  0  0  0  0  0
   -1.1124    0.4991    0.0000 N   0  0  0  0  0  0  0  0  0  0  0  0
   -1.8269    0.0866    0.0000 C   0  0  0  0  0  0  0  0  0  0  0  0
   -1.8269   -0.7384    0.0000 C   0  0  0  0  0  0  0  0  0  0  0  0
   -2.5414   -1.1509    0.0000 Cl  0  0  0  0  0  0  0  0  0  0  0  0
   -1.1124   -1.1509    0.0000 C   0  0  0  0  0  0  0  0  0  0  0  0
   -1.1124   -1.9759    0.0000 O   0  0  0  0  0  0  0  0  0  0  0  0
   -0.3980   -2.3884    0.0000 C   0  0  0  0  0  0  0  0  0  0  0  0
   -0.3980   -3.2134    0.0000 C   0  0  0  0  0  0  0  0  0  0  0  0
    0.3165   -1.9759    0.0000 C   0  0  0  0  0  0  0  0  0  0  0  0
    1.0310   -2.3884    0.0000 C   0  0  0  0  0  0  0  0  0  0  0  0
    1.0310   -3.2134    0.0000 C   0  0  0  0  0  0  0  0  0  0  0  0
    0.3165   -3.6259    0.0000 C   0  0  0  0  0  0  0  0  0  0  0  0
    0.3165   -4.4509    0.0000 N   0  0  0  0  0  0  0  0  0  0  0  0
    1.0310   -4.8634    0.0000 C   0  0  0  0  0  0  0  0  0  0  0  0
    1.7454   -4.4509    0.0000 O   0  0  0  0  0  0  0  0  0  0  0  0
    1.0310   -5.6884    0.0000 C   0  0  0  0  0  0  0  0  0  0  0  0
    1.7454   -6.1009    0.0000 C   0  0  0  0  0  0  0  0  0  0  0  0
  2  1  1  0  0  0  0
  2  3  1  0  0  0  0
  4  3  1  0  0  0  0
  5  3  1  0  0  0  0
  5  6  1  0  0  0  0
  6  7  1  0  0  0  0
  1  7  1  0  0  0  0
  8  7  1  0  0  0  0
  9  8  1  0  0  0  0
  9 10  2  0  0  0  0
 10 11  1  0  0  0  0
 12 11  1  0  0  0  0
 13  8  2  0  0  0  0
 13 14  1  0  0  0  0
 14 15  2  0  0  0  0
 15 10  1  0  0  0  0
 15 16  1  0  0  0  0
 17 16  1  0  0  0  0
 17 18  2  0  0  0  0
 17 19  1  0  0  0  0
 20 19  2  0  0  0  0
 21 20  1  0  0  0  0
 23 21  2  0  0  0  0
 21 22  1  0  0  0  0
 23 18  1  0  0  0  0
 23 24  1  0  0  0  0
 25 24  1  0  0  0  0
 26 25  1  0  0  0  0
 26 30  2  0  0  0  0
 27 25  2  0  0  0  0
 28 27  1  0  0  0  0
 28 29  2  0  0  0  0
 29 30  1  0  0  0  0
 30 31  1  0  0  0  0
 32 31  1  0  0  0  0
 34 32  1  0  0  0  0
 32 33  2  0  0  0  0
 35 34  2  0  0  0  0
M  END