
  SciTegic01161211242D

 20 22  0  0  0  0            999 V2000
    9.2468   -5.8294    0.0000 C   0  0
    9.2456   -6.6533    0.0000 C   0  0
    9.9574   -7.0644    0.0000 C   0  0
    9.9556   -5.4184    0.0000 C   0  0
   10.6680   -5.8258    0.0000 C   0  0
   10.6714   -6.6553    0.0000 C   0  0
   11.3876   -7.0649    0.0000 C   0  0
   12.1049   -6.6495    0.0000 C   0  0
   11.3808   -5.4058    0.0000 C   0  0  2  0  0  0
   12.1020   -5.8218    0.0000 C   0  0  1  0  0  0
   12.7206   -5.2645    0.0000 N   0  0
   12.3816   -4.5039    0.0000 C   0  0
   11.5537   -4.5913    0.0000 C   0  0
    9.9532   -4.5969    0.0000 O   0  0
   13.5427   -5.2580    0.0000 C   0  0
   13.9487   -4.5438    0.0000 C   0  0
   14.7702   -4.5382    0.0000 C   0  0
   10.6630   -4.9913    0.0000 H   0  0
   12.8911   -6.0327    0.0000 H   0  0
    9.2406   -4.1882    0.0000 C   0  0
  5  4  2  0
  4  1  1  0
  5  6  1  0
  2  3  1  0
 10 11  1  0
 11 12  1  0
 12 13  1  0
 13  9  1  0
  3  6  2  0
  4 14  1  0
  1  2  2  0
 11 15  1  0
  5  9  1  0
 15 16  1  0
  6  7  1  0
 16 17  2  0
  7  8  1  0
  9 18  1  6
  8 10  1  0
 10 19  1  6
  9 10  1  0
 14 20  1  0
M  END