
          11280714522D 1   1.00000     0.00000     0

 52 56  0     1  0            999 V2000
    8.1917   -4.7542    0.0000 N   0  0  0  0  0  0           0  0  0
    8.5500   -4.0000    0.0000 C   0  0  2  0  0  0           0  0  0
    7.3750   -3.0667    0.0000 N   0  0  3  0  0  0           0  0  0
    8.1875   -3.2417    0.0000 C   0  0  0  0  0  0           0  0  0
    7.3792   -4.9417    0.0000 C   0  0  0  0  0  0           0  0  0
    6.7250   -4.4167    0.0000 C   0  0  0  0  0  0           0  0  0
    9.3750   -3.9917    0.0000 N   0  0  0  0  0  0           0  0  0
    6.7250   -3.5917    0.0000 C   0  0  0  0  0  0           0  0  0
    2.9292   -9.6417    0.0000 C   0  0  0  0  0  0           0  0  0
    3.1917  -10.4292    0.0000 N   0  0  0  0  0  0           0  0  0
    9.7875   -4.7042    0.0000 C   0  0  0  0  0  0           0  0  0
    2.1500   -9.3875    0.0000 C   0  0  0  0  0  0           0  0  0
    3.6042   -9.1542    0.0000 S   0  0  0  0  0  0           0  0  0
    4.0167  -10.4292    0.0000 C   0  0  0  0  0  0           0  0  0
    1.9792   -8.5792    0.0000 C   0  0  0  0  0  0           0  0  0
    8.9667   -8.9917    0.0000 C   0  0  0  0  0  0           0  0  0
    4.2792   -9.6417    0.0000 C   0  0  0  0  0  0           0  0  0
   10.6125   -4.7042    0.0000 N   0  0  0  0  0  0           0  0  0
    8.7000   -2.6000    0.0000 O   0  0  0  0  0  0           0  0  0
    7.1917   -5.7417    0.0000 C   0  0  0  0  0  0           0  0  0
    9.3792   -5.4250    0.0000 O   0  0  0  0  0  0           0  0  0
    8.1417   -8.9917    0.0000 O   0  0  0  0  0  0           0  0  0
   11.0292   -5.4167    0.0000 C   0  0  0  0  0  0           0  0  0
    9.3792   -9.7042    0.0000 N   0  0  0  0  0  0           0  0  0
    2.5917   -8.0292    0.0000 N   0  0  0  0  0  0           0  0  0
    1.1917   -8.3250    0.0000 N   0  0  0  0  0  0           0  0  0
    7.1875   -2.2625    0.0000 C   0  0  0  0  0  0           0  0  0
    9.3792   -8.2792    0.0000 O   0  0  0  0  0  0           0  0  0
   10.6167   -6.1292    0.0000 C   0  0  0  0  0  0           0  0  0
    6.0042   -4.8292    0.0000 C   0  0  0  0  0  0           0  0  0
    6.9042  -11.1417    0.0000 N   0  0  0  0  0  0           0  0  0
    5.2542  -11.1417    0.0000 S   0  0  0  0  0  0           0  0  0
    4.4292  -11.1417    0.0000 C   0  0  0  0  0  0           0  0  0
    6.0042   -3.1792    0.0000 C   0  0  0  0  0  0           0  0  0
   11.0292   -6.8417    0.0000 C   0  0  0  0  0  0           0  0  0
    8.1417  -10.4250    0.0000 C   0  0  0  0  0  0           0  0  0
    9.7917   -7.5625    0.0000 C   0  0  0  0  0  0           0  0  0
   12.2667   -6.1250    0.0000 C   0  0  0  0  0  0           0  0  0
    8.9667  -10.4250    0.0000 C   0  0  0  0  0  0           0  0  0
    7.7292  -11.1417    0.0000 C   0  0  0  0  0  0           0  0  0
   11.8500   -5.4167    0.0000 C   0  0  0  0  0  0           0  0  0
    7.8000   -6.3000    0.0000 C   0  0  0  0  0  0           0  0  0
    6.4042   -5.9875    0.0000 C   0  0  0  0  0  0           0  0  0
   10.6167   -7.5625    0.0000 C   0  0  0  0  0  0           0  0  0
    6.4917  -11.8542    0.0000 C   0  0  0  0  0  0           0  0  0
   11.8542   -6.8417    0.0000 C   0  0  0  0  0  0           0  0  0
    5.6667  -11.8542    0.0000 C   0  0  0  0  0  0           0  0  0
    5.2917   -4.4167    0.0000 C   0  0  0  0  0  0           0  0  0
    5.2917   -3.5917    0.0000 C   0  0  0  0  0  0           0  0  0
    6.2250   -6.7875    0.0000 C   0  0  0  0  0  0           0  0  0
    7.6167   -7.1000    0.0000 C   0  0  0  0  0  0           0  0  0
    6.8292   -7.3500    0.0000 C   0  0  0  0  0  0           0  0  0
  2  1  1  0     0  0
  3  4  1  0     0  0
  4  2  1  0     0  0
  5  1  2  0     0  0
  6  5  1  0     0  0
  2  7  1  6     0  0
  8  6  1  0     0  0
  9 10  2  0     0  0
 10 14  1  0     0  0
 11  7  1  0     0  0
 12  9  1  0     0  0
 13 17  1  0     0  0
 14 33  1  0     0  0
 15 12  2  0     0  0
 16 28  1  0     0  0
 17 14  2  0     0  0
 18 11  1  0     0  0
 19  4  2  0     0  0
 20  5  1  0     0  0
 21 11  2  0     0  0
 22 16  2  0     0  0
 23 18  1  0     0  0
 24 16  1  0     0  0
 25 15  1  0     0  0
 26 15  1  0     0  0
 27  3  1  0     0  0
 28 37  1  0     0  0
 29 23  2  0     0  0
 30  6  2  0     0  0
 31 40  1  0     0  0
 32 47  1  0     0  0
 33 32  1  0     0  0
 34  8  2  0     0  0
 35 29  1  0     0  0
 36 39  1  0     0  0
 37 44  1  0     0  0
 38 41  2  0     0  0
 39 24  1  0     0  0
 40 36  1  0     0  0
 41 23  1  0     0  0
 42 20  1  0     0  0
 43 20  2  0     0  0
 44 35  1  0     0  0
 45 31  1  0     0  0
 46 38  1  0     0  0
 47 45  1  0     0  0
 48 30  1  0     0  0
 49 48  2  0     0  0
 50 43  1  0     0  0
 51 42  2  0     0  0
 52 50  2  0     0  0
  8  3  1  0     0  0
 51 52  1  0     0  0
 34 49  1  0     0  0
 35 46  2  0     0  0
 13  9  1  0     0  0
M  END