
          11280714522D 1   1.00000     0.00000     0

 31 35  0     0  0            999 V2000
    1.6167   -0.7042    0.0000 C   0  0  0  0  0  0           0  0  0
    1.7667    0.3833    0.0000 N   0  0  0  0  0  0           0  0  0
    1.3625   -0.1542    0.0000 N   0  0  0  0  0  0           0  0  0
    2.3292   -0.0417    0.0000 N   0  0  0  0  0  0           0  0  0
    2.2125   -0.6292    0.0000 N   0  0  0  0  0  0           0  0  0
    1.3167   -1.2250    0.0000 C   0  0  0  0  0  0           0  0  0
   -1.8583    1.3500    0.0000 N   0  0  0  0  0  0           0  0  0
   -1.8458    0.1500    0.0000 C   0  0  0  0  0  0           0  0  0
    0.8000   -1.5167    0.0000 C   0  0  0  0  0  0           0  0  0
   -1.3333    0.4583    0.0000 C   0  0  0  0  0  0           0  0  0
   -1.3333    1.0583    0.0000 C   0  0  0  0  0  0           0  0  0
   -2.3708    0.4458    0.0000 C   0  0  0  0  0  0           0  0  0
   -2.3708    1.0500    0.0000 C   0  0  0  0  0  0           0  0  0
    0.2792   -1.2125    0.0000 C   0  0  0  0  0  0           0  0  0
   -1.8458   -0.4500    0.0000 O   0  0  0  0  0  0           0  0  0
   -0.2375   -1.5042    0.0000 C   0  0  0  0  0  0           0  0  0
    0.2917   -0.6125    0.0000 C   0  0  0  0  0  0           0  0  0
   -1.2583   -0.2917    0.0000 C   0  0  0  0  0  0           0  0  0
   -0.7458   -0.6000    0.0000 C   0  0  0  0  0  0           0  0  0
   -0.7583   -1.2000    0.0000 C   0  0  0  0  0  0           0  0  0
   -0.2250   -0.3042    0.0000 C   0  0  0  0  0  0           0  0  0
    1.8375   -1.5292    0.0000 C   0  0  0  0  0  0           0  0  0
    0.7917   -2.1167    0.0000 C   0  0  0  0  0  0           0  0  0
   -0.8083    0.1583    0.0000 C   0  0  0  0  0  0           0  0  0
   -0.8208    1.3583    0.0000 C   0  0  0  0  0  0           0  0  0
   -2.8958    1.3458    0.0000 C   0  0  0  0  0  0           0  0  0
   -2.8958    1.9458    0.0000 C   0  0  0  0  0  0           0  0  0
    1.3042   -2.4250    0.0000 C   0  0  0  0  0  0           0  0  0
    1.8292   -2.1292    0.0000 C   0  0  0  0  0  0           0  0  0
   -0.2958    0.4583    0.0000 C   0  0  0  0  0  0           0  0  0
   -0.2958    1.0583    0.0000 C   0  0  0  0  0  0           0  0  0
  2  3  2  0     0  0
  3  1  1  0     0  0
  4  5  1  0     0  0
  5  1  2  0     0  0
  6  1  1  0     0  0
  7 13  1  0     0  0
  8 15  1  0     0  0
  9  6  2  0     0  0
 10  8  2  0     0  0
 11 10  1  0     0  0
 12  8  1  0     0  0
 13 12  2  0     0  0
 14  9  1  0     0  0
 15 18  1  0     0  0
 16 14  2  0     0  0
 17 14  1  0     0  0
 18 19  1  0     0  0
 19 21  1  0     0  0
 20 16  1  0     0  0
 21 17  2  0     0  0
 22  6  1  0     0  0
 23  9  1  0     0  0
 24 10  1  0     0  0
 25 11  1  0     0  0
 26 13  1  0     0  0
 27 26  1  0     0  0
 28 29  1  0     0  0
 29 22  2  0     0  0
 30 24  2  0     0  0
 31 30  1  0     0  0
  2  4  1  0     0  0
 28 23  2  0     0  0
 20 19  2  0     0  0
  7 11  2  0     0  0
 25 31  2  0     0  0
M  END