
  SciTegic05281310212D

 26 28  0  0  0  0            999 V2000
   -0.1148  -23.0858    0.0000 C   0  0
    0.5941  -22.6632    0.0000 N   0  0
    1.3160  -23.0695    0.0000 C   0  0
    2.0228  -22.6505    0.0000 C   0  0
    2.0156  -21.8249    0.0000 N   0  0
    1.2954  -21.4200    0.0000 C   0  0
    0.5823  -21.8408    0.0000 C   0  0
    2.7220  -21.4056    0.0000 C   0  0
    3.4411  -21.8127    0.0000 C   0  0
    4.1511  -21.3936    0.0000 C   0  0
    4.1433  -20.5675    0.0000 C   0  0
    3.4193  -20.1623    0.0000 C   0  0
    2.7123  -20.5838    0.0000 C   0  0
   -2.2552  -24.3321    0.0000 C   0  0
   -1.5385  -23.9187    0.0000 C   0  0
   -1.5414  -23.0879    0.0000 C   0  0
   -2.2570  -22.6785    0.0000 C   0  0
   -2.9704  -23.9192    0.0000 C   0  0
   -2.9691  -23.0945    0.0000 C   0  0
   -3.7529  -22.8385    0.0000 O   0  0
   -4.2387  -23.5049    0.0000 C   0  0
   -3.7549  -24.1728    0.0000 O   0  0
   -0.8282  -22.6725    0.0000 C   0  0
    3.4485  -22.6380    0.0000 O   0  0
    4.1670  -23.0442    0.0000 C   0  0
   -1.1815  -21.2039    0.0000 Cl  0  0
 12 13  2  0
 13  8  1  0
  5  8  1  0
  5  6  1  0
 18 14  1  0
  6  7  1  0
 14 15  2  0
  2  3  1  0
 15 16  1  0
 16 17  2  0
 17 19  1  0
 18 19  2  0
  8  9  2  0
  1  2  1  0
  9 10  1  0
  2  7  1  0
 10 11  2  0
 19 20  1  0
 20 21  1  0
 21 22  1  0
 22 18  1  0
  3  4  1  0
 16 23  1  0
 23  1  1  0
 11 12  1  0
  9 24  1  0
  4  5  1  0
 24 25  1  0
M  END