
  SciTegic12171312592D

 23 24  0  0  0  0            999 V2000
   33.2669  -21.3198    0.0000 C   0  0
   33.2669  -22.1412    0.0000 C   0  0
   33.9800  -22.5561    0.0000 C   0  0
   34.6931  -22.1412    0.0000 C   0  0
   34.6931  -21.3198    0.0000 C   0  0
   33.9800  -20.9049    0.0000 C   0  0
   35.4102  -22.5561    0.0000 C   0  0
   36.1233  -22.1412    0.0000 N   0  0
   36.1233  -21.3198    0.0000 C   0  0
   35.4102  -20.9049    0.0000 C   0  0
   35.4102  -23.3812    0.0000 Cl  0  0
   35.4102  -20.0798    0.0000 O   0  0
   36.8360  -20.9051    0.0000 C   0  0
   36.8360  -20.0800    0.0000 O   0  0
   37.5528  -21.3198    0.0000 N   0  0
   38.2655  -20.9051    0.0000 C   0  0  1  0  0  0
   38.9782  -21.3198    0.0000 C   0  0
   38.2654  -20.0800    0.0000 C   0  0
   39.6909  -20.9051    0.0000 O   0  0
   38.9782  -22.1407    0.0000 O   0  0
   38.9783  -19.6684    0.0000 C   0  0
   38.9784  -18.8434    0.0000 C   0  0
   39.6928  -20.0810    0.0000 C   0  0
  1  2  2  0
  2  3  1  0
  3  4  2  0
  4  5  1  0
  5  6  2  0
  6  1  1  0
  4  7  1  0
  7  8  2  0
  8  9  1  0
  9 10  2  0
 10  5  1  0
  7 11  1  0
 10 12  1  0
  9 13  1  0
 13 14  2  0
 13 15  1  0
 15 16  1  0
 16 17  1  0
 16 18  1  6
 17 19  1  0
 17 20  2  0
 18 21  1  0
 21 22  1  0
 21 23  1  0
M  END