
  SciTegic02011310442D

 40 45  0  0  0  0            999 V2000
    3.0914   -5.0944    0.0000 N   0  0
    3.8079   -4.6811    0.0000 C   0  0
    3.8051   -3.8505    0.0000 N   0  0
    3.0896   -3.4414    0.0000 C   0  0
    2.3766   -4.6816    0.0000 N   0  0
    2.3778   -3.8526    0.0000 C   0  0
    1.5899   -3.5953    0.0000 C   0  0
    1.1015   -4.2652    0.0000 C   0  0
    1.5879   -4.9365    0.0000 C   0  0
    4.5230   -5.0925    0.0000 S   0  0
    5.2369   -4.6789    0.0000 C   0  0
    3.0878   -2.6164    0.0000 N   0  0
    3.8015   -2.2023    0.0000 C   0  0
    5.9486   -5.0907    0.0000 C   0  0
    6.6620   -4.6778    0.0000 C   0  0
    6.6612   -3.8518    0.0000 C   0  0
    5.9409   -3.4406    0.0000 C   0  0
    5.2306   -3.8560    0.0000 C   0  0
    4.5536   -2.5375    0.0000 C   0  0
    5.1043   -1.9232    0.0000 C   0  0
    4.6902   -1.2096    0.0000 N   0  0
    3.8836   -1.3830    0.0000 N   0  0
    5.9250   -2.0076    0.0000 C   0  0
    7.3744   -3.4373    0.0000 N   0  0
    8.0901   -3.8477    0.0000 C   0  0
    8.8034   -3.4332    0.0000 C   0  0
    9.5191   -3.8435    0.0000 N   0  0
    8.0924   -4.6727    0.0000 O   0  0
    9.6049   -4.6616    0.0000 C   0  0
   10.4123   -4.8308    0.0000 C   0  0  1  0  0  0
   10.8228   -4.1150    0.0000 C   0  0
   10.2689   -3.5036    0.0000 C   0  0
   10.7500   -5.5836    0.0000 C   0  0
   10.2671   -6.2524    0.0000 O   0  0
   11.5708   -5.6673    0.0000 N   0  0
   12.0538   -4.9985    0.0000 C   0  0
   12.8748   -4.9979    0.0000 C   0  0
   13.1275   -4.2124    0.0000 C   0  0
   12.4585   -3.7295    0.0000 C   0  0
   11.7926   -4.2164    0.0000 C   0  0
  5  1  1  0
  1  2  2  0
  2  3  1  0
  3  4  2  0
  4  6  1  0
  5  6  1  0
  6  7  2  0
  7  8  1  0
  8  9  2  0
  9  5  1  0
  2 10  1  0
 10 11  1  0
  4 12  1  0
 12 13  1  0
 11 14  2  0
 14 15  1  0
 15 16  2  0
 16 17  1  0
 17 18  2  0
 18 11  1  0
 13 19  1  0
 19 20  2  0
 20 21  1  0
 21 22  1  0
 22 13  2  0
 20 23  1  0
 16 24  1  0
 24 25  1  0
 25 26  1  0
 26 27  1  0
 25 28  2  0
 27 29  1  0
 29 30  1  0
 30 31  1  0
 31 32  1  0
 32 27  1  0
 30 33  1  1
 33 34  2  0
 33 35  1  0
 35 36  1  0
 36 37  1  0
 37 38  1  0
 38 39  1  0
 39 40  1  0
 40 36  1  0
M  END