
  SciTegic12091613522D

 37 41  0  0  0  0            999 V2000
  -14.9943   -0.8819    0.0000 C   0  0
  -15.9947    0.2291    0.0000 C   0  0
  -15.5316    1.6765    0.0000 C   0  0
  -13.5064   -0.5726    0.0000 C   0  0
  -13.0568    0.8626    0.0000 C   0  0
  -14.0572    1.9736    0.0000 C   0  0
  -13.3054    3.2639    0.0000 N   0  0
  -11.8377    2.9417    0.0000 C   0  0
  -11.7121    1.4840    0.0000 C   0  0
  -13.9085    4.6381    0.0000 C   0  0
  -13.1166    5.9061    0.0000 C   0  0
  -13.8219    7.2300    0.0000 C   0  0
  -15.3210    7.2811    0.0000 C   0  0
  -16.1148    6.0083    0.0000 C   0  0
  -15.4095    4.6845    0.0000 C   0  0
  -10.4109    0.7361    0.0000 C   0  0
   -9.1121    1.4882    0.0000 N   0  0
   -7.8109    0.7403    0.0000 C   0  0
   -6.5121    1.4924    0.0000 C   0  0
   -5.2109    0.7445    0.0000 N   0  0
   -3.9122    1.4966    0.0000 C   0  0
   -2.6111    0.7486    0.0000 C   0  0
   -2.6111   -0.7486    0.0000 C   0  0
   -1.2964   -1.4973    0.0000 O   0  0
   -1.2964    1.4973    0.0000 C   0  0
   -1.2928    2.6973    0.0000 O   0  0
    0.0000    0.7486    0.0000 C   0  0
    0.0000   -0.7486    0.0000 C   0  0
    1.2964   -1.4973    0.0000 C   0  0
    2.5929   -0.7486    0.0000 C   0  0
    2.5929    0.7486    0.0000 C   0  0
    1.2964    1.4973    0.0000 C   0  0
   -9.1141    2.6882    0.0000 C   0  0
   -5.2090   -0.4555    0.0000 C   0  0
  -10.4090   -0.4639    0.0000 O   0  0
   -3.9141    2.6966    0.0000 O   0  0
  -17.3141    6.0492    0.0000 N   0  0
  1  2  2  0
  2  3  1  0
  3  6  2  0
  5  4  2  0
  4  1  1  0
  5  6  1  0
  6  7  1  0
  7  8  1  0
  8  9  2  0
  9  5  1  0
 10 11  2  0
 11 12  1  0
 12 13  2  0
 13 14  1  0
 14 15  2  0
 15 10  1  0
  7 10  1  0
  9 16  1  0
 16 17  1  0
 17 18  1  0
 18 19  1  0
 19 20  1  0
 20 21  1  0
 21 22  1  0
 22 23  2  0
 22 25  1  0
 23 24  1  0
 24 28  1  0
 27 25  1  0
 25 26  2  0
 27 28  2  0
 28 29  1  0
 29 30  2  0
 30 31  1  0
 31 32  2  0
 32 27  1  0
 17 33  1  0
 20 34  1  0
 16 35  2  0
 21 36  2  0
 14 37  1  0
M  END