
  SciTegic02011310442D

 40 45  0  0  0  0            999 V2000
   16.9750  -12.6568    0.0000 N   0  0
   17.6847  -12.2473    0.0000 C   0  0
   17.6818  -11.4247    0.0000 N   0  0
   16.9732  -11.0194    0.0000 C   0  0
   16.2670  -12.2478    0.0000 N   0  0
   16.2682  -11.4267    0.0000 C   0  0
   15.4877  -11.1718    0.0000 C   0  0
   15.0040  -11.8354    0.0000 C   0  0
   15.4857  -12.5003    0.0000 C   0  0
   18.3930  -12.6548    0.0000 S   0  0
   19.1001  -12.2451    0.0000 C   0  0
   16.9714  -10.2022    0.0000 N   0  0
   17.6782   -9.7921    0.0000 C   0  0
   19.8051  -12.6530    0.0000 C   0  0
   20.5117  -12.2440    0.0000 C   0  0
   20.5109  -11.4259    0.0000 C   0  0
   19.7975  -11.0186    0.0000 C   0  0
   19.0939  -11.4300    0.0000 C   0  0
   18.4233  -10.1241    0.0000 C   0  0
   18.9688   -9.5156    0.0000 C   0  0
   18.5586   -8.8087    0.0000 N   0  0
   17.7597   -8.9805    0.0000 N   0  0
   19.7817   -9.5992    0.0000 C   0  0
   21.2174  -11.0153    0.0000 N   0  0
   21.9263  -11.4218    0.0000 C   0  0
   22.6328  -11.0112    0.0000 C   0  0
   23.3417  -11.4177    0.0000 N   0  0
   21.9286  -12.2390    0.0000 O   0  0
   23.4267  -12.2280    0.0000 C   0  0
   24.2265  -12.3956    0.0000 C   0  0  1  0  0  0
   24.6331  -11.6867    0.0000 C   0  0
   24.0844  -11.0811    0.0000 C   0  0
   24.5610  -13.1412    0.0000 C   0  0
   24.0826  -13.8037    0.0000 O   0  0
   25.3740  -13.2242    0.0000 N   0  0
   25.7030  -13.9726    0.0000 C   0  0
   26.5122  -14.0573    0.0000 C   0  0
   26.9942  -13.3970    0.0000 C   0  0
   26.6611  -12.6497    0.0000 C   0  0
   25.8459  -12.5628    0.0000 C   0  0
  5  1  1  0
  1  2  2  0
  2  3  1  0
  3  4  2  0
  4  6  1  0
  5  6  1  0
  6  7  2  0
  7  8  1  0
  8  9  2  0
  9  5  1  0
  2 10  1  0
 10 11  1  0
  4 12  1  0
 12 13  1  0
 11 14  2  0
 14 15  1  0
 15 16  2  0
 16 17  1  0
 17 18  2  0
 18 11  1  0
 13 19  1  0
 19 20  2  0
 20 21  1  0
 21 22  1  0
 22 13  2  0
 20 23  1  0
 16 24  1  0
 24 25  1  0
 25 26  1  0
 26 27  1  0
 25 28  2  0
 27 29  1  0
 29 30  1  0
 30 31  1  0
 31 32  1  0
 32 27  1  0
 30 33  1  1
 33 34  2  0
 33 35  1  0
 35 36  1  0
 35 40  1  0
 36 37  1  0
 37 38  1  0
 38 39  1  0
 39 40  1  0
M  END