
  CDK    9/16/09,9:46

 31 33  0  0  0  0  0  0  0  0999 V2000
    7.6500    1.7167    0.0000 C   0  0  0  0  0  0  0  0  0  0  0  0
    7.6500    0.8917    0.0000 C   0  0  0  0  0  0  0  0  0  0  0  0
    8.3620    0.4833    0.0000 C   0  0  0  0  0  0  0  0  0  0  0  0
    9.0740    0.8917    0.0000 C   0  0  0  0  0  0  0  0  0  0  0  0
    9.0740    1.7167    0.0000 C   0  0  0  0  0  0  0  0  0  0  0  0
    8.3620    2.1333    0.0000 O   0  0  0  0  0  0  0  0  0  0  0  0
    9.7897    2.1271    0.0000 O   0  0  0  0  0  0  0  0  0  0  0  0
    9.7879    0.4781    0.0000 O   0  0  0  0  0  0  0  0  0  0  0  0
    8.3620   -0.3417    0.0000 O   0  0  0  0  0  0  0  0  0  0  0  0
    6.9361    0.4781    0.0000 O   0  0  0  0  0  0  0  0  0  0  0  0
    6.9343    2.1271    0.0000 C   0  0  0  0  0  0  0  0  0  0  0  0
    6.9319    2.9521    0.0000 O   0  0  0  0  0  0  0  0  0  0  0  0
    9.7921    2.9521    0.0000 C   0  0  0  0  0  0  0  0  0  0  0  0
    7.6475   -0.7542    0.0000 C   0  0  0  0  0  0  0  0  0  0  0  0
    7.6475   -1.5792    0.0000 C   0  0  0  0  0  0  0  0  0  0  0  0
    6.9331   -0.3417    0.0000 O   0  0  0  0  0  0  0  0  0  0  0  0
    6.9299   -1.9883    0.0000 C   0  0  0  0  0  0  0  0  0  0  0  0
    6.9295   -2.8125    0.0000 C   0  0  0  0  0  0  0  0  0  0  0  0
    8.3614   -2.8089    0.0000 C   0  0  0  0  0  0  0  0  0  0  0  0
    8.3582   -1.9861    0.0000 C   0  0  0  0  0  0  0  0  0  0  0  0
    9.7867   -0.3469    0.0000 C   0  0  0  0  0  0  0  0  0  0  0  0
   10.5006   -0.7604    0.0000 C   0  0  0  0  0  0  0  0  0  0  0  0
    9.0716   -0.7583    0.0000 O   0  0  0  0  0  0  0  0  0  0  0  0
   10.4960   -1.5844    0.0000 C   0  0  0  0  0  0  0  0  0  0  0  0
   11.2091   -1.9979    0.0000 C   0  0  0  0  0  0  0  0  0  0  0  0
   11.9251   -1.5863    0.0000 C   0  0  0  0  0  0  0  0  0  0  0  0
   11.9237   -0.7571    0.0000 C   0  0  0  0  0  0  0  0  0  0  0  0
   11.2100   -0.3474    0.0000 C   0  0  0  0  0  0  0  0  0  0  0  0
    7.6446   -3.2259    0.0000 C   0  0  0  0  0  0  0  0  0  0  0  0
    7.6446   -4.0509    0.0000 C   0  0  0  0  0  0  0  0  0  0  0  0
   12.6395   -1.9989    0.0000 C   0  0  0  0  0  0  0  0  0  0  0  0
  5  7  1  1  0  0  0 
 14 15  1  0  0  0  0 
  1  2  1  0  0  0  0 
 14 16  2  0  0  0  0 
  4  8  1  1  0  0  0 
 15 17  2  0  0  0  0 
  1  6  1  0  0  0  0 
 17 18  1  0  0  0  0 
  3  9  1  1  0  0  0 
 18 29  2  0  0  0  0 
  2  3  1  0  0  0  0 
 29 19  1  0  0  0  0 
  2 10  1  1  0  0  0 
 19 20  2  0  0  0  0 
 20 15  1  0  0  0  0 
  3  4  1  0  0  0  0 
  8 21  1  0  0  0  0 
  1 11  1  1  0  0  0 
 21 22  1  0  0  0  0 
  4  5  1  0  0  0  0 
 21 23  2  0  0  0  0 
 11 12  1  0  0  0  0 
 22 24  2  0  0  0  0 
  5  6  1  0  0  0  0 
 24 25  1  0  0  0  0 
  7 13  1  0  0  0  0 
 25 26  2  0  0  0  0 
 26 27  1  0  0  0  0 
  9 14  1  0  0  0  0 
 27 28  2  0  0  0  0 
 28 22  1  0  0  0  0 
 29 30  1  0  0  0  0 
 26 31  1  0  0  0  0 
M  END