
  SciTegic02271514372D

 25 26  0  0  0  0            999 V2000
    5.1138   -5.2011    0.0000 C   0  0
    5.8283   -5.6136    0.0000 C   0  0
    6.5428   -5.2011    0.0000 C   0  0
    7.2572   -5.6136    0.0000 C   0  0
    7.2572   -6.4386    0.0000 C   0  0
    6.5428   -6.8511    0.0000 C   0  0
    5.8283   -6.4386    0.0000 C   0  0
    5.1138   -4.3761    0.0000 O   0  0
    4.3993   -5.6136    0.0000 O   0  0
    5.1138   -6.8511    0.0000 O   0  0
    7.9717   -6.8511    0.0000 O   0  0
    6.5428   -4.3761    0.0000 C   0  0
    7.2572   -3.9636    0.0000 C   0  0
    7.2572   -3.1386    0.0000 C   0  0
    7.9717   -2.7261    0.0000 O   0  0
    6.5428   -2.7261    0.0000 N   0  0
    6.5428   -1.9011    0.0000 C   0  0
    5.8283   -1.4886    0.0000 C   0  0
    5.8283   -0.6636    0.0000 C   0  0
    6.5428   -0.2511    0.0000 C   0  0
    7.2572   -0.6636    0.0000 C   0  0
    7.2572   -1.4886    0.0000 C   0  0
    5.1138   -1.9011    0.0000 Cl  0  0
    7.9717   -5.2011    0.0000 Cl  0  0
    4.3993   -6.4386    0.0000 C   0  0
  1  2  1  0
  2  3  1  0
  3  4  2  0
  4  5  1  0
  5  6  2  0
  6  7  1  0
  2  7  2  0
  1  8  2  0
  1  9  1  0
  7 10  1  0
  5 11  1  0
 12 13  1  0
 13 14  1  0
 14 15  2  0
 17 18  1  0
 18 19  2  0
 19 20  1  0
 20 21  2  0
 21 22  1  0
 17 22  2  0
 18 23  1  0
 16 17  1  0
 14 16  1  0
  3 12  1  0
  4 24  1  0
  9 25  1  0
M  END