
  CDK    5/12/10,14:52

 23 25  0  0  0  0  0  0  0  0999 V2000
   -5.3964  -17.7531    0.0000 N   0  0  0  0  0  0  0  0  0  0  0  0
   -6.1069  -17.3416    0.0000 C   0  0  0  0  0  0  0  0  0  0  0  0
   -6.8289  -17.7543    0.0000 C   0  0  0  0  0  0  0  0  0  0  0  0
   -6.8255  -18.5787    0.0000 O   0  0  0  0  0  0  0  0  0  0  0  0
   -6.1068  -18.9931    0.0000 C   0  0  0  0  0  0  0  0  0  0  0  0
   -5.3964  -18.5784    0.0000 C   0  0  0  0  0  0  0  0  0  0  0  0
   -5.3962  -15.2671    0.0000 C   0  0  0  0  0  0  0  0  0  0  0  0
   -5.3975  -16.0901    0.0000 C   0  0  0  0  0  0  0  0  0  0  0  0
   -4.6799  -16.5030    0.0000 C   0  0  0  0  0  0  0  0  0  0  0  0
   -3.9697  -16.0897    0.0000 C   0  0  0  0  0  0  0  0  0  0  0  0
   -3.9729  -15.2631    0.0000 C   0  0  0  0  0  0  0  0  0  0  0  0
   -4.6818  -14.8544    0.0000 C   0  0  0  0  0  0  0  0  0  0  0  0
   -4.6720  -14.0293    0.0000 C   0  0  0  0  0  0  0  0  0  0  0  0
   -4.6659  -13.2001    0.0000 C   0  0  0  0  0  0  0  0  0  0  0  0
   -4.6566  -12.3751    0.0000 C   0  0  0  0  0  0  0  0  0  0  0  0
   -3.9399  -11.9677    0.0000 C   0  0  0  0  0  0  0  0  0  0  0  0
   -3.9290  -11.1388    0.0000 N   0  0  0  0  0  0  0  0  0  0  0  0
   -3.2149  -10.7260    0.0000 C   0  0  0  0  0  0  0  0  0  0  0  0
   -3.2172   -9.9016    0.0000 C   0  0  0  0  0  0  0  0  0  0  0  0
   -3.9280   -9.4885    0.0000 C   0  0  0  0  0  0  0  0  0  0  0  0
   -4.6410   -9.9002    0.0000 C   0  0  0  0  0  0  0  0  0  0  0  0
   -4.6387  -10.7292    0.0000 C   0  0  0  0  0  0  0  0  0  0  0  0
   -4.6767  -17.3327    0.0000 C   0  0  0  0  0  0  0  0  0  0  0  0
 11 12  2  0  0  0  0 
 12  7  1  0  0  0  0 
  5  6  1  0  0  0  0 
 12 13  1  0  0  0  0 
  1  2  1  0  0  0  0 
 13 14  3  0  0  0  0 
 14 15  1  0  0  0  0 
  7  8  2  0  0  0  0 
 15 16  1  0  0  0  0 
  1  6  1  0  0  0  0 
 16 17  1  0  0  0  0 
 17 18  1  0  0  0  0 
  8  9  1  0  0  0  0 
  2  3  1  0  0  0  0 
  9 10  2  0  0  0  0 
  3  4  1  0  0  0  0 
 10 11  1  0  0  0  0 
 17 22  1  0  0  0  0 
 18 19  1  0  0  0  0 
 19 20  1  0  0  0  0 
 20 21  1  0  0  0  0 
 21 22  1  0  0  0  0 
  4  5  1  0  0  0  0 
  9 23  1  0  0  0  0 
 23  1  1  0  0  0  0 
M  END