
  SciTegic02161213522D

 39 43  0  0  0  0            999 V2000
   -5.5546  -20.4913    0.0000 N   0  0
   -4.8394  -20.0816    0.0000 C   0  0
   -4.8365  -19.2557    0.0000 N   0  0
   -5.5548  -18.8413    0.0000 C   0  0
   -5.5553  -18.0163    0.0000 N   0  0
   -4.8407  -17.6033    0.0000 C   0  0
   -4.1263  -20.4965    0.0000 S   0  0
   -3.4105  -20.0865    0.0000 C   0  0
   -2.7016  -20.5045    0.0000 C   0  0
   -1.9862  -20.0952    0.0000 C   0  0
   -1.9830  -19.2693    0.0000 C   0  0
   -2.7010  -18.8545    0.0000 C   0  0
   -3.4135  -19.2663    0.0000 C   0  0
   -1.2676  -18.8583    0.0000 N   0  0
   -4.0550  -17.8514    0.0000 C   0  0
   -3.5759  -17.1797    0.0000 C   0  0
   -4.0666  -16.5166    0.0000 N   0  0
   -4.8490  -16.7783    0.0000 N   0  0
   -2.7509  -17.1725    0.0000 C   0  0
   -7.0420  -19.0022    0.0000 C   0  0
   -7.5276  -19.6633    0.0000 C   0  0
   -7.0494  -20.3251    0.0000 C   0  0
   -6.2689  -20.0729    0.0000 N   0  0
   -6.2695  -19.2553    0.0000 C   0  0
   -0.5540  -19.2723    0.0000 C   0  0
    0.1613  -18.8613    0.0000 C   0  0
    0.8749  -19.2757    0.0000 N   0  0
   -0.5557  -20.0973    0.0000 O   0  0
    0.8662  -20.0961    0.0000 C   0  0
    1.6481  -20.3596    0.0000 C   0  0  1  0  0  0
    2.1402  -19.6974    0.0000 C   0  0
    1.6625  -19.0248    0.0000 C   0  0
    2.9652  -19.7063    0.0000 N   0  0
    1.8945  -21.1469    0.0000 O   0  0
    2.6995  -21.3272    0.0000 C   0  0
    3.3853  -18.9963    0.0000 O   0  0
    2.9459  -22.1145    0.0000 C   0  0
    3.2582  -20.7201    0.0000 C   0  0
    3.4917  -21.5375    0.0000 C   0  0
 18  6  2  0
  3  4  2  0
 16 19  1  0
 23 24  1  0
  8  9  2  0
  4 24  1  0
 21 22  2  0
  9 10  1  0
  1  2  2  0
 10 11  2  0
 20 21  1  0
 22 23  1  0
 24 20  2  0
  4  5  1  0
 14 25  1  0
 11 12  1  0
 25 26  1  0
 23  1  1  0
 26 27  1  0
 12 13  2  0
 25 28  2  0
 27 29  1  0
 13  8  1  0
  5  6  1  0
 11 14  1  0
 17 18  1  0
 29 30  1  0
 30 31  1  0
 31 32  1  0
 32 27  1  0
  2  3  1  0
 31 33  2  3
 15 16  2  0
 30 34  1  1
  2  7  1  0
 34 35  1  0
 33 36  1  0
  7  8  1  0
 35 37  1  0
  6 15  1  0
 35 38  1  0
 16 17  1  0
 35 39  1  0
M  END