
  SciTegic10311217562D

 42 40  0  0  0  0            999 V2000
   -2.4542    0.8167    0.0000 Na  0  3
   -0.8958   -2.1792    0.0000 C   0  0  2  0  0  0
   -0.8958   -3.0042    0.0000 C   0  0  1  0  0  0
   -0.1838   -3.4125    0.0000 C   0  0  2  0  0  0
    0.5282   -3.0042    0.0000 O   0  0
    0.5282   -2.1792    0.0000 C   0  0  1  0  0  0
   -0.1838   -1.7625    0.0000 C   0  0  1  0  0  0
    1.2439   -1.7688    0.0000 C   0  0
   -1.6115   -1.7688    0.0000 O   0  0
   -1.6097   -3.4177    0.0000 O   0  0
   -0.1838   -0.9375    0.0000 O   0  0
   -0.1838   -4.2375    0.0000 O   0  0
    1.9571   -2.1834    0.0000 N   0  0
    0.5307   -4.6500    0.0000 C   0  0
    2.6728   -1.7729    0.0000 C   0  0
    3.3861   -2.1875    0.0000 C   0  0
    2.6752   -0.9480    0.0000 O   0  0
    4.1018   -1.7771    0.0000 N   0  0
    4.8150   -2.1917    0.0000 C   0  0
    5.5307   -1.7813    0.0000 O   0  0
   -0.8983   -0.5250    0.0000 S   0  0
   -1.6128   -0.9375    0.0000 O   0  5
   -1.3167    0.1917    0.0000 O   0  0
   -0.4917    0.1917    0.0000 O   0  0
   -2.3248   -2.1834    0.0000 S   0  0
   -3.0404   -1.7729    0.0000 O   0  5
   -2.7417   -2.8958    0.0000 O   0  0
   -1.9167   -2.8958    0.0000 O   0  0
   -1.6085   -4.2427    0.0000 S   0  0
   -2.3224   -4.6562    0.0000 O   0  5
   -0.7875   -4.2417    0.0000 O   0  0
   -1.2042   -4.9542    0.0000 O   0  0
    4.1030   -0.9545    0.0000 C   0  0
    4.8126   -3.0167    0.0000 C   0  0
    4.8181   -0.5430    0.0000 C   0  0
    4.0946   -3.4251    0.0000 C   0  0
    4.0918   -4.2494    0.0000 C   0  0
    4.8056   -4.6648    0.0000 C   0  0
    5.5237   -4.2500    0.0000 C   0  0
    5.5229   -3.4271    0.0000 C   0  0
   -3.3917   -4.7083    0.0000 Na  0  3
   -4.0500   -1.9000    0.0000 Na  0  3
 21 22  1  0
  4  5  1  0
  4 12  1  6
 21 23  2  0
  5  6  1  0
 21 24  2  0
  8 13  1  0
  9 25  1  0
  6  7  1  0
 25 26  1  0
 12 14  1  0
 25 27  2  0
 25 28  2  0
 13 15  1  0
  6  8  1  1
 10 29  1  0
 15 16  1  0
 29 30  1  0
  2  3  1  0
 29 31  2  0
 15 17  2  0
 29 32  2  0
  2  9  1  1
 16 18  1  0
 18 33  1  0
  2  7  1  0
 19 34  1  0
 18 19  1  0
 33 35  1  0
  3 10  1  1
 34 36  2  0
 19 20  2  0
 36 37  1  0
  3  4  1  0
 37 38  2  0
 11 21  1  0
 38 39  1  0
  7 11  1  6
 39 40  2  0
 40 34  1  0
M  CHG  6   1   1  22  -1  26  -1  30  -1  41   1  42   1
M  END