
  CDK    9/16/09,9:44

 22 25  0  0  0  0  0  0  0  0999 V2000
    3.8056    0.9617    0.0000 C   0  0  0  0  0  0  0  0  0  0  0  0
    3.8056    0.1328    0.0000 N   0  0  0  0  0  0  0  0  0  0  0  0
    4.5195    1.3785    0.0000 C   0  0  0  0  0  0  0  0  0  0  0  0
    5.2379    0.9617    0.0000 C   0  0  0  0  0  0  0  0  0  0  0  0
    6.6671    0.1343    0.0000 C   0  0  0  0  0  0  0  0  0  0  0  0
    6.6647    0.9646    0.0000 C   0  0  0  0  0  0  0  0  0  0  0  0
    5.9497    1.3739    0.0000 C   0  0  0  0  0  0  0  0  0  0  0  0
    5.9506   -0.2785    0.0000 C   0  0  0  0  0  0  0  0  0  0  0  0
    5.2334    0.1332    0.0000 C   0  0  0  0  0  0  0  0  0  0  0  0
    4.5222   -0.2797    0.0000 C   0  0  0  0  0  0  0  0  0  0  0  0
    4.5220   -1.1061    0.0000 C   0  0  0  0  0  0  0  0  0  0  0  0
    5.9566   -1.1032    0.0000 C   0  0  0  0  0  0  0  0  0  0  0  0
    5.2410   -1.5137    0.0000 C   0  0  0  0  0  0  0  0  0  0  0  0
    5.2397   -2.3368    0.0000 C   0  0  0  0  0  0  0  0  0  0  0  0
    5.9532   -2.7504    0.0000 C   0  0  0  0  0  0  0  0  0  0  0  0
    6.6696   -2.3349    0.0000 C   0  0  0  0  0  0  0  0  0  0  0  0
    6.6674   -1.5131    0.0000 C   0  0  0  0  0  0  0  0  0  0  0  0
    7.3806   -1.0999    0.0000 O   0  0  0  0  0  0  0  0  0  0  0  0
    7.3843   -2.7454    0.0000 O   0  0  0  0  0  0  0  0  0  0  0  0
    3.0912   -0.2748    0.0000 C   0  0  0  0  0  0  0  0  0  0  0  0
    3.8056   -0.6869    0.0000 H   0  0  0  0  0  0  0  0  0  0  0  0
    7.3772    1.3789    0.0000 F   0  0  0  0  0  0  0  0  0  0  0  0
  8 12  1  0  0  0  0 
  9 10  1  0  0  0  0 
 10 11  1  0  0  0  0 
 11 13  1  0  0  0  0 
  8  5  2  0  0  0  0 
  1  3  1  0  0  0  0 
 12 13  2  0  0  0  0 
  5  6  1  0  0  0  0 
 13 14  1  0  0  0  0 
  2 10  1  0  0  0  0 
 14 15  2  0  0  0  0 
  6  7  2  0  0  0  0 
 15 16  1  0  0  0  0 
  7  4  1  0  0  0  0 
 16 17  2  0  0  0  0 
 17 12  1  0  0  0  0 
  8  9  1  0  0  0  0 
 17 18  1  0  0  0  0 
  4  3  1  0  0  0  0 
 16 19  1  0  0  0  0 
  1  2  1  0  0  0  0 
  2 20  1  0  0  0  0 
  4  9  2  0  0  0  0 
 10 21  1  6  0  0  0 
  6 22  1  0  0  0  0 
M  END