
  SciTegic06051313522D

 32 35  0  0  0  0            999 V2000
   14.0554   -8.2527    0.0000 S   0  0
   14.7688   -8.6671    0.0000 N   0  0
   14.7672   -9.4912    0.0000 C   0  0
   15.4838   -8.2574    0.0000 C   0  0
   16.1972   -8.6718    0.0000 C   0  0
   16.9123   -8.2621    0.0000 C   0  0
   16.9161   -7.4344    0.0000 C   0  0
   16.2028   -7.0200    0.0000 C   0  0
   15.4856   -7.4333    0.0000 N   0  0
   16.1956   -9.4959    0.0000 C   0  0
   15.4871   -9.9174    0.0000 N   0  0
   16.1856  -11.9924    0.0000 C   0  0
   16.1962  -11.1647    0.0000 C   0  0
   15.4863  -10.7446    0.0000 C   0  0
   14.7657  -11.1519    0.0000 C   0  0
   14.7573  -11.9760    0.0000 C   0  0
   15.4672  -12.3962    0.0000 N   0  0
   16.9664  -12.2544    0.0000 N   0  0
   16.9813  -10.9161    0.0000 C   0  0
   17.4592  -11.5919    0.0000 C   0  0
   13.3398   -8.6632    0.0000 C   0  0
   13.4667   -7.6626    0.0000 O   0  0
   14.4626   -7.5333    0.0000 O   0  0
   14.0504  -10.7341    0.0000 C   0  0
   13.3398  -10.3147    0.0000 N   0  0
   18.2814  -11.6013    0.0000 C   0  0
   18.6848  -12.3223    0.0000 C   0  0
   19.5089  -12.3325    0.0000 C   0  0
   19.9308  -11.6225    0.0000 C   0  0
   19.5224  -10.9007    0.0000 C   0  0
   18.6996  -10.8940    0.0000 C   0  0
   20.7557  -11.6313    0.0000 F   0  0
  1  2  1  0
  2  3  1  0
  4  5  1  0
  5  6  2  0
  6  7  1  0
  7  8  2  0
  8  9  1  0
  4  9  2  0
 12 13  1  0
 13 14  2  0
 14 15  1  0
 15 16  2  0
 16 17  1  0
 12 17  2  0
 19 20  2  0
 18 20  1  0
 12 18  1  0
 13 19  1  0
 11 14  1  0
 10 11  1  0
  5 10  1  0
  2  4  1  0
  1 21  1  0
  1 22  2  0
  1 23  2  0
 24 25  3  0
 15 24  1  0
 26 27  2  0
 27 28  1  0
 28 29  2  0
 29 30  1  0
 30 31  2  0
 31 26  1  0
 20 26  1  0
 29 32  1  0
M  END