
  CDK    6/4/10,11:41

 17 17  0  0  0  0  0  0  0  0999 V2000
    4.7036  -18.9686    0.0000 O   0  0  0  0  0  0  0  0  0  0  0  0
    3.9877  -19.3811    0.0000 C   0  0  0  0  0  0  0  0  0  0  0  0
    3.9877  -20.2061    0.0000 C   0  0  0  0  0  0  0  0  0  0  0  0
    4.7036  -20.6186    0.0000 O   0  0  0  0  0  0  0  0  0  0  0  0
    3.2719  -20.6186    0.0000 C   0  0  0  0  0  0  0  0  0  0  0  0
    3.2719  -21.4436    0.0000 O   0  0  0  0  0  0  0  0  0  0  0  0
    2.5560  -20.2061    0.0000 C   0  0  0  0  0  0  0  0  0  0  0  0
    1.8443  -20.6186    0.0000 O   0  0  0  0  0  0  0  0  0  0  0  0
    2.5560  -19.3811    0.0000 C   0  0  0  0  0  0  0  0  0  0  0  0
    3.2719  -18.9686    0.0000 O   0  0  0  0  0  0  0  0  0  0  0  0
    1.8443  -18.9686    0.0000 C   0  0  0  0  0  0  0  0  0  0  0  0
    1.8443  -18.1436    0.0000 O   0  0  0  0  0  0  0  0  0  0  0  0
    5.4177  -19.3817    0.0000 C   0  0  0  0  0  0  0  0  0  0  0  0
    5.4177  -20.2055    0.0000 C   0  0  0  0  0  0  0  0  0  0  0  0
    2.5574  -21.8561    0.0000 C   0  0  0  0  0  0  0  0  0  0  0  0
    1.8457  -21.4436    0.0000 C   0  0  0  0  0  0  0  0  0  0  0  0
    2.5588  -17.7311    0.0000 C   0  0  0  0  0  0  0  0  0  0  0  0
  5  6  1  1  0  0  0 
  5  7  1  0  0  0  0 
  7  8  1  1  0  0  0 
  7  9  1  0  0  0  0 
  9 10  1  0  0  0  0 
  9 11  1  1  0  0  0 
 11 12  1  0  0  0  0 
  2 10  1  0  0  0  0 
  1 13  1  0  0  0  0 
  2  1  1  1  0  0  0 
  4 14  1  0  0  0  0 
  2  3  1  0  0  0  0 
  6 15  1  0  0  0  0 
  3  4  1  6  0  0  0 
  8 16  1  0  0  0  0 
  3  5  1  0  0  0  0 
 12 17  1  0  0  0  0 
M  END