
  SciTegic01181116592D

 59 64  0  0  0  0            999 V2000
   12.1904  -12.2767    0.0000 C   0  0
   12.6116  -12.9888    0.0000 C   0  0
   12.2055  -13.7075    0.0000 C   0  0
   11.3784  -13.7152    0.0000 C   0  0
   10.9590  -12.9983    0.0000 C   0  0
   11.3675  -12.2826    0.0000 C   0  0
   10.9503  -11.5710    0.0000 N   0  0
   10.1293  -11.4897    0.0000 N   0  0
    9.9529  -10.6838    0.0000 C   0  0
   10.6649  -10.2669    0.0000 C   0  0
   11.2812  -10.8153    0.0000 C   0  0
   12.1016  -10.8169    0.0000 C   0  0
   12.5141  -10.1011    0.0000 C   0  0
   13.3383  -10.1014    0.0000 C   0  0
   13.7511  -10.8167    0.0000 C   0  0
   13.3336  -11.5332    0.0000 C   0  0
   12.5107  -11.5294    0.0000 C   0  0
   10.7461   -9.4459    0.0000 C   0  0
    9.2332  -10.2799    0.0000 C   0  0
    8.5236  -10.7008    0.0000 N   0  0
    9.2235   -9.4549    0.0000 O   0  0
   10.1341  -13.0027    0.0000 Cl  0  0
   12.6246  -14.4181    0.0000 Cl  0  0
   14.5761  -10.8184    0.0000 Cl  0  0
   -3.7196  -12.1767    0.0000 C   0  0
   -4.1407  -12.8888    0.0000 C   0  0
   -3.7346  -13.6075    0.0000 C   0  0
   -2.9075  -13.6152    0.0000 C   0  0
   -2.4882  -12.8983    0.0000 C   0  0
   -2.8967  -12.1826    0.0000 C   0  0
   -2.4794  -11.4710    0.0000 N   0  0
   -1.6585  -11.3897    0.0000 N   0  0
   -1.4820  -10.5838    0.0000 C   0  0
   -2.1940  -10.1669    0.0000 C   0  0
   -2.8104  -10.7153    0.0000 C   0  0
   -3.6308  -10.7169    0.0000 C   0  0
   -4.0433  -10.0011    0.0000 C   0  0
   -4.8675  -10.0014    0.0000 C   0  0
   -5.2803  -10.7167    0.0000 C   0  0
   -4.8628  -11.4332    0.0000 C   0  0
   -4.0399  -11.4294    0.0000 C   0  0
   -2.2753   -9.3459    0.0000 C   0  0
   -0.7624  -10.1799    0.0000 C   0  0
   -0.0528  -10.6008    0.0000 N   0  0
   -0.7526   -9.3549    0.0000 O   0  0
   -1.6632  -12.9027    0.0000 Cl  0  0
   -4.1538  -14.3181    0.0000 Cl  0  0
   -6.1114  -10.7184    0.0000 Cl  0  0
    0.6665  -10.1967    0.0000 C   0  0
    1.3760  -10.6176    0.0000 C   0  0
    2.0953  -10.2135    0.0000 C   0  0
    2.8049  -10.6344    0.0000 C   0  0
    3.5242  -10.2304    0.0000 C   0  0
    4.2337  -10.6513    0.0000 N   0  0
    4.9530  -10.2472    0.0000 C   0  0
    5.6626  -10.6681    0.0000 C   0  0
    6.3818  -10.2641    0.0000 C   0  0
    7.0914  -10.6849    0.0000 C   0  0
    7.8107  -10.2809    0.0000 C   0  0
 28 29  1  0
  1  2  2  0
 29 30  2  0
 30 25  1  0
 31 32  1  0
 14 15  2  0
  3  4  2  0
 15 16  1  0
 16 17  2  0
 32 33  2  0
 33 34  1  0
 34 35  2  0
 35 31  1  0
 30 31  1  0
 17 12  1  0
 11 12  1  0
 36 37  2  0
  4  5  1  0
 37 38  1  0
 10 18  1  0
 38 39  2  0
  2  3  1  0
 39 40  1  0
  9 19  1  0
 40 41  2  0
 41 36  1  0
 35 36  1  0
  8  9  2  0
 34 42  1  0
 19 20  1  0
 33 43  1  0
  9 10  1  0
 43 44  1  0
 19 21  2  0
 43 45  2  0
 10 11  2  0
 29 46  1  0
  5 22  1  0
 27 47  1  0
 11  7  1  0
 39 48  1  0
  3 23  1  0
 44 49  1  0
  6  7  1  0
 49 50  1  0
 15 24  1  0
 50 51  1  0
  5  6  2  0
 51 52  1  0
  6  1  1  0
 52 53  1  0
 25 26  2  0
 53 54  1  0
 12 13  2  0
 54 55  1  0
 26 27  1  0
 55 56  1  0
  7  8  1  0
 56 57  1  0
 27 28  2  0
 57 58  1  0
 13 14  1  0
 58 59  1  0
 59 20  1  0
M  END