
          11280715192D 1   1.00000     0.00000     0

 49 52  0     1  0            999 V2000
    0.0917   -5.1792    0.0000 C   0  0  1  0  0  0           0  0  0
    0.8042   -5.5917    0.0000 C   0  0  1  0  0  0           0  0  0
   -0.6333   -5.5917    0.0000 C   0  0  2  0  0  0           0  0  0
    0.8042   -6.4125    0.0000 C   0  0  2  0  0  0           0  0  0
   -0.6333   -6.4125    0.0000 C   0  0  1  0  0  0           0  0  0
    0.0917   -4.3417    0.0000 C   0  0  0  0  0  0           0  0  0
    0.0917   -6.8292    0.0000 C   0  0  2  0  0  0           0  0  0
    1.5250   -5.1792    0.0000 O   0  0  0  0  0  0           0  0  0
    1.5250   -4.3417    0.0000 C   0  0  2  0  0  0           0  0  0
    1.5250   -6.8292    0.0000 O   0  0  0  0  0  0           0  0  0
    2.2375   -6.4125    0.0000 C   0  0  0  0  0  0           0  0  0
   -1.3458   -6.8292    0.0000 C   0  0  3  0  0  0           0  0  0
    0.8042   -3.9292    0.0000 C   0  0  0  0  0  0           0  0  0
   -1.3458   -5.1792    0.0000 C   0  0  2  0  0  0           0  0  0
    9.3875   -6.4750    0.0000 C   0  0  0  0  0  0           0  0  0
   -0.6333   -3.9292    0.0000 O   0  0  0  0  0  0           0  0  0
    0.1292   -5.9667    0.0000 O   0  0  0  0  0  0           0  0  0
    2.2667   -4.7917    0.0000 C   0  0  0  0  0  0           0  0  0
    2.2375   -5.5750    0.0000 O   0  0  0  0  0  0           0  0  0
   -2.0625   -6.4125    0.0000 C   0  0  0  0  0  0           0  0  0
    9.3792   -5.6500    0.0000 O   0  0  0  0  0  0           0  0  0
   -2.0625   -5.5917    0.0000 C   0  0  0  0  0  0           0  0  0
    0.8042   -4.8125    0.0000 C   0  0  0  0  0  0           0  0  0
    2.9625   -6.8375    0.0000 N   0  0  0  0  0  0           0  0  0
    0.0917   -7.6667    0.0000 O   0  0  0  0  0  0           0  0  0
   -0.6333   -4.7625    0.0000 C   0  0  0  0  0  0           0  0  0
    3.0625   -4.4167    0.0000 C   0  0  0  0  0  0           0  0  0
    8.6792   -6.8917    0.0000 N   0  0  0  0  0  0           0  0  0
   10.1042   -6.8792    0.0000 C   0  0  0  0  0  0           0  0  0
   12.9667   -7.6667    0.0000 C   0  0  0  0  0  0           0  0  0
   11.5375   -6.8667    0.0000 C   0  0  0  0  0  0           0  0  0
   -1.3458   -4.3417    0.0000 O   0  0  0  0  0  0           0  0  0
   10.8167   -6.4542    0.0000 C   0  0  0  0  0  0           0  0  0
   12.9625   -6.8417    0.0000 C   0  0  0  0  0  0           0  0  0
   12.2542   -8.0917    0.0000 C   0  0  0  0  0  0           0  0  0
   12.2417   -6.4417    0.0000 C   0  0  0  0  0  0           0  0  0
   11.5417   -7.6875    0.0000 C   0  0  0  0  0  0           0  0  0
   13.6875   -8.0750    0.0000 O   0  0  0  0  0  0           0  0  0
    2.2500   -3.9250    0.0000 C   0  0  0  0  0  0           0  0  0
   -1.3458   -7.6667    0.0000 C   0  0  0  0  0  0           0  0  0
   -1.9708   -7.2875    0.0000 C   0  0  0  0  0  0           0  0  0
    3.6792   -6.4292    0.0000 C   0  0  0  0  0  0           0  0  0
    7.9667   -6.4792    0.0000 C   0  0  0  0  0  0           0  0  0
    7.2417   -6.8792    0.0000 C   0  0  0  0  0  0           0  0  0
    4.3875   -6.8542    0.0000 C   0  0  0  0  0  0           0  0  0
    6.5375   -6.4625    0.0000 C   0  0  0  0  0  0           0  0  0
    5.1042   -6.4500    0.0000 C   0  0  0  0  0  0           0  0  0
    5.8167   -6.8667    0.0000 C   0  0  0  0  0  0           0  0  0
   -0.6333   -7.2167    0.0000 H   0  0  0  0  0  0           0  0  0
  2  1  1  0     0  0
  3  1  1  0     0  0
  4  2  1  0     0  0
  5  3  1  0     0  0
  6  1  1  0     0  0
  7  5  1  0     0  0
  8  2  1  0     0  0
  9 13  1  0     0  0
  4 10  1  1     0  0
 11 10  1  0     0  0
 12  5  1  0     0  0
 13  6  1  0     0  0
 14  3  1  0     0  0
 15 28  1  0     0  0
 16  6  2  0     0  0
  1 17  1  6     0  0
  9 18  1  6     0  0
 19 11  2  0     0  0
 20 22  1  0     0  0
 21 15  2  0     0  0
 22 14  1  0     0  0
  2 23  1  1     0  0
 24 11  1  0     0  0
  7 25  1  1     0  0
  3 26  1  1     0  0
 27 18  2  0     0  0
 28 43  1  0     0  0
 29 15  1  0     0  0
 30 35  1  0     0  0
 31 33  1  0     0  0
 14 32  1  6     0  0
 33 29  1  0     0  0
 34 36  1  0     0  0
 35 37  2  0     0  0
 36 31  2  0     0  0
 37 31  1  0     0  0
 38 30  1  0     0  0
  9 39  1  1     0  0
 12 40  1  0     0  0
 12 41  1  0     0  0
 42 24  1  0     0  0
 43 44  1  0     0  0
 44 46  1  0     0  0
 45 42  1  0     0  0
 46 48  1  0     0  0
 47 45  1  0     0  0
 48 47  1  0     0  0
  5 49  1  6     0  0
  8  9  1  0     0  0
  4  7  1  0     0  0
 12 20  1  0     0  0
 34 30  2  0     0  0
M  END