
          11280715182D 1   1.00000     0.00000     0

 29 31  0     1  0            999 V2000
   14.2500   -8.7042    0.0000 N   0  0  3  0  0  0           0  0  0
   13.3500   -8.1917    0.0000 C   0  0  0  0  0  0           0  0  0
   15.2917   -8.7042    0.0000 C   0  0  3  0  0  0           0  0  0
   12.4417   -8.7042    0.0000 C   0  0  1  0  0  0           0  0  0
   13.7292   -9.6167    0.0000 C   0  0  0  0  0  0           0  0  0
   10.6417   -8.7042    0.0000 C   0  0  0  0  0  0           0  0  0
   11.5417   -8.1917    0.0000 C   0  0  0  0  0  0           0  0  0
   15.8125   -9.6167    0.0000 C   0  0  0  0  0  0           0  0  0
   15.8125   -7.8042    0.0000 C   0  0  0  0  0  0           0  0  0
   10.6417   -9.7500    0.0000 C   0  0  0  0  0  0           0  0  0
    9.7417   -8.1917    0.0000 C   0  0  0  0  0  0           0  0  0
   14.2500  -10.5167    0.0000 C   0  0  0  0  0  0           0  0  0
   15.2917  -10.5167    0.0000 C   0  0  0  0  0  0           0  0  0
   13.3500   -7.1500    0.0000 O   0  0  0  0  0  0           0  0  0
   12.4417   -9.7500    0.0000 N   0  0  3  0  0  0           0  0  0
    8.8417   -8.7042    0.0000 C   0  0  0  0  0  0           0  0  0
    9.7417  -10.2667    0.0000 C   0  0  0  0  0  0           0  0  0
    8.8417   -9.7500    0.0000 C   0  0  0  0  0  0           0  0  0
   16.8542   -7.8125    0.0000 O   0  0  0  0  0  0           0  0  0
   15.2917   -6.9042    0.0000 O   0  0  0  0  0  0           0  0  0
    7.9417  -10.2667    0.0000 O   0  0  0  0  0  0           0  0  0
    9.7417   -7.1500    0.0000 C   0  0  0  0  0  0           0  0  0
   11.5417  -10.2667    0.0000 C   0  0  0  0  0  0           0  0  0
   15.8125  -11.4167    0.0000 C   0  0  0  0  0  0           0  0  0
   13.7292  -11.4167    0.0000 C   0  0  0  0  0  0           0  0  0
   13.0917  -10.1917    0.0000 C   0  0  0  0  0  0           0  0  0
   11.6375   -9.7500    0.0000 C   0  0  0  0  0  0           0  0  0
   15.2917  -12.3250    0.0000 C   0  0  0  0  0  0           0  0  0
   14.2500  -12.3250    0.0000 C   0  0  0  0  0  0           0  0  0
  2  1  1  0     0  0
  3  1  1  0     0  0
  4  2  1  0     0  0
  5  1  1  0     0  0
  6  7  1  0     0  0
  4  7  1  6     0  0
  8  3  1  0     0  0
  9  3  1  0     0  0
 10  6  1  0     0  0
 11  6  2  0     0  0
 12  5  1  0     0  0
 13 12  2  0     0  0
 14  2  2  0     0  0
 15  4  1  0     0  0
 16 11  1  0     0  0
 17 10  2  0     0  0
 18 16  2  0     0  0
 19  9  2  0     0  0
 20  9  1  0     0  0
 21 18  1  0     0  0
 22 11  1  0     0  0
 23 10  1  0     0  0
 24 13  1  0     0  0
 25 12  1  0     0  0
 26 15  1  0     0  0
 27 15  1  0     0  0
 28 29  1  0     0  0
 29 25  2  0     0  0
 13  8  1  0     0  0
 24 28  2  0     0  0
 18 17  1  0     0  0
M  END