
  SciTegic02101214292D

 43 49  0  0  0  0            999 V2000
    3.2318    2.4672    0.0000 C   0  0
    3.2415    3.2922    0.0000 O   0  0
    4.6990    2.3731    0.0000 N   0  0
    3.9414    2.0464    0.0000 C   0  0
    4.0180    1.2249    0.0000 C   0  0
    4.8229    1.0440    0.0000 C   0  0
    5.2270    0.3247    0.0000 C   0  0
    6.0520    0.3150    0.0000 C   0  0
    6.4728    1.0246    0.0000 C   0  0
    6.0687    1.7439    0.0000 C   0  0
    5.2438    1.7535    0.0000 C   0  0
    2.5126    2.0631    0.0000 N   0  0
    1.8030    2.4840    0.0000 C   0  0
    1.0837    2.0799    0.0000 C   0  0
    1.0741    1.2549    0.0000 N   0  0
    1.7836    0.8341    0.0000 C   0  0
    2.5029    1.2382    0.0000 C   0  0
    0.3548    0.8508    0.0000 C   0  0
   -0.3548    1.2717    0.0000 C   0  0
   -1.0741    0.8676    0.0000 N   0  0
   -1.7836    1.2885    0.0000 C   0  0
   -2.5029    0.8844    0.0000 C   0  0
   -2.5126    0.0594    0.0000 C   0  0
   -1.8030   -0.3614    0.0000 C   0  0
   -1.0837    0.0427    0.0000 C   0  0
   -3.2318   -0.3447    0.0000 N   0  0
   -3.9414    0.0762    0.0000 C   0  0
   -4.6990   -0.2505    0.0000 N   0  0
   -5.2438    0.3690    0.0000 C   0  0
   -4.8229    1.0786    0.0000 C   0  0
   -4.0180    0.8976    0.0000 N   0  0
   -5.2270    1.7978    0.0000 C   0  0
   -6.0520    1.8075    0.0000 C   0  0
   -6.4728    1.0979    0.0000 C   0  0
   -6.0687    0.3787    0.0000 C   0  0
   -4.8799   -1.0554    0.0000 C   0  0
   -4.2734   -1.6146    0.0000 C   0  0
   -4.4543   -2.4195    0.0000 C   0  0
   -3.8478   -2.9787    0.0000 C   0  0
   -3.0602   -2.7330    0.0000 C   0  0
   -2.8792   -1.9281    0.0000 C   0  0
   -3.4858   -1.3689    0.0000 C   0  0
   -2.4536   -3.2922    0.0000 F   0  0
  1  2  2  0
  3  4  1  0
  4  5  2  0
  5  6  1  0
  6  7  1  0
  7  8  2  0
  8  9  1  0
  9 10  2  0
 10 11  1  0
  3 11  1  0
  6 11  2  0
  1  4  1  0
 12 13  1  0
 13 14  1  0
 14 15  1  0
 15 16  1  0
 16 17  1  0
 12 17  1  0
 18 19  1  0
 20 21  1  0
 21 22  1  0
 22 23  1  0
 23 24  1  0
 24 25  1  0
 20 25  1  0
 27 28  1  0
 28 29  1  0
 29 30  1  0
 30 31  1  0
 27 31  2  0
 32 33  1  0
 33 34  2  0
 34 35  1  0
 29 35  2  0
 30 32  2  0
 26 27  1  0
 36 37  1  0
 37 38  1  0
 38 39  2  0
 39 40  1  0
 40 41  2  0
 41 42  1  0
 37 42  2  0
 40 43  1  0
 28 36  1  0
 23 26  1  0
 19 20  1  0
 15 18  1  0
  1 12  1  0
M  END