
          05080814042D 1   1.00000     0.00000     0

 36 41  0     1  0            999 V2000
    7.7685  -10.3155    0.0000 C   0  0  0  0  0  0           0  0  0
    7.0577  -10.7304    0.0000 C   0  0  0  0  0  0           0  0  0
    7.0647  -11.5567    0.0000 C   0  0  0  0  0  0           0  0  0
    7.7786  -11.9602    0.0000 C   0  0  0  0  0  0           0  0  0
    8.4817  -10.7227    0.0000 C   0  0  0  0  0  0           0  0  0
    8.4878  -11.5504    0.0000 C   0  0  0  0  0  0           0  0  0
    9.2036  -11.9567    0.0000 C   0  0  0  0  0  0           0  0  0
    9.1915  -10.3014    0.0000 C   0  0  0  0  0  0           0  0  0
    9.9120  -10.7122    0.0000 C   0  0  2  0  0  0           0  0  0
    9.9165  -11.5418    0.0000 C   0  0  2  0  0  0           0  0  0
   10.6333  -11.9505    0.0000 N   0  0  3  0  0  0           0  0  0
   11.3501  -11.5340    0.0000 C   0  0  0  0  0  0           0  0  0
   11.3456  -10.7044    0.0000 C   0  0  1  0  0  0           0  0  0
   10.6242  -10.2912    0.0000 C   0  0  0  0  0  0           0  0  0
    9.9042   -9.8833    0.0000 H   0  0  0  0  0  0           0  0  0
    9.9083  -12.3667    0.0000 H   0  0  0  0  0  0           0  0  0
   12.0582  -10.2887    0.0000 C   0  0  0  0  0  0           0  0  0
   12.7745  -10.6980    0.0000 N   0  0  3  0  0  0           0  0  0
   12.0545   -9.4637    0.0000 O   0  0  0  0  0  0           0  0  0
   12.7722  -11.5262    0.0000 C   0  0  0  0  0  0           0  0  0
   13.4844  -11.9354    0.0000 C   0  0  0  0  0  0           0  0  0
   14.1995  -11.5232    0.0000 N   0  0  3  0  0  0           0  0  0
   14.1978  -10.6972    0.0000 C   0  0  0  0  0  0           0  0  0
   13.4810  -10.2835    0.0000 C   0  0  0  0  0  0           0  0  0
    7.7645   -9.4905    0.0000 O   0  0  0  0  0  0           0  0  0
    7.0480   -9.0814    0.0000 C   0  0  0  0  0  0           0  0  0
   10.6367  -12.7754    0.0000 C   0  0  0  0  0  0           0  0  0
   14.9142  -11.9352    0.0000 C   0  0  0  0  0  0           0  0  0
   14.9103  -12.7594    0.0000 C   0  0  0  0  0  0           0  0  0
   15.6242  -13.1713    0.0000 C   0  0  0  0  0  0           0  0  0
   16.3394  -12.7583    0.0000 C   0  0  0  0  0  0           0  0  0
   15.7906  -10.7213    0.0000 N   0  0  0  0  0  0           0  0  0
   15.6217  -11.5208    0.0000 C   0  0  0  0  0  0           0  0  0
   16.3309  -11.9279    0.0000 C   0  0  0  0  0  0           0  0  0
   16.9365  -11.3779    0.0000 N   0  0  0  0  0  0           0  0  0
   16.5993  -10.6328    0.0000 S   0  0  0  0  0  0           0  0  0
 13 17  1  1     0  0
  7 10  1  0     0  0
 17 18  1  0     0  0
  9  8  1  0     0  0
 17 19  2  0     0  0
 18 20  1  0     0  0
  9 10  1  0     0  0
  3  4  2  0     0  0
  4  6  1  0     0  0
  5  6  2  0     0  0
  1  2  2  0     0  0
 18 24  1  0     0  0
 20 21  1  0     0  0
 21 22  1  0     0  0
 22 23  1  0     0  0
 23 24  1  0     0  0
  5  1  1  0     0  0
  1 25  1  0     0  0
  2  3  1  0     0  0
 25 26  1  0     0  0
  9 14  1  0     0  0
 11 27  1  0     0  0
 10 11  1  0     0  0
 22 28  1  0     0  0
 11 12  1  0     0  0
 28 29  2  0     0  0
 12 13  1  0     0  0
 29 30  1  0     0  0
 13 14  1  0     0  0
 30 31  2  0     0  0
 31 34  1  0     0  0
 33 28  1  0     0  0
 33 34  1  0     0  0
  9 15  1  6     0  0
  5  8  1  0     0  0
 10 16  1  1     0  0
  6  7  1  0     0  0
 32 33  2  0     0  0
 34 35  2  0     0  0
 35 36  1  0     0  0
 36 32  1  0     0  0
M  END