
          11280715522D 1   1.00000     0.00000     0

 28 31  0     0  0            999 V2000
   -4.8139   -0.4375    0.0000 C   0  0  0  0  0  0           0  0  0
   -4.8151   -1.2648    0.0000 C   0  0  0  0  0  0           0  0  0
   -4.1003   -1.6777    0.0000 C   0  0  0  0  0  0           0  0  0
   -4.1021   -0.0247    0.0000 C   0  0  0  0  0  0           0  0  0
   -3.3867   -0.4338    0.0000 C   0  0  0  0  0  0           0  0  0
   -3.3859   -1.2607    0.0000 C   0  0  0  0  0  0           0  0  0
   -2.6706   -1.6716    0.0000 N   0  0  0  0  0  0           0  0  0
   -1.9556   -1.2569    0.0000 C   0  0  0  0  0  0           0  0  0
   -1.9604   -0.4269    0.0000 C   0  0  0  0  0  0           0  0  0
   -2.6763   -0.0197    0.0000 N   0  0  0  0  0  0           0  0  0
   -1.2395   -1.6666    0.0000 O   0  0  0  0  0  0           0  0  0
   -1.2484   -0.0101    0.0000 C   0  0  0  0  0  0           0  0  0
   -0.5315   -0.4182    0.0000 N   0  0  0  0  0  0           0  0  0
   -1.2534    0.8149    0.0000 O   0  0  0  0  0  0           0  0  0
    0.1805   -0.0014    0.0000 C   0  0  0  0  0  0           0  0  0
    0.8952   -0.4129    0.0000 C   0  0  0  0  0  0           0  0  0
    1.6067    0.0032    0.0000 C   0  0  0  0  0  0           0  0  0
    1.6021    0.8291    0.0000 C   0  0  0  0  0  0           0  0  0
    0.8801    1.2370    0.0000 C   0  0  0  0  0  0           0  0  0
    0.1716    0.8185    0.0000 C   0  0  0  0  0  0           0  0  0
    2.3135    1.2469    0.0000 O   0  0  0  0  0  0           0  0  0
   -1.2363   -2.4916    0.0000 C   0  0  0  0  0  0           0  0  0
    0.8722    2.0620    0.0000 C   0  0  0  0  0  0           0  0  0
    1.5826    2.4814    0.0000 N   0  0  3  0  0  0           0  0  0
    2.3350    2.1524    0.0000 C   0  0  0  0  0  0           0  0  0
    2.8811    2.7708    0.0000 C   0  0  0  0  0  0           0  0  0
    2.4617    3.4813    0.0000 C   0  0  0  0  0  0           0  0  0
    1.6565    3.3019    0.0000 C   0  0  0  0  0  0           0  0  0
  3  6  1  0     0  0
 12 14  2  0     0  0
  6  7  2  0     0  0
 13 15  1  0     0  0
  1  2  1  0     0  0
 15 16  2  0     0  0
  7  8  1  0     0  0
 16 17  1  0     0  0
  5  4  1  0     0  0
 17 18  2  0     0  0
  8  9  2  0     0  0
 18 19  1  0     0  0
  4  1  2  0     0  0
 19 20  2  0     0  0
 20 15  1  0     0  0
  9 10  1  0     0  0
 18 21  1  0     0  0
 10  5  2  0     0  0
 11 22  1  0     0  0
 19 23  1  0     0  0
  8 11  1  0     0  0
 23 24  1  0     0  0
 24 25  1  0     0  0
  2  3  2  0     0  0
  9 12  1  0     0  0
  5  6  1  0     0  0
 12 13  1  0     0  0
 25 26  1  0     0  0
 26 27  1  0     0  0
 27 28  1  0     0  0
 28 24  1  0     0  0
M  END