
  SciTegic08161214392D

 49 54  0  0  0  0            999 V2000
   11.5737   -8.6577    0.0000 C   0  0
   10.3612   -7.9577    0.0000 C   0  0
   10.3612   -6.5577    0.0000 C   0  0
   11.5737   -5.8577    0.0000 C   0  0
   12.7861   -6.5577    0.0000 C   0  0
   12.7861   -7.9577    0.0000 C   0  0
   11.5737   -4.4577    0.0000 C   0  0
   10.7214   -3.3470    0.0000 C   0  0
   11.9338   -2.6470    0.0000 C   0  0
    9.8691   -4.4577    0.0000 C   0  0
    8.4811   -4.2749    0.0000 C   0  0
    7.9454   -2.9815    0.0000 N   0  0
    8.7976   -1.8708    0.0000 C   0  0
   10.1856   -2.0536    0.0000 C   0  0
   13.1463   -3.3470    0.0000 C   0  0
   14.3587   -2.6470    0.0000 C   0  0
   11.9338   -1.2470    0.0000 O   0  0
   15.5711   -3.3470    0.0000 C   0  0
   16.7836   -2.6470    0.0000 O   0  0
   15.5711   -4.7470    0.0000 O   0  0
   14.3587   -1.2470    0.0000 O   0  0
    6.5573   -2.7988    0.0000 C   0  0
   11.5737  -10.0577    0.0000 Cl  0  0
    6.0215   -1.5053    0.0000 C   0  0
    5.7051   -3.9094    0.0000 O   0  0
    4.6335   -1.3226    0.0000 C   0  0
    4.0977   -0.0292    0.0000 C   0  0
    4.9499    1.0815    0.0000 C   0  0
    6.3380    0.8988    0.0000 C   0  0
    6.8738   -0.3946    0.0000 C   0  0
    4.4142    2.3749    0.0000 C   0  0
    3.0262    2.5577    0.0000 C   0  0
    2.4904    3.8511    0.0000 C   0  0
    3.3427    4.9618    0.0000 O   0  0
    4.7307    4.7790    0.0000 C   0  0
    5.2665    3.4856    0.0000 C   0  0
    5.5830    5.8897    0.0000 C   0  0
    6.9710    5.7070    0.0000 C   0  0
    7.5067    4.4136    0.0000 C   0  0
    6.6545    3.3029    0.0000 C   0  0
    2.1739    1.4470    0.0000 C   0  0
    0.7859    1.6297    0.0000 C   0  0
    0.2501    2.9231    0.0000 C   0  0
    1.1024    4.0338    0.0000 C   0  0
    7.8232    6.8177    0.0000 O   0  0
   -1.1379    3.1059    0.0000 O   0  0
    2.6977   -0.0292    0.0000 C   0  0
    1.4043    0.5065    0.0000 O   0  0
    2.8804   -1.4173    0.0000 O   0  0
  1  2  2  0
  2  3  1  0
  3  4  2  0
  4  5  1  0
  6  1  1  0
  5  6  2  0
  4  7  1  0
  7  8  1  0
  8  9  1  0
  8 10  1  0
 10 11  1  0
 11 12  1  0
 12 13  1  0
 14  8  1  0
 13 14  1  0
  9 15  1  0
 15 16  2  0
  9 17  2  0
 16 18  1  0
 18 19  1  0
 18 20  2  0
 16 21  1  0
 12 22  1  0
  1 23  1  0
 22 24  1  0
 22 25  2  0
 24 26  2  0
 26 27  1  0
 27 28  2  0
 28 29  1  0
 30 24  1  0
 29 30  2  0
 28 31  1  0
 31 32  2  0
 32 33  1  0
 33 34  1  0
 34 35  1  0
 36 31  1  0
 35 36  2  0
 35 37  1  0
 37 38  2  0
 38 39  1  0
 40 36  1  0
 39 40  2  0
 32 41  1  0
 41 42  2  0
 43 42  1  0
 44 33  2  0
 43 44  1  0
 38 45  1  0
 43 46  2  0
 27 47  1  0
 47 48  1  0
 47 49  2  0
M  END