
          11280715122D 1   1.00000     0.00000     0

 27 29  0     0  0            999 V2000
   -1.0583   -1.0417    0.0000 C   0  0  0  0  0  0           0  0  0
   -1.0583   -0.4417    0.0000 C   0  0  0  0  0  0           0  0  0
   -1.5750   -1.3417    0.0000 N   0  0  3  0  0  0           0  0  0
   -2.0875   -0.4417    0.0000 N   0  0  3  0  0  0           0  0  0
   -2.0875   -1.0417    0.0000 C   0  0  0  0  0  0           0  0  0
   -0.4833   -1.2250    0.0000 N   0  0  0  0  0  0           0  0  0
   -1.5750   -0.1417    0.0000 C   0  0  0  0  0  0           0  0  0
   -0.4833   -0.2542    0.0000 N   0  0  0  0  0  0           0  0  0
   -0.1333   -0.7417    0.0000 C   0  0  0  0  0  0           0  0  0
    0.4667   -0.7417    0.0000 C   0  0  3  0  0  0           0  0  0
   -2.6083   -1.3375    0.0000 O   0  0  0  0  0  0           0  0  0
   -1.5833    0.4583    0.0000 O   0  0  0  0  0  0           0  0  0
    2.4250   -0.3292    0.0000 C   0  0  0  0  0  0           0  0  0
    0.8167   -0.2542    0.0000 C   0  0  0  0  0  0           0  0  0
    1.8750   -0.0875    0.0000 O   0  0  0  0  0  0           0  0  0
    1.3917   -0.4417    0.0000 C   0  0  3  0  0  0           0  0  0
   -1.5750   -1.9417    0.0000 C   0  0  0  0  0  0           0  0  0
    2.4875   -0.9292    0.0000 O   0  0  0  0  0  0           0  0  0
   -2.6083   -0.1417    0.0000 C   0  0  0  0  0  0           0  0  0
    0.8167   -1.2250    0.0000 C   0  0  0  0  0  0           0  0  0
    1.3917   -1.0417    0.0000 C   0  0  0  0  0  0           0  0  0
    3.4542   -0.2167    0.0000 Br  0  0  0  0  0  0           0  0  0
    2.9042    0.0208    0.0000 C   0  0  0  0  0  0           0  0  0
   -2.0958   -2.2375    0.0000 C   0  0  0  0  0  0           0  0  0
   -2.6125    0.4583    0.0000 C   0  0  0  0  0  0           0  0  0
   -2.0958   -2.8375    0.0000 C   0  0  0  0  0  0           0  0  0
   -3.1333    0.7583    0.0000 C   0  0  0  0  0  0           0  0  0
  2  1  2  0     0  0
  3  1  1  0     0  0
  4  5  1  0     0  0
  5  3  1  0     0  0
  6  1  1  0     0  0
  7  2  1  0     0  0
  8  2  1  0     0  0
  9  6  1  0     0  0
 10  9  1  0     0  0
 11  5  2  0     0  0
 12  7  2  0     0  0
 13 15  1  0     0  0
 14 10  1  0     0  0
 15 16  1  0     0  0
 16 14  1  0     0  0
 17  3  1  0     0  0
 18 13  2  0     0  0
 19  4  1  0     0  0
 20 10  1  0     0  0
 21 20  1  0     0  0
 22 23  1  0     0  0
 23 13  1  0     0  0
 24 17  1  0     0  0
 25 19  1  0     0  0
 26 24  1  0     0  0
 27 25  1  0     0  0
  8  9  2  0     0  0
  4  7  1  0     0  0
 16 21  1  0     0  0
M  END