
  SciTegic04021211102D

 25 28  0  0  0  0            999 V2000
   16.8080  -21.4529    0.0000 C   0  0
   17.2157  -22.1665    0.0000 C   0  0
   18.0357  -22.1693    0.0000 C   0  0
   18.4489  -21.4592    0.0000 C   0  0
   18.0363  -20.7448    0.0000 C   0  0
   17.2177  -20.7456    0.0000 C   0  0
   19.2755  -21.4593    0.0000 C   0  0
   19.6874  -22.1782    0.0000 C   0  0
   20.5140  -22.1799    0.0000 C   0  0
   20.9298  -21.4635    0.0000 C   0  0
   19.6875  -20.7457    0.0000 C   0  0
   20.5115  -20.7446    0.0000 C   0  0
   20.9208  -20.0315    0.0000 C   0  0
   20.5072  -19.3191    0.0000 N   0  0
   19.6801  -19.3241    0.0000 N   0  0
   19.2745  -20.0377    0.0000 C   0  0
   21.7483  -20.0295    0.0000 N   0  0
   22.1603  -19.3119    0.0000 C   0  0
   22.9879  -19.3118    0.0000 C   0  0
   23.3998  -18.5951    0.0000 C   0  0
   22.9843  -17.8786    0.0000 C   0  0
   22.1526  -17.8833    0.0000 C   0  0
   21.7444  -18.6006    0.0000 C   0  0
   15.9807  -21.4505    0.0000 O   0  0
   24.2273  -18.5935    0.0000 O   0  0
 11 12  2  0
  6  1  1  0
 12 13  1  0
  1  2  2  0
 13 14  2  0
  3  4  2  0
 14 15  1  0
  7  8  2  0
 15 16  2  0
 16 11  1  0
 13 17  1  0
  8  9  1  0
 17 18  1  0
  4  5  1  0
 18 19  2  0
  9 10  2  0
 19 20  1  0
 10 12  1  0
 20 21  2  0
 11  7  1  0
 21 22  1  0
  4  7  1  0
 22 23  2  0
 23 18  1  0
  2  3  1  0
  1 24  1  0
  5  6  2  0
 20 25  1  0
M  END