
  SciTegic12011114592D

 27 29  0  0  0  0            999 V2000
    9.5833  -14.6167    0.0000 C   0  0
    8.8777  -15.8583    0.0000 C   0  0
    8.8766  -16.6857    0.0000 C   0  0
    9.5914  -17.0985    0.0000 C   0  0
    9.5896  -15.4455    0.0000 C   0  0
   10.3050  -15.8547    0.0000 C   0  0
   10.3038  -16.6877    0.0000 C   0  0
   11.0207  -17.1030    0.0000 C   0  0
   11.7433  -16.6898    0.0000 C   0  0
   11.7445  -15.8567    0.0000 C   0  0
   11.0231  -15.4369    0.0000 O   0  0
   11.0183  -17.9280    0.0000 O   0  0
   12.4583  -15.4486    0.0000 C   0  0
   13.1720  -15.8645    0.0000 C   0  0
   13.8870  -15.4545    0.0000 C   0  0
   13.8895  -14.6286    0.0000 C   0  0
   13.1710  -14.2145    0.0000 C   0  0
   12.4590  -14.6270    0.0000 C   0  0
    9.5911  -17.9235    0.0000 O   0  0
    8.1632  -15.4460    0.0000 O   0  0
   10.3004  -14.2059    0.0000 C   0  0
   11.0134  -14.6208    0.0000 C   0  0
   10.3031  -13.3809    0.0000 C   0  0
    8.1618  -17.0976    0.0000 C   0  0
    8.1611  -17.9226    0.0000 C   0  0
    7.4463  -18.3345    0.0000 C   0  0
    8.8753  -18.3357    0.0000 C   0  0
 13 14  2  0
  4  7  2  0
 14 15  1  0
  2  3  2  0
 15 16  2  0
  6  5  2  0
 16 17  1  0
  5  2  1  0
 17 18  2  0
 18 13  1  0
 10 13  1  0
  6 11  1  0
  4 19  1  0
  7  8  1  0
  2 20  1  0
  5  1  1  0
  8  9  1  0
  1 21  2  0
  9 10  2  0
 21 22  1  0
 10 11  1  0
 21 23  1  0
  6  7  1  0
  3 24  1  0
  8 12  2  0
 24 25  2  0
 25 26  1  0
  3  4  1  0
 25 27  1  0
M  END