
  SciTegic11201309402D

 71 74  0  0  1  0            999 V2000
    2.0375    2.3208    0.0000 N   0  0
    3.4542    1.4958    0.0000 C   0  0
    3.7792   -1.5917    0.0000 N   0  0
    3.9042    0.8083    0.0000 N   0  0
   -0.2750    1.6958    0.0000 N   0  0
    1.2125    2.3583    0.0000 C   0  0
    4.0750   -0.8167    0.0000 C   0  0
   -0.8000    1.0458    0.0000 C   0  0
    3.2625   -2.2292    0.0000 C   0  0  1  0  0  0
    2.8125    2.0208    0.0000 C   0  0  2  0  0  0
    4.1250    0.0083    0.0000 C   0  0  1  0  0  0
   -1.1375   -0.5417    0.0000 N   0  0
    0.4167    2.1458    0.0000 C   0  0  1  0  0  0
   -0.9250   -1.3417    0.0000 C   0  0
   -1.0958    0.2833    0.0000 C   0  0  1  0  0  0
    4.9417    0.0958    0.0000 C   0  0
    3.8125   -2.8417    0.0000 C   0  0
    4.8792   -6.5792    0.0000 C   0  0
   -0.4750   -2.0417    0.0000 C   0  0
    1.7667   -2.8917    0.0000 S   0  0
    0.9667   -2.9042    0.0000 S   0  0
    7.3542   -3.7292    0.0000 C   0  0
    5.6250   -0.3917    0.0000 C   0  0
    0.1667   -2.5542    0.0000 C   0  0
    5.2917   -7.3000    0.0000 N   0  0
    4.0750    2.0583    0.0000 O   0  0
    1.0625    2.9708    0.0000 O   0  0
   -1.5125    1.4708    0.0000 O   0  0
    4.8875   -0.9917    0.0000 O   0  0
    2.5667   -2.6792    0.0000 C   0  0
   -1.9083    0.4583    0.0000 C   0  0
    0.0750    2.8958    0.0000 C   0  0
   -1.6833   -1.6792    0.0000 O   0  0
    3.5542   -3.6292    0.0000 O   0  0
    7.7625   -3.0167    0.0000 O   0  0
    5.4375   -1.0167    0.0000 O   0  0
    5.2917   -5.8667    0.0000 N   0  0
    4.6250   -2.6667    0.0000 N   0  0
    6.5375   -3.7292    0.0000 N   0  0
    7.7667   -4.4417    0.0000 C   0  0
    4.0542   -6.5792    0.0000 N   0  0
    3.2250    2.7333    0.0000 C   0  0
    6.4500   -0.3042    0.0000 N   0  0
   -2.4583   -0.1667    0.0000 C   0  0
   -3.5625   -1.3917    0.0000 C   0  0
    8.5875   -4.4417    0.0000 N   0  0
    0.5625    3.5708    0.0000 C   0  0
   -2.2000   -0.9542    0.0000 C   0  0
   -3.2625    0.0083    0.0000 C   0  0
   -2.7500   -1.5667    0.0000 C   0  0
   -3.8208   -0.6042    0.0000 C   0  0
   -4.1125   -2.0042    0.0000 O   0  0
   -0.6000   -2.4542    0.0000 C   0  0
    0.6375   -3.1667    0.0000 C   0  0
    5.9792   -3.1167    0.0000 C   0  0
    5.1750   -3.2917    0.0000 C   0  0
    6.1167   -5.8667    0.0000 C   0  0
    7.3542   -5.1542    0.0000 C   0  0
    4.0542    2.7333    0.0000 C   0  0
    2.8125    3.4583    0.0000 C   0  0
   -4.9250   -1.8292    0.0000 C   0  0
    1.3875    3.4833    0.0000 C   0  0
    0.2250    4.3167    0.0000 C   0  0
    6.5292   -5.1542    0.0000 C   0  0
   -5.4750   -2.4417    0.0000 C   0  0
    0.2250   -3.8917    0.0000 C   0  0
   -1.0125   -3.1667    0.0000 C   0  0
    0.7125    4.9917    0.0000 C   0  0
    1.8750    4.1542    0.0000 C   0  0
    1.5375    4.9042    0.0000 C   0  0
   -0.6000   -3.8917    0.0000 C   0  0
  2 10  1  0
  3  7  1  0
  4  2  1  0
  5 13  1  0
  6  1  1  0
  7 11  1  0
  8  5  1  0
  9  3  1  0
 10  1  1  0
 11  4  1  0
 12 15  1  0
 13  6  1  0
 14 12  1  0
 15  8  1  0
 11 16  1  6
  9 17  1  1
 18 37  2  0
 19 14  1  0
 20 30  1  0
 21 20  1  0
 22 39  1  0
 23 16  1  0
 24 19  1  0
 25 18  1  0
 26  2  2  0
 27  6  2  0
 28  8  2  0
 29  7  2  0
  9 30  1  0
 15 31  1  1
 13 32  1  6
 33 14  2  0
 34 17  2  0
 35 22  2  0
 36 23  2  0
 37 57  1  0
 38 17  1  0
 39 55  1  0
 40 22  1  0
 41 18  1  0
 10 42  1  1
 43 23  1  0
 44 31  1  0
 45 51  2  0
 46 40  1  0
 47 32  1  0
 48 44  1  0
 49 44  2  0
 50 48  2  0
 51 49  1  0
 52 45  1  0
 53 24  1  0
 54 24  1  0
 55 56  1  0
 56 38  1  0
 57 64  1  0
 58 40  1  0
 59 42  1  0
 60 42  1  0
 61 52  1  0
 62 47  1  0
 63 47  2  0
 64 58  1  0
 65 61  1  0
 66 54  1  0
 67 53  1  0
 68 63  1  0
 69 62  2  0
 70 68  2  0
 71 66  1  0
 69 70  1  0
 50 45  1  0
 24 21  1  0
 67 71  1  0
M  END