
          11280715162D 1   1.00000     0.00000     0

 26 28  0     0  0            999 V2000
    0.4292   -6.7042    0.0000 C   0  0  0  0  0  0           0  0  0
   -0.0708   -7.3625    0.0000 N   0  0  3  0  0  0           0  0  0
   -0.8333   -7.0792    0.0000 N   0  0  0  0  0  0           0  0  0
   -0.0333   -6.0292    0.0000 C   0  0  0  0  0  0           0  0  0
   -0.8083   -6.2542    0.0000 C   0  0  0  0  0  0           0  0  0
    1.2250   -6.9167    0.0000 N   0  0  0  0  0  0           0  0  0
    1.8042   -6.3292    0.0000 C   0  0  0  0  0  0           0  0  0
   -1.4583   -5.7542    0.0000 C   0  0  3  0  0  0           0  0  0
    2.6000   -6.5417    0.0000 N   0  0  0  0  0  0           0  0  0
    1.5875   -5.5375    0.0000 S   0  0  0  0  0  0           0  0  0
    0.1625   -8.1500    0.0000 C   0  0  0  0  0  0           0  0  0
    3.1792   -5.9542    0.0000 C   0  0  0  0  0  0           0  0  0
    4.3417   -4.7917    0.0000 C   0  0  0  0  0  0           0  0  0
    4.9250   -4.2042    0.0000 Cl  0  0  0  0  0  0           0  0  0
    2.9625   -5.1667    0.0000 C   0  0  0  0  0  0           0  0  0
    3.9792   -6.1750    0.0000 C   0  0  0  0  0  0           0  0  0
    4.5542   -5.5917    0.0000 C   0  0  0  0  0  0           0  0  0
    3.5417   -4.5792    0.0000 C   0  0  0  0  0  0           0  0  0
   -2.1958   -5.4000    0.0000 C   0  0  0  0  0  0           0  0  0
   -1.3458   -4.9292    0.0000 C   0  0  0  0  0  0           0  0  0
   -2.2083   -6.0625    0.0000 C   0  0  0  0  0  0           0  0  0
    0.9417   -8.3417    0.0000 C   0  0  0  0  0  0           0  0  0
   -0.4000   -8.7417    0.0000 C   0  0  0  0  0  0           0  0  0
   -0.1708   -9.5375    0.0000 C   0  0  0  0  0  0           0  0  0
    1.1792   -9.1375    0.0000 C   0  0  0  0  0  0           0  0  0
    0.6167   -9.7375    0.0000 C   0  0  0  0  0  0           0  0  0
  2  1  1  0     0  0
  3  2  1  0     0  0
  4  1  2  0     0  0
  5  4  1  0     0  0
  6  1  1  0     0  0
  7  6  2  0     0  0
  8  5  1  0     0  0
  9  7  1  0     0  0
 10  7  1  0     0  0
 11  2  1  0     0  0
 12  9  1  0     0  0
 13 17  1  0     0  0
 14 13  1  0     0  0
 15 12  2  0     0  0
 16 12  1  0     0  0
 17 16  2  0     0  0
 18 15  1  0     0  0
 19  8  1  0     0  0
 20  8  1  0     0  0
 21  8  1  0     0  0
 22 11  1  0     0  0
 23 11  2  0     0  0
 24 23  1  0     0  0
 25 22  2  0     0  0
 26 24  2  0     0  0
  5  3  2  0     0  0
 25 26  1  0     0  0
 18 13  2  0     0  0
M  END