
  SciTegic04201611242D

 47 50  0  0  0  0            999 V2000
    2.6000    0.0000    0.0000 N   0  3
    1.3000    0.7500    0.0000 C   0  0
    3.9000    0.7500    0.0000 C   0  0
    2.6031   -1.5008    0.0000 C   0  0
    0.2606    0.1503    0.0000 C   0  0
    4.9394    0.1503    0.0000 C   0  0
    3.6432   -2.0994    0.0000 C   0  0
   24.3155   -3.8367    0.0000 F   0  0
    8.7399    3.7207    0.0000 C   0  0
   10.2265    3.9945    0.0000 N   0  0
    8.0174    5.0180    0.0000 N   0  0
   10.4084    5.4994    0.0000 C   0  0  1  0  0  0
    9.0572    6.1153    0.0000 C   0  0  2  0  0  0
   10.6972    7.8929    0.0000 S   0  0
   11.4240    6.5733    0.0000 C   0  0  1  0  0  0
    9.2402    7.5918    0.0000 C   0  0
    8.2285    2.6351    0.0000 O   0  0
   12.9117    6.3752    0.0000 C   0  0
    8.1528    6.5421    0.0000 H   0  0
   11.3136    5.0744    0.0000 H   0  0
   13.4848    4.9881    0.0000 C   0  0
   14.9725    4.7900    0.0000 C   0  0
   15.5457    3.4029    0.0000 C   0  0
   17.0334    3.2048    0.0000 C   0  0
   17.6065    1.8177    0.0000 N   0  5
   17.7650    4.1560    0.0000 O   0  0
   19.0942    1.6196    0.0000 S   0  0
   19.6674    0.2326    0.0000 O   0  0
   18.6365    2.7289    0.0000 O   0  0
   19.8258    2.5708    0.0000 O   0  0
   21.1551    0.0345    0.0000 C   0  0
   21.7272   -1.3502    0.0000 C   0  0  2  0  0  0
   23.1848   -1.7047    0.0000 C   0  0  2  0  0  0
   23.2981   -3.2004    0.0000 C   0  0  1  0  0  0
   21.9197   -3.7468    0.0000 C   0  0  1  0  0  0
   20.9398   -2.6269    0.0000 O   0  0
   21.4586   -5.1750    0.0000 N   0  0
   21.4586   -7.5816    0.0000 N   0  0
   22.3337   -6.3601    0.0000 C   0  0
   20.0365   -7.1258    0.0000 C   0  0
   20.0365   -5.6308    0.0000 C   0  0
   18.7421   -4.8650    0.0000 N   0  0
   17.4294   -5.6308    0.0000 C   0  0
   17.4294   -7.1258    0.0000 N   0  0
   18.7421   -7.8915    0.0000 C   0  0
   18.7457   -9.0915    0.0000 N   0  0
   24.0995   -0.9280    0.0000 O   0  0
  1  2  1  0
  1  3  1  0
  1  4  1  0
  2  5  1  0
  3  6  1  0
  4  7  1  0
 10  9  1  0
 11  9  1  0
 12 10  1  0
 13 11  1  0
 14 16  1  0
 15 12  1  0
 16 13  1  0
 17  9  2  0
 15 18  1  1
 13 19  1  6
 12 20  1  6
 13 12  1  0
 14 15  1  0
 18 21  1  0
 21 22  1  0
 22 23  1  0
 23 24  1  0
 24 25  1  0
 24 26  2  0
 25 27  1  0
 27 28  1  0
 27 29  2  0
 27 30  2  0
 28 31  1  0
 32 31  1  6
 32 33  1  0
 33 34  1  0
 34 35  1  0
 35 36  1  0
 36 32  1  0
 35 37  1  6
 37 41  1  0
 40 38  1  0
 38 39  2  0
 39 37  1  0
 40 41  2  0
 40 45  1  0
 41 42  1  0
 42 43  2  0
 43 44  1  0
 44 45  2  0
 45 46  1  0
 33 47  1  1
 34  8  1  6
M  CHG  2   1   1  25  -1
M  END