
  CDK    9/16/09,10:2

 80 85  0  0  0  0  0  0  0  0999 V2000
    9.5774   -6.2551    0.0000 C   0  0  0  0  0  0  0  0  0  0  0  0
   10.2919   -7.4943    0.0000 O   0  0  0  0  0  0  0  0  0  0  0  0
   10.2924   -6.6701    0.0000 C   0  0  0  0  0  0  0  0  0  0  0  0
    9.5778   -5.4295    0.0000 C   0  0  0  0  0  0  0  0  0  0  0  0
   10.2940   -5.0149    0.0000 C   0  0  0  0  0  0  0  0  0  0  0  0
   10.2945   -4.1919    0.0000 C   0  0  0  0  0  0  0  0  0  0  0  0
   11.0067   -3.7795    0.0000 O   0  0  0  0  0  0  0  0  0  0  0  0
   11.7189   -6.6686    0.0000 C   0  0  0  0  0  0  0  0  0  0  0  0
   12.4275   -5.4353    0.0000 O   0  0  0  0  0  0  0  0  0  0  0  0
   12.4279   -6.2580    0.0000 C   0  0  0  0  0  0  0  0  0  0  0  0
   13.8583   -6.2560    0.0000 C   0  0  0  0  0  0  0  0  0  0  0  0
   14.5725   -7.4984    0.0000 O   0  0  0  0  0  0  0  0  0  0  0  0
   14.5769   -6.6700    0.0000 C   0  0  0  0  0  0  0  0  0  0  0  0
   13.7778   -5.4373    0.0000 C   0  0  0  0  0  0  0  0  0  0  0  0
   14.4538   -4.9536    0.0000 C   0  0  0  0  0  0  0  0  0  0  0  0
   14.3745   -4.1348    0.0000 C   0  0  0  0  0  0  0  0  0  0  0  0
   15.2020   -5.3014    0.0000 C   0  0  0  0  0  0  0  0  0  0  0  0
   16.0025   -6.6722    0.0000 C   0  0  0  0  0  0  0  0  0  0  0  0
   16.7016   -5.4404    0.0000 O   0  0  0  0  0  0  0  0  0  0  0  0
   16.7118   -6.2615    0.0000 C   0  0  0  0  0  0  0  0  0  0  0  0
   16.0054   -7.4965    0.0000 C   0  0  0  0  0  0  0  0  0  0  0  0
    7.4342   -6.6647    0.0000 C   0  0  0  0  0  0  0  0  0  0  0  0
    8.1480   -6.2514    0.0000 C   0  0  0  0  0  0  0  0  0  0  0  0
    8.1485   -5.4254    0.0000 O   0  0  0  0  0  0  0  0  0  0  0  0
    7.4337   -7.4920    0.0000 C   0  0  0  0  0  0  0  0  0  0  0  0
    8.1471   -7.9015    0.0000 C   0  0  0  0  0  0  0  0  0  0  0  0
    8.1391   -8.7294    0.0000 C   0  0  0  0  0  0  0  0  0  0  0  0
    8.8620   -9.1426    0.0000 C   0  0  0  0  0  0  0  0  0  0  0  0
    9.5756   -8.7290    0.0000 C   0  0  0  0  0  0  0  0  0  0  0  0
    9.5711   -7.8984    0.0000 C   0  0  0  0  0  0  0  0  0  0  0  0
    8.8550   -7.4899    0.0000 C   0  0  0  0  0  0  0  0  0  0  0  0
   10.2904   -9.1397    0.0000 O   0  0  0  0  0  0  0  0  0  0  0  0
   10.2899   -9.9660    0.0000 P   0  0  0  0  0  0  0  0  0  0  0  0
    9.4678   -9.9656    0.0000 O   0  0  0  0  0  0  0  0  0  0  0  0
    8.8616   -6.6660    0.0000 N   0  0  0  0  0  0  0  0  0  0  0  0
    9.5815   -3.7775    0.0000 N   0  0  0  0  0  0  0  0  0  0  0  0
   11.0052   -6.2540    0.0000 N   0  0  0  0  0  0  0  0  0  0  0  0
   13.1440   -6.6695    0.0000 N   0  0  0  0  0  0  0  0  0  0  0  0
   15.2911   -6.2564    0.0000 N   0  0  0  0  0  0  0  0  0  0  0  0
   16.7243   -7.9136    0.0000 O   0  0  0  0  0  0  0  0  0  0  0  0
   17.4334   -6.6747    0.0000 N   0  0  0  0  0  0  0  0  0  0  0  0
    6.7205   -6.2500    0.0000 N   0  0  0  0  0  0  0  0  0  0  0  0
   10.2899  -10.7903    0.0000 O   0  0  0  0  0  0  0  0  0  0  0  0
   11.1214   -9.9663    0.0000 O   0  0  0  0  0  0  0  0  0  0  0  0
    6.7191   -5.4271    0.0000 C   0  0  0  0  0  0  0  0  0  0  0  0
    7.4351   -5.0165    0.0000 O   0  0  0  0  0  0  0  0  0  0  0  0
    6.5461   -2.0019    0.0000 C   0  0  0  0  0  0  0  0  0  0  0  0
    6.4314   -1.1858    0.0000 C   0  0  0  0  0  0  0  0  0  0  0  0
    5.6666   -0.8773    0.0000 C   0  0  0  0  0  0  0  0  0  0  0  0
    5.0138   -1.3786    0.0000 C   0  0  0  0  0  0  0  0  0  0  0  0
    4.2494   -1.0702    0.0000 C   0  0  0  0  0  0  0  0  0  0  0  0
    5.5640   -0.0518    0.0000 O   0  0  0  0  0  0  0  0  0  0  0  0
    4.7930    0.2596    0.0000 C   0  0  0  0  0  0  0  0  0  0  0  0
    4.1411   -0.2446    0.0000 C   0  0  0  0  0  0  0  0  0  0  0  0
    3.3790    0.0649    0.0000 C   0  0  0  0  0  0  0  0  0  0  0  0
    3.2680    0.8845    0.0000 C   0  0  0  0  0  0  0  0  0  0  0  0
    3.9224    1.3869    0.0000 C   0  0  0  0  0  0  0  0  0  0  0  0
    4.6843    1.0715    0.0000 C   0  0  0  0  0  0  0  0  0  0  0  0
    7.3073   -2.3138    0.0000 O   0  0  0  0  0  0  0  0  0  0  0  0
    3.2985   -1.5713    0.0000 C   0  0  0  0  0  0  0  0  0  0  0  0
    3.2663   -2.4018    0.0000 C   0  0  0  0  0  0  0  0  0  0  0  0
    1.8396   -2.3369    0.0000 C   0  0  0  0  0  0  0  0  0  0  0  0
    1.8747   -1.5115    0.0000 C   0  0  0  0  0  0  0  0  0  0  0  0
    2.6031   -1.1282    0.0000 C   0  0  0  0  0  0  0  0  0  0  0  0
    1.1078   -2.7205    0.0000 N   0  0  0  0  0  0  0  0  0  0  0  0
    0.3795   -3.1065    0.0000 C   0  0  0  0  0  0  0  0  0  0  0  0
   -0.3523   -3.4902    0.0000 S   0  0  0  0  0  0  0  0  0  0  0  0
    3.9660   -2.8430    0.0000 C   0  0  0  0  0  0  0  0  0  0  0  0
    5.1277   -2.2007    0.0000 C   0  0  0  0  0  0  0  0  0  0  0  0
    4.6957   -2.4562    0.0000 O   0  0  0  0  0  0  0  0  0  0  0  0
    5.8861   -2.5111    0.0000 C   0  0  0  0  0  0  0  0  0  0  0  0
    2.5413   -2.7795    0.0000 C   0  0  0  0  0  0  0  0  0  0  0  0
    3.8145    2.2078    0.0000 O   0  0  0  0  0  0  0  0  0  0  0  0
    3.9348   -3.6645    0.0000 N   0  0  0  0  0  0  0  0  0  0  0  0
    4.6333   -4.1040    0.0000 C   0  0  0  0  0  0  0  0  0  0  0  0
    4.5955   -4.9272    0.0000 C   0  0  0  0  0  0  0  0  0  0  0  0
    5.2900   -5.3666    0.0000 C   0  0  0  0  0  0  0  0  0  0  0  0
    6.0222   -4.9849    0.0000 C   0  0  0  0  0  0  0  0  0  0  0  0
    6.0557   -4.1593    0.0000 C   0  0  0  0  0  0  0  0  0  0  0  0
    5.3568   -3.7153    0.0000 C   0  0  0  0  0  0  0  0  0  0  0  0
 31 26  1  0  0  0  0 
 29 32  1  0  0  0  0 
 32 33  1  0  0  0  0 
 33 34  2  0  0  0  0 
  1  3  1  0  0  0  0 
  3  2  2  0  0  0  0 
  1  4  1  1  0  0  0 
  4  5  1  0  0  0  0 
  5  6  1  0  0  0  0 
 23 35  1  0  0  0  0 
 45 42  1  0  0  0  0 
 35  1  1  0  0  0  0 
 45 46  2  0  0  0  0 
 21 40  1  0  0  0  0 
 37  8  1  0  0  0  0 
  3 37  1  0  0  0  0 
 20 41  1  0  0  0  0 
 42 22  1  0  0  0  0 
 38 11  1  0  0  0  0 
 10 38  1  0  0  0  0 
 33 43  1  0  0  0  0 
  6 36  1  0  0  0  0 
 33 44  1  0  0  0  0 
 39 18  1  0  0  0  0 
 13 39  1  0  0  0  0 
  6  7  2  0  0  0  0 
  8 10  1  0  0  0  0 
 10  9  2  0  0  0  0 
 11 13  1  0  0  0  0 
 13 12  2  0  0  0  0 
 11 14  1  1  0  0  0 
 14 15  1  0  0  0  0 
 15 16  1  0  0  0  0 
 15 17  1  0  0  0  0 
 18 20  1  0  0  0  0 
 20 19  2  0  0  0  0 
 18 21  1  6  0  0  0 
 22 23  1  0  0  0  0 
 23 24  2  0  0  0  0 
 22 25  1  6  0  0  0 
 47 71  1  0  0  0  0 
 71 69  2  0  0  0  0 
 69 50  1  0  0  0  0 
 49 48  2  0  0  0  0 
 48 47  1  0  0  0  0 
 49 50  1  0  0  0  0 
 49 52  1  0  0  0  0 
 50 51  2  0  0  0  0 
 51 54  1  0  0  0  0 
 53 52  1  0  0  0  0 
 53 54  2  0  0  0  0 
 54 55  1  0  0  0  0 
 55 56  2  0  0  0  0 
 56 57  1  0  0  0  0 
 57 58  2  0  0  0  0 
 58 53  1  0  0  0  0 
 47 59  2  0  0  0  0 
 60 61  2  0  0  0  0 
 61 72  1  0  0  0  0 
 72 62  2  0  0  0  0 
 62 63  1  0  0  0  0 
 63 64  2  0  0  0  0 
 64 60  1  0  0  0  0 
 51 60  1  0  0  0  0 
 62 65  1  0  0  0  0 
 65 66  2  0  0  0  0 
 66 67  2  0  0  0  0 
 61 68  1  0  0  0  0 
 68 70  2  0  0  0  0 
 57 73  1  0  0  0  0 
 68 74  1  0  0  0  0 
 25 26  1  0  0  0  0 
 75 74  1  6  0  0  0 
 75 76  1  0  0  0  0 
 26 27  2  0  0  0  0 
 27 28  1  0  0  0  0 
 28 29  2  0  0  0  0 
 29 30  1  0  0  0  0 
 30 31  2  0  0  0  0 
 75 80  1  0  0  0  0 
 76 77  1  0  0  0  0 
 77 78  1  0  0  0  0 
 78 79  1  0  0  0  0 
 79 80  1  0  0  0  0 
 78 45  1  6  0  0  0 
M  END