
  SciTegic04301217482D

 35 38  0  0  0  0            999 V2000
   -2.2250    2.7792    0.0000 C   0  0
   -2.2250    1.9542    0.0000 C   0  0
   -1.5130    1.5458    0.0000 C   0  0
   -0.8010    1.9542    0.0000 C   0  0
   -0.8010    2.7792    0.0000 C   0  0
   -1.5130    3.1958    0.0000 C   0  0
   -1.5130    0.7208    0.0000 C   0  0  2  0  0  0
   -2.2275    0.3083    0.0000 N   0  0
   -0.7985    0.3083    0.0000 C   0  0
   -0.7985   -0.5167    0.0000 O   0  0
   -0.0840    0.7208    0.0000 N   0  0
   -2.9419    0.7208    0.0000 C   0  0
   -3.6564    0.3083    0.0000 C   0  0  1  0  0  0
   -2.9419    1.5458    0.0000 O   0  0
   -4.3709    0.7208    0.0000 N   0  0
   -5.0853    0.3083    0.0000 C   0  0
   -3.6564   -0.5167    0.0000 C   0  0
    0.8056    1.7145    0.0000 C   0  0
   -0.0013    1.5428    0.0000 C   0  0
    1.2182    0.9999    0.0000 C   0  0  2  0  0  0
    0.6606    0.3867    0.0000 C   0  0  1  0  0  0
    0.9115   -0.3985    0.0000 C   0  0
    1.7203   -0.5768    0.0000 N   0  0
    2.2779    0.0365    0.0000 C   0  0
    2.0267    0.8281    0.0000 C   0  0
    1.9704   -1.3630    0.0000 C   0  0
    2.7763   -1.5395    0.0000 C   0  0
    3.0264   -2.3257    0.0000 C   0  0
    0.0708   -0.1958    0.0000 H   0  0
    1.8000    1.5875    0.0000 H   0  0
    2.4672   -2.9328    0.0000 C   0  0
    2.7168   -3.7184    0.0000 C   0  0
    3.5234   -3.8956    0.0000 C   0  0
    4.0801   -3.2810    0.0000 C   0  0
    3.8277   -2.4978    0.0000 C   0  0
 11 21  1  0
  1  6  1  0
  7  9  1  0
 20 18  1  0
 18 19  1  0
 19 11  1  0
 20 21  1  0
  2  3  1  0
  9 10  2  0
  3  4  1  0
  9 11  1  0
  4  5  1  0
  8 12  1  0
 20 25  1  0
 21 22  1  0
 22 23  1  0
 23 24  1  0
 24 25  1  0
  5  6  1  0
 23 26  1  0
 12 13  1  0
 26 27  1  0
 27 28  1  0
 12 14  2  0
 21 29  1  6
  7  3  1  1
 20 30  1  6
 13 15  1  0
 28 31  2  0
  1  2  1  0
 31 32  1  0
 15 16  1  0
 32 33  2  0
  7  8  1  0
 33 34  1  0
 13 17  1  6
 34 35  2  0
 35 28  1  0
M  END