
          11280715482D 1   1.00000     0.00000     0

 55 60  0     1  0            999 V2000
    0.6667   -6.8417    0.0000 N   0  0  0  0  0  0           0  0  0
    1.0250   -6.1042    0.0000 C   0  0  2  0  0  0           0  0  0
   -0.1333   -5.1750    0.0000 N   0  0  3  0  0  0           0  0  0
    0.6667   -5.3542    0.0000 C   0  0  0  0  0  0           0  0  0
   -0.1333   -7.0250    0.0000 C   0  0  0  0  0  0           0  0  0
   -0.7750   -6.5125    0.0000 C   0  0  0  0  0  0           0  0  0
    1.8500   -6.1125    0.0000 N   0  0  0  0  0  0           0  0  0
   -0.7750   -5.6875    0.0000 C   0  0  0  0  0  0           0  0  0
    2.2542   -6.8292    0.0000 C   0  0  0  0  0  0           0  0  0
    1.8500    5.3542    0.0000 N   0  0  3  0  0  0           0  0  0
    3.0792   -6.8292    0.0000 N   0  0  0  0  0  0           0  0  0
    3.0792   -1.0917    0.0000 C   0  0  0  0  0  0           0  0  0
    4.3250   -3.2375    0.0000 C   0  0  0  0  0  0           0  0  0
    1.1792   -4.7000    0.0000 O   0  0  0  0  0  0           0  0  0
   -0.2583   -7.8417    0.0000 C   0  0  0  0  0  0           0  0  0
    1.8417   -7.5417    0.0000 O   0  0  0  0  0  0           0  0  0
    3.4917   -1.8042    0.0000 C   0  0  0  0  0  0           0  0  0
    3.4917   -0.3750    0.0000 O   0  0  0  0  0  0           0  0  0
    4.7375   -2.5167    0.0000 O   0  0  0  0  0  0           0  0  0
    2.2542    4.6375    0.0000 C   0  0  0  0  0  0           0  0  0
    1.8417    3.9208    0.0000 C   0  0  0  0  0  0           0  0  0
    3.4917   -3.2375    0.0000 N   0  0  0  0  0  0           0  0  0
    2.2542   -1.0917    0.0000 N   0  0  0  0  0  0           0  0  0
    4.7417   -3.9542    0.0000 C   0  0  0  0  0  0           0  0  0
    3.4917   -6.1167    0.0000 C   0  0  0  0  0  0           0  0  0
   -0.3208   -4.3625    0.0000 C   0  0  0  0  0  0           0  0  0
    2.2542    3.2083    0.0000 C   0  0  0  0  0  0           0  0  0
    3.0792   -2.5250    0.0000 C   0  0  0  0  0  0           0  0  0
    4.3250   -4.6792    0.0000 C   0  0  0  0  0  0           0  0  0
   -1.4875   -6.9250    0.0000 C   0  0  0  0  0  0           0  0  0
    1.8417    2.4875    0.0000 C   0  0  0  0  0  0           0  0  0
   -1.4875   -5.2750    0.0000 C   0  0  0  0  0  0           0  0  0
    4.3250   -6.1167    0.0000 C   0  0  0  0  0  0           0  0  0
    3.0792   -5.4000    0.0000 C   0  0  0  0  0  0           0  0  0
    3.5000   -4.6792    0.0000 C   0  0  0  0  0  0           0  0  0
    4.7375   -5.4042    0.0000 C   0  0  0  0  0  0           0  0  0
    2.2542    0.3375    0.0000 C   0  0  0  0  0  0           0  0  0
    2.2542    1.7708    0.0000 O   0  0  0  0  0  0           0  0  0
    2.2542    6.0667    0.0000 C   0  0  0  0  0  0           0  0  0
    1.0250    5.3542    0.0000 C   0  0  0  0  0  0           0  0  0
    0.6000    3.2083    0.0000 C   0  0  0  0  0  0           0  0  0
    1.8417   -0.3792    0.0000 C   0  0  0  0  0  0           0  0  0
    1.0125    3.9208    0.0000 C   0  0  0  0  0  0           0  0  0
    0.3792   -8.3542    0.0000 C   0  0  0  0  0  0           0  0  0
   -1.0250   -8.1417    0.0000 C   0  0  0  0  0  0           0  0  0
    1.8417    1.0583    0.0000 C   0  0  0  0  0  0           0  0  0
    1.0125    2.4875    0.0000 C   0  0  0  0  0  0           0  0  0
   -2.2083   -6.5125    0.0000 C   0  0  0  0  0  0           0  0  0
   -2.2083   -5.6875    0.0000 C   0  0  0  0  0  0           0  0  0
    0.6125    6.0750    0.0000 C   0  0  0  0  0  0           0  0  0
    1.8500    6.7792    0.0000 C   0  0  0  0  0  0           0  0  0
   -1.1500   -8.9542    0.0000 C   0  0  0  0  0  0           0  0  0
    0.2542   -9.1667    0.0000 C   0  0  0  0  0  0           0  0  0
   -0.5083   -9.4750    0.0000 C   0  0  0  0  0  0           0  0  0
    1.0250    6.7917    0.0000 C   0  0  0  0  0  0           0  0  0
  2  1  1  0     0  0
  3  4  1  0     0  0
  4  2  1  0     0  0
  5  1  2  0     0  0
  6  5  1  0     0  0
  2  7  1  6     0  0
  8  6  1  0     0  0
  9  7  1  0     0  0
 10 20  1  0     0  0
 11  9  1  0     0  0
 12 17  1  0     0  0
 13 24  1  0     0  0
 14  4  2  0     0  0
 15  5  1  0     0  0
 16  9  2  0     0  0
 17 28  1  0     0  0
 18 12  2  0     0  0
 19 13  2  0     0  0
 20 21  1  0     0  0
 21 27  1  0     0  0
 22 13  1  0     0  0
 23 12  1  0     0  0
 24 29  1  0     0  0
 25 11  1  0     0  0
 26  3  1  0     0  0
 27 31  2  0     0  0
 28 22  1  0     0  0
 29 35  1  0     0  0
 30  6  2  0     0  0
 31 38  1  0     0  0
 32  8  2  0     0  0
 33 25  2  0     0  0
 34 25  1  0     0  0
 35 34  2  0     0  0
 36 33  1  0     0  0
 37 42  1  0     0  0
 38 46  1  0     0  0
 39 10  1  0     0  0
 40 10  1  0     0  0
 41 47  2  0     0  0
 42 23  1  0     0  0
 43 41  1  0     0  0
 44 15  1  0     0  0
 45 15  2  0     0  0
 46 37  1  0     0  0
 47 31  1  0     0  0
 48 30  1  0     0  0
 49 48  2  0     0  0
 50 40  1  0     0  0
 51 39  1  0     0  0
 52 45  1  0     0  0
 53 44  2  0     0  0
 54 52  2  0     0  0
 55 50  1  0     0  0
  3  8  1  0     0  0
 53 54  1  0     0  0
 49 32  1  0     0  0
 29 36  2  0     0  0
 43 21  2  0     0  0
 55 51  1  0     0  0
M  END