
          11280714482D 1   1.00000     0.00000     0

  9 10  0     0  0            999 V2000
    3.7792   -2.6417    0.0000 S   0  0  0  0  0  0           0  0  0
    4.2750   -1.9667    0.0000 N   0  0  0  0  0  0           0  0  0
    4.2750   -3.3125    0.0000 N   0  0  0  0  0  0           0  0  0
    5.0542   -3.0542    0.0000 C   0  0  0  0  0  0           0  0  0
    5.0542   -2.2292    0.0000 C   0  0  0  0  0  0           0  0  0
    5.7792   -1.8167    0.0000 C   0  0  0  0  0  0           0  0  0
    5.7792   -3.4792    0.0000 C   0  0  0  0  0  0           0  0  0
    6.5000   -3.0542    0.0000 C   0  0  0  0  0  0           0  0  0
    6.5000   -2.2292    0.0000 C   0  0  0  0  0  0           0  0  0
  2  1  1  0     0  0
  3  1  1  0     0  0
  4  3  2  0     0  0
  5  2  2  0     0  0
  6  5  1  0     0  0
  7  4  1  0     0  0
  8  7  2  0     0  0
  9  6  2  0     0  0
  4  5  1  0     0  0
  8  9  1  0     0  0
M  END