
  SciTegic03161210572D

 39 41  0  0  0  0            999 V2000
    1.9809  -26.4475    0.0000 F   0  0
    2.3978  -27.1648    0.0000 C   0  0
    2.8106  -26.4450    0.0000 F   0  0
    2.0893  -28.2908    0.0000 F   0  0
    1.6806  -27.5777    0.0000 C   0  0
    1.2674  -28.2881    0.0000 F   0  0
    0.5505  -26.4475    0.0000 F   0  0
    0.9675  -27.1648    0.0000 C   0  0
    1.3802  -26.4450    0.0000 F   0  0
    0.6589  -28.2908    0.0000 F   0  0
    0.2502  -27.5777    0.0000 C   0  0
   -0.1630  -28.2881    0.0000 F   0  0
   -0.8799  -26.4475    0.0000 F   0  0
   -0.4629  -27.1648    0.0000 C   0  0
   -0.0502  -26.4450    0.0000 F   0  0
   -0.7715  -28.2908    0.0000 F   0  0
   -1.1802  -27.5777    0.0000 C   0  0
   -1.5934  -28.2881    0.0000 F   0  0
   -2.6064  -27.5818    0.0000 N   0  0
   -1.8913  -27.1689    0.0000 C   0  0
   -1.8913  -26.3432    0.0000 O   0  0
    3.1142  -27.5818    0.0000 C   0  0
    3.8294  -27.1689    0.0000 N   0  0
    3.1142  -28.4075    0.0000 O   0  0
    4.5444  -27.5818    0.0000 O   0  0
   -3.3214  -27.1689    0.0000 C   0  0
   -3.3165  -26.3422    0.0000 C   0  0
   -4.0307  -25.9294    0.0000 C   0  0
   -4.7494  -26.3432    0.0000 C   0  0
   -4.0293  -27.5813    0.0000 C   0  0
   -4.7412  -27.1692    0.0000 C   0  0
   -5.4520  -27.5796    0.0000 C   0  0
   -4.0276  -28.3995    0.0000 C   0  0
   -4.7354  -28.8121    0.0000 C   0  0
   -5.4512  -28.4013    0.0000 C   0  0
   -6.1644  -28.8155    0.0000 C   0  0
   -6.1673  -29.6405    0.0000 C   0  0
   -5.4395  -30.0496    0.0000 C   0  0
   -4.7307  -29.6329    0.0000 C   0  0
 11  8  1  0
  8  5  1  0
  5  2  1  0
 14 13  1  0
  2 22  1  0
 15 14  1  0
 22 23  1  0
  9  8  1  0
 22 24  2  0
  5  4  1  0
 23 25  1  0
  6  5  1  0
 19 26  1  0
 17 16  1  0
 26 27  2  0
 18 17  1  0
 27 28  1  0
 28 29  2  0
 30 26  1  0
 31 29  1  0
 11 10  1  0
 12 11  1  0
 30 31  1  0
  2  1  1  0
 31 32  2  0
 32 35  1  0
  3  2  1  0
 34 33  1  0
 33 30  2  0
 19 20  1  0
 20 17  1  0
 34 35  1  0
  8  7  1  0
 35 36  2  0
 20 21  2  0
 36 37  1  0
 17 14  1  0
 37 38  2  0
 14 11  1  0
 38 39  1  0
 39 34  2  0
M  END