
  SciTegic06051313552D

 23 25  0  0  0  0            999 V2000
    4.2068  -13.7287    0.0000 C   0  0
    4.2056  -14.5560    0.0000 C   0  0
    4.9204  -14.9689    0.0000 C   0  0
    5.6368  -14.5555    0.0000 C   0  0
    5.6339  -13.7250    0.0000 C   0  0
    4.9186  -13.3159    0.0000 N   0  3
    4.9162  -12.4909    0.0000 C   0  0
    3.4922  -13.3164    0.0000 C   0  0
    6.3469  -13.3098    0.0000 C   0  0
    7.0581  -12.8912    0.0000 C   0  0
    2.7749  -12.9037    0.0000 C   0  0
    7.7691  -12.4727    0.0000 C   0  0
    2.0598  -12.4924    0.0000 C   0  0
    2.0629  -11.6674    0.0000 C   0  0
    1.3485  -11.2561    0.0000 C   0  0
    0.6338  -11.6698    0.0000 C   0  0
    0.6377  -12.4991    0.0000 C   0  0
    1.3526  -12.9066    0.0000 C   0  0
    8.4831  -12.8833    0.0000 C   0  0
    9.1936  -12.4656    0.0000 C   0  0
    9.1871  -11.6398    0.0000 C   0  0
    8.4642  -11.2334    0.0000 C   0  0
    7.7567  -11.6536    0.0000 C   0  0
  1  2  2  0
  2  3  1  0
  3  4  2  0
  4  5  1  0
  5  6  2  0
  6  1  1  0
  6  7  1  0
  1  8  1  0
  5  9  1  0
  9 10  3  0
  8 11  3  0
 10 12  1  0
 11 13  1  0
 13 14  1  0
 14 15  1  0
 15 16  1  0
 16 17  1  0
 17 18  1  0
 18 13  1  0
 12 19  1  0
 19 20  1  0
 20 21  1  0
 21 22  1  0
 22 23  1  0
 23 12  1  0
M  CHG  1   6   1
M  END