
  SciTegic03291108472D

 20 22  0  0  0  0            999 V2000
   -1.4263   -2.1579    0.0000 O   0  0
    0.0027   -2.1579    0.0000 O   0  0
   -0.7118    0.7296    0.0000 N   0  0
   -0.7118   -0.9204    0.0000 C   0  0
    0.0027   -0.5079    0.0000 C   0  0
   -1.4263    0.3171    0.0000 C   0  0
   -1.4263   -0.5079    0.0000 C   0  0
    0.0027    0.3171    0.0000 C   0  0
   -2.1407    0.7296    0.0000 C   0  0
   -0.7118   -1.7454    0.0000 C   0  0
    0.7172   -0.9204    0.0000 C   0  0
    0.7172    0.7296    0.0000 C   0  0
   -2.1407   -0.9204    0.0000 C   0  0
   -2.8552    0.3171    0.0000 C   0  0
   -2.1407    1.5546    0.0000 C   0  0
    1.4316   -0.5079    0.0000 C   0  0
    1.4316    0.3171    0.0000 C   0  0
   -3.5697    0.7296    0.0000 C   0  0
   -2.8552    1.9671    0.0000 C   0  0
   -3.5697    1.5546    0.0000 C   0  0
  1 10  2  0
  2 10  1  0
  3  6  1  0
  3  8  2  0
  4  5  2  0
  4  7  1  0
  4 10  1  0
  5  8  1  0
  5 11  1  0
  6  7  2  0
  6  9  1  0
  7 13  1  0
  8 12  1  0
  9 14  2  0
  9 15  1  0
 11 16  2  0
 12 17  2  0
 14 18  1  0
 15 19  2  0
 16 17  1  0
 18 20  2  0
 19 20  1  0
M  END