
          11280715442D 1   1.00000     0.00000     0

 31 33  0     1  0            999 V2000
   -0.1375   -0.2375    0.0000 N   0  0  3  0  0  0           0  0  0
   -0.8500    0.1833    0.0000 C   0  0  0  0  0  0           0  0  0
    0.7875    0.9083    0.0000 C   0  0  0  0  0  0           0  0  0
   -1.5708   -0.2292    0.0000 C   0  0  1  0  0  0           0  0  0
   -2.2833    0.1833    0.0000 N   0  0  0  0  0  0           0  0  0
    0.6125    0.1000    0.0000 C   0  0  2  0  0  0           0  0  0
   -3.0000   -0.2292    0.0000 C   0  0  0  0  0  0           0  0  0
    1.5667    1.1625    0.0000 N   0  0  0  0  0  0           0  0  0
    2.3917    1.1625    0.0000 C   0  0  1  0  0  0           0  0  0
    2.8792    0.5083    0.0000 C   0  0  0  0  0  0           0  0  0
   -1.5708   -1.0542    0.0000 C   0  0  3  0  0  0           0  0  0
   -0.8500    1.0083    0.0000 O   0  0  0  0  0  0           0  0  0
    0.1750    1.4583    0.0000 O   0  0  0  0  0  0           0  0  0
    3.6625    0.7583    0.0000 C   0  0  0  0  0  0           0  0  0
   -3.0000   -1.0542    0.0000 O   0  0  0  0  0  0           0  0  0
    2.8750    1.8333    0.0000 C   0  0  0  0  0  0           0  0  0
   -3.7125    0.1833    0.0000 C   0  0  1  0  0  0           0  0  0
    3.6542    1.5833    0.0000 C   0  0  0  0  0  0           0  0  0
   -0.0625   -1.0542    0.0000 C   0  0  0  0  0  0           0  0  0
   -4.4250   -0.2167    0.0000 N   0  0  0  0  0  0           0  0  0
    1.1625   -0.5167    0.0000 C   0  0  0  0  0  0           0  0  0
    0.7500   -1.2292    0.0000 C   0  0  0  0  0  0           0  0  0
    2.7125   -0.3000    0.0000 C   0  0  0  0  0  0           0  0  0
   -1.5750   -1.8792    0.0000 C   0  0  0  0  0  0           0  0  0
   -2.2875   -1.4667    0.0000 C   0  0  0  0  0  0           0  0  0
   -0.8583   -1.4667    0.0000 C   0  0  0  0  0  0           0  0  0
    4.2667    0.2208    0.0000 C   0  0  0  0  0  0           0  0  0
   -5.1458    0.1833    0.0000 C   0  0  0  0  0  0           0  0  0
   -3.7083    1.0125    0.0000 C   0  0  0  0  0  0           0  0  0
    3.3250   -0.8417    0.0000 C   0  0  0  0  0  0           0  0  0
    4.1000   -0.5792    0.0000 C   0  0  0  0  0  0           0  0  0
  2  1  1  0     0  0
  6  3  1  6     0  0
  4  2  1  0     0  0
  5  4  1  0     0  0
  6  1  1  0     0  0
  7  5  1  0     0  0
  8  3  1  0     0  0
  9  8  1  6     0  0
 10  9  1  0     0  0
  4 11  1  6     0  0
 12  2  2  0     0  0
 13  3  2  0     0  0
 14 10  2  0     0  0
 15  7  2  0     0  0
 16  9  1  0     0  0
 17  7  1  0     0  0
 18 16  1  0     0  0
 19  1  1  0     0  0
 20 17  1  0     0  0
 21  6  1  0     0  0
 22 19  1  0     0  0
 23 10  1  0     0  0
 24 11  1  0     0  0
 25 11  1  0     0  0
 26 11  1  0     0  0
 27 14  1  0     0  0
 28 20  1  0     0  0
 17 29  1  1     0  0
 30 23  2  0     0  0
 31 30  1  0     0  0
 21 22  1  0     0  0
 14 18  1  0     0  0
 27 31  2  0     0  0
M  END