
          11280715112D 1   1.00000     0.00000     0

 20 21  0     0  0            999 V2000
    5.0000   -3.5625    0.0000 C   0  0  0  0  0  0           0  0  0
    5.4792   -2.8917    0.0000 N   0  0  0  0  0  0           0  0  0
    2.5167   -4.9875    0.0000 C   0  0  3  0  0  0           0  0  0
    5.4792   -4.2292    0.0000 N   0  0  0  0  0  0           0  0  0
    6.2667   -3.1500    0.0000 C   0  0  0  0  0  0           0  0  0
    2.9375   -4.2750    0.0000 C   0  0  0  0  0  0           0  0  0
    4.1750   -3.5625    0.0000 C   0  0  0  0  0  0           0  0  0
    6.2667   -3.9750    0.0000 C   0  0  0  0  0  0           0  0  0
    3.7625   -4.2750    0.0000 C   0  0  0  0  0  0           0  0  0
    6.9292   -2.6667    0.0000 C   0  0  0  0  0  0           0  0  0
    2.1292   -5.6292    0.0000 F   0  0  0  0  0  0           0  0  0
    1.6667   -5.1125    0.0000 F   0  0  0  0  0  0           0  0  0
    2.8167   -5.7917    0.0000 F   0  0  0  0  0  0           0  0  0
    8.3542   -2.5167    0.0000 N   0  0  3  0  0  0           0  0  0
    7.6875   -3.0042    0.0000 C   0  0  0  0  0  0           0  0  0
    2.5292   -3.5667    0.0000 C   0  0  0  0  0  0           0  0  0
    3.7625   -2.8500    0.0000 C   0  0  0  0  0  0           0  0  0
    2.9375   -2.8542    0.0000 C   0  0  0  0  0  0           0  0  0
    9.1042   -2.8542    0.0000 C   0  0  0  0  0  0           0  0  0
    8.2667   -1.6917    0.0000 C   0  0  0  0  0  0           0  0  0
  2  1  2  0     0  0
  3  6  1  0     0  0
  4  1  1  0     0  0
  5  2  1  0     0  0
  6  9  2  0     0  0
  7  1  1  0     0  0
  8  4  1  0     0  0
  9  7  1  0     0  0
 10  5  1  0     0  0
 11  3  1  0     0  0
 12  3  1  0     0  0
 13  3  1  0     0  0
 14 15  1  0     0  0
 15 10  1  0     0  0
 16 18  2  0     0  0
 17  7  2  0     0  0
 18 17  1  0     0  0
 19 14  1  0     0  0
 20 14  1  0     0  0
  5  8  2  0     0  0
 16  6  1  0     0  0
M  END