
  SciTegic01161211222D

 24 28  0  0  0  0            999 V2000
    3.9184  -12.7189    0.0000 C   0  0
    3.4339  -13.3921    0.0000 C   0  0
    3.7695  -14.1341    0.0000 C   0  0
    4.5943  -14.2208    0.0000 C   0  0
    5.0789  -13.5486    0.0000 C   0  0
    4.7427  -12.7978    0.0000 C   0  0
    3.1532  -14.6917    0.0000 C   0  0  1  0  0  0
    1.7208  -14.6917    0.0000 C   0  0
    1.7208  -15.5167    0.0000 C   0  0
    2.4412  -15.9292    0.0000 C   0  0
    2.4412  -14.2792    0.0000 C   0  0  2  0  0  0
    3.1539  -15.5208    0.0000 C   0  0  1  0  0  0
    3.8626  -15.9299    0.0000 C   0  0
    4.5794  -15.5185    0.0000 N   0  0
    4.5830  -14.6936    0.0000 C   0  0
    3.8655  -14.2799    0.0000 C   0  0
    2.6149  -13.4749    0.0000 O   0  0
    3.1458  -16.3417    0.0000 H   0  0
    1.7208  -13.8667    0.0000 H   0  0
    3.5776  -11.9676    0.0000 O   0  0
    5.2925  -15.9335    0.0000 C   0  0
    5.2897  -16.7585    0.0000 C   0  0
    4.8760  -17.4696    0.0000 C   0  0
    5.7010  -17.4724    0.0000 C   0  0
  7 12  1  0
  5  6  2  0
  6  1  1  0
  1  2  2  0
  7  3  1  6
  8  9  1  0
  7 16  1  0
 12 13  1  0
 13 14  1  0
 14 15  1  0
 15 16  1  0
  3  4  2  0
  2 17  1  0
 11 17  1  0
 12 18  1  1
  4  5  1  0
 11 19  1  1
  2  3  1  0
  1 20  1  0
  8 11  1  0
 14 21  1  0
  9 10  1  0
 21 22  1  0
 23 22  1  0
 24 23  1  0
 22 24  1  0
 10 12  1  0
  7 11  1  0
M  END