
          05080814042D 1   1.00000     0.00000     0

 36 41  0     1  0            999 V2000
   -4.8649  -14.0155    0.0000 C   0  0  0  0  0  0           0  0  0
   -5.5756  -14.4304    0.0000 C   0  0  0  0  0  0           0  0  0
   -5.5686  -15.2567    0.0000 C   0  0  0  0  0  0           0  0  0
   -4.8548  -15.6602    0.0000 C   0  0  0  0  0  0           0  0  0
   -4.1516  -14.4227    0.0000 C   0  0  0  0  0  0           0  0  0
   -4.1455  -15.2504    0.0000 C   0  0  0  0  0  0           0  0  0
   -3.4297  -15.6567    0.0000 C   0  0  0  0  0  0           0  0  0
   -3.4418  -14.0014    0.0000 C   0  0  0  0  0  0           0  0  0
   -2.7213  -14.4122    0.0000 C   0  0  2  0  0  0           0  0  0
   -2.7168  -15.2418    0.0000 C   0  0  2  0  0  0           0  0  0
   -2.0000  -15.6505    0.0000 N   0  0  3  0  0  0           0  0  0
   -1.2832  -15.2340    0.0000 C   0  0  0  0  0  0           0  0  0
   -1.2878  -14.4044    0.0000 C   0  0  1  0  0  0           0  0  0
   -2.0091  -13.9912    0.0000 C   0  0  0  0  0  0           0  0  0
   -2.7292  -13.5833    0.0000 H   0  0  0  0  0  0           0  0  0
   -2.7250  -16.0667    0.0000 H   0  0  0  0  0  0           0  0  0
   -0.5751  -13.9887    0.0000 C   0  0  0  0  0  0           0  0  0
    0.1412  -14.3980    0.0000 N   0  0  3  0  0  0           0  0  0
   -0.5788  -13.1637    0.0000 O   0  0  0  0  0  0           0  0  0
    0.1389  -15.2262    0.0000 C   0  0  0  0  0  0           0  0  0
    0.8511  -15.6354    0.0000 C   0  0  0  0  0  0           0  0  0
    1.5661  -15.2232    0.0000 N   0  0  3  0  0  0           0  0  0
    1.5644  -14.3972    0.0000 C   0  0  0  0  0  0           0  0  0
    0.8476  -13.9835    0.0000 C   0  0  0  0  0  0           0  0  0
   -4.8688  -13.1905    0.0000 O   0  0  0  0  0  0           0  0  0
   -5.5853  -12.7814    0.0000 C   0  0  0  0  0  0           0  0  0
   -1.9967  -16.4754    0.0000 C   0  0  0  0  0  0           0  0  0
    2.2809  -15.6352    0.0000 C   0  0  0  0  0  0           0  0  0
    2.2770  -16.4594    0.0000 C   0  0  0  0  0  0           0  0  0
    2.9909  -16.8713    0.0000 C   0  0  0  0  0  0           0  0  0
    2.9883  -15.2208    0.0000 C   0  0  0  0  0  0           0  0  0
    4.4858  -15.3731    0.0000 N   0  0  0  0  0  0           0  0  0
    3.7028  -15.6290    0.0000 C   0  0  0  0  0  0           0  0  0
    3.7054  -16.4534    0.0000 C   0  0  0  0  0  0           0  0  0
    4.4909  -16.7043    0.0000 N   0  0  0  0  0  0           0  0  0
    4.9711  -16.0342    0.0000 S   0  0  0  0  0  0           0  0  0
 13 17  1  1     0  0
  7 10  1  0     0  0
 17 18  1  0     0  0
  9  8  1  0     0  0
 17 19  2  0     0  0
 18 20  1  0     0  0
  9 10  1  0     0  0
  3  4  2  0     0  0
  4  6  1  0     0  0
  5  6  2  0     0  0
  1  2  2  0     0  0
 18 24  1  0     0  0
 20 21  1  0     0  0
 21 22  1  0     0  0
 22 23  1  0     0  0
 23 24  1  0     0  0
  5  1  1  0     0  0
  1 25  1  0     0  0
  2  3  1  0     0  0
 25 26  1  0     0  0
  9 14  1  0     0  0
 11 27  1  0     0  0
 10 11  1  0     0  0
 22 28  1  0     0  0
 11 12  1  0     0  0
 28 29  1  0     0  0
 12 13  1  0     0  0
 29 30  2  0     0  0
 30 34  1  0     0  0
 13 14  1  0     0  0
 33 31  1  0     0  0
 31 28  2  0     0  0
 33 34  1  0     0  0
  9 15  1  6     0  0
  5  8  1  0     0  0
 10 16  1  1     0  0
  6  7  1  0     0  0
 32 33  2  0     0  0
 34 35  2  0     0  0
 35 36  1  0     0  0
 36 32  1  0     0  0
M  END