
          11280714482D 1   1.00000     0.00000     0

 58 63  0     0  0            999 V2000
    0.6917    2.4000    0.0000 C   0  0  0  0  0  0           0  0  0
    1.4042    3.6458    0.0000 C   0  0  0  0  0  0           0  0  0
    1.4042    2.8125    0.0000 C   0  0  0  0  0  0           0  0  0
    0.6917    1.5750    0.0000 C   0  0  0  0  0  0           0  0  0
    2.1167    4.0417    0.0000 C   0  0  0  0  0  0           0  0  0
   -0.0250    3.6458    0.0000 C   0  0  0  0  0  0           0  0  0
    0.6917    4.0417    0.0000 O   0  0  0  0  0  0           0  0  0
    1.4042    1.1625    0.0000 C   0  0  0  0  0  0           0  0  0
   -0.0250    2.8125    0.0000 C   0  0  0  0  0  0           0  0  0
    2.8292    3.6458    0.0000 C   0  0  0  0  0  0           0  0  0
    2.1167    2.4000    0.0000 C   0  0  0  0  0  0           0  0  0
    3.5542    4.0417    0.0000 N   0  3  0  0  0  0           0  0  0
    1.4042    0.3333    0.0000 C   0  0  0  0  0  0           0  0  0
    2.2292    1.1625    0.0000 C   0  0  0  0  0  0           0  0  0
   -0.7375    4.0417    0.0000 C   0  0  0  0  0  0           0  0  0
    2.8292    2.8125    0.0000 C   0  0  0  0  0  0           0  0  0
   -0.7250   -7.5042    0.0000 N   0  0  3  0  0  0           0  0  0
    0.6917   -0.9042    0.0000 C   0  0  0  0  0  0           0  0  0
    0.6917   -0.0792    0.0000 C   0  0  0  0  0  0           0  0  0
   -1.4583    3.6458    0.0000 C   0  0  0  0  0  0           0  0  0
   -0.0250    1.1625    0.0000 C   0  0  0  0  0  0           0  0  0
   -0.0125   -7.0917    0.0000 C   0  0  0  0  0  0           0  0  0
   -0.7375    2.4000    0.0000 C   0  0  0  0  0  0           0  0  0
   -0.0208   -6.2667    0.0000 N   0  0  0  0  0  0           0  0  0
   -2.1750    4.0417    0.0000 N   0  0  3  0  0  0           0  0  0
    2.6417    0.4500    0.0000 O   0  5  0  0  0  0           0  0  0
   -0.7208   -8.3250    0.0000 C   0  0  0  0  0  0           0  0  0
   -0.0250    0.3333    0.0000 C   0  0  0  0  0  0           0  0  0
   -1.4583    2.8125    0.0000 C   0  0  0  0  0  0           0  0  0
    2.6375    1.8750    0.0000 O   0  0  0  0  0  0           0  0  0
    1.4042   -1.3167    0.0000 O   0  0  0  0  0  0           0  0  0
   -1.4458   -7.0875    0.0000 C   0  0  0  0  0  0           0  0  0
   -0.0208   -1.3167    0.0000 N   0  0  0  0  0  0           0  0  0
   -1.4333   -8.7417    0.0000 C   0  0  0  0  0  0           0  0  0
   -2.1708   -5.8500    0.0000 N   0  0  3  0  0  0           0  0  0
   -1.4458   -6.2667    0.0000 C   0  0  0  0  0  0           0  0  0
   -2.8583   -9.5750    0.0000 C   0  0  0  0  0  0           0  0  0
    4.2667    3.6458    0.0000 C   0  0  0  0  0  0           0  0  0
    3.5542    4.8750    0.0000 C   0  0  0  0  0  0           0  0  0
   -2.1500   -8.3292    0.0000 C   0  0  0  0  0  0           0  0  0
   -1.4333   -9.5625    0.0000 C   0  0  0  0  0  0           0  0  0
   -2.1375   -9.9792    0.0000 C   0  0  0  0  0  0           0  0  0
   -2.8625   -8.7500    0.0000 C   0  0  0  0  0  0           0  0  0
   -3.5750   -9.9875    0.0000 O   0  0  0  0  0  0           0  0  0
    0.7042   -7.5000    0.0000 C   0  0  0  0  0  0           0  0  0
    0.6917   -5.8500    0.0000 C   0  0  0  0  0  0           0  0  0
   -2.1833    4.8750    0.0000 C   0  0  0  0  0  0           0  0  0
   -2.8875    3.6458    0.0000 C   0  0  0  0  0  0           0  0  0
   -0.0208   -2.1417    0.0000 C   0  0  0  0  0  0           0  0  0
   -2.1708   -5.0250    0.0000 C   0  0  0  0  0  0           0  0  0
   -2.8833   -6.2625    0.0000 C   0  0  0  0  0  0           0  0  0
   -3.5708  -10.8125    0.0000 C   0  0  0  0  0  0           0  0  0
   -1.4583   -4.6125    0.0000 C   0  0  0  0  0  0           0  0  0
   -0.7375   -2.5500    0.0000 C   0  0  0  0  0  0           0  0  0
   -0.7375   -3.3750    0.0000 C   0  0  0  0  0  0           0  0  0
   -1.4583   -3.7875    0.0000 C   0  0  0  0  0  0           0  0  0
    1.4125   -7.0875    0.0000 C   0  0  0  0  0  0           0  0  0
    1.4042   -6.2625    0.0000 C   0  0  0  0  0  0           0  0  0
  2  3  1  0     0  0
  3  1  2  0     0  0
  4  1  1  0     0  0
  5  2  2  0     0  0
  6  9  2  0     0  0
  7  6  1  0     0  0
  8  4  2  0     0  0
  9  1  1  0     0  0
 10 16  1  0     0  0
 11  3  1  0     0  0
 12 10  2  0     0  0
 13  8  1  0     0  0
 14  8  1  0     0  0
 15  6  1  0     0  0
 16 11  2  0     0  0
 17 32  1  0     0  0
 18 19  1  0     0  0
 19 28  1  0     0  0
 20 29  1  0     0  0
 21  4  1  0     0  0
 22 17  1  0     0  0
 23  9  1  0     0  0
 24 22  2  0     0  0
 25 20  1  0     0  0
 26 14  1  0     0  0
 27 17  1  0     0  0
 28 21  2  0     0  0
 29 23  2  0     0  0
 30 14  2  0     0  0
 31 18  2  0     0  0
 32 36  1  0     0  0
 33 18  1  0     0  0
 34 27  1  0     0  0
 35 50  1  0     0  0
 36 35  1  0     0  0
 37 42  1  0     0  0
 38 12  1  0     0  0
 39 12  1  0     0  0
 40 34  2  0     0  0
 41 34  1  0     0  0
 42 41  2  0     0  0
 43 40  1  0     0  0
 44 37  1  0     0  0
 45 22  1  0     0  0
 46 24  1  0     0  0
 47 25  1  0     0  0
 48 25  1  0     0  0
 49 33  1  0     0  0
 50 53  1  0     0  0
 51 35  1  0     0  0
 52 44  1  0     0  0
 53 56  1  0     0  0
 54 49  1  0     0  0
 55 54  1  0     0  0
 56 55  1  0     0  0
 57 45  2  0     0  0
 58 57  1  0     0  0
  2  7  1  0     0  0
 15 20  2  0     0  0
 19 13  2  0     0  0
 10  5  1  0     0  0
 43 37  2  0     0  0
 46 58  2  0     0  0
M  CHG  2  12   1  26  -1
M  END