
  SciTegic02271217242D

 43 46  0  0  0  0            999 V2000
   -1.2713  -13.3678    0.0000 C   0  0
   -1.2713  -14.1931    0.0000 C   0  0  1  0  0  0
   -0.5590  -14.6016    0.0000 C   0  0
   -0.5590  -12.9509    0.0000 C   0  0
    0.1533  -13.3678    0.0000 C   0  0  1  0  0  0
    0.1544  -14.1931    0.0000 C   0  0  1  0  0  0
    0.8656  -14.6026    0.0000 C   0  0
    1.5805  -14.1913    0.0000 C   0  0
    0.8635  -12.9519    0.0000 C   0  0
    1.5751  -13.3683    0.0000 C   0  0
    1.5829  -11.7224    0.0000 C   0  0  2  0  0  0
    0.8643  -12.1298    0.0000 C   0  0
    2.2945  -12.1387    0.0000 C   0  0  1  0  0  0
    2.2909  -12.9588    0.0000 C   0  0  1  0  0  0
    3.0698  -13.2158    0.0000 C   0  0
    3.5549  -12.5544    0.0000 C   0  0
    3.0757  -11.8887    0.0000 C   0  0  2  0  0  0
    3.4677  -11.1631    0.0000 C   0  0  1  0  0  0
    4.2927  -11.1396    0.0000 C   0  0
    3.0348  -10.4605    0.0000 C   0  0
    4.7256  -11.8424    0.0000 C   0  0
    5.5505  -11.8189    0.0000 C   0  0
    4.3334  -12.5686    0.0000 O   0  0
    5.9834  -12.5216    0.0000 C   0  0
    6.8084  -12.4981    0.0000 C   0  0
    5.5912  -13.2479    0.0000 C   0  0
    7.2412  -13.2008    0.0000 O   0  0
    7.2005  -11.7719    0.0000 O   0  0
    0.1459  -12.5425    0.0000 C   0  0
   -0.9796  -15.3144    0.0000 C   0  0
   -0.1543  -15.3144    0.0000 C   0  0
    2.2884  -11.3128    0.0000 C   0  0
   -1.9855  -14.6068    0.0000 O   0  0
    2.2842  -13.7805    0.0000 C   0  0
    0.1459  -11.7129    0.0000 O   0  0
    3.3214  -14.0019    0.0000 O   0  0
    3.8973  -11.8880    0.0000 H   0  0
    0.3668  -14.9851    0.0000 H   0  0
    2.2963  -14.6022    0.0000 O   0  0
    1.5885  -10.8970    0.0000 O   0  0
    0.8766  -10.4796    0.0000 C   0  0
    0.8823   -9.6542    0.0000 C   0  0
    0.1591  -10.8873    0.0000 O   0  0
 18 20  1  6
  3  6  1  0
 19 21  1  0
  5  4  1  0
 21 22  1  0
  5  6  1  0
 21 23  2  0
 22 24  1  0
  9 12  1  0
 24 25  1  0
 10 14  1  0
 24 26  1  0
 13 11  1  0
 25 27  1  0
 11 12  1  0
 25 28  2  0
 13 14  1  0
  5 29  1  1
  1  2  1  0
  3 30  1  0
  1  4  1  0
  3 31  1  0
  2  3  1  0
 13 32  1  1
  5  9  1  0
  2 33  1  1
  6  7  1  0
 14 34  1  6
 14 15  1  0
 12 35  2  0
 15 16  1  0
 15 36  2  0
 16 17  1  0
 17 37  1  6
 17 13  1  0
  6 38  1  6
  7  8  1  0
  8 39  2  0
 17 18  1  0
 11 40  1  1
  8 10  1  0
 40 41  1  0
 18 19  1  0
 41 42  1  0
  9 10  2  0
 41 43  2  0
M  END