
  SciTegic11201309402D

 83 87  0  0  1  0            999 V2000
    5.7167   -3.2542    0.0000 N   0  0
   -0.3375   -4.2875    0.0000 N   0  0
    5.1042   -3.8042    0.0000 C   0  0
    0.2500   -4.8750    0.0000 C   0  0
   -0.8458   -2.7375    0.0000 C   0  0
    4.3125   -3.5500    0.0000 C   0  0  2  0  0  0
    4.4417   -2.7375    0.0000 N   0  0
   -0.7125   -1.9167    0.0000 N   0  0
   -0.7125   -3.5500    0.0000 C   0  0  2  0  0  0
    3.3542   -0.5917    0.0000 N   0  0
    0.9792   -0.2167    0.0000 N   0  0
    8.6167   -0.0292    0.0000 N   0  0
    9.4125    0.2000    0.0000 C   0  0  2  0  0  0
    4.3125   -1.9167    0.0000 C   0  0
    0.2500   -0.5917    0.0000 C   0  0
    6.6667   -2.1292    0.0000 C   0  0
    2.6167   -0.2167    0.0000 C   0  0
    3.9417   -1.1792    0.0000 C   0  0  1  0  0  0
    6.4792   -2.9375    0.0000 C   0  0  2  0  0  0
    8.4375   -0.8417    0.0000 C   0  0
   -0.3375   -1.1792    0.0000 C   0  0  1  0  0  0
    0.9792   -5.2500    0.0000 C   0  0
    7.4542   -1.8875    0.0000 N   0  0
    4.5167   -0.6292    0.0000 C   0  0
    9.6042    1.0083    0.0000 C   0  0
    1.8000   -0.0917    0.0000 C   0  0  2  0  0  0
    6.2042    2.2208    0.0000 C   0  0
    3.3542   -4.8750    0.0000 S   0  0
    2.6167   -5.2500    0.0000 S   0  0
    4.3000    0.1708    0.0000 C   0  0
    1.8000   -5.3792    0.0000 C   0  0
    7.6417   -1.0875    0.0000 C   0  0  1  0  0  0
    2.5167    1.9750    0.0000 C   0  0
    6.3917    3.0333    0.0000 N   0  0
    5.2667   -4.6167    0.0000 O   0  0
   -1.5000   -3.8042    0.0000 C   0  0
   -0.2375   -5.5417    0.0000 O   0  0
   -1.6708   -2.7375    0.0000 O   0  0
    3.9417   -4.2875    0.0000 C   0  0
    6.0625   -1.5667    0.0000 O   0  0
   -0.2375    0.0708    0.0000 O   0  0
    5.1042   -1.6625    0.0000 O   0  0
    2.8750    0.5708    0.0000 O   0  0
   -1.0083   -0.6917    0.0000 C   0  0
    9.0375   -1.4042    0.0000 O   0  0
    9.0000    1.5708    0.0000 O   0  0
   10.0167   -0.3625    0.0000 C   0  0  1  0  0  0
    4.8042    0.8208    0.0000 O   0  0
    3.2292    2.3958    0.0000 O   0  0
    1.8000    0.7333    0.0000 C   0  0
    6.8125    1.6583    0.0000 N   0  0
    5.4167    1.9833    0.0000 N   0  0
   10.3917    1.2458    0.0000 N   0  0
    5.7875   -4.0792    0.0000 C   0  0
    3.4875    0.2708    0.0000 N   0  0
    2.5167    1.1500    0.0000 C   0  0
   -2.1125   -3.2542    0.0000 C   0  0
    1.8000    2.3958    0.0000 N   0  0
   -1.0083   -4.7750    0.0000 C   0  0
   -3.3458   -2.1417    0.0000 C   0  0
   -0.9208    0.1250    0.0000 C   0  0
   -2.9000   -3.5042    0.0000 C   0  0
   -1.9458   -2.4417    0.0000 C   0  0
   -3.5208   -2.9542    0.0000 C   0  0
   -2.5583   -1.8917    0.0000 C   0  0
    7.0167   -3.5542    0.0000 C   0  0
    9.8292   -1.1667    0.0000 O   0  0
   -3.9583   -1.5917    0.0000 O   0  0
    6.5917   -4.2667    0.0000 C   0  0
    1.0792   -5.6792    0.0000 C   0  0
    2.5167   -5.6792    0.0000 C   0  0
    7.0417   -0.5167    0.0000 C   0  0
    6.6292    0.8500    0.0000 C   0  0
   10.8042   -0.1250    0.0000 C   0  0
   -0.1708    0.4625    0.0000 C   0  0
   -1.5958    0.6125    0.0000 C   0  0
    7.2292    0.2875    0.0000 C   0  0
    1.0792   -6.5042    0.0000 C   0  0
    2.5167   -6.5042    0.0000 C   0  0
   -1.5083    1.4333    0.0000 C   0  0
   -0.0833    1.2833    0.0000 C   0  0
   -0.7500    1.7708    0.0000 C   0  0
    1.8000   -6.9167    0.0000 C   0  0
  2  4  1  0
  3  1  1  0
  4 22  1  0
  5  9  1  0
  6  3  1  1
  7  6  1  0
  8  5  1  0
  9  2  1  0
 10 18  1  0
 11 26  1  0
 12 20  1  0
 13 12  1  6
 14  7  1  0
 15 11  1  0
 19 16  1  6
 17 10  1  0
 18 14  1  0
 19  1  1  0
 20 32  1  0
 21 15  1  0
 22 31  1  0
 23 16  1  0
 18 24  1  6
 25 13  1  0
 26 17  1  0
 27 51  2  0
 28 39  1  0
 29 28  1  0
 30 24  1  0
 31 29  1  0
 32 23  1  1
 33 56  1  0
 34 27  1  0
 35  3  2  0
  9 36  1  1
 37  4  2  0
 38  5  2  0
  6 39  1  0
 40 16  2  0
 41 15  2  0
 42 14  2  0
 43 17  2  0
 21 44  1  6
 45 20  2  0
 46 25  2  0
 13 47  1  0
 48 30  2  0
 49 33  2  0
 26 50  1  1
 51 73  1  0
 52 27  1  0
 53 25  1  0
 54  1  1  0
 55 30  1  0
 56 50  1  0
 57 36  1  0
 58 33  1  0
 59  2  1  0
 60 65  2  0
 61 44  1  0
 62 57  1  0
 63 57  2  0
 64 62  2  0
 65 63  1  0
 19 66  1  0
 47 67  1  6
 68 60  1  0
 69 54  1  0
 70 31  1  0
 71 31  1  0
 32 72  1  0
 73 77  1  0
 74 47  1  0
 75 61  2  0
 76 61  1  0
 77 72  1  0
 78 70  1  0
 79 71  1  0
 80 76  2  0
 81 75  1  0
 82 80  1  0
 83 79  1  0
 66 69  1  0
 83 78  1  0
 21  8  1  0
 60 64  1  0
 81 82  2  0
M  END