
          11280714502D 1   1.00000     0.00000     0

 21 22  0     0  0            999 V2000
    4.7667   -6.7375    0.0000 C   0  0  0  0  0  0           0  0  0
    7.4667   -5.1750    0.0000 C   0  0  0  0  0  0           0  0  0
    4.4667   -7.2500    0.0000 C   0  0  0  0  0  0           0  0  0
    4.4667   -6.2125    0.0000 C   0  0  0  0  0  0           0  0  0
    5.3667   -6.7375    0.0000 C   0  0  0  0  0  0           0  0  0
    3.5667   -7.7667    0.0000 N   0  0  0  0  0  0           0  0  0
    7.1667   -4.6542    0.0000 O   0  0  0  0  0  0           0  0  0
    8.0667   -5.1750    0.0000 O   0  0  0  0  0  0           0  0  0
    3.8667   -7.2500    0.0000 C   0  0  0  0  0  0           0  0  0
    7.1667   -5.6917    0.0000 C   0  0  0  0  0  0           0  0  0
    3.8667   -8.2875    0.0000 C   0  0  0  0  0  0           0  0  0
    5.6667   -6.2125    0.0000 C   0  0  0  0  0  0           0  0  0
    4.7667   -5.6917    0.0000 C   0  0  0  0  0  0           0  0  0
    3.8667   -6.2125    0.0000 C   0  0  0  0  0  0           0  0  0
    4.7667   -7.7667    0.0000 C   0  0  0  0  0  0           0  0  0
    6.5667   -5.6917    0.0000 C   0  0  0  0  0  0           0  0  0
    6.2667   -6.2125    0.0000 C   0  0  0  0  0  0           0  0  0
    4.4667   -8.2875    0.0000 C   0  0  0  0  0  0           0  0  0
    3.5667   -5.7000    0.0000 C   0  0  0  0  0  0           0  0  0
    4.4667   -5.1750    0.0000 C   0  0  0  0  0  0           0  0  0
    3.8667   -5.1750    0.0000 C   0  0  0  0  0  0           0  0  0
  2 10  1  0     0  0
  3  1  1  0     0  0
  4  1  1  0     0  0
  5  1  2  0     0  0
  6  9  1  0     0  0
  7  2  2  0     0  0
  8  2  1  0     0  0
  9  3  2  0     0  0
 10 16  1  0     0  0
 11 18  1  0     0  0
 12  5  1  0     0  0
 13  4  2  0     0  0
 14  4  1  0     0  0
 15  3  1  0     0  0
 16 17  1  0     0  0
 17 12  1  0     0  0
 18 15  2  0     0  0
 19 14  2  0     0  0
 20 13  1  0     0  0
 21 19  1  0     0  0
 20 21  2  0     0  0
 11  6  2  0     0  0
M  END