
  SciTegic04091511462D

 75 78  0  0  1  0            999 V2000
    5.2657   -6.8930    0.0000 N   0  0
    4.6191   -0.2850    0.0000 N   0  0
    2.7835   -1.8137    0.0000 N   0  0
    5.8739   -6.3286    0.0000 C   0  0
    3.8629   -0.5809    0.0000 C   0  0
    2.5698   -2.6192    0.0000 C   0  0
    5.7095   -5.5122    0.0000 C   0  0  1  0  0  0
    6.2191   -0.4603    0.0000 C   0  0
    6.4656   -5.2108    0.0000 N   0  0
    3.2274   -1.1069    0.0000 C   0  0  2  0  0  0
    7.7478   -3.1781    0.0000 N   0  0
    6.9095   -0.9096    0.0000 N   0  0
    7.0903   -4.6903    0.0000 C   0  0
    6.0547   -8.1368    0.0000 C   0  0
    7.7149   -2.3397    0.0000 C   0  0
    5.4410   -0.2357    0.0000 C   0  0  2  0  0  0
    7.5450   -3.9835    0.0000 C   0  0  2  0  0  0
    5.3479   -7.7258    0.0000 C   0  0  2  0  0  0
    2.6192   -3.4575    0.0000 C   0  0
    6.0547   -8.9807    0.0000 N   0  0
    8.2903   -4.3287    0.0000 C   0  0
    7.4190   -1.5671    0.0000 C   0  0  2  0  0  0
    6.7615  -10.2299    0.0000 C   0  0
    4.1095   -5.3423    0.0000 S   0  0
    3.4191   -4.8876    0.0000 S   0  0
    8.3724   -5.1615    0.0000 C   0  0
    2.8986   -4.2410    0.0000 C   0  0
    7.4684  -10.6518    0.0000 N   0  0
    6.7615   -9.3916    0.0000 C   0  0  2  0  0  0
    8.1752  -11.9066    0.0000 C   0  0
    9.5395   -1.1397    0.0000 C   0  0
    6.6465   -6.5916    0.0000 O   0  0
    3.4520    0.1424    0.0000 O   0  0
    2.6192   -0.5480    0.0000 C   0  0
    1.7644   -2.5314    0.0000 O   0  0
    6.5587    0.3068    0.0000 O   0  0
    4.8876   -5.5560    0.0000 C   0  0
    6.7615   -7.7258    0.0000 O   0  0
    7.6985   -5.2492    0.0000 O   0  0
    8.5040   -2.1698    0.0000 O   0  0
    6.0547  -10.6518    0.0000 O   0  0
    7.7149   -5.6547    0.0000 O   0  0
    8.8820  -11.4792    0.0000 O   0  0
   10.2409   -1.5671    0.0000 O   0  0
    8.1259   -1.1397    0.0000 C   0  0
    7.4684  -11.4792    0.0000 C   0  0
    5.5232    0.5862    0.0000 C   0  0  2  0  0  0
    4.4711   -6.7122    0.0000 C   0  0
    9.1122   -5.4958    0.0000 N   0  0
    8.8327   -1.5671    0.0000 C   0  0
    2.7945    0.2630    0.0000 C   0  0
    9.5395   -0.3123    0.0000 N   0  0
    8.1752  -12.7285    0.0000 N   0  0
    3.1287    1.9013    0.0000 C   0  0
    3.5670    0.5260    0.0000 C   0  0
    2.1862    0.8328    0.0000 C   0  0
    9.5889   -9.3916    0.0000 N   0  0
    2.3562    1.6383    0.0000 C   0  0
    3.7369    1.3424    0.0000 C   0  0
    4.6082   -8.0601    0.0000 C   0  0
    3.2931    2.7232    0.0000 O   0  0
    4.0657   -7.4464    0.0000 C   0  0
    2.2904   -3.7643    0.0000 C   0  0
    2.9972   -5.0191    0.0000 C   0  0
    7.4684   -8.9807    0.0000 C   0  0
    8.8820   -8.9807    0.0000 C   0  0
    6.2684    0.9314    0.0000 C   0  0
    4.8656    1.0794    0.0000 C   0  0
    8.1752   -9.3916    0.0000 C   0  0
    6.3506    1.7589    0.0000 C   0  0
    1.5945   -4.1808    0.0000 C   0  0
    2.2904   -5.4301    0.0000 C   0  0
    1.5945   -5.0191    0.0000 C   0  0
    4.5298    0.7125    0.0000 H   0  0
    4.0746    2.9875    0.0000 C   0  0
  2  5  1  0
  3  6  1  0
  4  1  1  0
  5 10  1  0
  6 19  1  0
  7  4  1  6
  8 12  1  0
  9  7  1  0
 10  3  1  0
 11 17  1  0
 12 22  1  0
 13  9  1  0
 18 14  1  6
 15 11  1  0
 16  8  1  0
 17 13  1  0
 18  1  1  0
 19 27  1  0
 20 14  1  0
 17 21  1  1
 22 15  1  0
 23 29  1  0
 24 37  1  0
 25 24  1  0
 26 21  1  0
 27 25  1  0
 28 23  1  0
 29 20  1  1
 30 46  1  0
 31 50  1  0
 32  4  2  0
 33  5  2  0
 10 34  1  1
 35  6  2  0
 36  8  2  0
  7 37  1  0
 38 14  2  0
 39 13  2  0
 40 15  2  0
 41 23  2  0
 42 26  2  0
 43 30  2  0
 44 31  2  0
 22 45  1  1
 46 28  1  0
 16 47  1  0
 48  1  1  0
 49 26  1  0
 50 45  1  0
 51 34  1  0
 52 31  1  0
 53 30  1  0
 54 58  1  0
 55 51  2  0
 56 51  1  0
 57 66  1  0
 58 56  2  0
 59 55  1  0
 18 60  1  0
 61 54  1  0
 62 48  1  0
 63 27  1  0
 64 27  1  0
 29 65  1  0
 66 69  1  0
 67 47  1  0
 47 68  1  1
 69 65  1  0
 70 67  1  0
 71 63  1  0
 72 64  1  0
 73 72  1  0
 60 62  1  0
 73 71  1  0
 16  2  1  0
 54 59  2  0
 16 74  1  6
 61 75  1  0
M  END