
  SciTegic03291108542D

 24 27  0  0  0  0            999 V2000
   -0.8290   -2.2656    0.0000 S   0  0
    0.6701    0.0518    0.0000 S   0  0
   -1.8488    2.2078    0.0000 O   0  0
    0.6701   -2.4232    0.0000 N   0  0
    1.3845   -1.1857    0.0000 N   0  0
    1.4708    1.2848    0.0000 N   0  0
    2.1382    0.1288    0.0000 N   0  0
    2.2777    1.4563    0.0000 N   0  0
    2.6902    0.7419    0.0000 N   0  0
   -0.0444   -1.1857    0.0000 C   0  0
   -0.8290   -0.9307    0.0000 C   0  0
   -0.0444   -2.0107    0.0000 C   0  0
    0.6701   -0.7732    0.0000 C   0  0
   -1.0840   -0.1461    0.0000 C   0  0
   -1.3139   -1.5982    0.0000 C   0  0
    1.3845    0.4643    0.0000 C   0  0
    1.3845   -2.0107    0.0000 C   0  0
   -1.8909    0.0254    0.0000 C   0  0
   -0.5319    0.4670    0.0000 C   0  0
   -2.1459    0.8100    0.0000 C   0  0
   -0.7869    1.2516    0.0000 C   0  0
   -1.5938    1.4231    0.0000 C   0  0
    0.8577    1.8369    0.0000 C   0  0
   -2.6558    2.3793    0.0000 C   0  0
  1 12  1  0
  1 15  1  0
  2 13  1  0
  2 16  1  0
  3 22  1  0
  3 24  1  0
  4 12  2  0
  4 17  1  0
  5 13  1  0
  5 17  2  0
  6  8  1  0
  6 16  1  0
  6 23  1  0
  7  9  1  0
  7 16  2  0
  8  9  2  0
 10 11  1  0
 10 12  1  0
 10 13  2  0
 11 14  1  0
 11 15  2  0
 14 18  2  0
 14 19  1  0
 18 20  1  0
 19 21  2  0
 20 22  2  0
 21 22  1  0
M  END