
  SciTegic05201615352D

 48 52  0  0  0  0            999 V2000
    0.4875   -0.9382    0.0000 P   0  0
    0.0026   -0.2707    0.0000 O   0  0
    0.9724   -1.6056    0.0000 O   0  0
    1.1550   -0.4532    0.0000 O   0  0
    1.9086   -0.7888    0.0000 C   0  0
    2.5761   -0.3039    0.0000 C   0  0  1  0  0  0
    2.5761    0.5211    0.0000 O   0  0
    3.3607   -0.5588    0.0000 C   0  0  1  0  0  0
    3.6156   -1.3434    0.0000 O   0  0
    3.8456    0.1086    0.0000 C   0  0  1  0  0  0
    4.6706    0.1086    0.0000 O   0  0
    3.3607    0.7761    0.0000 C   0  0  2  0  0  0
    3.6156    1.5607    0.0000 N   0  0
    3.1307    2.2281    0.0000 C   0  0
    3.6156    2.8956    0.0000 N   0  0
    4.4002    2.6406    0.0000 C   0  0
    5.1147    3.0531    0.0000 C   0  0
    5.1147    3.8781    0.0000 N   0  0
    5.8292    2.6406    0.0000 N   0  0
    5.8292    1.8156    0.0000 C   0  0
    5.1147    1.4031    0.0000 N   0  0
    4.4002    1.8156    0.0000 C   0  0
   -0.1799   -1.4231    0.0000 O   0  0
   -0.9336   -1.0875    0.0000 P   0  0
   -0.5980   -0.3339    0.0000 O   0  0
   -1.2692   -1.8412    0.0000 O   0  5
   -1.6873   -0.7520    0.0000 O   0  0
   -2.3547   -1.2369    0.0000 C   0  0
   -3.1084   -0.9013    0.0000 C   0  0  1  0  0  0
   -3.8229   -1.3138    0.0000 O   0  0
   -3.2799   -0.0944    0.0000 C   0  0  1  0  0  0
   -2.7279    0.5187    0.0000 O   0  0
   -4.1004   -0.0081    0.0000 C   0  0  1  0  0  0
   -4.5129    0.7063    0.0000 O   0  0
   -4.4360   -0.7618    0.0000 C   0  0  2  0  0  0
   -5.2429   -0.9333    0.0000 N   0  3
   -5.7950   -0.3202    0.0000 C   0  0
   -6.6019   -0.4918    0.0000 C   0  0
   -7.1540    0.1213    0.0000 C   0  0
   -7.9609   -0.0502    0.0000 O   0  0
   -6.8990    0.9060    0.0000 N   0  0
   -6.8569   -1.2764    0.0000 C   0  0
   -6.3048   -1.8895    0.0000 C   0  0
   -5.4979   -1.7179    0.0000 C   0  0
    5.0831   -0.6058    0.0000 P   0  0
    4.3686   -1.0183    0.0000 O   0  0
    5.7976   -0.1933    0.0000 O   0  0
    5.4956   -1.3203    0.0000 O   0  0
  2  1  2  0
  1  3  1  0
  1  4  1  0
 23  1  1  0
  5  4  1  0
  6  5  1  1
  6  7  1  0
  8  6  1  0
 12  7  1  0
  8  9  1  6
 10  8  1  0
 10 11  1  6
 12 10  1  0
 11 45  1  0
 12 13  1  1
 14 13  1  0
 22 13  1  0
 14 15  2  0
 16 15  1  0
 16 17  1  0
 22 16  2  0
 17 18  1  0
 17 19  2  0
 20 19  1  0
 20 21  2  0
 22 21  1  0
 24 23  1  0
 25 24  2  0
 24 26  1  0
 27 24  1  0
 28 27  1  0
 29 28  1  1
 29 30  1  0
 31 29  1  0
 35 30  1  0
 31 32  1  6
 33 31  1  0
 33 34  1  6
 35 33  1  0
 35 36  1  1
 37 36  1  0
 44 36  2  0
 37 38  2  0
 38 39  1  0
 38 42  1  0
 39 40  2  0
 39 41  1  0
 42 43  2  0
 43 44  1  0
 46 45  2  0
 47 45  1  0
 48 45  1  0
M  CHG  2  26  -1  36   1
M  END