
          11280715252D 1   1.00000     0.00000     0

 27 29  0     0  0            999 V2000
   -1.4708   -6.0542    0.0000 N   0  0  3  0  0  0           0  0  0
   -0.9208   -5.4500    0.0000 C   0  0  0  0  0  0           0  0  0
   -1.3333   -4.7292    0.0000 C   0  0  0  0  0  0           0  0  0
   -2.1375   -4.9042    0.0000 N   0  0  0  0  0  0           0  0  0
   -2.2208   -5.7250    0.0000 C   0  0  0  0  0  0           0  0  0
    0.8250   -7.1167    0.0000 C   0  0  0  0  0  0           0  0  0
    0.1542   -6.6292    0.0000 S   0  0  0  0  0  0           0  0  0
    1.6500   -7.1167    0.0000 C   0  0  0  0  0  0           0  0  0
   -0.5125   -7.1167    0.0000 C   0  0  0  0  0  0           0  0  0
    2.0542   -6.4042    0.0000 C   0  0  0  0  0  0           0  0  0
    0.5667   -7.9042    0.0000 C   0  0  0  0  0  0           0  0  0
   -1.2958   -6.8625    0.0000 C   0  0  0  0  0  0           0  0  0
    1.6417   -5.6917    0.0000 C   0  0  0  0  0  0           0  0  0
   -0.2583   -7.9042    0.0000 C   0  0  0  0  0  0           0  0  0
   -0.0958   -5.5375    0.0000 Cl  0  0  0  0  0  0           0  0  0
    0.8167   -5.7000    0.0000 O   0  0  0  0  0  0           0  0  0
   -0.9958   -3.9792    0.0000 C   0  0  0  0  0  0           0  0  0
    2.0500   -4.9792    0.0000 O   0  0  0  0  0  0           0  0  0
   -2.9375   -6.1417    0.0000 C   0  0  0  0  0  0           0  0  0
    2.0542   -7.8292    0.0000 C   0  0  0  0  0  0           0  0  0
    2.8750   -6.4042    0.0000 C   0  0  0  0  0  0           0  0  0
   -0.1750   -3.8917    0.0000 O   0  0  0  0  0  0           0  0  0
   -3.6500   -5.7292    0.0000 C   0  0  0  0  0  0           0  0  0
   -4.3708   -6.1417    0.0000 C   0  0  0  0  0  0           0  0  0
    3.2875   -7.1167    0.0000 C   0  0  0  0  0  0           0  0  0
    2.8792   -7.8292    0.0000 C   0  0  0  0  0  0           0  0  0
   -5.0833   -5.7375    0.0000 C   0  0  0  0  0  0           0  0  0
  2  1  1  0     0  0
  3  2  2  0     0  0
  4  5  2  0     0  0
  5  1  1  0     0  0
  6  7  1  0     0  0
  7  9  1  0     0  0
  8  6  1  0     0  0
  9 12  1  0     0  0
 10  8  2  0     0  0
 11 14  1  0     0  0
 12  1  1  0     0  0
 13 10  1  0     0  0
 14  9  2  0     0  0
 15  2  1  0     0  0
 16 13  2  0     0  0
 17  3  1  0     0  0
 18 13  1  0     0  0
 19  5  1  0     0  0
 20  8  1  0     0  0
 21 10  1  0     0  0
 22 17  1  0     0  0
 23 19  1  0     0  0
 24 23  1  0     0  0
 25 26  1  0     0  0
 26 20  2  0     0  0
 27 24  1  0     0  0
  3  4  1  0     0  0
 11  6  2  0     0  0
 21 25  2  0     0  0
M  END