
          11280715302D 1   1.00000     0.00000     0

 23 26  0     0  0            999 V2000
    2.9500   -5.4250    0.0000 C   0  0  0  0  0  0           0  0  0
    2.9167   -6.0250    0.0000 C   0  0  0  0  0  0           0  0  0
    6.5917   -5.3250    0.0000 C   0  0  0  0  0  0           0  0  0
    3.4792   -5.1542    0.0000 C   0  0  0  0  0  0           0  0  0
    6.0542   -5.5917    0.0000 N   0  0  3  0  0  0           0  0  0
    4.9875   -6.1292    0.0000 N   0  0  3  0  0  0           0  0  0
    2.3417   -6.1792    0.0000 O   0  0  0  0  0  0           0  0  0
    3.4167   -6.3417    0.0000 C   0  0  0  0  0  0           0  0  0
    3.9500   -6.0750    0.0000 C   0  0  3  0  0  0           0  0  0
    7.0917   -5.6542    0.0000 N   0  0  0  0  0  0           0  0  0
    6.6250   -4.7292    0.0000 N   0  0  0  0  0  0           0  0  0
    2.3792   -5.2125    0.0000 C   0  0  0  0  0  0           0  0  0
    3.9792   -5.4792    0.0000 C   0  0  0  0  0  0           0  0  0
    2.0042   -5.6792    0.0000 C   0  0  0  0  0  0           0  0  0
    3.5042   -4.5542    0.0000 O   0  0  0  0  0  0           0  0  0
    5.5542   -5.2667    0.0000 C   0  0  0  0  0  0           0  0  0
    6.0250   -6.1917    0.0000 C   0  0  0  0  0  0           0  0  0
    4.4542   -6.4042    0.0000 C   0  0  0  0  0  0           0  0  0
    5.0167   -5.5375    0.0000 C   0  0  0  0  0  0           0  0  0
    5.4917   -6.4625    0.0000 C   0  0  0  0  0  0           0  0  0
    7.6625   -4.7792    0.0000 C   0  0  0  0  0  0           0  0  0
    7.1542   -4.4542    0.0000 C   0  0  0  0  0  0           0  0  0
    7.6292   -5.3792    0.0000 C   0  0  0  0  0  0           0  0  0
  2  1  2  0     0  0
  3  5  1  0     0  0
  4  1  1  0     0  0
  5 17  1  0     0  0
  6 18  1  0     0  0
  7  2  1  0     0  0
  8  2  1  0     0  0
  9 13  1  0     0  0
 10  3  2  0     0  0
 11  3  1  0     0  0
 12  1  1  0     0  0
 13  4  1  0     0  0
 14 12  2  0     0  0
 15  4  2  0     0  0
 16 19  1  0     0  0
 17 20  1  0     0  0
 18  9  1  0     0  0
 19  6  1  0     0  0
 20  6  1  0     0  0
 21 22  1  0     0  0
 22 11  2  0     0  0
 23 10  1  0     0  0
  7 14  1  0     0  0
  9  8  1  0     0  0
  5 16  1  0     0  0
 21 23  2  0     0  0
M  END