
          11280715472D 1   1.00000     0.00000     0

 25 27  0     0  0            999 V2000
    2.0250    2.7208    0.0000 N   0  0  3  0  0  0           0  0  0
   -0.8333   -2.2250    0.0000 N   0  0  3  0  0  0           0  0  0
    1.3125    3.1458    0.0000 C   0  0  0  0  0  0           0  0  0
    2.0250    1.8958    0.0000 C   0  0  0  0  0  0           0  0  0
    0.5917    2.7208    0.0000 C   0  0  0  0  0  0           0  0  0
    1.3125    1.4833    0.0000 C   0  0  0  0  0  0           0  0  0
   -0.1125   -1.8167    0.0000 C   0  0  0  0  0  0           0  0  0
   -0.1208    1.4833    0.0000 O   0  0  0  0  0  0           0  0  0
    2.7417    3.1458    0.0000 C   0  0  3  0  0  0           0  0  0
    0.5917    1.9000    0.0000 C   0  0  3  0  0  0           0  0  0
   -1.5375   -1.8167    0.0000 C   0  0  0  0  0  0           0  0  0
   -0.8333   -3.0542    0.0000 C   0  0  0  0  0  0           0  0  0
   -0.1208    0.6625    0.0000 C   0  0  0  0  0  0           0  0  0
   -0.1125   -0.9917    0.0000 C   0  0  0  0  0  0           0  0  0
    0.6000    0.2583    0.0000 C   0  0  0  0  0  0           0  0  0
   -0.8250    0.2458    0.0000 C   0  0  0  0  0  0           0  0  0
   -0.8333   -0.5792    0.0000 C   0  0  0  0  0  0           0  0  0
    0.6042   -0.5792    0.0000 C   0  0  0  0  0  0           0  0  0
   -2.2500   -2.2167    0.0000 C   0  0  0  0  0  0           0  0  0
   -1.5458   -3.4542    0.0000 C   0  0  0  0  0  0           0  0  0
   -2.2583   -3.0375    0.0000 C   0  0  3  0  0  0           0  0  0
   -3.6875   -3.0250    0.0000 O   0  0  0  0  0  0           0  0  0
   -2.9750   -3.4542    0.0000 C   0  0  0  0  0  0           0  0  0
    2.7417    3.9625    0.0000 C   0  0  0  0  0  0           0  0  0
    3.4542    2.7208    0.0000 C   0  0  0  0  0  0           0  0  0
  2  7  1  0     0  0
  3  1  1  0     0  0
  4  1  1  0     0  0
  5  3  1  0     0  0
  6  4  1  0     0  0
  7 14  1  0     0  0
  8 10  1  0     0  0
  9  1  1  0     0  0
 10  6  1  0     0  0
 11  2  1  0     0  0
 12  2  1  0     0  0
 13  8  1  0     0  0
 14 17  1  0     0  0
 15 13  2  0     0  0
 16 13  1  0     0  0
 17 16  2  0     0  0
 18 15  1  0     0  0
 19 11  1  0     0  0
 20 12  1  0     0  0
 21 20  1  0     0  0
 22 23  1  0     0  0
 23 21  1  0     0  0
 24  9  1  0     0  0
 25  9  1  0     0  0
  5 10  1  0     0  0
 14 18  2  0     0  0
 21 19  1  0     0  0
M  END