
  SciTegic01161211252D

 26 27  0  0  0  0            999 V2000
    0.5087   -7.4846    0.0000 C   0  0  2  0  0  0
    0.5087   -8.3141    0.0000 C   0  0  1  0  0  0
    1.2232   -8.7266    0.0000 C   0  0  2  0  0  0
    1.9423   -8.3141    0.0000 C   0  0  1  0  0  0
    1.9423   -7.4846    0.0000 O   0  0
    1.2232   -7.0675    0.0000 C   0  0  2  0  0  0
   -0.2057   -8.7266    0.0000 N   0  0
   -0.2067   -7.0738    0.0000 O   0  0
    2.6562   -8.7276    0.0000 S   0  0
    3.3712   -8.3161    0.0000 C   0  0
   -0.9201   -8.3141    0.0000 C   0  0
   -1.6347   -8.7266    0.0000 C   0  0
   -0.9201   -7.4891    0.0000 O   0  0
   -2.3479   -8.3099    0.0000 C   0  0
   -3.0620   -8.7218    0.0000 C   0  0
   -3.0624   -9.5477    0.0000 C   0  0
   -2.3429   -9.9599    0.0000 C   0  0
   -1.6318   -9.5458    0.0000 C   0  0
   -3.7763   -9.9611    0.0000 C   0  0
    1.2221   -9.5516    0.0000 O   0  0
    1.2221   -6.2425    0.0000 C   0  0
    1.9360   -5.8290    0.0000 O   0  0
    1.9360   -9.9651    0.0000 P   0  0
    2.5162  -10.5462    0.0000 O   0  0
    2.4389   -9.3112    0.0000 O   0  0
    1.4371  -10.6222    0.0000 O   0  0
 11 13  2  0
 12 14  2  0
  2  7  1  1
 14 15  1  0
  1  2  1  0
 15 16  2  0
  1  8  1  1
 16 17  1  0
  1  6  1  0
 17 18  2  0
 18 12  1  0
  4  9  1  1
 16 19  1  0
  2  3  1  0
  3 20  1  6
  9 10  1  0
  6 21  1  1
  3  4  1  0
 21 22  1  0
  7 11  1  0
 20 23  1  0
  4  5  1  0
 23 24  1  0
 11 12  1  0
 23 25  2  0
  5  6  1  0
 23 26  1  0
M  END