
  Mrv0541 04051115152D          

 17 18  0  0  0  0            999 V2000
    1.6815    1.4011    0.0000 C   0  0  0  0  0  0  0  0  0  0  0  0
    2.3959    0.9886    0.0000 C   0  0  0  0  0  0  0  0  0  0  0  0
    2.3959    0.1636    0.0000 C   0  0  0  0  0  0  0  0  0  0  0  0
    1.6815   -0.2489    0.0000 C   0  0  0  0  0  0  0  0  0  0  0  0
    0.9670    0.1636    0.0000 C   0  0  0  0  0  0  0  0  0  0  0  0
    0.9670    0.9886    0.0000 C   0  0  0  0  0  0  0  0  0  0  0  0
    0.2525   -0.2489    0.0000 C   0  0  0  0  0  0  0  0  0  0  0  0
   -0.4620    0.1636    0.0000 C   0  0  0  0  0  0  0  0  0  0  0  0
   -1.1764   -0.2489    0.0000 C   0  0  0  0  0  0  0  0  0  0  0  0
   -1.8909    0.1636    0.0000 C   0  0  0  0  0  0  0  0  0  0  0  0
   -2.6054   -0.2489    0.0000 C   0  0  0  0  0  0  0  0  0  0  0  0
   -2.6054   -1.0739    0.0000 C   0  0  0  0  0  0  0  0  0  0  0  0
   -1.8909   -1.4864    0.0000 C   0  0  0  0  0  0  0  0  0  0  0  0
   -1.1764   -1.0739    0.0000 C   0  0  0  0  0  0  0  0  0  0  0  0
   -3.3198   -1.4864    0.0000 O   0  0  0  0  0  0  0  0  0  0  0  0
    3.1104   -0.2489    0.0000 O   0  0  0  0  0  0  0  0  0  0  0  0
    1.6815    2.2261    0.0000 O   0  0  0  0  0  0  0  0  0  0  0  0
  1  2  2  0  0  0  0
  1  6  1  0  0  0  0
  1 17  1  0  0  0  0
  2  3  1  0  0  0  0
  3  4  2  0  0  0  0
  3 16  1  0  0  0  0
  4  5  1  0  0  0  0
  5  6  2  0  0  0  0
  5  7  1  0  0  0  0
  7  8  2  0  0  0  0
  8  9  1  0  0  0  0
 10  9  2  0  0  0  0
 14  9  1  0  0  0  0
 10 11  1  0  0  0  0
 11 12  2  0  0  0  0
 12 13  1  0  0  0  0
 12 15  1  0  0  0  0
 13 14  2  0  0  0  0
M  END