
  SciTegic09251318272D

 55 62  0  0  0  0            999 V2000
   -5.0576   -2.3952    0.0000 N   0  0
    5.4040    2.7713    0.0000 N   0  0
    5.7009    1.3807    0.0000 N   0  3
    6.2206    2.9346    0.0000 C   0  0
    4.9933    3.4839    0.0000 C   0  0
   -5.7405   -1.9498    0.0000 C   0  0
    6.5076    1.5440    0.0000 C   0  0
   -4.3499   -1.9795    0.0000 C   0  0
   -6.8243   -2.9594    0.0000 C   0  0
   -5.0130   -3.2118    0.0000 C   0  0
   -6.5323   -2.2022    0.0000 C   0  0
    6.7600    2.3259    0.0000 C   0  0
   -6.4234   -3.6720    0.0000 N   0  0
    4.9933    2.0586    0.0000 B   0  5
    5.5575    4.1074    0.0000 C   0  0
   -5.5920   -3.7908    0.0000 C   0  0
    4.1619    3.4987    0.0000 C   0  0
    6.3146    3.7659    0.0000 C   0  0
    5.6169    0.5592    0.0000 C   0  0
    6.9183    0.8314    0.0000 C   0  0
    6.3592    0.2177    0.0000 C   0  0
   -3.6522   -0.7325    0.0000 N   0  0
   -4.3598   -1.1481    0.0000 C   0  0
    3.6720    2.8306    0.0000 S   0  0
   -4.2113   -3.4642    0.0000 N   0  0
   -2.2269    0.1188    0.0000 N   0  0
    3.4790    0.1435    0.0000 C   0  0
   -3.7561   -2.5535    0.0000 O   0  0
   -7.6508   -2.9445    0.0000 O   0  0
    3.6819    4.1668    0.0000 C   0  0
    2.8950    3.0979    0.0000 C   0  0
    4.8992    0.1435    0.0000 C   0  0
    2.8950    3.9194    0.0000 C   0  0
    4.2658    2.4743    0.0000 F   0  0
    4.3995    1.4698    0.0000 F   0  0
    3.4642   -0.6731    0.0000 O   0  0
    2.7664    0.5592    0.0000 N   0  0
   -3.6620    0.0989    0.0000 C   0  0
   -2.9247   -1.1283    0.0000 C   0  0
   -2.9494    0.5196    0.0000 C   0  0
   -2.2219   -0.7126    0.0000 C   0  0
    4.1916    0.5592    0.0000 C   0  0
   -7.1312   -1.6479    0.0000 C   0  0
   -5.5623   -1.1333    0.0000 C   0  0
   -5.3990   -4.5875    0.0000 C   0  0
   -1.5242    0.5295    0.0000 C   0  0
   -4.0183   -4.2510    0.0000 C   0  0
    2.0538    0.1435    0.0000 C   0  0
   -0.8116    0.1286    0.0000 C   0  0
    1.3263    0.5493    0.0000 C   0  0
   -4.6122   -4.8250    0.0000 C   0  0
   -6.9727   -0.8364    0.0000 C   0  0
   -6.1859   -0.5790    0.0000 C   0  0
    0.6285    0.1336    0.0000 C   0  0
   -0.0989    0.5443    0.0000 C   0  0
  2  4  1  0
  3 19  2  0
  4 12  1  0
  5  2  1  0
  6  1  1  0
  7  3  1  0
  8  1  1  0
  9 11  1  0
 10  1  1  0
 11  6  2  0
 12  7  2  0
 13 16  1  0
 14  2  1  0
 15 18  1  0
 16 10  2  0
 17  5  1  0
 18  4  2  0
 19 32  1  0
 20 21  2  0
 21 19  1  0
 22 23  1  0
 23  8  1  0
 24 17  1  0
 25 10  1  0
 26 41  1  0
 27 37  1  0
 28  8  2  0
 29  9  2  0
 30 17  2  0
 31 24  1  0
 32 42  1  0
 33 30  1  0
 34 14  1  0
 35 14  1  0
 36 27  2  0
 37 48  1  0
 38 22  1  0
 39 22  1  0
 40 38  1  0
 41 39  1  0
 42 27  1  0
 43 11  1  0
 44  6  1  0
 45 16  1  0
 46 26  1  0
 47 25  2  0
 48 50  1  0
 49 46  1  0
 50 54  1  0
 51 47  1  0
 52 53  1  0
 53 44  2  0
 54 55  1  0
 55 49  1  0
 13  9  1  0
 45 51  2  0
 43 52  2  0
 40 26  1  0
  7 20  1  0
  5 15  2  0
 33 31  2  0
  3 14  1  0
M  CHG  2   3   1  14  -1
M  END