
          11280715342D 1   1.00000     0.00000     0

 29 31  0     0  0            999 V2000
    1.7625   -3.2250    0.0000 N   0  0  3  0  0  0           0  0  0
    1.6292   -2.4917    0.0000 C   0  0  0  0  0  0           0  0  0
    5.9000   -6.0667    0.0000 S   0  0  3  0  0  0           0  0  0
    0.2292   -2.1875    0.0000 O   0  0  0  0  0  0           0  0  0
    1.1542   -3.7875    0.0000 C   0  0  0  0  0  0           0  0  0
    1.0167   -1.9375    0.0000 C   0  0  0  0  0  0           0  0  0
    2.1792   -3.9375    0.0000 C   0  0  0  0  0  0           0  0  0
    0.3417   -3.6667    0.0000 C   0  0  0  0  0  0           0  0  0
   -0.0708   -2.9542    0.0000 C   0  0  0  0  0  0           0  0  0
    2.4125   -2.2417    0.0000 C   0  0  0  0  0  0           0  0  0
    4.2417   -4.6417    0.0000 C   0  0  0  0  0  0           0  0  0
    4.6542   -5.3542    0.0000 C   0  0  0  0  0  0           0  0  0
    5.1792   -6.4875    0.0000 O   0  0  0  0  0  0           0  0  0
    6.3167   -6.7917    0.0000 O   0  0  0  0  0  0           0  0  0
    3.4167   -4.6417    0.0000 N   0  0  0  0  0  0           0  0  0
    3.0042   -3.9292    0.0000 C   0  0  0  0  0  0           0  0  0
    5.4792   -5.3542    0.0000 C   0  0  0  0  0  0           0  0  0
    1.7667   -4.6542    0.0000 O   0  0  0  0  0  0           0  0  0
    1.1917   -1.1292    0.0000 C   0  0  0  0  0  0           0  0  0
    4.6542   -3.9292    0.0000 O   0  0  0  0  0  0           0  0  0
    2.5917   -1.4375    0.0000 C   0  0  0  0  0  0           0  0  0
    6.6167   -5.6542    0.0000 C   0  0  0  0  0  0           0  0  0
    1.9792   -0.8792    0.0000 C   0  0  0  0  0  0           0  0  0
    3.3917   -1.1792    0.0000 Cl  0  0  0  0  0  0           0  0  0
   -0.0708   -4.3792    0.0000 C   0  0  0  0  0  0           0  0  0
   -0.8958   -2.9542    0.0000 C   0  0  0  0  0  0           0  0  0
    7.3375   -6.0667    0.0000 C   0  0  0  0  0  0           0  0  0
   -0.9000   -4.3792    0.0000 C   0  0  0  0  0  0           0  0  0
   -1.3125   -3.6667    0.0000 C   0  0  0  0  0  0           0  0  0
  2  1  1  0     0  0
  3 17  1  0     0  0
  4  6  1  0     0  0
  5  1  1  0     0  0
  6  2  1  0     0  0
  7  1  1  0     0  0
  8  5  1  0     0  0
  9  8  2  0     0  0
 10  2  2  0     0  0
 11 15  1  0     0  0
 12 11  1  0     0  0
 13  3  2  0     0  0
 14  3  2  0     0  0
 15 16  1  0     0  0
 16  7  1  0     0  0
 17 12  1  0     0  0
 18  7  2  0     0  0
 19  6  2  0     0  0
 20 11  2  0     0  0
 21 10  1  0     0  0
 22  3  1  0     0  0
 23 21  2  0     0  0
 24 21  1  0     0  0
 25  8  1  0     0  0
 26  9  1  0     0  0
 27 22  1  0     0  0
 28 25  2  0     0  0
 29 28  1  0     0  0
  9  4  1  0     0  0
 23 19  1  0     0  0
 26 29  2  0     0  0
M  END