
  SciTegic05071317052D

 29 29  0  0  0  0            999 V2000
   20.3157   -9.9900    0.0000 C   0  0
   21.1396   -9.9807    0.0000 C   0  0
   21.5393   -9.2599    0.0000 C   0  0
   21.1141   -8.5517    0.0000 C   0  0
   20.2850   -8.5691    0.0000 C   0  0
   19.8890   -9.2906    0.0000 C   0  0
   17.5881  -15.3881    0.0000 C   0  0
   17.5881  -16.2130    0.0000 C   0  0
   18.3001  -16.6214    0.0000 N   0  0
   19.0122  -16.2130    0.0000 C   0  0
   19.0122  -15.3881    0.0000 C   0  0
   18.3001  -14.9713    0.0000 N   0  0
   18.3005  -14.1461    0.0000 C   0  0
   18.9680  -13.6611    0.0000 N   0  0
   18.7132  -12.8759    0.0000 C   0  0
   17.8879  -12.8764    0.0000 C   0  0
   17.6331  -13.6611    0.0000 S   0  0
   19.1130  -12.1543    0.0000 C   0  0
   19.9378  -12.1396    0.0000 C   0  0
   20.3376  -11.4179    0.0000 N   0  0
   21.1625  -11.4032    0.0000 C   0  0
   19.9125  -10.7108    0.0000 C   0  0
   18.3001  -17.4464    0.0000 C   0  0
   17.5857  -17.8590    0.0000 C   0  0
   17.5857  -18.6840    0.0000 C   0  0
   19.0875  -10.7238    0.0000 O   0  0
   21.5129   -7.8296    0.0000 Cl  0  0
   15.4942  -13.6505    0.0000 Br  0  0
   15.7045  -12.7580    0.0000 Br  0  0
  1  2  2  0
  2  3  1  0
  3  4  2  0
  4  5  1  0
  5  6  2  0
  6  1  1  0
  7  8  1  0
  7 12  1  0
  8  9  1  0
  9 10  1  0
 10 11  1  0
 11 12  1  0
 13 14  2  0
 14 15  1  0
 15 16  2  0
 16 17  1  0
 17 13  1  0
 12 13  1  0
 15 18  1  0
 18 19  1  0
 19 20  1  0
 20 21  1  0
 20 22  1  0
  9 23  1  0
 23 24  1  0
 24 25  1  0
 22  1  1  0
 22 26  2  0
  4 27  1  0
M  END