
  CDK    9/16/09,9:46

109114  0  0  0  0  0  0  0  0999 V2000
   19.4104  -10.2544    0.0000 N   0  0  0  0  0  0  0  0  0  0  0  0
   20.0595   -9.7890    0.0000 C   0  0  0  0  0  0  0  0  0  0  0  0
   20.7416  -11.0638    0.0000 O   0  0  0  0  0  0  0  0  0  0  0  0
   20.7386  -10.2419    0.0000 C   0  0  0  0  0  0  0  0  0  0  0  0
   20.0599   -8.9558    0.0000 C   0  0  0  0  0  0  0  0  0  0  0  0
   20.7683   -8.5491    0.0000 S   0  0  0  0  0  0  0  0  0  0  0  0
   21.4636   -9.8523    0.0000 O   0  0  0  0  0  0  0  0  0  0  0  0
   15.7028   -9.1908    0.0000 N   0  0  0  0  0  0  0  0  0  0  0  0
   16.3475   -8.7162    0.0000 C   0  0  0  0  0  0  0  0  0  0  0  0
   17.0295  -10.0002    0.0000 O   0  0  0  0  0  0  0  0  0  0  0  0
   17.0265   -9.1784    0.0000 C   0  0  0  0  0  0  0  0  0  0  0  0
   16.3478   -7.8921    0.0000 C   0  0  0  0  0  0  0  0  0  0  0  0
   17.7533   -8.7920    0.0000 N   0  0  0  0  0  0  0  0  0  0  0  0
   13.6533   -8.7904    0.0000 N   0  0  0  0  0  0  0  0  0  0  0  0
   14.2978   -9.2603    0.0000 C   0  0  0  0  0  0  0  0  0  0  0  0
   14.9799   -7.9809    0.0000 O   0  0  0  0  0  0  0  0  0  0  0  0
   14.9769   -8.8028    0.0000 C   0  0  0  0  0  0  0  0  0  0  0  0
   14.2982  -10.0844    0.0000 C   0  0  0  0  0  0  0  0  0  0  0  0
   15.0066  -10.4958    0.0000 C   0  0  0  0  0  0  0  0  0  0  0  0
   15.0069  -11.3142    0.0000 C   0  0  0  0  0  0  0  0  0  0  0  0
   15.7193  -10.0839    0.0000 C   0  0  0  0  0  0  0  0  0  0  0  0
   17.8684   -7.9811    0.0000 C   0  0  0  0  0  0  0  0  0  0  0  0
   18.6791   -7.8383    0.0000 C   0  0  0  0  0  0  0  0  0  0  0  0
   19.0654   -8.5652    0.0000 C   0  0  0  0  0  0  0  0  0  0  0  0
   18.4934   -9.1571    0.0000 C   0  0  0  0  0  0  0  0  0  0  0  0
   18.6345   -9.9680    0.0000 C   0  0  0  0  0  0  0  0  0  0  0  0
   18.0027  -10.4955    0.0000 O   0  0  0  0  0  0  0  0  0  0  0  0
   16.9243   -7.3045    0.0000 C   0  0  0  0  0  0  0  0  0  0  0  0
   17.7217   -7.5129    0.0000 C   0  0  0  0  0  0  0  0  0  0  0  0
   18.2979   -6.9262    0.0000 C   0  0  0  0  0  0  0  0  0  0  0  0
   18.0775   -6.1322    0.0000 C   0  0  0  0  0  0  0  0  0  0  0  0
   17.2756   -5.9282    0.0000 C   0  0  0  0  0  0  0  0  0  0  0  0
   16.7029   -6.5164    0.0000 C   0  0  0  0  0  0  0  0  0  0  0  0
   18.6532   -5.5439    0.0000 O   0  0  0  0  0  0  0  0  0  0  0  0
    9.8907  -10.2431    0.0000 C   0  0  0  0  0  0  0  0  0  0  0  0
   10.3938  -10.8976    0.0000 C   0  0  0  0  0  0  0  0  0  0  0  0
   11.2214  -10.9118    0.0000 C   0  0  0  0  0  0  0  0  0  0  0  0
   10.0911   -9.4401    0.0000 C   0  0  0  0  0  0  0  0  0  0  0  0
   11.7505  -10.2800    0.0000 C   0  0  0  0  0  0  0  0  0  0  0  0
   10.8444   -9.0938    0.0000 C   0  0  0  0  0  0  0  0  0  0  0  0
   11.5824   -9.4709    0.0000 N   0  0  0  0  0  0  0  0  0  0  0  0
    9.4574   -8.9147    0.0000 N   0  0  0  0  0  0  0  0  0  0  0  0
   10.8615   -8.2709    0.0000 O   0  0  0  0  0  0  0  0  0  0  0  0
   12.2369   -8.9717    0.0000 C   0  0  0  0  0  0  0  0  0  0  0  0
   12.9961   -9.2890    0.0000 C   0  0  0  0  0  0  0  0  0  0  0  0
   12.9609  -10.1113    0.0000 O   0  0  0  0  0  0  0  0  0  0  0  0
    7.3915   -9.3165    0.0000 N   0  0  0  0  0  0  0  0  0  0  0  0
    8.0451   -8.8419    0.0000 C   0  0  0  0  0  0  0  0  0  0  0  0
    8.7364  -10.1350    0.0000 O   0  0  0  0  0  0  0  0  0  0  0  0
    8.7333   -9.3040    0.0000 C   0  0  0  0  0  0  0  0  0  0  0  0
    8.0455   -8.0087    0.0000 C   0  0  0  0  0  0  0  0  0  0  0  0
    3.1799   -9.3165    0.0000 N   0  0  0  0  0  0  0  0  0  0  0  0
    3.8291   -8.8419    0.0000 C   0  0  0  0  0  0  0  0  0  0  0  0
    4.5158  -10.1305    0.0000 O   0  0  0  0  0  0  0  0  0  0  0  0
    4.5127   -9.3040    0.0000 C   0  0  0  0  0  0  0  0  0  0  0  0
    5.2389   -8.9166    0.0000 N   0  0  0  0  0  0  0  0  0  0  0  0
    1.1208   -8.9166    0.0000 N   0  0  0  0  0  0  0  0  0  0  0  0
    1.7700   -9.3912    0.0000 C   0  0  0  0  0  0  0  0  0  0  0  0
    2.4567   -8.1026    0.0000 O   0  0  0  0  0  0  0  0  0  0  0  0
    2.4536   -8.9291    0.0000 C   0  0  0  0  0  0  0  0  0  0  0  0
    1.7703  -10.2198    0.0000 C   0  0  0  0  0  0  0  0  0  0  0  0
    2.4834  -10.6311    0.0000 O   0  0  0  0  0  0  0  0  0  0  0  0
    1.0576  -10.6317    0.0000 C   0  0  0  0  0  0  0  0  0  0  0  0
    5.9815   -9.3912    0.0000 C   0  0  0  0  0  0  0  0  0  0  0  0
    6.6682   -8.1026    0.0000 O   0  0  0  0  0  0  0  0  0  0  0  0
    6.6651   -8.9291    0.0000 C   0  0  0  0  0  0  0  0  0  0  0  0
    5.9819  -10.2198    0.0000 C   0  0  0  0  0  0  0  0  0  0  0  0
    6.7069  -11.4559    0.0000 N   0  0  0  0  0  0  0  0  0  0  0  0
    7.4922  -11.7023    0.0000 C   0  0  0  0  0  0  0  0  0  0  0  0
    7.9693  -11.0315    0.0000 N   0  0  0  0  0  0  0  0  0  0  0  0
    7.4787  -10.3706    0.0000 C   0  0  0  0  0  0  0  0  0  0  0  0
    6.6985  -10.6329    0.0000 C   0  0  0  0  0  0  0  0  0  0  0  0
   -3.0888   -8.9450    0.0000 N   0  0  0  0  0  0  0  0  0  0  0  0
   -2.4397   -9.4196    0.0000 C   0  0  0  0  0  0  0  0  0  0  0  0
   -1.7484   -8.1264    0.0000 O   0  0  0  0  0  0  0  0  0  0  0  0
   -1.7515   -8.9574    0.0000 C   0  0  0  0  0  0  0  0  0  0  0  0
   -2.4393  -10.2529    0.0000 C   0  0  0  0  0  0  0  0  0  0  0  0
   -1.7227  -11.4993    0.0000 C   0  0  0  0  0  0  0  0  0  0  0  0
   -1.7227  -10.6717    0.0000 C   0  0  0  0  0  0  0  0  0  0  0  0
   -1.0053  -10.2555    0.0000 C   0  0  0  0  0  0  0  0  0  0  0  0
   -0.2879  -10.6717    0.0000 C   0  0  0  0  0  0  0  0  0  0  0  0
   -0.2879  -11.4993    0.0000 C   0  0  0  0  0  0  0  0  0  0  0  0
   -1.0053  -11.9108    0.0000 C   0  0  0  0  0  0  0  0  0  0  0  0
   -1.0206   -9.3448    0.0000 N   0  0  0  0  0  0  0  0  0  0  0  0
   -3.0766   -6.4052    0.0000 N   0  0  0  0  0  0  0  0  0  0  0  0
   -5.1616   -9.3448    0.0000 N   0  0  0  0  0  0  0  0  0  0  0  0
   -4.5079   -8.8657    0.0000 C   0  0  0  0  0  0  0  0  0  0  0  0
   -3.8166  -10.1634    0.0000 O   0  0  0  0  0  0  0  0  0  0  0  0
   -3.8196   -9.3324    0.0000 C   0  0  0  0  0  0  0  0  0  0  0  0
   -4.5075   -8.0325    0.0000 C   0  0  0  0  0  0  0  0  0  0  0  0
   -3.7899   -7.6213    0.0000 C   0  0  0  0  0  0  0  0  0  0  0  0
   -3.7896   -6.7936    0.0000 C   0  0  0  0  0  0  0  0  0  0  0  0
   -3.0543   -5.5778    0.0000 C   0  0  0  0  0  0  0  0  0  0  0  0
   -2.3306   -5.1856    0.0000 N   0  0  0  0  0  0  0  0  0  0  0  0
   -3.7603   -5.1471    0.0000 N   0  0  0  0  0  0  0  0  0  0  0  0
    0.4068   -9.3345    0.0000 C   0  0  0  0  0  0  0  0  0  0  0  0
   -0.3104   -8.9231    0.0000 C   0  0  0  0  0  0  0  0  0  0  0  0
   -0.3173   -8.0960    0.0000 C   0  0  0  0  0  0  0  0  0  0  0  0
   -1.1443   -8.1031    0.0000 C   0  0  0  0  0  0  0  0  0  0  0  0
   -0.3204   -7.2667    0.0000 C   0  0  0  0  0  0  0  0  0  0  0  0
    0.5120   -8.0931    0.0000 S   0  0  0  0  0  0  0  0  0  0  0  0
    0.4137  -10.1616    0.0000 O   0  0  0  0  0  0  0  0  0  0  0  0
    8.7585   -7.5973    0.0000 C   0  0  0  0  0  0  0  0  0  0  0  0
    9.4684   -8.0125    0.0000 C   0  0  0  0  0  0  0  0  0  0  0  0
   10.1809   -7.6019    0.0000 C   0  0  0  0  0  0  0  0  0  0  0  0
   10.1817   -6.7780    0.0000 C   0  0  0  0  0  0  0  0  0  0  0  0
    9.4640   -6.3663    0.0000 C   0  0  0  0  0  0  0  0  0  0  0  0
    8.7544   -6.7793    0.0000 C   0  0  0  0  0  0  0  0  0  0  0  0
   13.6454   -7.9673    0.0000 C   0  0  0  0  0  0  0  0  0  0  0  0
 55 54  2  0  0  0  0 
 26 27  2  0  0  0  0 
 55 56  1  0  0  0  0 
 12 28  1  0  0  0  0 
 14 15  1  0  0  0  0 
 28 29  2  0  0  0  0 
 58 57  1  6  0  0  0 
 58 60  1  0  0  0  0 
 60 59  2  0  0  0  0 
 58 61  1  0  0  0  0 
 15 17  1  0  0  0  0 
 29 30  1  0  0  0  0 
 17 16  2  0  0  0  0 
 61 62  1  6  0  0  0 
 30 31  2  0  0  0  0 
 61 63  1  0  0  0  0 
 60 52  1  0  0  0  0 
 15 18  1  6  0  0  0 
 31 32  1  0  0  0  0 
 56 64  1  0  0  0  0 
 64 66  1  0  0  0  0 
 66 65  2  0  0  0  0 
 64 67  1  6  0  0  0 
  1  2  1  0  0  0  0 
 32 33  2  0  0  0  0 
 67 72  1  0  0  0  0 
 33 28  1  0  0  0  0 
  8  9  1  0  0  0  0 
 68 69  1  0  0  0  0 
 31 34  1  0  0  0  0 
 69 70  2  0  0  0  0 
  9 11  1  0  0  0  0 
 70 71  1  0  0  0  0 
 18 19  1  0  0  0  0 
 71 72  2  0  0  0  0 
 72 68  1  0  0  0  0 
 66 47  1  0  0  0  0 
 35 36  1  0  0  0  0 
 11 10  2  0  0  0  0 
 36 37  1  0  0  0  0 
 73 74  1  0  0  0  0 
 74 76  1  0  0  0  0 
 76 75  2  0  0  0  0 
 74 77  1  6  0  0  0 
 19 20  1  0  0  0  0 
 38 35  1  0  0  0  0 
 77 79  1  0  0  0  0 
  9 12  1  1  0  0  0 
 37 39  1  0  0  0  0 
 78 79  2  0  0  0  0 
 19 21  1  0  0  0  0 
 79 80  1  0  0  0  0 
 38 40  1  0  0  0  0 
 80 81  2  0  0  0  0 
 17  8  1  0  0  0  0 
 81 82  1  0  0  0  0 
 39 41  1  0  0  0  0 
 82 83  2  0  0  0  0 
 83 78  1  0  0  0  0 
 40 41  1  0  0  0  0 
 76 84  1  0  0  0  0 
 13 22  1  0  0  0  0 
 38 42  1  1  0  0  0 
  2  4  1  0  0  0  0 
 40 43  2  0  0  0  0 
 86 87  1  0  0  0  0 
 87 89  1  0  0  0  0 
 89 88  2  0  0  0  0 
 87 90  1  1  0  0  0 
  5  6  1  0  0  0  0 
 41 44  1  0  0  0  0 
  4  3  2  0  0  0  0 
 90 91  1  0  0  0  0 
 44 45  1  0  0  0  0 
 91 92  1  0  0  0  0 
 92 85  1  0  0  0  0 
 89 73  1  0  0  0  0 
 45 14  1  0  0  0  0 
 85 93  1  0  0  0  0 
 11 13  1  0  0  0  0 
 93 94  2  0  0  0  0 
 45 46  2  0  0  0  0 
 93 95  1  0  0  0  0 
 22 23  1  0  0  0  0 
 23 24  1  0  0  0  0 
 24 25  1  0  0  0  0 
 47 48  1  0  0  0  0 
 48 50  1  0  0  0  0 
 50 49  2  0  0  0  0 
 48 51  1  1  0  0  0 
 97 84  1  6  0  0  0 
 96 97  1  0  0  0  0 
 97 98  1  0  0  0  0 
 98 99  1  0  0  0  0 
 98100  1  0  0  0  0 
 98101  1  0  0  0  0 
 96102  2  0  0  0  0 
 96 57  1  0  0  0  0 
 25 13  1  0  0  0  0 
 51103  1  0  0  0  0 
  4  7  1  0  0  0  0 
103104  2  0  0  0  0 
 25 26  1  1  0  0  0 
104105  1  0  0  0  0 
 26  1  1  0  0  0  0 
105106  2  0  0  0  0 
  2  5  1  1  0  0  0 
106107  1  0  0  0  0 
 52 53  1  0  0  0  0 
107108  2  0  0  0  0 
108103  1  0  0  0  0 
 50 42  1  0  0  0  0 
 53 55  1  0  0  0  0 
 14109  1  0  0  0  0 
M  END