
  SciTegic05161214222D

 58 61  0  0  0  0            999 V2000
    2.3252  -20.6004    0.0000 C   0  0
    3.0400  -20.1884    0.0000 C   0  0
   -1.9542  -19.7833    0.0000 C   0  0
   -1.9542  -20.6083    0.0000 C   0  0
   -1.2421  -21.0167    0.0000 O   0  0
   -0.5301  -20.6083    0.0000 C   0  0
   -0.5301  -19.7833    0.0000 C   0  0
   -1.2421  -19.3667    0.0000 C   0  0
   -2.6719  -19.3781    0.0000 S   0  0
   -3.0802  -20.0950    0.0000 O   0  0
   -2.2552  -20.0902    0.0000 O   0  0
   -5.5389  -14.4416    0.0000 C   0  0
   -5.5401  -15.2690    0.0000 C   0  0
   -4.8253  -15.6819    0.0000 C   0  0
   -4.8271  -14.0289    0.0000 C   0  0
   -4.1117  -14.4380    0.0000 C   0  0
   -4.1109  -15.2648    0.0000 C   0  0
   -3.3956  -15.6758    0.0000 N   0  0
   -2.6806  -15.2610    0.0000 C   0  0
   -2.6854  -14.4311    0.0000 C   0  0
   -3.4013  -14.0238    0.0000 C   0  0
   -1.9645  -15.6708    0.0000 C   0  0
   -3.4056  -13.1989    0.0000 C   0  0
   -4.8234  -16.5069    0.0000 O   0  0
   -4.1079  -16.9177    0.0000 C   0  0
   -4.1060  -17.7427    0.0000 C   0  0
   -4.8221  -18.1525    0.0000 C   0  0
   -4.8206  -18.9767    0.0000 C   0  0
   -4.1046  -19.3884    0.0000 C   0  0
   -3.3887  -18.9698    0.0000 C   0  0
   -3.3938  -18.1469    0.0000 C   0  0
   -5.5362  -17.7393    0.0000 Cl  0  0
   -2.6821  -17.7296    0.0000 Cl  0  0
   -1.9598  -18.9614    0.0000 N   0  0
   -0.5309  -18.9531    0.0000 C   0  0
    0.1848  -19.3634    0.0000 N   0  0
   -0.5334  -18.1281    0.0000 O   0  0
    0.1838  -20.1884    0.0000 C   0  0
    0.8954  -20.5986    0.0000 C   0  0
    1.6110  -20.1874    0.0000 N   0  0
    1.6105  -19.3614    0.0000 C   0  0
    0.8943  -18.9467    0.0000 C   0  0
    2.3246  -21.4254    0.0000 O   0  0
    3.7541  -20.6014    0.0000 C   0  0
    4.4689  -20.1894    0.0000 C   0  0
    5.1831  -20.6024    0.0000 C   0  0
    5.8978  -20.1904    0.0000 C   0  0
    6.6120  -20.6034    0.0000 N   0  3
    7.3268  -20.1914    0.0000 C   0  0
    6.6115  -21.4284    0.0000 C   0  0
    6.6042  -19.7750    0.0000 C   0  0
    5.3472  -17.5551    0.0000 F   0  0
    6.0616  -17.1426    0.0000 C   0  0
    6.7761  -17.5551    0.0000 F   0  0
    6.0555  -17.9634    0.0000 F   0  0
    6.0647  -16.3176    0.0000 C   0  0
    6.7807  -15.9078    0.0000 O   0  5
    5.3518  -15.9024    0.0000 O   0  0
 25 26  1  0
 14 17  2  0
 26 27  2  0
  6  7  1  0
 27 28  1  0
 16 15  2  0
 28 29  2  0
 15 12  1  0
 29 30  1  0
  7  8  1  0
 30 31  2  0
 31 26  1  0
 10  9  2  0
 27 32  1  0
 16 17  1  0
 31 33  1  0
 30  9  1  0
  9 11  2  0
  9 34  1  0
 34  8  1  0
 17 18  1  0
  8 35  1  0
 35 36  1  0
 18 19  2  0
 35 37  2  0
 36 38  1  0
  1  2  1  0
 19 20  1  0
  3  4  1  0
 20 21  2  0
 21 16  1  0
 36 42  1  0
 38 39  1  0
 39 40  1  0
 40 41  1  0
 41 42  1  0
 40  1  1  0
  3  8  1  0
  1 43  2  0
 19 22  1  0
  2 44  1  0
  4  5  1  0
 44 45  1  0
 21 23  1  0
 45 46  1  0
 12 13  2  0
 46 47  1  0
 14 24  1  0
 47 48  1  0
  5  6  1  0
 48 49  1  0
 24 25  1  0
 48 50  1  0
 13 14  1  0
 48 51  1  0
 52 53  1  0
 53 55  1  0
 53 56  1  0
 53 54  1  0
 56 57  1  0
 56 58  2  0
M  CHG  2  48   1  57  -1
M  END