
          08180812472D 1   1.00000     0.00000     0

 24 27  0     0  0            999 V2000
    5.3101  -14.5665    0.0000 C   0  0  0  0  0  0           0  0  0
    6.0288  -14.9783    0.0000 C   0  0  0  0  0  0           0  0  0
    6.0302  -15.8033    0.0000 C   0  0  0  0  0  0           0  0  0
    5.3172  -16.2165    0.0000 C   0  0  0  0  0  0           0  0  0
    4.6027  -15.8089    0.0000 C   0  0  0  0  0  0           0  0  0
    4.5971  -14.9839    0.0000 C   0  0  0  0  0  0           0  0  0
    6.7489  -16.2109    0.0000 O   0  0  0  0  0  0           0  0  0
    6.0429  -18.2783    0.0000 C   0  0  0  0  0  0           0  0  0
    6.0415  -17.4533    0.0000 N   0  0  0  0  0  0           0  0  0
    6.7504  -17.0359    0.0000 C   0  0  0  0  0  0           0  0  0
    7.4690  -17.4477    0.0000 C   0  0  0  0  0  0           0  0  0
    7.4705  -18.2727    0.0000 C   0  0  0  0  0  0           0  0  0
    6.7574  -18.6859    0.0000 N   0  0  0  0  0  0           0  0  0
    8.2569  -18.5244    0.0000 N   0  0  0  0  0  0           0  0  0
    8.2519  -17.1852    0.0000 C   0  0  0  0  0  0           0  0  0
    8.7412  -17.8515    0.0000 C   0  0  0  0  0  0           0  0  0
    9.5662  -17.8501    0.0000 C   0  0  0  0  0  0           0  0  0
    9.9738  -17.1314    0.0000 C   0  0  0  0  0  0           0  0  0
   10.7988  -17.1300    0.0000 C   0  0  0  0  0  0           0  0  0
   11.2162  -17.8430    0.0000 C   0  0  0  0  0  0           0  0  0
   10.8044  -18.5575    0.0000 C   0  0  0  0  0  0           0  0  0
    9.9794  -18.5589    0.0000 C   0  0  0  0  0  0           0  0  0
   11.2064  -16.4113    0.0000 N   0  0  0  0  0  0           0  0  0
    5.3087  -13.7415    0.0000 O   0  0  0  0  0  0           0  0  0
  1  2  1  0     0  0
  2  3  2  0     0  0
  3  4  1  0     0  0
  4  5  2  0     0  0
  5  6  1  0     0  0
  1  6  2  0     0  0
  8  9  2  0     0  0
  9 10  1  0     0  0
 10 11  2  0     0  0
 11 12  1  0     0  0
 12 13  2  0     0  0
  8 13  1  0     0  0
 15 16  2  0     0  0
 14 16  1  0     0  0
 11 15  1  0     0  0
 12 14  1  0     0  0
 17 18  1  0     0  0
 18 19  2  0     0  0
 19 20  1  0     0  0
 20 21  2  0     0  0
 21 22  1  0     0  0
 17 22  2  0     0  0
 19 23  1  0     0  0
 16 17  1  0     0  0
  7 10  1  0     0  0
  3  7  1  0     0  0
  1 24  1  0     0  0
M  END