
          11280715362D 1   1.00000     0.00000     0

 35 36  0     1  0            999 V2000
    3.0667   -2.8667    0.0000 P   0  0  3  0  0  0           0  0  0
    6.2125   -5.0667    0.0000 C   0  0  0  0  0  0           0  0  0
    6.5625   -4.5917    0.0000 N   0  0  0  0  0  0           0  0  0
    7.5250   -4.1792    0.0000 C   0  0  0  0  0  0           0  0  0
    5.6125   -4.9917    0.0000 C   0  0  1  0  0  0           0  0  0
    7.1667   -4.6542    0.0000 C   0  0  2  0  0  0           0  0  0
    5.2542   -5.4792    0.0000 N   0  0  0  0  0  0           0  0  0
    8.1250   -4.2417    0.0000 N   0  0  0  0  0  0           0  0  0
    4.6500   -5.4167    0.0000 C   0  0  0  0  0  0           0  0  0
    3.6625   -2.7542    0.0000 O   0  0  0  0  0  0           0  0  0
    2.9542   -2.2792    0.0000 O   0  0  0  0  0  0           0  0  0
    6.4542   -5.6292    0.0000 O   0  0  0  0  0  0           0  0  0
    5.3667   -4.4417    0.0000 C   0  0  0  0  0  0           0  0  0
    7.2792   -3.6292    0.0000 O   0  0  0  0  0  0           0  0  0
    7.4125   -5.2167    0.0000 C   0  0  0  0  0  0           0  0  0
    9.6875   -4.6792    0.0000 N   0  0  0  0  0  0           0  0  0
    4.4125   -4.8667    0.0000 O   0  0  0  0  0  0           0  0  0
    3.1792   -3.4667    0.0000 O   0  0  0  0  0  0           0  0  0
    2.4750   -2.9917    0.0000 O   0  0  0  0  0  0           0  0  0
    9.0750   -3.8292    0.0000 C   0  0  0  0  0  0           0  0  0
    8.4792   -3.7667    0.0000 C   0  0  0  0  0  0           0  0  0
    4.0625   -3.2167    0.0000 C   0  0  0  0  0  0           0  0  0
    4.8500   -4.1417    0.0000 C   0  0  0  0  0  0           0  0  0
    4.2500   -4.2417    0.0000 C   0  0  0  0  0  0           0  0  0
    5.0417   -3.5667    0.0000 C   0  0  0  0  0  0           0  0  0
    3.8625   -3.7917    0.0000 C   0  0  0  0  0  0           0  0  0
    4.6500   -3.1167    0.0000 C   0  0  0  0  0  0           0  0  0
    9.1417   -4.4292    0.0000 C   0  0  0  0  0  0           0  0  0
    7.7792   -5.6792    0.0000 C   0  0  3  0  0  0           0  0  0
    4.3000   -5.8917    0.0000 C   0  0  0  0  0  0           0  0  0
   10.1750   -4.3167    0.0000 C   0  0  0  0  0  0           0  0  0
    9.5625   -3.4792    0.0000 C   0  0  0  0  0  0           0  0  0
    7.5625   -6.2417    0.0000 C   0  0  0  0  0  0           0  0  0
    8.3750   -5.7542    0.0000 C   0  0  0  0  0  0           0  0  0
   10.1125   -3.7292    0.0000 C   0  0  0  0  0  0           0  0  0
  2  5  1  0     0  0
  3  2  1  0     0  0
  4  6  1  0     0  0
  5 13  1  1     0  0
  6  3  1  0     0  0
  7  5  1  0     0  0
  8  4  1  0     0  0
  9  7  1  0     0  0
 10  1  1  0     0  0
 11  1  2  0     0  0
 12  2  2  0     0  0
 13 23  1  0     0  0
 14  4  2  0     0  0
  6 15  1  6     0  0
 16 28  2  0     0  0
 17  9  2  0     0  0
 18  1  1  0     0  0
 19  1  1  0     0  0
 20 21  1  0     0  0
 21  8  1  0     0  0
 22 10  1  0     0  0
 23 25  1  0     0  0
 24 26  1  0     0  0
 25 27  2  0     0  0
 26 22  2  0     0  0
 27 22  1  0     0  0
 28 20  1  0     0  0
 29 15  1  0     0  0
 30  9  1  0     0  0
 31 35  2  0     0  0
 32 20  2  0     0  0
 33 29  1  0     0  0
 34 29  1  0     0  0
 35 32  1  0     0  0
 24 23  2  0     0  0
 16 31  1  0     0  0
M  END