
  SciTegic02271514372D

 25 26  0  0  0  0            999 V2000
    6.8482   -4.9654    0.0000 C   0  0
    7.5627   -5.3779    0.0000 C   0  0
    8.2771   -4.9654    0.0000 C   0  0
    8.9916   -5.3779    0.0000 C   0  0
    8.9916   -6.2029    0.0000 C   0  0
    8.2771   -6.6154    0.0000 C   0  0
    7.5627   -6.2029    0.0000 C   0  0
    6.8482   -4.1404    0.0000 O   0  0
    6.1337   -5.3779    0.0000 O   0  0
    6.8482   -6.6154    0.0000 O   0  0
    9.7061   -6.6154    0.0000 O   0  0
    9.7061   -4.9654    0.0000 Cl  0  0
    8.2771   -4.1404    0.0000 C   0  0
    8.9916   -3.7279    0.0000 C   0  0
    8.9916   -2.9029    0.0000 C   0  0
    9.7061   -2.4904    0.0000 O   0  0
    8.2771   -2.4904    0.0000 N   0  0
    8.2771   -1.6654    0.0000 C   0  0
    7.5627   -1.2529    0.0000 C   0  0
    7.5627   -0.4279    0.0000 C   0  0
    8.2771   -0.0154    0.0000 C   0  0
    8.9916   -0.4279    0.0000 C   0  0
    8.9916   -1.2529    0.0000 C   0  0
    8.2771    0.8096    0.0000 Br  0  0
    6.1337   -6.2029    0.0000 C   0  0
  1  2  1  0
  2  3  1  0
  3  4  2  0
  4  5  1  0
  5  6  2  0
  6  7  1  0
  2  7  2  0
  1  8  2  0
  1  9  1  0
  7 10  1  0
  5 11  1  0
  4 12  1  0
 13 14  1  0
 14 15  1  0
 15 16  2  0
 18 19  1  0
 19 20  2  0
 20 21  1  0
 21 22  2  0
 22 23  1  0
 18 23  2  0
 21 24  1  0
 17 18  1  0
 15 17  1  0
  3 13  1  0
  9 25  1  0
M  END