
          08180812472D 1   1.00000     0.00000     0

 20 21  0     1  0            999 V2000
   15.3496   -2.6079    0.0000 C   0  0  0  0  0  0           0  0  0
   15.3496   -3.4375    0.0000 C   0  0  0  0  0  0           0  0  0
   16.0640   -3.8500    0.0000 C   0  0  3  0  0  0           0  0  0
   16.7831   -3.4375    0.0000 C   0  0  0  0  0  0           0  0  0
   16.7831   -2.6079    0.0000 C   0  0  0  0  0  0           0  0  0
   16.0640   -2.1909    0.0000 C   0  0  3  0  0  0           0  0  0
   16.0628   -1.3659    0.0000 O   0  0  0  0  0  0           0  0  0
   16.0628   -4.6750    0.0000 C   0  0  2  0  0  0           0  0  0
   15.3478   -5.0865    0.0000 C   0  0  1  0  0  0           0  0  0
   15.3467   -5.9115    0.0000 C   0  0  0  0  0  0           0  0  0
   14.6339   -4.6730    0.0000 C   0  0  3  0  0  0           0  0  0
   14.6410   -3.8497    0.0000 C   0  0  0  0  0  0           0  0  0
   13.9313   -3.4363    0.0000 C   0  0  0  0  0  0           0  0  0
   13.2137   -3.8443    0.0000 C   0  0  3  0  0  0           0  0  0
   13.2106   -4.6703    0.0000 C   0  0  0  0  0  0           0  0  0
   13.9250   -5.0882    0.0000 C   0  0  0  0  0  0           0  0  0
   12.5015   -3.4281    0.0000 O   0  0  0  0  0  0           0  0  0
   16.7767   -5.0885    0.0000 C   0  0  0  0  0  0           0  0  0
   17.4918   -4.6770    0.0000 C   0  0  0  0  0  0           0  0  0
   16.0606   -6.3250    0.0000 C   0  0  0  0  0  0           0  0  0
  9 10  1  1     0  0
  3  4  1  0     0  0
  9 11  1  0     0  0
 11 12  1  0     0  0
  4  5  1  0     0  0
  5  6  1  0     0  0
  6  7  1  0     0  0
  1  2  1  0     0  0
 11 16  1  0     0  0
 12 13  1  0     0  0
 13 14  1  0     0  0
 14 15  1  0     0  0
 15 16  1  0     0  0
  3  8  1  0     0  0
 14 17  1  0     0  0
  1  6  1  0     0  0
  8 18  1  1     0  0
  8  9  1  0     0  0
 18 19  1  0     0  0
  2  3  1  0     0  0
 10 20  1  0     0  0
M  END