
  SciTegic06051313522D

 57 63  0  0  0  0            999 V2000
   22.9719  -17.4133    0.0000 C   0  0  2  0  0  0
   22.9719  -18.2384    0.0000 C   0  0  1  0  0  0
   23.6840  -18.6466    0.0000 C   0  0  1  0  0  0
   24.3960  -18.2384    0.0000 C   0  0  2  0  0  0
   24.3960  -17.4133    0.0000 C   0  0  1  0  0  0
   23.6840  -16.9967    0.0000 O   0  0
   25.1117  -17.0029    0.0000 O   0  0
   25.1099  -18.6519    0.0000 O   0  0
   23.6840  -19.4717    0.0000 N   0  0
   22.2580  -18.6519    0.0000 O   0  0
   22.2562  -17.0029    0.0000 C   0  0
   25.1050  -16.1728    0.0000 C   0  0  1  0  0  0
   25.8180  -15.7559    0.0000 C   0  0  1  0  0  0
   25.8147  -14.9344    0.0000 C   0  0  2  0  0  0
   25.0994  -14.5226    0.0000 C   0  0  1  0  0  0
   24.3857  -14.9384    0.0000 O   0  0
   24.3873  -15.7661    0.0000 C   0  0  2  0  0  0
   25.0978  -13.6957    0.0000 O   0  0
   24.3896  -13.2724    0.0000 C   0  0
   23.6689  -13.6741    0.0000 C   0  0
   22.9608  -13.2507    0.0000 C   0  0
   22.2401  -13.6524    0.0000 N   0  0
   21.5319  -13.2291    0.0000 N   0  3
   20.8235  -12.8124    0.0000 N   0  5
   26.5282  -14.5201    0.0000 N   0  0
   27.2861  -14.8520    0.0000 C   0  0
   26.6157  -13.6976    0.0000 C   0  0
   27.4222  -13.5239    0.0000 C   0  0
   27.8357  -14.2367    0.0000 C   0  0
   28.6579  -14.2340    0.0000 C   0  0
   29.0676  -13.5193    0.0000 C   0  0
   28.6491  -12.8058    0.0000 C   0  0
   27.8283  -12.8120    0.0000 C   0  0
   26.0022  -13.1459    0.0000 O   0  0
   27.4618  -15.6580    0.0000 O   0  0
   26.5344  -16.1649    0.0000 O   0  0
   25.6845  -16.7550    0.0000 H   0  0
   23.6749  -16.1821    0.0000 C   0  0
   22.9584  -15.7731    0.0000 O   0  0
   21.5429  -17.4175    0.0000 O   0  0
   23.0225  -19.9580    0.0000 N   0  0
   23.2775  -20.7427    0.0000 N   0  0
   24.1025  -20.7427    0.0000 C   0  0
   24.3574  -19.9579    0.0000 C   0  0
   24.5289  -21.4483    0.0000 C   0  0
   24.1286  -22.1710    0.0000 C   0  0
   24.5542  -22.8769    0.0000 C   0  0
   25.3800  -22.8613    0.0000 C   0  0
   25.7783  -22.1339    0.0000 C   0  0
   25.3504  -21.4310    0.0000 C   0  0
   25.8073  -23.5670    0.0000 O   0  0
   25.4097  -24.2900    0.0000 C   0  0
   24.5854  -24.3022    0.0000 C   0  0
   24.1879  -25.0243    0.0000 C   0  0
   24.6152  -25.7310    0.0000 C   0  0
   25.4443  -25.7112    0.0000 C   0  0
   25.8380  -24.9887    0.0000 C   0  0
  1  2  1  0
  1  6  1  0
  2  3  1  0
  3  4  1  0
  4  5  1  0
  5  6  1  0
  5  7  1  1
  4  8  1  6
  3  9  1  1
  2 10  1  1
  1 11  1  1
  7 12  1  0
 12 13  1  0
 12 17  1  0
 13 14  1  0
 14 15  1  0
 15 16  1  0
 16 17  1  0
 15 18  1  1
 18 19  1  0
 19 20  1  0
 20 21  1  0
 21 22  1  0
 22 23  2  0
 23 24  2  0
 14 25  1  6
 25 26  1  0
 26 29  1  0
 28 27  1  0
 27 25  1  0
 28 29  2  0
 29 30  1  0
 30 31  2  0
 31 32  1  0
 32 33  2  0
 33 28  1  0
 27 34  2  0
 26 35  2  0
 13 36  1  1
 12 37  1  1
 17 38  1  1
 38 39  1  0
 11 40  1  0
  9 41  1  0
 41 42  2  0
 42 43  1  0
 43 44  2  0
 44  9  1  0
 45 46  2  0
 46 47  1  0
 47 48  2  0
 48 49  1  0
 49 50  2  0
 50 45  1  0
 43 45  1  0
 48 51  1  0
 51 52  1  0
 52 53  2  0
 53 54  1  0
 54 55  2  0
 55 56  1  0
 56 57  2  0
 57 52  1  0
M  CHG  2  23   1  24  -1
M  END