
  CDK    9/16/09,9:54

 23 25  0  0  0  0  0  0  0  0999 V2000
    6.7917    2.5583    0.0000 C   0  0  0  0  0  0  0  0  0  0  0  0
    6.7917    1.7333    0.0000 N   0  0  0  0  0  0  0  0  0  0  0  0
    7.5037    1.3250    0.0000 C   0  0  0  0  0  0  0  0  0  0  0  0
    8.2157    1.7333    0.0000 C   0  0  0  0  0  0  0  0  0  0  0  0
    8.2157    2.5583    0.0000 C   0  0  0  0  0  0  0  0  0  0  0  0
    7.5037    2.9750    0.0000 C   0  0  0  0  0  0  0  0  0  0  0  0
    6.0778    1.3198    0.0000 C   0  0  0  0  0  0  0  0  0  0  0  0
    5.3627    1.7313    0.0000 C   0  0  0  0  0  0  0  0  0  0  0  0
    6.0790    0.4948    0.0000 O   0  0  0  0  0  0  0  0  0  0  0  0
    4.6489    1.3177    0.0000 C   0  0  0  0  0  0  0  0  0  0  0  0
    3.9292    0.9125    0.0000 N   0  0  0  0  0  0  0  0  0  0  0  0
    8.9314    2.9687    0.0000 C   0  0  0  0  0  0  0  0  0  0  0  0
    8.9296    1.3198    0.0000 N   0  0  0  0  0  0  0  0  0  0  0  0
    8.9284    0.4948    0.0000 C   0  0  0  0  0  0  0  0  0  0  0  0
    9.6446    1.7313    0.0000 C   0  0  0  0  0  0  0  0  0  0  0  0
    8.2123    0.0850    0.0000 N   0  0  0  0  0  0  0  0  0  0  0  0
    8.2107   -0.7392    0.0000 C   0  0  0  0  0  0  0  0  0  0  0  0
    8.9251   -1.1536    0.0000 N   0  0  0  0  0  0  0  0  0  0  0  0
    9.6406    0.0852    0.0000 C   0  0  0  0  0  0  0  0  0  0  0  0
    9.6427   -0.7366    0.0000 C   0  0  0  0  0  0  0  0  0  0  0  0
   10.4250   -0.9886    0.0000 N   0  0  0  0  0  0  0  0  0  0  0  0
   10.9064   -0.3224    0.0000 C   0  0  0  0  0  0  0  0  0  0  0  0
   10.4216    0.3411    0.0000 C   0  0  0  0  0  0  0  0  0  0  0  0
  4  5  1  0  0  0  0 
  5 12  1  6  0  0  0 
  5  6  1  0  0  0  0 
  4 13  1  1  0  0  0 
 13 14  1  0  0  0  0 
  2  7  1  0  0  0  0 
 13 15  1  0  0  0  0 
  1  2  1  0  0  0  0 
 14 16  2  0  0  0  0 
  7  8  1  0  0  0  0 
 16 17  1  0  0  0  0 
  1  6  1  0  0  0  0 
 17 18  2  0  0  0  0 
 18 20  1  0  0  0  0 
 19 14  1  0  0  0  0 
 19 20  2  0  0  0  0 
  7  9  2  0  0  0  0 
  2  3  1  0  0  0  0 
  8 10  1  0  0  0  0 
  3  4  1  0  0  0  0 
 10 11  3  0  0  0  0 
 20 21  1  0  0  0  0 
 21 22  1  0  0  0  0 
 22 23  2  0  0  0  0 
 23 19  1  0  0  0  0 
M  END