
          11280715232D 1   1.00000     0.00000     0

 57 61  0     1  0            999 V2000
    4.1292   -6.9792    0.0000 N   0  0  0  0  0  0           0  0  0
    5.8417   -5.3125    0.0000 N   0  0  0  0  0  0           0  0  0
    1.7917   -6.4542    0.0000 N   0  0  0  0  0  0           0  0  0
    5.4667   -6.0500    0.0000 C   0  0  0  0  0  0           0  0  0
    6.1750   -7.2417    0.0000 C   0  0  0  0  0  0           0  0  0
    3.3125   -7.0667    0.0000 C   0  0  0  0  0  0           0  0  0
    1.2750   -5.8167    0.0000 C   0  0  0  0  0  0           0  0  0
    4.8792   -6.6292    0.0000 C   0  0  2  0  0  0           0  0  0
    5.9542   -4.4917    0.0000 C   0  0  1  0  0  0           0  0  0
    7.4750   -7.5417    0.0000 N   0  0  0  0  0  0           0  0  0
    5.8000   -3.6792    0.0000 C   0  0  0  0  0  0           0  0  0
    6.7167   -7.8667    0.0000 C   0  0  0  0  0  0           0  0  0
    2.5042   -6.8875    0.0000 C   0  0  1  0  0  0           0  0  0
    0.9542   -4.2167    0.0000 N   0  0  0  0  0  0           0  0  0
    2.3792   -2.2917    0.0000 N   0  0  0  0  0  0           0  0  0
    0.9792   -5.0417    0.0000 C   0  0  1  0  0  0           0  0  0
    3.1667   -2.0667    0.0000 C   0  0  0  0  0  0           0  0  0
    5.3542   -7.3042    0.0000 C   0  0  0  0  0  0           0  0  0
    6.6042   -6.5292    0.0000 C   0  0  0  0  0  0           0  0  0
    5.3875   -2.9667    0.0000 N   0  0  0  0  0  0           0  0  0
    7.4042   -6.7167    0.0000 C   0  0  0  0  0  0           0  0  0
    2.3792   -9.0750    0.0000 C   0  0  0  0  0  0           0  0  0
    6.1375   -6.5417    0.0000 O   0  0  0  0  0  0           0  0  0
    0.5542   -6.2292    0.0000 O   0  0  0  0  0  0           0  0  0
    3.2667   -7.8917    0.0000 O   0  0  0  0  0  0           0  0  0
    6.7875   -4.4667    0.0000 C   0  0  0  0  0  0           0  0  0
    3.9917   -2.1125    0.0000 C   0  0  0  0  0  0           0  0  0
    1.7000   -2.7625    0.0000 C   0  0  1  0  0  0           0  0  0
    6.3917   -3.4500    0.0000 O   0  0  0  0  0  0           0  0  0
    0.1667   -5.2042    0.0000 C   0  0  0  0  0  0           0  0  0
    3.0792   -1.2417    0.0000 O   0  0  0  0  0  0           0  0  0
    1.5667   -9.1875    0.0000 O   0  0  0  0  0  0           0  0  0
    2.1917   -7.6542    0.0000 C   0  0  0  0  0  0           0  0  0
    1.2042   -3.4292    0.0000 C   0  0  0  0  0  0           0  0  0
    4.7625   -2.4250    0.0000 C   0  0  0  0  0  0           0  0  0
    2.7000   -8.3125    0.0000 C   0  0  0  0  0  0           0  0  0
    2.8917   -9.7292    0.0000 N   0  0  0  0  0  0           0  0  0
    1.1167   -2.1667    0.0000 C   0  0  0  0  0  0           0  0  0
    7.1792   -3.7417    0.0000 C   0  0  0  0  0  0           0  0  0
   -0.4208   -5.7875    0.0000 C   0  0  3  0  0  0           0  0  0
    6.3667   -5.7417    0.0000 C   0  0  0  0  0  0           0  0  0
    7.9750   -6.1167    0.0000 C   0  0  0  0  0  0           0  0  0
    0.3167   -2.3750    0.0000 C   0  0  3  0  0  0           0  0  0
    8.0042   -3.7167    0.0000 C   0  0  0  0  0  0           0  0  0
    6.7417   -3.0375    0.0000 C   0  0  0  0  0  0           0  0  0
   -1.2208   -5.5625    0.0000 C   0  0  0  0  0  0           0  0  0
   -0.2083   -6.5792    0.0000 C   0  0  0  0  0  0           0  0  0
   -0.2583   -1.7792    0.0000 C   0  0  0  0  0  0           0  0  0
    0.0917   -3.1667    0.0000 C   0  0  0  0  0  0           0  0  0
    6.9292   -5.1375    0.0000 C   0  0  0  0  0  0           0  0  0
    7.7375   -5.3292    0.0000 C   0  0  0  0  0  0           0  0  0
    8.4000   -2.9917    0.0000 C   0  0  0  0  0  0           0  0  0
    7.1417   -2.3042    0.0000 C   0  0  0  0  0  0           0  0  0
   -0.8083   -7.1667    0.0000 C   0  0  0  0  0  0           0  0  0
   -1.8083   -6.1375    0.0000 C   0  0  0  0  0  0           0  0  0
    7.9667   -2.2917    0.0000 C   0  0  0  0  0  0           0  0  0
   -1.6083   -6.9417    0.0000 C   0  0  0  0  0  0           0  0  0
  2  4  1  0     0  0
  3 13  1  0     0  0
  4  8  1  0     0  0
  5 18  1  0     0  0
  6  1  1  0     0  0
  7  3  1  0     0  0
  8  1  1  0     0  0
  9  2  1  0     0  0
 10 12  1  0     0  0
 11  9  1  0     0  0
 12  5  2  0     0  0
 13  6  1  0     0  0
 14 16  1  0     0  0
 15 28  1  0     0  0
 16  7  1  0     0  0
 17 27  1  0     0  0
  8 18  1  6     0  0
 19  5  1  0     0  0
 20 11  1  0     0  0
 21 19  2  0     0  0
 22 36  1  0     0  0
 23  4  2  0     0  0
 24  7  2  0     0  0
 25  6  2  0     0  0
  9 26  1  1     0  0
 27 35  1  0     0  0
 28 34  1  0     0  0
 29 11  2  0     0  0
 16 30  1  6     0  0
 31 17  2  0     0  0
 32 22  2  0     0  0
 13 33  1  1     0  0
 34 14  1  0     0  0
 35 20  1  0     0  0
 36 33  1  0     0  0
 37 22  1  0     0  0
 28 38  1  1     0  0
 39 26  1  0     0  0
 40 30  1  0     0  0
 41 19  1  0     0  0
 42 21  1  0     0  0
 43 38  1  0     0  0
 44 39  1  0     0  0
 45 39  2  0     0  0
 46 40  1  0     0  0
 47 40  1  0     0  0
 48 43  1  0     0  0
 49 43  1  0     0  0
 50 41  2  0     0  0
 51 50  1  0     0  0
 52 44  2  0     0  0
 53 45  1  0     0  0
 54 47  1  0     0  0
 55 46  1  0     0  0
 56 53  2  0     0  0
 57 54  1  0     0  0
 10 21  1  0     0  0
 51 42  2  0     0  0
 56 52  1  0     0  0
 17 15  1  0     0  0
 57 55  1  0     0  0
M  END