
  Mrv0541 04051115152D          

 16 17  0  0  0  0            999 V2000
    1.9418    1.4478    0.0000 N   0  0  0  0  0  0  0  0  0  0  0  0
    1.2273    1.8603    0.0000 C   0  0  0  0  0  0  0  0  0  0  0  0
    1.9418    0.6228    0.0000 C   0  0  0  0  0  0  0  0  0  0  0  0
    1.2273    0.2103    0.0000 C   0  0  0  0  0  0  0  0  0  0  0  0
    0.5128    0.6228    0.0000 C   0  0  0  0  0  0  0  0  0  0  0  0
    0.5128    1.4478    0.0000 N   0  0  0  0  0  0  0  0  0  0  0  0
   -0.9161   -1.8522    0.0000 C   0  0  0  0  0  0  0  0  0  0  0  0
   -1.6306   -2.2647    0.0000 C   0  0  0  0  0  0  0  0  0  0  0  0
   -2.3450   -1.8522    0.0000 C   0  0  0  0  0  0  0  0  0  0  0  0
   -2.3450   -1.0272    0.0000 C   0  0  0  0  0  0  0  0  0  0  0  0
   -1.6306   -0.6147    0.0000 C   0  0  0  0  0  0  0  0  0  0  0  0
    1.2273    2.6853    0.0000 N   0  0  0  0  0  0  0  0  0  0  0  0
   -0.2016    0.2103    0.0000 C   0  0  0  0  0  0  0  0  0  0  0  0
   -0.9161   -1.0272    0.0000 C   0  0  0  0  0  0  0  0  0  0  0  0
   -0.2016   -0.6147    0.0000 C   0  0  0  0  0  0  0  0  0  0  0  0
    2.6563    0.2103    0.0000 O   0  0  0  0  0  0  0  0  0  0  0  0
  2  1  1  0  0  0  0
  3  1  1  0  0  0  0
  2  6  2  0  0  0  0
  2 12  1  0  0  0  0
  3  4  1  0  0  0  0
  3 16  2  0  0  0  0
  4  5  2  0  0  0  0
  5  6  1  0  0  0  0
 13  5  1  0  0  0  0
  7  8  1  0  0  0  0
 14  7  2  0  0  0  0
  9  8  2  0  0  0  0
  9 10  1  0  0  0  0
 10 11  2  0  0  0  0
 11 14  1  0  0  0  0
 13 15  1  0  0  0  0
 15 14  1  0  0  0  0
M  END