
  SciTegic06051315212D

 27 29  0  0  0  0            999 V2000
   15.8224   -8.9437    0.0000 C   0  0
   15.8212   -9.7632    0.0000 C   0  0
   16.5293  -10.1722    0.0000 C   0  0
   17.2389   -9.7627    0.0000 C   0  0
   17.2361   -8.9401    0.0000 C   0  0
   16.5275   -8.5348    0.0000 C   0  0
   16.5257  -10.9867    0.0000 N   0  0
   16.5213   -7.7159    0.0000 N   0  3
   15.8124   -7.3094    0.0000 O   0  0
   17.2278   -7.3052    0.0000 O   0  5
   17.9473  -10.1702    0.0000 N   0  0
   18.6544   -9.7605    0.0000 C   0  0
   19.3627  -10.1680    0.0000 C   0  0
   18.6531   -8.9433    0.0000 O   0  0
   19.3594  -10.9836    0.0000 C   0  0
   20.0669  -11.3910    0.0000 C   0  0
   20.7749  -10.9813    0.0000 C   0  0
   20.7710  -10.1599    0.0000 C   0  0
   20.0629   -9.7562    0.0000 C   0  0
   20.0574   -8.9390    0.0000 Cl  0  0
   15.8676  -11.4660    0.0000 C   0  0
   16.1159  -12.2418    0.0000 C   0  0
   16.9305  -12.2453    0.0000 C   0  0
   17.1854  -11.4718    0.0000 C   0  0
   17.4079  -12.9085    0.0000 N   0  0
   17.0724  -13.6536    0.0000 C   0  0
   18.2210  -12.8266    0.0000 C   0  0
  1  2  2  0
  2  3  1  0
  3  4  2  0
  4  5  1  0
  5  6  2  0
  6  1  1  0
  3  7  1  0
  8  9  2  0
  8 10  1  0
  6  8  1  0
  4 11  1  0
 11 12  1  0
 12 13  1  0
 12 14  2  0
 13 15  2  0
 15 16  1  0
 16 17  2  0
 17 18  1  0
 18 19  2  0
 19 13  1  0
 19 20  1  0
  7 21  1  0
 21 22  1  0
 22 23  1  0
 23 24  1  0
 24  7  1  0
 23 25  1  0
 25 26  1  0
 25 27  1  0
M  CHG  2   8   1  10  -1
M  END