
  SciTegic09261414482D

 14 14  0  0  0  0            999 V2000
    2.4625   -5.3076    0.0000 C   0  0
    2.4614   -6.1271    0.0000 C   0  0
    3.1694   -6.5361    0.0000 C   0  0
    3.8791   -6.1266    0.0000 C   0  0
    3.8763   -5.3040    0.0000 C   0  0
    3.1676   -4.8987    0.0000 C   0  0
    4.5874   -6.5341    0.0000 C   0  0
    4.5887   -7.3513    0.0000 O   0  0
    5.2945   -6.1244    0.0000 C   0  0
    6.0029   -6.5319    0.0000 N   0  0
    6.7099   -6.1222    0.0000 C   0  0
    7.4183   -6.5297    0.0000 C   0  0
    6.7086   -5.3050    0.0000 C   0  0
    1.7547   -4.8992    0.0000 C   0  0
  1  2  2  0
  2  3  1  0
  3  4  2  0
  4  5  1  0
  5  6  2  0
  6  1  1  0
  4  7  1  0
  7  8  1  0
  7  9  1  0
  9 10  1  0
 10 11  1  0
 11 12  1  0
 11 13  1  0
  1 14  1  0
M  END