
          11280715142D 1   1.00000     0.00000     0

 53 57  0     1  0            999 V2000
   -1.3083   -2.9958    0.0000 C   0  0  0  0  0  0           0  0  0
   -2.6083   -3.7458    0.0000 C   0  0  0  0  0  0           0  0  0
   -0.0083   -3.7375    0.0000 C   0  0  0  0  0  0           0  0  0
  -10.3875  -12.7708    0.0000 C   0  0  0  0  0  0           0  0  0
   -5.2042   -5.2542    0.0000 C   0  0  0  0  0  0           0  0  0
   -7.7958   -8.2625    0.0000 C   0  0  0  0  0  0           0  0  0
   -3.9083   -3.0000    0.0000 N   0  0  0  0  0  0           0  0  0
  -12.7208  -13.2500    0.0000 N   0  0  0  0  0  0           0  0  0
   -7.7917   -9.7625    0.0000 N   0  0  0  0  0  0           0  0  0
   -1.3083   -1.4833    0.0000 C   0  0  0  0  0  0           0  0  0
  -11.7417  -12.1500    0.0000 C   0  0  0  0  0  0           0  0  0
   -6.5000   -6.0083    0.0000 N   0  0  0  0  0  0           0  0  0
   -5.2083   -3.7542    0.0000 C   0  0  2  0  0  0           0  0  0
   -9.0917  -10.5167    0.0000 C   0  0  2  0  0  0           0  0  0
    0.0000   -5.2375    0.0000 N   0  0  0  0  0  0           0  0  0
    0.0042   -8.2333    0.0000 C   0  0  0  0  0  0           0  0  0
  -10.3917   -9.7708    0.0000 C   0  0  0  0  0  0           0  0  0
  -10.5250  -14.2458    0.0000 C   0  0  0  0  0  0           0  0  0
   -9.0875  -12.0167    0.0000 C   0  0  0  0  0  0           0  0  0
    1.2917   -2.9667    0.0000 C   0  0  0  0  0  0           0  0  0
   -6.4958   -7.5083    0.0000 C   0  0  1  0  0  0           0  0  0
    1.3042   -5.9792    0.0000 C   0  0  0  0  0  0           0  0  0
  -11.9875  -14.5500    0.0000 C   0  0  0  0  0  0           0  0  0
   -0.0125   -0.7292    0.0000 C   0  0  0  0  0  0           0  0  0
    1.0375   -7.6333    0.0000 N   0  0  0  0  0  0           0  0  0
    1.2875   -1.4708    0.0000 C   0  0  0  0  0  0           0  0  0
   -2.6042   -4.9458    0.0000 O   0  0  0  0  0  0           0  0  0
   -4.1625   -5.8542    0.0000 O   0  0  0  0  0  0           0  0  0
   -8.8333   -7.6625    0.0000 O   0  0  0  0  0  0           0  0  0
   -6.5042   -3.0042    0.0000 C   0  0  0  0  0  0           0  0  0
  -11.4292  -10.3750    0.0000 O   0  0  0  0  0  0           0  0  0
    1.3125   -7.1792    0.0000 O   0  0  0  0  0  0           0  0  0
   -1.3000   -7.4917    0.0000 N   0  0  0  0  0  0           0  0  0
    0.0083   -9.4333    0.0000 N   0  0  0  0  0  0           0  0  0
  -10.3958   -8.5708    0.0000 N   0  0  0  0  0  0           0  0  0
   -6.5042   -1.5042    0.0000 C   0  0  0  0  0  0           0  0  0
   -9.5083  -15.3542    0.0000 C   0  0  0  0  0  0           0  0  0
    2.3417   -5.3750    0.0000 C   0  0  0  0  0  0           0  0  0
   -5.1958   -8.2542    0.0000 C   0  0  0  0  0  0           0  0  0
   -0.0208    0.7708    0.0000 C   0  0  0  0  0  0           0  0  0
    2.5792   -0.7167    0.0000 C   0  0  0  0  0  0           0  0  0
  -12.4750  -15.9708    0.0000 C   0  0  0  0  0  0           0  0  0
   -2.5958   -8.2458    0.0000 C   0  0  0  0  0  0           0  0  0
   -5.2083   -0.7542    0.0000 C   0  0  0  0  0  0           0  0  0
   -7.8000   -0.7500    0.0000 C   0  0  0  0  0  0           0  0  0
   -3.9000   -7.5000    0.0000 C   0  0  0  0  0  0           0  0  0
   -9.9917  -16.7958    0.0000 C   0  0  0  0  0  0           0  0  0
    1.2750    1.5250    0.0000 C   0  0  0  0  0  0           0  0  0
    2.5750    0.7792    0.0000 C   0  0  0  0  0  0           0  0  0
  -11.4542  -17.1000    0.0000 C   0  0  0  0  0  0           0  0  0
   -5.2042    0.7458    0.0000 C   0  0  0  0  0  0           0  0  0
   -7.8000    0.7500    0.0000 C   0  0  0  0  0  0           0  0  0
   -6.5000    1.4958    0.0000 C   0  0  0  0  0  0           0  0  0
  2  1  1  0     0  0
  3  1  2  0     0  0
  4 19  1  0     0  0
  5 13  1  0     0  0
  6 21  1  0     0  0
  7  2  1  0     0  0
  8 11  1  0     0  0
  9  6  1  0     0  0
 10  1  1  0     0  0
 11  4  2  0     0  0
 12  5  1  0     0  0
 13  7  1  1     0  0
 14  9  1  1     0  0
 15  3  1  0     0  0
 16 33  2  0     0  0
 17 14  1  0     0  0
 18  4  1  0     0  0
 19 14  1  0     0  0
 20  3  1  0     0  0
 21 12  1  1     0  0
 22 15  1  0     0  0
 23 18  1  0     0  0
 24 10  2  0     0  0
 25 16  1  0     0  0
 26 20  2  0     0  0
 27  2  2  0     0  0
 28  5  2  0     0  0
 29  6  2  0     0  0
 30 13  1  0     0  0
 31 17  2  0     0  0
 32 22  2  0     0  0
 33 43  1  0     0  0
 34 16  1  0     0  0
 35 17  1  0     0  0
 36 30  1  0     0  0
 37 18  2  0     0  0
 38 22  1  0     0  0
 39 21  1  0     0  0
 40 24  1  0     0  0
 41 26  1  0     0  0
 42 23  2  0     0  0
 43 46  1  0     0  0
 44 36  1  0     0  0
 45 36  2  0     0  0
 46 39  1  0     0  0
 47 37  1  0     0  0
 48 40  2  0     0  0
 49 41  2  0     0  0
 50 42  1  0     0  0
 51 44  2  0     0  0
 52 45  1  0     0  0
 53 51  1  0     0  0
 26 24  1  0     0  0
 48 49  1  0     0  0
 53 52  2  0     0  0
 23  8  1  0     0  0
 47 50  2  0     0  0
M  END