
          11280715492D 1   1.00000     0.00000     0

 26 29  0     1  0            999 V2000
    1.3153    1.4280    0.0000 C   0  0  0  0  0  0           0  0  0
    0.5833    1.7656    0.0000 N   0  0  3  0  0  0           0  0  0
    1.1671    2.1730    0.0000 C   0  0  0  0  0  0           0  0  0
   -0.2378    1.4131    0.0000 C   0  0  0  0  0  0           0  0  0
    0.7201    2.7805    0.0000 C   0  0  0  0  0  0           0  0  0
    0.4439    2.4975    0.0000 C   0  0  3  0  0  0           0  0  0
   -0.3413    2.1514    0.0000 C   0  0  2  0  0  0           0  0  0
    0.4816    3.3731    0.0000 C   0  0  0  0  0  0           0  0  0
   -0.5619    2.9512    0.0000 O   0  0  0  0  0  0           0  0  0
   -1.3595    3.1587    0.0000 C   0  0  0  0  0  0           0  0  0
   -1.1446    1.9397    0.0000 C   0  0  0  0  0  0           0  0  0
   -1.9438    1.7274    0.0000 C   0  0  0  0  0  0           0  0  0
   -2.7430    1.5151    0.0000 C   0  0  3  0  0  0           0  0  0
   -3.5422    1.3029    0.0000 C   0  0  0  0  0  0           0  0  0
   -2.5314    0.7186    0.0000 C   0  0  0  0  0  0           0  0  0
   -2.9546    2.3116    0.0000 O   0  0  0  0  0  0           0  0  0
   -3.1137    0.1360    0.0000 C   0  0  0  0  0  0           0  0  0
   -2.9026   -0.6599    0.0000 C   0  0  0  0  0  0           0  0  0
   -2.1063   -0.8757    0.0000 C   0  0  0  0  0  0           0  0  0
   -1.5211   -0.2893    0.0000 C   0  0  0  0  0  0           0  0  0
   -1.7352    0.5044    0.0000 C   0  0  0  0  0  0           0  0  0
   -4.1274    1.8886    0.0000 C   0  0  0  0  0  0           0  0  0
   -4.9223    1.6769    0.0000 C   0  0  0  0  0  0           0  0  0
   -5.1388    0.8779    0.0000 C   0  0  0  0  0  0           0  0  0
   -4.5533    0.2907    0.0000 C   0  0  0  0  0  0           0  0  0
   -3.7576    0.5056    0.0000 C   0  0  0  0  0  0           0  0  0
  2  5  1  0     0  0
 12 13  1  0     0  0
  3  6  1  0     0  0
 13 14  1  0     0  0
  4  7  1  0     0  0
 13 15  1  0     0  0
  5  8  1  0     0  0
 13 16  1  0     0  0
  6  7  1  0     0  0
 15 17  2  0     0  0
  6  8  1  0     0  0
 17 18  1  0     0  0
 18 19  2  0     0  0
  7  9  1  1     0  0
 19 20  1  0     0  0
  1  2  1  0     0  0
 20 21  2  0     0  0
 21 15  1  0     0  0
  9 10  1  0     0  0
 14 22  2  0     0  0
  1  3  1  0     0  0
 22 23  1  0     0  0
  7 11  1  0     0  0
 23 24  2  0     0  0
  2  4  1  0     0  0
 24 25  1  0     0  0
 11 12  3  0     0  0
 25 26  2  0     0  0
 26 14  1  0     0  0
M  END