
  SciTegic12231509382D

 14 14  0  0  1  0            999 V2000
    2.2393   -1.0607    0.0000 O   0  0
    5.0972   -1.0607    0.0000 O   0  0
    4.3827    2.6518    0.0000 N   0  0
    3.6682    0.5893    0.0000 C   0  0
    2.9538   -0.6482    0.0000 C   0  0
    4.3827   -0.6482    0.0000 C   0  0
    4.3827    0.1768    0.0000 C   0  0
    2.9538    0.1768    0.0000 C   0  0
    3.6682   -1.0607    0.0000 C   0  0
    3.6682    1.4143    0.0000 C   0  0
    4.3827    1.8268    0.0000 C   0  0  1  0  0  0
    2.2393   -1.8857    0.0000 C   0  0
    5.0972   -1.8857    0.0000 C   0  0
    5.0972    1.4143    0.0000 C   0  0
  1  5  1  0
  1 12  1  0
  2  6  1  0
  2 13  1  0
  3 11  1  0
  4  7  2  0
  4  8  1  0
  4 10  1  0
  5  8  2  0
  5  9  1  0
  6  7  1  0
  6  9  2  0
 10 11  1  0
 11 14  1  6
M  END