
  CDK    9/16/09,10:2

 27 30  0  0  0  0  0  0  0  0999 V2000
   10.0944   -1.6000    0.0000 N   0  0  0  0  0  0  0  0  0  0  0  0
   10.0932   -2.4273    0.0000 C   0  0  0  0  0  0  0  0  0  0  0  0
   10.8081   -2.8402    0.0000 N   0  0  0  0  0  0  0  0  0  0  0  0
   10.8063   -1.1872    0.0000 C   0  0  0  0  0  0  0  0  0  0  0  0
   11.5216   -1.5963    0.0000 C   0  0  0  0  0  0  0  0  0  0  0  0
   11.5219   -2.4228    0.0000 C   0  0  0  0  0  0  0  0  0  0  0  0
   12.3080   -2.6779    0.0000 N   0  0  0  0  0  0  0  0  0  0  0  0
   12.7936   -2.0091    0.0000 C   0  0  0  0  0  0  0  0  0  0  0  0
   12.3076   -1.3408    0.0000 N   0  0  0  0  0  0  0  0  0  0  0  0
   10.8038   -0.3622    0.0000 N   0  0  0  0  0  0  0  0  0  0  0  0
   12.5632   -3.4625    0.0000 C   0  0  0  0  0  0  0  0  0  0  0  0
   12.0789   -4.1294    0.0000 C   0  0  0  0  0  0  0  0  0  0  0  0
   12.5640   -4.7967    0.0000 C   0  0  0  0  0  0  0  0  0  0  0  0
   13.3486   -4.5416    0.0000 C   0  0  0  0  0  0  0  0  0  0  0  0
   13.3482   -3.7166    0.0000 O   0  0  0  0  0  0  0  0  0  0  0  0
   14.0162   -5.0262    0.0000 C   0  0  0  0  0  0  0  0  0  0  0  0
   12.3093   -5.5814    0.0000 O   0  0  0  0  0  0  0  0  0  0  0  0
   11.2539   -4.1297    0.0000 O   0  0  0  0  0  0  0  0  0  0  0  0
   13.9303   -5.8468    0.0000 O   0  0  0  0  0  0  0  0  0  0  0  0
   13.6186   -2.0088    0.0000 N   0  0  0  0  0  0  0  0  0  0  0  0
   14.0314   -2.7232    0.0000 C   0  0  0  0  0  0  0  0  0  0  0  0
   14.8564   -2.7229    0.0000 C   0  0  0  0  0  0  0  0  0  0  0  0
   15.2643   -3.4389    0.0000 C   0  0  0  0  0  0  0  0  0  0  0  0
   16.0886   -3.4389    0.0000 C   0  0  0  0  0  0  0  0  0  0  0  0
   16.5016   -2.7237    0.0000 C   0  0  0  0  0  0  0  0  0  0  0  0
   16.0845   -2.0071    0.0000 C   0  0  0  0  0  0  0  0  0  0  0  0
   15.2616   -2.0105    0.0000 C   0  0  0  0  0  0  0  0  0  0  0  0
  3  6  2  0  0  0  0 
  1  2  2  0  0  0  0 
 12 13  1  0  0  0  0 
 13 14  1  0  0  0  0 
 14 15  1  0  0  0  0 
 15 11  1  0  0  0  0 
  5  4  2  0  0  0  0 
 14 16  1  6  0  0  0 
  6  7  1  0  0  0  0 
 13 17  1  1  0  0  0 
  7  8  1  0  0  0  0 
 12 18  1  1  0  0  0 
  8  9  2  0  0  0  0 
 16 19  1  0  0  0  0 
  9  5  1  0  0  0  0 
  8 20  1  0  0  0  0 
  4  1  1  0  0  0  0 
 20 21  1  0  0  0  0 
  4 10  1  0  0  0  0 
 21 22  1  0  0  0  0 
  5  6  1  0  0  0  0 
 22 23  2  0  0  0  0 
 11  7  1  6  0  0  0 
 23 24  1  0  0  0  0 
 11 12  1  0  0  0  0 
 24 25  2  0  0  0  0 
 25 26  1  0  0  0  0 
  2  3  1  0  0  0  0 
 26 27  2  0  0  0  0 
 27 22  1  0  0  0  0 
M  END