
  SciTegic09261414462D

 18 20  0  0  0  0            999 V2000
    5.7758   -4.0054    0.0000 N   0  0
    5.7758   -4.8304    0.0000 C   0  0
    6.4903   -5.2429    0.0000 N   0  0
    6.4903   -6.0679    0.0000 C   0  0
    5.7758   -6.4804    0.0000 C   0  0
    5.0614   -6.0679    0.0000 C   0  0
    5.0614   -5.2429    0.0000 N   0  0
    4.3469   -6.4804    0.0000 C   0  0
    4.2607   -7.3009    0.0000 C   0  0
    3.4537   -7.4724    0.0000 C   0  0
    3.0412   -6.7580    0.0000 C   0  0
    3.5932   -6.1449    0.0000 C   0  0
    7.2048   -6.4804    0.0000 N   0  0
    7.9584   -6.1449    0.0000 C   0  0
    8.5105   -6.7580    0.0000 C   0  0  1  0  0  0
    8.0980   -7.4724    0.0000 C   0  0
    7.2910   -7.3009    0.0000 C   0  0
    9.3310   -6.6717    0.0000 N   0  0
  2  3  1  0
  3  4  2  0
  4  5  1  0
  5  6  2  0
  6  7  1  0
  2  7  2  0
  1  2  1  0
  8  9  1  0
  9 10  1  0
 10 11  1  0
 11 12  1  0
  8 12  1  0
  6  8  1  0
 13 14  1  0
 14 15  1  0
 15 16  1  0
 16 17  1  0
 13 17  1  0
 15 18  1  6
  4 13  1  0
M  END