
  Mrv0541 04051115152D          

 38 42  0  0  0  0            999 V2000
   -0.8399   -3.5812    0.0000 C   0  0  0  0  0  0  0  0  0  0  0  0
   -0.4274   -4.2957    0.0000 C   0  0  0  0  0  0  0  0  0  0  0  0
    0.3976   -4.2957    0.0000 C   0  0  0  0  0  0  0  0  0  0  0  0
    0.8101   -5.0101    0.0000 Cl  0  0  0  0  0  0  0  0  0  0  0  0
    0.8101   -3.5812    0.0000 C   0  0  0  0  0  0  0  0  0  0  0  0
    0.3976   -2.8667    0.0000 C   0  0  0  0  0  0  0  0  0  0  0  0
   -0.4274   -2.8667    0.0000 C   0  0  0  0  0  0  0  0  0  0  0  0
   -0.8399   -2.1522    0.0000 C   0  0  0  0  0  0  0  0  0  0  0  0
   -0.4274   -1.4378    0.0000 N   0  0  0  0  0  0  0  0  0  0  0  0
    0.3976   -1.4378    0.0000 C   0  0  0  0  0  0  0  0  0  0  0  0
    0.8825   -2.1052    0.0000 N   0  0  0  0  0  0  0  0  0  0  0  0
    1.6671   -1.8503    0.0000 C   0  0  0  0  0  0  0  0  0  0  0  0
    2.3816   -2.2628    0.0000 C   0  0  0  0  0  0  0  0  0  0  0  0
    2.3816   -3.0878    0.0000 N   0  0  0  0  0  0  0  0  0  0  0  0
    3.0961   -1.8503    0.0000 N   0  0  0  0  0  0  0  0  0  0  0  0
    3.0961   -1.0253    0.0000 C   0  0  0  0  0  0  0  0  0  0  0  0
    2.3816   -0.6128    0.0000 N   0  0  0  0  0  0  0  0  0  0  0  0
    1.6671   -1.0253    0.0000 C   0  0  0  0  0  0  0  0  0  0  0  0
    0.8825   -0.7703    0.0000 N   0  0  0  0  0  0  0  0  0  0  0  0
    0.6276    0.0143    0.0000 C   0  0  2  0  0  0  0  0  0  0  0  0
   -0.1571    0.2692    0.0000 O   0  0  0  0  0  0  0  0  0  0  0  0
    1.1125    0.6817    0.0000 C   0  0  2  0  0  0  0  0  0  0  0  0
    1.9375    0.6817    0.0000 O   0  0  0  0  0  0  0  0  0  0  0  0
    0.6276    1.3492    0.0000 C   0  0  2  0  0  0  0  0  0  0  0  0
    0.8825    2.1338    0.0000 O   0  0  0  0  0  0  0  0  0  0  0  0
   -0.1571    1.0942    0.0000 C   0  0  1  0  0  0  0  0  0  0  0  0
   -0.8245    1.5792    0.0000 C   0  0  0  0  0  0  0  0  0  0  0  0
   -0.7383    2.3996    0.0000 O   0  0  0  0  0  0  0  0  0  0  0  0
   -1.4057    2.8846    0.0000 C   0  0  0  0  0  0  0  0  0  0  0  0
   -1.3195    3.7050    0.0000 C   0  0  0  0  0  0  0  0  0  0  0  0
   -1.9869    4.1900    0.0000 C   0  0  0  0  0  0  0  0  0  0  0  0
   -1.9007    5.0104    0.0000 C   0  0  0  0  0  0  0  0  0  0  0  0
   -1.1470    5.3460    0.0000 C   0  0  0  0  0  0  0  0  0  0  0  0
   -1.0608    6.1665    0.0000 C   0  0  0  0  0  0  0  0  0  0  0  0
   -0.9745    6.9870    0.0000 N   0  0  0  0  0  0  0  0  0  0  0  0
   -0.4796    4.8611    0.0000 C   0  0  0  0  0  0  0  0  0  0  0  0
   -0.5658    4.0406    0.0000 C   0  0  0  0  0  0  0  0  0  0  0  0
    1.6351   -3.5812    0.0000 Cl  0  0  0  0  0  0  0  0  0  0  0  0
  2  1  2  0  0  0  0
  7  1  1  0  0  0  0
  3  2  1  0  0  0  0
  3  4  1  0  0  0  0
  5  3  2  0  0  0  0
  6  5  1  0  0  0  0
  5 38  1  0  0  0  0
  7  6  2  0  0  0  0
  8  7  1  0  0  0  0
  8  9  1  0  0  0  0
 10  9  1  0  0  0  0
 10 11  2  0  0  0  0
 10 19  1  0  0  0  0
 12 11  1  0  0  0  0
 13 12  2  0  0  0  0
 12 18  1  0  0  0  0
 13 14  1  0  0  0  0
 13 15  1  0  0  0  0
 16 15  2  0  0  0  0
 16 17  1  0  0  0  0
 18 17  2  0  0  0  0
 18 19  1  0  0  0  0
 20 19  1  6  0  0  0
 20 21  1  0  0  0  0
 20 22  1  0  0  0  0
 26 21  1  0  0  0  0
 22 23  1  1  0  0  0
 22 24  1  0  0  0  0
 24 25  1  1  0  0  0
 26 24  1  0  0  0  0
 26 27  1  6  0  0  0
 27 28  1  0  0  0  0
 29 28  1  0  0  0  0
 29 30  1  0  0  0  0
 30 31  2  0  0  0  0
 30 37  1  0  0  0  0
 31 32  1  0  0  0  0
 32 33  2  0  0  0  0
 33 34  1  0  0  0  0
 33 36  1  0  0  0  0
 34 35  3  0  0  0  0
 36 37  2  0  0  0  0
M  END