
          08180812472D 1   1.00000     0.00000     0

 19 20  0     0  0            999 V2000
    4.2460  -18.5710    0.0000 C   0  0  0  0  0  0           0  0  0
    4.2495  -19.3985    0.0000 C   0  0  0  0  0  0           0  0  0
    4.9648  -19.8074    0.0000 C   0  0  0  0  0  0           0  0  0
    5.6818  -19.3897    0.0000 C   0  0  0  0  0  0           0  0  0
    5.6738  -18.5586    0.0000 C   0  0  0  0  0  0           0  0  0
    4.9533  -18.1541    0.0000 C   0  0  0  0  0  0           0  0  0
    6.4719  -19.5940    0.0000 C   0  0  0  0  0  0           0  0  0
    7.0500  -19.0055    0.0000 C   0  0  0  0  0  0           0  0  0
    7.8489  -19.2119    0.0000 C   0  0  0  0  0  0           0  0  0
    6.8295  -18.2105    0.0000 O   0  0  0  0  0  0           0  0  0
    8.0670  -20.0070    0.0000 C   0  0  0  0  0  0           0  0  0
    8.8649  -20.2137    0.0000 C   0  0  0  0  0  0           0  0  0
    9.4440  -19.6249    0.0000 C   0  0  0  0  0  0           0  0  0
    9.2198  -18.8265    0.0000 C   0  0  0  0  0  0           0  0  0
    8.4223  -18.6235    0.0000 C   0  0  0  0  0  0           0  0  0
   10.2430  -19.8303    0.0000 O   0  0  0  0  0  0           0  0  0
    7.4878  -20.5946    0.0000 O   0  0  0  0  0  0           0  0  0
    9.0851  -21.0088    0.0000 C   0  0  0  0  0  0           0  0  0
    4.9682  -20.6324    0.0000 Cl  0  0  0  0  0  0           0  0  0
  4  5  1  0     0  0
  8  9  1  0     0  0
  2  3  1  0     0  0
  8 10  2  0     0  0
  5  6  2  0     0  0
  9 11  2  0     0  0
  6  1  1  0     0  0
 11 12  1  0     0  0
  1  2  2  0     0  0
 12 13  2  0     0  0
 13 14  1  0     0  0
  3  4  2  0     0  0
 14 15  2  0     0  0
 15  9  1  0     0  0
  4  7  1  0     0  0
 13 16  1  0     0  0
 11 17  1  0     0  0
  7  8  1  0     0  0
 12 18  1  0     0  0
  3 19  1  0     0  0
M  END