
  Mrv0541 05211314572D          

 54 62  0  0  0  0            999 V2000
   -1.4409  -10.4349    0.0000 O   0  0  0  0  0  0  0  0  0  0  0  0
   -0.7264  -10.0224    0.0000 C   0  0  0  0  0  0  0  0  0  0  0  0
   -0.7264   -9.1974    0.0000 C   0  0  0  0  0  0  0  0  0  0  0  0
   -1.4409   -8.7849    0.0000 O   0  0  0  0  0  0  0  0  0  0  0  0
   -1.4409   -7.9599    0.0000 C   0  0  0  0  0  0  0  0  0  0  0  0
   -2.1553   -7.5474    0.0000 C   0  0  0  0  0  0  0  0  0  0  0  0
   -2.1553   -6.7224    0.0000 C   0  0  0  0  0  0  0  0  0  0  0  0
   -1.4409   -6.3099    0.0000 C   0  0  0  0  0  0  0  0  0  0  0  0
   -1.4409   -5.4849    0.0000 O   0  0  0  0  0  0  0  0  0  0  0  0
   -0.7264   -5.0724    0.0000 C   0  0  0  0  0  0  0  0  0  0  0  0
   -0.7264   -4.2474    0.0000 C   0  0  0  0  0  0  0  0  0  0  0  0
   -1.4409   -3.8349    0.0000 O   0  0  0  0  0  0  0  0  0  0  0  0
   -0.0119   -3.8349    0.0000 C   0  0  0  0  0  0  0  0  0  0  0  0
   -0.0119   -3.0099    0.0000 N   0  0  0  0  0  0  0  0  0  0  0  0
   -0.7264   -2.5974    0.0000 C   0  0  0  0  0  0  0  0  0  0  0  0
   -0.7264   -1.7724    0.0000 C   0  0  0  0  0  0  0  0  0  0  0  0
   -0.0119   -1.3599    0.0000 N   0  0  0  0  0  0  0  0  0  0  0  0
    0.7025   -1.7724    0.0000 C   0  0  0  0  0  0  0  0  0  0  0  0
    0.7025   -2.5974    0.0000 C   0  0  0  0  0  0  0  0  0  0  0  0
   -0.0119   -0.5349    0.0000 C   0  0  0  0  0  0  0  0  0  0  0  0
   -0.6794   -0.0500    0.0000 C   0  0  0  0  0  0  0  0  0  0  0  0
   -1.4863   -0.2215    0.0000 C   0  0  0  0  0  0  0  0  0  0  0  0
   -2.0384    0.3916    0.0000 C   0  0  0  0  0  0  0  0  0  0  0  0
   -1.7834    1.1762    0.0000 C   0  0  0  0  0  0  0  0  0  0  0  0
   -0.9765    1.3478    0.0000 C   0  0  0  0  0  0  0  0  0  0  0  0
   -0.4244    0.7347    0.0000 C   0  0  0  0  0  0  0  0  0  0  0  0
    0.4006    0.7347    0.0000 C   0  0  0  0  0  0  0  0  0  0  0  0
    0.9526    1.3478    0.0000 C   0  0  0  0  0  0  0  0  0  0  0  0
    1.7596    1.1762    0.0000 C   0  0  0  0  0  0  0  0  0  0  0  0
    2.0145    0.3916    0.0000 C   0  0  0  0  0  0  0  0  0  0  0  0
    1.4625   -0.2215    0.0000 C   0  0  0  0  0  0  0  0  0  0  0  0
    0.6555   -0.0500    0.0000 C   0  0  0  0  0  0  0  0  0  0  0  0
   -0.7264   -6.7224    0.0000 C   0  0  0  0  0  0  0  0  0  0  0  0
   -0.7264   -7.5474    0.0000 C   0  0  0  0  0  0  0  0  0  0  0  0
   -0.0119  -10.4349    0.0000 C   0  0  0  0  0  0  0  0  0  0  0  0
   -0.0119  -11.2599    0.0000 N   0  0  0  0  0  0  0  0  0  0  0  0
    0.7025  -11.6724    0.0000 C   0  0  0  0  0  0  0  0  0  0  0  0
    0.7025  -12.4974    0.0000 C   0  0  0  0  0  0  0  0  0  0  0  0
   -0.0119  -12.9099    0.0000 N   0  0  0  0  0  0  0  0  0  0  0  0
   -0.7264  -12.4974    0.0000 C   0  0  0  0  0  0  0  0  0  0  0  0
   -0.7264  -11.6724    0.0000 C   0  0  0  0  0  0  0  0  0  0  0  0
   -0.0119  -13.7349    0.0000 C   0  0  0  0  0  0  0  0  0  0  0  0
    0.6555  -14.2198    0.0000 C   0  0  0  0  0  0  0  0  0  0  0  0
    1.4625  -14.0483    0.0000 C   0  0  0  0  0  0  0  0  0  0  0  0
    2.0145  -14.6614    0.0000 C   0  0  0  0  0  0  0  0  0  0  0  0
    1.7596  -15.4460    0.0000 C   0  0  0  0  0  0  0  0  0  0  0  0
    0.9526  -15.6175    0.0000 C   0  0  0  0  0  0  0  0  0  0  0  0
    0.4006  -15.0044    0.0000 C   0  0  0  0  0  0  0  0  0  0  0  0
   -0.4244  -15.0044    0.0000 C   0  0  0  0  0  0  0  0  0  0  0  0
   -0.9765  -15.6175    0.0000 C   0  0  0  0  0  0  0  0  0  0  0  0
   -1.7834  -15.4460    0.0000 C   0  0  0  0  0  0  0  0  0  0  0  0
   -2.0384  -14.6614    0.0000 C   0  0  0  0  0  0  0  0  0  0  0  0
   -1.4863  -14.0483    0.0000 C   0  0  0  0  0  0  0  0  0  0  0  0
   -0.6794  -14.2198    0.0000 C   0  0  0  0  0  0  0  0  0  0  0  0
  1  2  1  0  0  0  0
  2  3  1  0  0  0  0
  3  4  1  0  0  0  0
  4  5  1  0  0  0  0
  5  6  2  0  0  0  0
  6  7  1  0  0  0  0
  7  8  2  0  0  0  0
  8  9  1  0  0  0  0
  9 10  1  0  0  0  0
 10 11  1  0  0  0  0
 11 12  1  0  0  0  0
 11 13  1  0  0  0  0
 13 14  1  0  0  0  0
 14 15  1  0  0  0  0
 15 16  1  0  0  0  0
 16 17  1  0  0  0  0
 17 18  1  0  0  0  0
 18 19  1  0  0  0  0
 19 14  1  0  0  0  0
 17 20  1  0  0  0  0
 20 21  1  0  0  0  0
 21 22  2  0  0  0  0
 22 23  1  0  0  0  0
 23 24  2  0  0  0  0
 24 25  1  0  0  0  0
 25 26  2  0  0  0  0
 26 21  1  0  0  0  0
 26 27  1  0  0  0  0
 27 28  2  0  0  0  0
 28 29  1  0  0  0  0
 29 30  2  0  0  0  0
 30 31  1  0  0  0  0
 31 32  2  0  0  0  0
 32 20  1  0  0  0  0
 32 27  1  0  0  0  0
  8 33  1  0  0  0  0
 33 34  2  0  0  0  0
 34  5  1  0  0  0  0
  2 35  1  0  0  0  0
 35 36  1  0  0  0  0
 36 37  1  0  0  0  0
 37 38  1  0  0  0  0
 38 39  1  0  0  0  0
 39 40  1  0  0  0  0
 40 41  1  0  0  0  0
 41 36  1  0  0  0  0
 39 42  1  0  0  0  0
 42 43  1  0  0  0  0
 43 44  2  0  0  0  0
 44 45  1  0  0  0  0
 45 46  2  0  0  0  0
 46 47  1  0  0  0  0
 47 48  2  0  0  0  0
 48 43  1  0  0  0  0
 48 49  1  0  0  0  0
 49 50  2  0  0  0  0
 50 51  1  0  0  0  0
 51 52  2  0  0  0  0
 52 53  1  0  0  0  0
 53 54  2  0  0  0  0
 54 42  1  0  0  0  0
 54 49  1  0  0  0  0
M  END