
          01230816042D 1   1.00000     0.00000     0

 40 44  0     0  0            999 V2000
    5.0402   -0.7416    0.0000 C   0  0  0  0  0  0           0  0  0
    5.0391   -1.5690    0.0000 C   0  0  0  0  0  0           0  0  0
    5.7539   -1.9819    0.0000 C   0  0  0  0  0  0           0  0  0
    5.7521   -0.3289    0.0000 C   0  0  0  0  0  0           0  0  0
    7.1333   -2.0849    0.0000 C   0  0  0  0  0  0           0  0  0
    7.9663   -1.8659    0.0000 N   0  0  0  0  0  0           0  0  0
    8.2850   -1.1146    0.0000 N   0  0  3  0  0  0           0  0  0
    6.4677   -1.5707    0.0000 C   0  0  0  0  0  0           0  0  0
    6.4675   -0.7380    0.0000 C   0  0  0  0  0  0           0  0  0
    7.1466   -0.1963    0.0000 N   0  0  3  0  0  0           0  0  0
    7.9263   -0.3760    0.0000 C   0  0  0  0  0  0           0  0  0
    8.4404    0.2692    0.0000 O   0  0  0  0  0  0           0  0  0
    9.1098   -1.0936    0.0000 C   0  0  0  0  0  0           0  0  0
    9.5403   -1.7974    0.0000 C   0  0  0  0  0  0           0  0  0
   10.3650   -1.7764    0.0000 N   0  0  0  0  0  0           0  0  0
    9.1461   -2.5221    0.0000 O   0  0  0  0  0  0           0  0  0
   10.7956   -2.4801    0.0000 C   0  0  0  0  0  0           0  0  0
   10.3991   -3.2038    0.0000 C   0  0  0  0  0  0           0  0  0
   10.8290   -3.9070    0.0000 C   0  0  0  0  0  0           0  0  0
   11.6546   -3.8865    0.0000 C   0  0  0  0  0  0           0  0  0
   12.0485   -3.1567    0.0000 C   0  0  0  0  0  0           0  0  0
   11.6163   -2.4564    0.0000 C   0  0  0  0  0  0           0  0  0
    7.1115    0.6279    0.0000 C   0  0  0  0  0  0           0  0  0
    6.9691   -2.8934    0.0000 C   0  0  3  0  0  0           0  0  0
    6.1863   -3.1508    0.0000 C   0  0  0  0  0  0           0  0  0
    6.0209   -3.9554    0.0000 C   0  0  0  0  0  0           0  0  0
    6.6364   -4.5052    0.0000 C   0  0  0  0  0  0           0  0  0
    7.4202   -4.2447    0.0000 C   0  0  0  0  0  0           0  0  0
    7.5885   -3.4344    0.0000 C   0  0  0  0  0  0           0  0  0
    6.3802    1.0097    0.0000 C   0  0  0  0  0  0           0  0  0
    5.6839    0.5671    0.0000 O   0  0  0  0  0  0           0  0  0
    6.3451    1.8339    0.0000 C   0  0  3  0  0  0           0  0  0
    6.9887    2.3439    0.0000 C   0  0  0  0  0  0           0  0  0
    6.7006    3.1170    0.0000 C   0  0  0  0  0  0           0  0  0
    5.8763    3.0819    0.0000 C   0  0  0  0  0  0           0  0  0
    5.6551    2.2871    0.0000 C   0  0  0  0  0  0           0  0  0
   12.8731   -3.1328    0.0000 C   0  0  0  0  0  0           0  0  0
   13.3062   -3.8350    0.0000 C   0  0  0  0  0  0           0  0  0
   14.1308   -3.8111    0.0000 O   0  0  0  0  0  0           0  0  0
   12.9145   -4.5612    0.0000 O   0  0  0  0  0  0           0  0  0
  5  8  1  0     0  0
 19 20  2  0     0  0
  9 10  1  0     0  0
 20 21  1  0     0  0
 10 11  1  0     0  0
 21 22  2  0     0  0
 22 17  1  0     0  0
 11  7  1  0     0  0
 10 23  1  0     0  0
  8  9  1  0     0  0
  5 24  1  0     0  0
 24 25  1  0     0  0
  2  3  1  0     0  0
 11 12  2  0     0  0
  3  8  2  0     0  0
  7 13  1  0     0  0
  1  2  2  0     0  0
 24 29  1  0     0  0
 25 26  1  0     0  0
 26 27  1  0     0  0
 27 28  1  0     0  0
 28 29  1  0     0  0
 13 14  1  0     0  0
 23 30  1  0     0  0
  9  4  2  0     0  0
 30 31  2  0     0  0
 14 15  1  0     0  0
 30 32  1  0     0  0
 32 33  1  0     0  0
  4  1  1  0     0  0
 14 16  2  0     0  0
 15 17  1  0     0  0
 33 34  1  0     0  0
 34 35  1  0     0  0
 35 36  1  0     0  0
 36 32  1  0     0  0
  5  6  2  0     0  0
 21 37  1  0     0  0
 17 18  2  0     0  0
 37 38  1  0     0  0
  6  7  1  0     0  0
 38 39  1  0     0  0
 18 19  1  0     0  0
 38 40  2  0     0  0
M  END