
          11280715442D 1   1.00000     0.00000     0

 37 41  0     1  0            999 V2000
    0.9792   -3.1042    0.0000 N   0  0  3  0  0  0           0  0  0
    6.0125   -1.5750    0.0000 N   0  0  3  0  0  0           0  0  0
    2.4167   -3.1000    0.0000 C   0  0  1  0  0  0           0  0  0
    0.9875   -2.2750    0.0000 C   0  0  0  0  0  0           0  0  0
    5.3417   -2.0542    0.0000 C   0  0  3  0  0  0           0  0  0
    4.5542   -2.6667    0.0000 N   0  0  3  0  0  0           0  0  0
    1.7000   -3.5042    0.0000 C   0  0  0  0  0  0           0  0  0
    2.4167   -3.9250    0.0000 C   0  0  0  0  0  0           0  0  0
   -1.8750   -2.2917    0.0000 C   0  0  3  0  0  0           0  0  0
    4.5500   -1.8417    0.0000 C   0  0  0  0  0  0           0  0  0
    5.2750   -3.0792    0.0000 C   0  0  0  0  0  0           0  0  0
    3.1375   -5.1667    0.0000 C   0  0  0  0  0  0           0  0  0
    3.1375   -4.3375    0.0000 C   0  0  0  0  0  0           0  0  0
    0.2667   -3.5167    0.0000 C   0  0  0  0  0  0           0  0  0
    6.7667   -1.9167    0.0000 C   0  0  0  0  0  0           0  0  0
    5.9292   -0.7625    0.0000 C   0  0  0  0  0  0           0  0  0
    2.4167   -5.5792    0.0000 C   0  0  0  0  0  0           0  0  0
    7.3542   -0.6250    0.0000 C   0  0  0  0  0  0           0  0  0
    2.4167   -2.2750    0.0000 C   0  0  0  0  0  0           0  0  0
    1.7000   -1.8625    0.0000 C   0  0  0  0  0  0           0  0  0
    0.2667   -1.8625    0.0000 O   0  0  0  0  0  0           0  0  0
    3.1292   -2.6792    0.0000 C   0  0  0  0  0  0           0  0  0
    7.4292   -1.4417    0.0000 C   0  0  0  0  0  0           0  0  0
    1.7042   -4.3375    0.0000 C   0  0  0  0  0  0           0  0  0
    6.6042   -0.2792    0.0000 C   0  0  0  0  0  0           0  0  0
    1.7042   -5.1667    0.0000 C   0  0  0  0  0  0           0  0  0
    3.8417   -3.0875    0.0000 C   0  0  0  0  0  0           0  0  0
    8.0292   -0.1417    0.0000 O   0  0  0  0  0  0           0  0  0
   -2.2958   -1.5750    0.0000 F   0  0  0  0  0  0           0  0  0
   -2.7000   -2.2917    0.0000 F   0  0  0  0  0  0           0  0  0
   -1.8708   -3.1167    0.0000 C   0  0  0  0  0  0           0  0  0
   -1.1583   -1.8792    0.0000 C   0  0  0  0  0  0           0  0  0
    3.8542   -5.5792    0.0000 Cl  0  0  0  0  0  0           0  0  0
    2.4167   -6.4042    0.0000 Cl  0  0  0  0  0  0           0  0  0
   -0.4458   -3.1125    0.0000 C   0  0  3  0  0  0           0  0  0
   -1.1583   -3.5292    0.0000 C   0  0  0  0  0  0           0  0  0
   -0.4458   -2.2875    0.0000 C   0  0  0  0  0  0           0  0  0
  2  5  1  0     0  0
  3  7  1  0     0  0
  4  1  1  0     0  0
  5 11  1  0     0  0
  6 27  1  0     0  0
  7  1  1  0     0  0
  3  8  1  6     0  0
  9 32  1  0     0  0
 10  6  1  0     0  0
 11  6  1  0     0  0
 12 13  1  0     0  0
 13  8  2  0     0  0
 14  1  1  0     0  0
 15  2  1  0     0  0
 16  2  1  0     0  0
 17 26  1  0     0  0
 18 25  1  0     0  0
 19  3  1  0     0  0
 20  4  1  0     0  0
 21  4  2  0     0  0
  3 22  1  1     0  0
 23 15  1  0     0  0
 24  8  1  0     0  0
 25 16  1  0     0  0
 26 24  2  0     0  0
 27 22  1  0     0  0
 28 18  2  0     0  0
 29  9  1  0     0  0
 30  9  1  0     0  0
 31 36  1  0     0  0
 32 37  1  0     0  0
 33 12  1  0     0  0
 34 17  1  0     0  0
 35 14  1  0     0  0
 36 35  1  0     0  0
 37 35  1  0     0  0
 19 20  1  0     0  0
 31  9  1  0     0  0
 10  5  1  0     0  0
 17 12  2  0     0  0
 23 18  1  0     0  0
M  END