
  SciTegic04191613082D

180189  0  0  1  0            999 V2000
    2.9826    8.8368    0.0000 C   0  0  1  0  0  0
    1.9636    9.4706    0.0000 C   0  0
    4.4683    9.0493    0.0000 C   0  0
    4.9159   10.1627    0.0000 C   0  0
    2.9324    7.3249    0.0000 C   0  0  1  0  0  0
    1.4932    7.7475    0.0000 C   0  0
    1.7203    8.9258    0.0000 O   0  0
    0.0000    7.8901    0.0000 N   0  0
   -1.4932    7.7475    0.0000 C   0  0  1  0  0  0
   -2.9325    7.3249    0.0000 C   0  0
   -4.2657    6.6375    0.0000 N   0  0
   -5.4448    5.7103    0.0000 C   0  0  2  0  0  0
   -6.8436    6.2757    0.0000 C   0  0
   -7.0571    7.7604    0.0000 C   0  0
   -5.8780    8.6877    0.0000 C   0  0
   -4.4854    8.1302    0.0000 C   0  0
   -6.4271    4.5767    0.0000 C   0  0
   -7.1771    3.2776    0.0000 N   0  0
   -7.6677    1.8601    0.0000 C   0  0  2  0  0  0
   -7.8812    0.3754    0.0000 C   0  0
   -7.8098   -1.1229    0.0000 N   0  0
   -7.4561   -2.5806    0.0000 C   0  0  2  0  0  0
   -6.8330   -3.9451    0.0000 C   0  0
   -5.9629   -5.1669    0.0000 N   0  0
   -4.8773   -6.2020    0.0000 C   0  0  2  0  0  0
   -3.6154   -7.0130    0.0000 C   0  0
   -2.2229   -7.5705    0.0000 N   0  0
   -0.7500   -7.8544    0.0000 C   0  0  1  0  0  0
    0.7500   -7.8544    0.0000 C   0  0
    2.2229   -7.5705    0.0000 N   0  0
    3.6155   -7.0130    0.0000 C   0  0  2  0  0  0
    2.6794   -8.7447    0.0000 C   0  0
    3.4888   -9.6307    0.0000 O   0  0
    1.3009   -9.3361    0.0000 N   0  0
   -0.1685   -9.6378    0.0000 C   0  0  2  0  0  0
   -1.6685   -9.6375    0.0000 C   0  0
   -3.1377   -9.3353    0.0000 N   0  0
   -4.5160   -8.7436    0.0000 C   0  0  2  0  0  0
   -5.7470   -7.8865    0.0000 C   0  0
   -6.7803   -6.7991    0.0000 N   0  0
   -7.5736   -5.5260    0.0000 C   0  0  1  0  0  0
   -9.0427   -5.1660    0.0000 C   0  0
  -10.0815   -6.2492    0.0000 C   0  0
  -11.5392   -5.8920    0.0000 C   0  0
  -12.5781   -6.9751    0.0000 N   0  0
  -14.0358   -6.6180    0.0000 C   0  0
  -14.3709   -5.4657    0.0000 N   0  0
  -14.8665   -7.4840    0.0000 N   0  0
   -8.0943   -4.1193    0.0000 C   0  0
   -9.2560   -4.4199    0.0000 O   0  0
   -8.3212   -2.6366    0.0000 N   0  0
   -8.2450   -1.1385    0.0000 C   0  0  2  0  0  0
   -7.8688    0.3135    0.0000 C   0  0
   -7.2080    1.6601    0.0000 N   0  0
   -6.2896    2.8461    0.0000 C   0  0  1  0  0  0
   -7.6773    3.4480    0.0000 C   0  0
   -7.8495    4.9389    0.0000 C   0  0
   -9.2264    5.5361    0.0000 C   0  0
   -9.3986    7.0270    0.0000 N   0  0
  -10.7755    7.6242    0.0000 C   0  0
  -11.7393    6.9092    0.0000 N   0  0
  -10.9132    8.8163    0.0000 N   0  0
   -5.1513    3.8230    0.0000 C   0  0
   -5.8367    4.8080    0.0000 O   0  0
   -3.8397    4.5508    0.0000 N   0  0
   -2.4084    4.9996    0.0000 C   0  0  1  0  0  0
   -2.7155    6.4806    0.0000 C   0  0
   -1.5958    7.4800    0.0000 C   0  0
   -1.9005    8.9496    0.0000 C   0  0
   -3.3253    9.4214    0.0000 N   0  0
   -3.6300   10.8910    0.0000 C   0  0
   -4.7691   11.2682    0.0000 N   0  0
   -2.7339   11.6892    0.0000 N   0  0
   -0.9161    5.1511    0.0000 C   0  0
   -0.9159    6.3511    0.0000 O   0  0
    0.5762    4.9991    0.0000 N   0  0
    2.0073    4.5498    0.0000 C   0  0  2  0  0  0
    2.6067    5.9386    0.0000 C   0  0
    1.8900    6.9011    0.0000 O   0  0
    4.0973    6.1134    0.0000 N   0  0
    4.6921    7.4914    0.0000 C   0  0  2  0  0  0
    6.1825    7.6678    0.0000 C   0  0
    6.6568    8.7701    0.0000 O   0  0
    6.9002    6.7062    0.0000 O   0  0
    3.7969    8.6960    0.0000 C   0  0
    4.3917   10.0739    0.0000 C   0  0
    3.4965   11.2785    0.0000 C   0  0
    4.0912   12.6565    0.0000 C   0  0
    3.3755   13.6197    0.0000 N   0  0
    3.3187    3.8217    0.0000 C   0  0
    4.4567    2.8445    0.0000 N   0  0
    5.3747    1.6581    0.0000 C   0  0
    5.2411   -0.7535    0.0000 C   0  0
    5.7986   -2.1461    0.0000 C   0  0
    7.4561   -2.5806    0.0000 C   0  0
    6.8330   -3.9450    0.0000 C   0  0
    5.9629   -5.1669    0.0000 N   0  0
    4.8773   -6.2020    0.0000 C   0  0
    7.8723   -4.5450    0.0000 O   0  0
    7.8098   -1.1229    0.0000 C   0  0
    7.8812    0.3754    0.0000 C   0  0
    6.1684    0.4255    0.0000 C   0  0
    7.6677    1.8602    0.0000 C   0  0
    7.1771    3.2777    0.0000 N   0  0
    6.4271    4.5767    0.0000 C   0  0  1  0  0  0
    7.6610    5.4518    0.0000 C   0  0
    9.0254    4.8265    0.0000 C   0  0
   10.2502    5.6925    0.0000 C   0  0
   11.6126    5.0648    0.0000 C   0  0
   11.7502    3.5711    0.0000 C   0  0
   10.5254    2.7051    0.0000 C   0  0
    9.1631    3.3328    0.0000 C   0  0
    5.4448    5.7103    0.0000 C   0  0
    6.2729    6.5788    0.0000 O   0  0
    4.2657    6.6376    0.0000 N   0  0
    8.2686    3.7762    0.0000 C   0  0
    8.8339    2.1431    0.0000 O   0  0
    6.5205    2.0146    0.0000 O   0  0
   -8.9940    0.7305    0.0000 O   0  0
   -9.7405   -0.9121    0.0000 C   0  0
  -10.7336    0.2132    0.0000 C   0  0
  -12.2048   -0.0832    0.0000 C   0  0
  -13.1979    1.0421    0.0000 N   0  0
  -14.6691    0.7456    0.0000 C   0  0
  -15.4631    1.6454    0.0000 N   0  0
  -15.0517   -0.3917    0.0000 N   0  0
   -6.5288   -8.7969    0.0000 O   0  0
   -5.2477  -10.0674    0.0000 C   0  0
   -4.4740  -11.3534    0.0000 C   0  0
   -5.1973  -12.6808    0.0000 C   0  0
   -4.4242  -13.9627    0.0000 C   0  0
   -2.9271  -13.9343    0.0000 C   0  0
   -2.1540  -15.2163    0.0000 C   0  0
   -2.8779  -16.5267    0.0000 C   0  0
   -4.3749  -16.5551    0.0000 C   0  0
   -5.1480  -15.2731    0.0000 C   0  0
   -2.2032  -12.6239    0.0000 C   0  0
   -2.9767  -11.3237    0.0000 C   0  0
   -1.7900  -10.8314    0.0000 O   0  0
   -0.0128  -11.1423    0.0000 C   0  0
    1.3570  -11.7558    0.0000 C   0  0
    1.5136  -13.2476    0.0000 C   0  0
    2.8838  -13.8580    0.0000 C   0  0
    4.0974  -12.9765    0.0000 C   0  0
    3.9409  -11.4847    0.0000 C   0  0
    2.5707  -10.8744    0.0000 C   0  0
    0.8641   -9.0489    0.0000 O   0  0
   -0.8640   -9.0489    0.0000 C   0  0
   -4.1653   -8.0796    0.0000 O   0  0
   -5.6191   -7.1453    0.0000 C   0  0
   -7.8722   -4.5451    0.0000 O   0  0
   -8.8866   -3.0726    0.0000 C   0  0
  -10.0196   -2.0883    0.0000 C   0  0
  -11.4388   -2.5764    0.0000 C   0  0
  -12.5718   -1.5921    0.0000 N   0  0
  -13.9910   -2.0802    0.0000 C   0  0
  -14.8969   -1.2932    0.0000 N   0  0
  -14.2200   -3.2582    0.0000 N   0  0
   -9.0798    0.4325    0.0000 O   0  0
   -9.1714    1.6954    0.0000 C   0  0
  -10.0597    2.9051    0.0000 C   0  0
  -11.5633    2.7495    0.0000 C   0  0
  -12.4481    3.9571    0.0000 C   0  0
  -13.9363    3.7944    0.0000 C   0  0
  -14.8211    5.0020    0.0000 C   0  0
  -14.2177    6.3723    0.0000 C   0  0
  -12.7295    6.5350    0.0000 C   0  0
  -11.8447    5.3274    0.0000 C   0  0
  -10.3565    5.4901    0.0000 C   0  0
   -9.4550    4.2752    0.0000 C   0  0
   -7.4046    5.2727    0.0000 O   0  0
   -3.3785    8.4389    0.0000 O   0  0
   -0.7552    9.0680    0.0000 C   0  0
    0.7455    9.0898    0.0000 C   0  0
    1.4777   10.3999    0.0000 C   0  0
    2.6776   10.4174    0.0000 O   0  0
    0.8630   11.4305    0.0000 O   0  0
    2.8690   -7.6784    0.0000 H   0  0
   -6.4170    5.4762    0.0000 H   0  0
    3.7948    7.8312    0.0000 H   0  0
  1  2  1  1
  1  3  1  0
  3  4  1  0
  5  1  1  0
  5  6  1  0
  6  7  2  0
  8  6  1  0
  9  8  1  0
  9 10  1  0
 11 10  1  0
 12 11  1  0
 12 13  1  0
 13 14  1  0
 14 15  1  0
 15 16  1  0
 16 11  1  0
 12 17  1  0
 18 17  1  0
 19 18  1  0
 19 20  1  0
 20 21  1  0
 21 22  1  0
 22 23  1  0
 23 24  1  0
 24 25  1  0
 25 26  1  0
 26 27  1  0
 27 28  1  0
 28 29  1  0
 29 30  1  0
 30 31  1  0
 31 32  1  0
 32 33  2  0
 32 34  1  0
 34 35  1  0
 35 36  1  0
 36 37  1  0
 37 38  1  0
 38 39  1  0
 39 40  1  0
 40 41  1  0
 41 42  1  1
 42 43  1  0
 43 44  1  0
 44 45  1  0
 45 46  1  0
 46 47  1  0
 46 48  2  0
 41 49  1  0
 49 50  2  0
 49 51  1  0
 51 52  1  0
 52 53  1  0
 53 54  1  0
 55 54  1  0
 55 56  1  1
 56 57  1  0
 57 58  1  0
 58 59  1  0
 59 60  1  0
 60 61  1  0
 60 62  2  0
 63 55  1  0
 63 64  2  0
 65 63  1  0
 66 65  1  0
 66 67  1  1
 67 68  1  0
 68 69  1  0
 69 70  1  0
 70 71  1  0
 71 72  2  0
 71 73  1  0
 74 66  1  0
 74 75  2  0
 76 74  1  0
 77 76  1  0
 77 78  1  6
 78 79  2  0
 78 80  1  0
 81 80  1  1
 81 82  1  0
 82 83  2  0
 82 84  1  0
 81 85  1  0
 85 86  1  0
 86 87  1  0
 87 88  1  0
 88 89  1  0
 77 90  1  0
 91 90  1  0
 92 91  1  0
 93 92  1  0
 93 94  2  0
 94 95  1  0
 95 96  1  0
 96 97  1  0
 98 97  1  0
 31 98  1  0
 96 99  2  0
 95100  2  0
100101  1  0
101102  2  0
102 93  1  0
103101  1  0
104103  1  0
104105  1  0
105106  1  6
106107  1  0
108107  1  0
109108  2  0
110109  1  0
111110  2  0
112111  1  0
107112  2  0
105113  1  0
113114  2  0
115113  1  0
  5115  1  0
104116  1  0
103117  2  0
 92118  2  0
 53119  2  0
 52120  1  1
120121  1  0
121122  1  0
122123  1  0
123124  1  0
124125  2  0
124126  1  0
 39127  2  0
 38128  1  1
128129  1  0
129130  2  0
130131  1  0
132131  1  0
133132  2  0
134133  1  0
135134  2  0
136135  1  0
131136  2  0
132137  1  0
137138  2  0
138129  1  0
 36139  2  0
 35140  1  1
140141  1  0
141142  2  0
142143  1  0
143144  2  0
144145  1  0
145146  2  0
146141  1  0
 29147  2  0
 28148  1  1
 26149  2  0
 25150  1  6
 23151  2  0
 22152  1  6
152153  1  0
153154  1  0
154155  1  0
155156  1  0
156157  2  0
156158  1  0
 20159  2  0
 19160  1  6
160161  1  0
161162  2  0
162163  1  0
163164  2  0
164165  1  0
165166  2  0
166167  1  0
167168  2  0
168169  1  0
169170  2  0
170161  1  0
168163  1  0
 17171  2  0
 10172  2  0
  9173  1  1
173174  1  0
174175  1  0
175176  2  0
175177  1  0
 31178  1  6
 12179  1  6
  5180  1  1
M  END