
  SciTegic04191613082D

177186  0  0  1  0            999 V2000
    3.1312    8.0149    0.0000 C   0  0
    2.2144    6.8266    0.0000 C   0  0
    2.7842    5.4382    0.0000 C   0  0
    4.2715    5.2365    0.0000 N   0  0
    4.8413    3.8481    0.0000 C   0  0
    6.0304    3.6868    0.0000 N   0  0
    4.1074    2.8987    0.0000 N   0  0
    2.5568    9.4144    0.0000 C   0  0  1  0  0  0
    1.3548    8.5169    0.0000 C   0  0
    1.9782    7.4915    0.0000 O   0  0
    0.0048    7.8631    0.0000 N   0  0
   -1.4445    7.4766    0.0000 C   0  0  1  0  0  0
   -1.7180    5.9888    0.0000 C   0  0
   -0.5759    5.0151    0.0000 C   0  0
   -0.8471    3.5390    0.0000 C   0  0
    0.2950    2.5653    0.0000 N   0  0
    0.0237    1.0892    0.0000 C   0  0
   -1.1069    0.6873    0.0000 N   0  0
    0.9369    0.3107    0.0000 N   0  0
   -2.9409    7.3714    0.0000 C   0  0
   -2.9709    6.1718    0.0000 O   0  0
   -4.4300    7.5513    0.0000 N   0  0
   -5.8583    8.0098    0.0000 C   0  0  2  0  0  0
   -6.2530    7.0910    0.0000 C   0  0
   -7.1739    8.7303    0.0000 C   0  0
   -8.3294    9.6867    0.0000 N   0  0
   -9.2830   10.8445    0.0000 C   0  0  2  0  0  0
   -8.2789    9.7290    0.0000 C   0  0
   -7.0833    8.8231    0.0000 N   0  0
   -5.7299    8.1764    0.0000 C   0  0  1  0  0  0
   -5.7257    6.6638    0.0000 C   0  0
   -7.0229    5.9091    0.0000 C   0  0
   -8.3261    6.6520    0.0000 C   0  0
   -9.6210    5.8950    0.0000 C   0  0
   -9.6130    4.3950    0.0000 C   0  0
   -8.3099    3.6520    0.0000 C   0  0
   -7.0149    4.4090    0.0000 C   0  0
   -4.2739    7.8154    0.0000 C   0  0
   -2.7752    7.7549    0.0000 N   0  0
   -1.2949    7.9973    0.0000 C   0  0  2  0  0  0
    0.1063    8.5327    0.0000 C   0  0
    0.6458    7.4609    0.0000 O   0  0
    1.3710    9.3393    0.0000 N   0  0
    2.4475   10.3839    0.0000 C   0  0  2  0  0  0
    3.2917   11.6238    0.0000 C   0  0
    3.8690   13.0082    0.0000 N   0  0
    4.1557   14.4806    0.0000 C   0  0  1  0  0  0
    5.5229   13.8335    0.0000 C   0  0
    5.6461   12.3378    0.0000 C   0  0
    7.1405   12.1984    0.0000 C   0  0
    7.7678   10.8350    0.0000 N   0  0
    9.2622   10.6956    0.0000 C   0  0
    9.9558   11.6749    0.0000 N   0  0
    9.7638    9.6055    0.0000 N   0  0
    4.1403   15.9805    0.0000 C   0  0
    3.8232   17.4466    0.0000 N   0  0
    3.2175   18.8189    0.0000 C   0  0  1  0  0  0
    4.7093   19.0688    0.0000 C   0  0
    6.0030   18.3082    0.0000 C   0  0
    7.3092   19.0475    0.0000 C   0  0
    7.3229   20.5482    0.0000 N   0  0
    8.6290   21.2875    0.0000 C   0  0
    9.6629   20.6783    0.0000 N   0  0
    8.6400   22.4875    0.0000 N   0  0
    2.3480   20.0411    0.0000 C   0  0
    3.2504   20.8321    0.0000 O   0  0
    1.2502   21.0633    0.0000 N   0  0
   -0.0309   21.8436    0.0000 C   0  0  2  0  0  0
   -1.4428   22.3500    0.0000 C   0  0
   -1.1540   23.5147    0.0000 O   0  0
   -2.9278   22.5619    0.0000 N   0  0
   -4.4250   22.4705    0.0000 C   0  0  1  0  0  0
   -5.8732   22.0795    0.0000 C   0  0
   -7.2130   21.4051    0.0000 N   0  0
   -8.3896   20.4748    0.0000 C   0  0
   -9.3549   19.3266    0.0000 C   0  0
   -9.2059   19.9182    0.0000 C   0  0
   -9.4757   19.3738    0.0000 C   0  0
   -8.5754   20.5735    0.0000 C   0  0
   -9.3145   21.2470    0.0000 O   0  0
   -7.4642   21.5811    0.0000 N   0  0
   -8.6061   22.5673    0.0000 C   0  0
   -8.0271   23.9510    0.0000 C   0  0
   -6.5322   23.8279    0.0000 C   0  0
   -6.1825   22.3603    0.0000 C   0  0  1  0  0  0
   -4.7764   22.8828    0.0000 C   0  0
   -3.2969   23.1297    0.0000 N   0  0
   -1.7973   23.0922    0.0000 C   0  0
   -0.3320   22.7716    0.0000 C   0  0
    1.0462   22.1794    0.0000 N   0  0
    2.2874   21.3372    0.0000 C   0  0  2  0  0  0
    3.2497   22.5044    0.0000 C   0  0
    4.7301   22.2575    0.0000 C   0  0
    5.1506   21.1336    0.0000 O   0  0
    5.4934   23.1834    0.0000 O   0  0
    3.3468   20.2752    0.0000 C   0  0
    4.1860   19.0320    0.0000 N   0  0
    5.0956   20.2357    0.0000 C   0  0
    6.5848   20.0558    0.0000 C   0  0
    7.1736   18.6762    0.0000 C   0  0
    6.2732   17.4765    0.0000 C   0  0
    4.7748   17.6524    0.0000 C   0  0  2  0  0  0
    5.0919   16.1863    0.0000 C   0  0
    5.1258   14.6867    0.0000 N   0  0
    4.8752   13.2077    0.0000 C   0  0  1  0  0  0
    6.3367   12.8173    0.0000 C   0  0
    7.3979   13.8786    0.0000 C   0  0
    8.8606   13.4972    0.0000 C   0  0
    9.9180   14.5570    0.0000 C   0  0
    9.5289   16.0029    0.0000 C   0  0
   10.5863   17.0626    0.0000 C   0  0
   12.0327   16.6766    0.0000 C   0  0
   12.4218   15.2307    0.0000 C   0  0
   11.3644   14.1709    0.0000 C   0  0
    8.0825   16.3890    0.0000 C   0  0
    7.0075   15.3244    0.0000 C   0  0
    4.3493   11.8030    0.0000 C   0  0
    5.4281   11.2773    0.0000 O   0  0
    3.5671   10.5231    0.0000 N   0  0
    6.2836   16.3273    0.0000 O   0  0
    4.2730   21.0381    0.0000 O   0  0
    0.0348   23.9142    0.0000 O   0  0
   -2.9665   24.2834    0.0000 C   0  0
   -5.0341   23.8490    0.0000 O   0  0
  -10.1328   18.0253    0.0000 C   0  0
  -10.5228   16.5769    0.0000 C   0  0
  -10.0693   18.0077    0.0000 C   0  0
  -10.6316   15.0808    0.0000 C   0  0
  -11.8313   15.0537    0.0000 O   0  0
  -10.4553   13.5912    0.0000 N   0  0
  -10.0003   12.1619    0.0000 C   0  0
   -9.0860   21.1924    0.0000 O   0  0
   -4.1471   23.9573    0.0000 C   0  0
   -3.0151   24.3557    0.0000 O   0  0
   -5.2862   24.9344    0.0000 N   0  0
   -5.0104   26.4097    0.0000 C   0  0  2  0  0  0
   -3.5957   26.9110    0.0000 C   0  0
   -3.3766   28.0908    0.0000 O   0  0
   -2.6833   26.1315    0.0000 O   0  0
   -6.1495   27.3869    0.0000 C   0  0
   -5.8737   28.8622    0.0000 C   0  0
   -7.0129   29.8394    0.0000 C   0  0
   -6.7371   31.3146    0.0000 C   0  0
   -7.6479   32.0959    0.0000 N   0  0
    0.6238   23.2071    0.0000 C   0  0
    2.1203   23.3219    0.0000 C   0  0
    2.7699   24.6748    0.0000 C   0  0
    4.2664   24.7896    0.0000 N   0  0
    4.9160   26.1425    0.0000 C   0  0
    6.1125   26.2343    0.0000 N   0  0
    4.2386   27.1330    0.0000 N   0  0
    5.1341   16.0919    0.0000 O   0  0
    4.3468   11.0523    0.0000 O   0  0
    3.6034    9.4083    0.0000 C   0  0
    5.0155    9.9166    0.0000 C   0  0
    6.1624    8.9486    0.0000 C   0  0
    7.5745    9.4570    0.0000 N   0  0
    8.7214    8.4890    0.0000 C   0  0
    9.8505    8.8955    0.0000 N   0  0
    8.5093    7.3079    0.0000 N   0  0
   -0.9035    6.5363    0.0000 C   0  0
   -1.9642    5.4744    0.0000 C   0  0
   -1.5818    4.0120    0.0000 C   0  0
   -2.6409    2.9539    0.0000 C   0  0
   -4.0870    3.3420    0.0000 C   0  0
   -5.1461    2.2839    0.0000 C   0  0
   -4.7591    0.8377    0.0000 C   0  0
   -3.3130    0.4496    0.0000 C   0  0
   -2.2539    1.5077    0.0000 C   0  0
   -4.4741    4.7881    0.0000 C   0  0
   -3.4102    5.8639    0.0000 C   0  0
   -4.4434    6.6274    0.0000 O   0  0
   -9.0908    8.8454    0.0000 O   0  0
   -7.8477    7.7373    0.0000 O   0  0
    5.5151   16.9801    0.0000 H   0  0
   -5.7114   23.2423    0.0000 H   0  0
   -8.6305   10.0868    0.0000 H   0  0
  1  2  1  0
  2  3  1  0
  3  4  1  0
  4  5  1  0
  5  6  2  0
  5  7  1  0
  8  1  1  1
  8  9  1  0
  9 10  2  0
  9 11  1  0
 11 12  1  0
 12 13  1  1
 13 14  1  0
 14 15  1  0
 15 16  1  0
 16 17  1  0
 17 18  1  0
 17 19  2  0
 12 20  1  0
 20 21  2  0
 20 22  1  0
 22 23  1  0
 23 24  1  6
 23 25  1  0
 25 26  1  0
 26 27  1  0
 27 28  1  0
 28 29  1  0
 29 30  1  0
 30 31  1  6
 31 32  1  0
 32 33  2  0
 33 34  1  0
 34 35  2  0
 35 36  1  0
 36 37  2  0
 37 32  1  0
 30 38  1  0
 38 39  1  0
 39 40  1  0
 40 41  1  0
 41 42  2  0
 41 43  1  0
 43 44  1  0
 44 45  1  0
 45 46  1  0
 46 47  1  0
 47 48  1  6
 48 49  1  0
 49 50  1  0
 50 51  1  0
 51 52  1  0
 52 53  1  0
 52 54  2  0
 47 55  1  0
 55 56  1  0
 57 56  1  0
 57 58  1  6
 58 59  1  0
 59 60  1  0
 60 61  1  0
 61 62  1  0
 62 63  1  0
 62 64  2  0
 65 57  1  0
 65 66  2  0
 67 65  1  0
 68 67  1  0
 69 68  1  0
 69 70  2  0
 71 69  1  0
 72 71  1  0
 72 73  1  0
 74 73  1  0
 75 74  1  0
 76 75  1  0
 77 76  1  0
 78 77  2  0
 79 78  1  0
 79 80  2  0
 81 79  1  0
 82 81  1  0
 83 82  1  0
 84 83  1  0
 85 84  1  0
 81 85  1  0
 85 86  1  0
 87 86  1  0
 88 87  1  0
 89 88  1  0
 90 89  1  0
 91 90  1  0
 91 92  1  6
 92 93  1  0
 93 94  1  0
 93 95  2  0
 96 91  1  0
 97 96  1  0
 98 97  1  0
 99 98  1  0
100 99  1  0
101100  1  0
102101  1  0
102103  1  0
104103  1  0
105104  1  0
105106  1  1
106107  1  0
107108  2  0
108109  1  0
110109  1  0
111110  2  0
112111  1  0
113112  2  0
114113  1  0
109114  2  0
110115  1  0
115116  2  0
116107  1  0
105117  1  0
117118  2  0
117119  1  0
119  8  1  0
103120  2  0
102 97  1  0
 96121  2  0
 89122  2  0
 87123  1  0
 86124  2  0
125 78  1  0
126125  2  0
127126  1  0
 76127  2  0
126128  1  0
128129  2  0
128130  1  0
131130  1  0
 27131  1  0
 75132  2  0
 72133  1  1
133134  2  0
133135  1  0
136135  1  1
136137  1  0
137138  2  0
137139  1  0
136140  1  0
140141  1  0
141142  1  0
142143  1  0
143144  1  0
 68145  1  6
145146  1  0
146147  1  0
147148  1  0
148149  1  0
149150  2  0
149151  1  0
 55152  2  0
 45153  2  0
 44154  1  6
154155  1  0
155156  1  0
156157  1  0
157158  1  0
158159  2  0
158160  1  0
 40161  1  6
161162  1  0
162163  2  0
163164  1  0
165164  1  0
166165  2  0
167166  1  0
168167  2  0
169168  1  0
164169  2  0
165170  1  0
170171  2  0
171162  1  0
 38172  2  0
 28173  2  0
 25174  2  0
102175  1  1
 85176  1  6
 27177  1  6
M  END