
  SciTegic12131613572D

 38 41  0  0  0  0            999 V2000
   -3.9091    1.5019    0.0000 C   0  0
   -2.6111    0.7486    0.0000 N   0  0
   -3.9067    3.0027    0.0000 C   0  0  2  0  0  0
   -4.9494    0.9039    0.0000 O   0  0
   -2.6111   -0.7486    0.0000 C   0  0  2  0  0  0
   -1.2964   -1.4973    0.0000 C   0  0
   -1.2964    1.4973    0.0000 C   0  0
    0.0000    0.7486    0.0000 C   0  0
    0.0000   -0.7486    0.0000 C   0  0
    1.2964   -1.4973    0.0000 C   0  0
    2.5929   -0.7486    0.0000 C   0  0
    2.5929    0.7486    0.0000 C   0  0
    1.2964    1.4973    0.0000 C   0  0
   -5.2049    3.7560    0.0000 C   0  0
   -2.8664    3.6008    0.0000 N   0  0
   -5.2025    5.2568    0.0000 C   0  0
   -6.4988    6.0116    0.0000 C   0  0
   -6.4935    7.5116    0.0000 C   0  0
   -5.1917    8.2569    0.0000 C   0  0
   -3.8954    7.5022    0.0000 C   0  0
   -3.9008    6.0022    0.0000 C   0  0
   -2.8637    5.3985    0.0000 C   0  0
   -7.5402    5.4153    0.0000 C   0  0
   -5.1874    9.4569    0.0000 O   0  0
   -3.9122   -1.4966    0.0000 C   0  0
   -3.9141   -2.6966    0.0000 O   0  0
   -5.2109   -0.7445    0.0000 N   0  0
   -6.5121   -1.4924    0.0000 C   0  0
   -7.8109   -0.7403    0.0000 C   0  0
   -9.1121   -1.4882    0.0000 N   0  0
   -7.8090    0.4597    0.0000 O   0  0
  -10.4109   -0.7361    0.0000 C   0  0
  -11.7121   -1.4840    0.0000 C   0  0
  -13.0113   -0.7342    0.0000 C   0  0
  -14.3102   -1.4843    0.0000 C   0  0
  -14.3101   -2.9843    0.0000 C   0  0
  -13.0110   -3.7342    0.0000 C   0  0
  -11.7120   -2.9841    0.0000 C   0  0
  1  2  1  0
  1  3  1  0
  1  4  2  0
  5  2  1  0
  2  7  1  0
  5  6  1  0
  6  9  1  0
  8  7  1  0
  8  9  2  0
  9 10  1  0
 10 11  2  0
 11 12  1  0
 12 13  2  0
 13  8  1  0
  3 14  1  6
  3 15  1  0
 14 16  1  0
 16 17  2  0
 17 18  1  0
 18 19  2  0
 19 20  1  0
 20 21  2  0
 21 16  1  0
 21 22  1  0
 17 23  1  0
 19 24  1  0
  5 25  1  6
 25 26  2  0
 25 27  1  0
 27 28  1  0
 28 29  1  0
 29 30  1  0
 29 31  2  0
 30 32  1  0
 32 33  1  0
 33 34  2  0
 34 35  1  0
 35 36  2  0
 36 37  1  0
 37 38  2  0
 38 33  1  0
M  END