
  SciTegic12011114592D

 34 38  0  0  0  0            999 V2000
   16.2049  -16.6966    0.0000 N   0  0
   16.9200  -16.2869    0.0000 C   0  0
   16.9229  -15.4609    0.0000 N   0  0
   16.2046  -15.0465    0.0000 C   0  0
   16.2041  -14.2215    0.0000 N   0  0
   16.9187  -13.8083    0.0000 C   0  0
   17.6332  -16.7018    0.0000 S   0  0
   18.3491  -16.2918    0.0000 C   0  0
   19.0580  -16.7098    0.0000 C   0  0
   19.7734  -16.3004    0.0000 C   0  0
   19.7767  -15.4745    0.0000 C   0  0
   19.0586  -15.0597    0.0000 C   0  0
   18.3460  -15.4714    0.0000 C   0  0
   20.4921  -15.0635    0.0000 N   0  0
   17.7046  -14.0565    0.0000 C   0  0
   18.1836  -13.3848    0.0000 C   0  0
   17.6929  -12.7216    0.0000 N   0  0
   16.9104  -12.9834    0.0000 N   0  0
   19.0087  -13.3776    0.0000 C   0  0
   14.7180  -15.2073    0.0000 C   0  0
   14.2369  -15.8686    0.0000 C   0  0
   14.7171  -16.5303    0.0000 C   0  0
   15.4949  -16.2782    0.0000 N   0  0
   15.4955  -15.4604    0.0000 C   0  0
   21.2057  -15.4774    0.0000 C   0  0
   21.9211  -15.0664    0.0000 C   0  0
   22.6347  -15.4809    0.0000 N   0  0
   21.2040  -16.3025    0.0000 O   0  0
   22.6261  -16.3014    0.0000 C   0  0
   23.4080  -16.5648    0.0000 C   0  0
   23.9001  -15.9026    0.0000 C   0  0
   23.4224  -15.2300    0.0000 C   0  0  1  0  0  0
   23.6838  -14.4475    0.0000 C   0  0
   24.4921  -14.2826    0.0000 O   0  0
  2  7  1  0
  7  8  1  0
  6 15  1  0
 16 17  1  0
 18  6  2  0
  3  4  2  0
 16 19  1  0
 23 24  1  0
  8  9  2  0
  4 24  1  0
 21 22  2  0
  9 10  1  0
  1  2  2  0
 10 11  2  0
 20 21  1  0
 22 23  1  0
 24 20  2  0
  4  5  1  0
 14 25  1  0
 11 12  1  0
 25 26  1  0
 23  1  1  0
 26 27  1  0
 12 13  2  0
 25 28  2  0
 27 29  1  0
 13  8  1  0
  5  6  1  0
 11 14  1  0
 17 18  1  0
 29 30  1  0
 30 31  1  0
 31 32  1  0
 32 27  1  0
  2  3  1  0
 32 33  1  6
 15 16  2  0
 33 34  1  0
M  END