
          11280715122D 1   1.00000     0.00000     0

 35 39  0     0  0            999 V2000
    4.1125   -5.8125    0.0000 C   0  0  0  0  0  0           0  0  0
    3.1417   -5.9042    0.0000 N   0  0  0  0  0  0           0  0  0
    3.6625   -6.2042    0.0000 N   0  0  0  0  0  0           0  0  0
    3.2667   -5.3250    0.0000 N   0  0  0  0  0  0           0  0  0
    6.1167   -2.0125    0.0000 C   0  0  0  0  0  0           0  0  0
    3.8667   -5.2625    0.0000 N   0  0  0  0  0  0           0  0  0
    6.6417   -2.3125    0.0000 N   0  0  0  0  0  0           0  0  0
    4.7000   -5.9417    0.0000 C   0  0  0  0  0  0           0  0  0
    5.6000   -1.1125    0.0000 N   0  0  0  0  0  0           0  0  0
    5.6000   -2.3167    0.0000 C   0  0  0  0  0  0           0  0  0
    6.1167   -1.4042    0.0000 C   0  0  0  0  0  0           0  0  0
    5.2167   -5.6167    0.0000 C   0  0  0  0  0  0           0  0  0
    7.1625   -2.0042    0.0000 C   0  0  0  0  0  0           0  0  0
    5.0792   -2.0167    0.0000 C   0  0  0  0  0  0           0  0  0
    5.0792   -1.4125    0.0000 C   0  0  0  0  0  0           0  0  0
    5.1875   -5.0250    0.0000 C   0  0  0  0  0  0           0  0  0
    5.6250   -2.9167    0.0000 O   0  0  0  0  0  0           0  0  0
    7.6792   -2.3042    0.0000 O   0  0  0  0  0  0           0  0  0
    6.6375   -1.1042    0.0000 C   0  0  0  0  0  0           0  0  0
    5.6917   -4.7042    0.0000 C   0  0  0  0  0  0           0  0  0
    4.6625   -4.7417    0.0000 C   0  0  0  0  0  0           0  0  0
    7.1542   -1.4042    0.0000 C   0  0  0  0  0  0           0  0  0
    5.1167   -3.2375    0.0000 C   0  0  0  0  0  0           0  0  0
    5.1417   -3.8292    0.0000 C   0  0  0  0  0  0           0  0  0
    4.6375   -4.1500    0.0000 C   0  0  0  0  0  0           0  0  0
    5.6667   -4.1042    0.0000 C   0  0  0  0  0  0           0  0  0
    4.7292   -6.5375    0.0000 C   0  0  0  0  0  0           0  0  0
    5.7417   -5.8917    0.0000 C   0  0  0  0  0  0           0  0  0
    7.6875   -2.9042    0.0000 C   0  0  3  0  0  0           0  0  0
    4.5625   -1.1125    0.0000 C   0  0  0  0  0  0           0  0  0
    7.1667   -3.2042    0.0000 C   0  0  0  0  0  0           0  0  0
    8.2042   -3.2042    0.0000 C   0  0  0  0  0  0           0  0  0
    4.5625   -0.5125    0.0000 C   0  0  0  0  0  0           0  0  0
    5.7667   -6.4917    0.0000 C   0  0  0  0  0  0           0  0  0
    5.2542   -6.8125    0.0000 C   0  0  0  0  0  0           0  0  0
  2  3  2  0     0  0
  3  1  1  0     0  0
  4  6  1  0     0  0
  5 10  2  0     0  0
  6  1  2  0     0  0
  7  5  1  0     0  0
  8  1  1  0     0  0
  9 15  1  0     0  0
 10 17  1  0     0  0
 11  5  1  0     0  0
 12  8  2  0     0  0
 13  7  2  0     0  0
 14 10  1  0     0  0
 15 14  2  0     0  0
 16 12  1  0     0  0
 17 23  1  0     0  0
 18 13  1  0     0  0
 19 11  1  0     0  0
 20 16  2  0     0  0
 21 16  1  0     0  0
 22 19  2  0     0  0
 23 24  1  0     0  0
 24 25  1  0     0  0
 25 21  2  0     0  0
 26 20  1  0     0  0
 27  8  1  0     0  0
 28 12  1  0     0  0
 29 18  1  0     0  0
 30 15  1  0     0  0
 31 29  1  0     0  0
 32 29  1  0     0  0
 33 30  1  0     0  0
 34 35  1  0     0  0
 35 27  2  0     0  0
  4  2  1  0     0  0
 34 28  2  0     0  0
 26 24  2  0     0  0
 11  9  2  0     0  0
 13 22  1  0     0  0
M  END