
          11280715122D 1   1.00000     0.00000     0

 32 35  0     0  0            999 V2000
    6.6667   -6.1042    0.0000 C   0  0  0  0  0  0           0  0  0
    3.6542   -1.7750    0.0000 C   0  0  0  0  0  0           0  0  0
    6.1417   -7.3292    0.0000 N   0  0  0  0  0  0           0  0  0
    3.6542   -0.9417    0.0000 C   0  0  0  0  0  0           0  0  0
    6.8500   -6.9125    0.0000 N   0  0  0  0  0  0           0  0  0
    5.5250   -6.8000    0.0000 N   0  0  0  0  0  0           0  0  0
    5.8542   -6.0292    0.0000 N   0  0  0  0  0  0           0  0  0
    7.2167   -5.4875    0.0000 C   0  0  0  0  0  0           0  0  0
    4.3667   -2.1875    0.0000 N   0  0  3  0  0  0           0  0  0
    4.3792   -0.5250    0.0000 C   0  0  0  0  0  0           0  0  0
    7.2167   -4.6625    0.0000 C   0  0  0  0  0  0           0  0  0
    2.9417   -2.1875    0.0000 N   0  0  0  0  0  0           0  0  0
    6.5042   -4.2500    0.0000 C   0  0  0  0  0  0           0  0  0
    4.3667   -3.0125    0.0000 C   0  0  0  0  0  0           0  0  0
    5.1000   -0.9375    0.0000 O   0  0  0  0  0  0           0  0  0
    6.5042   -3.4167    0.0000 C   0  0  0  0  0  0           0  0  0
    5.7917   -4.6625    0.0000 C   0  0  0  0  0  0           0  0  0
    4.3750    0.3083    0.0000 N   0  0  0  0  0  0           0  0  0
    5.0792   -3.4250    0.0000 C   0  0  0  0  0  0           0  0  0
    2.9417   -0.5292    0.0000 C   0  0  0  0  0  0           0  0  0
    5.7875   -3.0042    0.0000 C   0  0  0  0  0  0           0  0  0
    5.0792   -4.2500    0.0000 C   0  0  0  0  0  0           0  0  0
    5.0792   -1.7750    0.0000 C   0  0  0  0  0  0           0  0  0
    7.9292   -5.9000    0.0000 C   0  0  0  0  0  0           0  0  0
    7.9292   -4.2500    0.0000 C   0  0  0  0  0  0           0  0  0
    2.2292   -1.7750    0.0000 C   0  0  0  0  0  0           0  0  0
    5.7875   -2.1875    0.0000 C   0  0  0  0  0  0           0  0  0
    2.2292   -0.9500    0.0000 C   0  0  0  0  0  0           0  0  0
    6.4917   -1.7792    0.0000 C   0  0  0  0  0  0           0  0  0
    8.6417   -5.4875    0.0000 C   0  0  0  0  0  0           0  0  0
    8.6417   -4.6542    0.0000 C   0  0  0  0  0  0           0  0  0
    7.2042   -2.1875    0.0000 C   0  0  0  0  0  0           0  0  0
  2  9  1  0     0  0
  3  5  2  0     0  0
  4  2  1  0     0  0
  5  1  1  0     0  0
  6  7  1  0     0  0
  7  1  2  0     0  0
  8  1  1  0     0  0
  9 14  1  0     0  0
 10  4  1  0     0  0
 11  8  2  0     0  0
 12  2  2  0     0  0
 13 11  1  0     0  0
 14 19  1  0     0  0
 15 10  2  0     0  0
 16 13  2  0     0  0
 17 13  1  0     0  0
 18 10  1  0     0  0
 19 22  1  0     0  0
 20  4  2  0     0  0
 21 16  1  0     0  0
 22 17  2  0     0  0
 23  9  1  0     0  0
 24  8  1  0     0  0
 25 11  1  0     0  0
 26 12  1  0     0  0
 27 23  1  0     0  0
 28 26  2  0     0  0
 29 27  1  0     0  0
 30 24  2  0     0  0
 31 30  1  0     0  0
 32 29  1  0     0  0
  6  3  1  0     0  0
 31 25  2  0     0  0
 21 19  2  0     0  0
 20 28  1  0     0  0
M  END