
  SciTegic09261414532D

 43 49  0  0  0  0            999 V2000
    0.8694   -1.1845    0.0000 C   0  0
    0.8683   -2.0040    0.0000 C   0  0
    1.5763   -2.4130    0.0000 C   0  0
    1.5745   -0.7756    0.0000 C   0  0
    2.2832   -1.1809    0.0000 C   0  0
    2.2834   -2.0041    0.0000 C   0  0
    3.0664   -2.2582    0.0000 N   0  0
    3.5501   -1.5921    0.0000 C   0  0
    3.0660   -0.9263    0.0000 N   0  0
    3.3191   -3.0354    0.0000 C   0  0
    4.3641   -1.5904    0.0000 C   0  0
    4.7723   -2.2996    0.0000 C   0  0
    5.5887   -2.2996    0.0000 C   0  0
    5.9979   -1.5913    0.0000 C   0  0
    5.5847   -0.8813    0.0000 C   0  0
    4.7696   -0.8848    0.0000 C   0  0
    6.8151   -1.5899    0.0000 O   0  0
    7.2249   -2.2969    0.0000 C   0  0
    8.0420   -2.2955    0.0000 C   0  0
    8.4518   -3.0026    0.0000 N   0  0
    8.1206   -3.7446    0.0000 C   0  0
    8.7284   -4.2911    0.0000 N   0  0
    9.2641   -3.0823    0.0000 C   0  0
    9.4317   -3.8785    0.0000 C   0  0
   10.2036   -4.1300    0.0000 C   0  0
   10.8086   -3.5862    0.0000 C   0  0
   10.6365   -2.7878    0.0000 C   0  0
    9.8648   -2.5400    0.0000 C   0  0
    7.4143   -4.1518    0.0000 C   0  0
    6.7077   -3.7391    0.0000 C   0  0
    5.9991   -4.1446    0.0000 C   0  0
    5.9959   -4.9627    0.0000 C   0  0
    6.7072   -5.3735    0.0000 C   0  0
    7.4129   -4.9656    0.0000 C   0  0
    2.7725   -3.6428    0.0000 C   0  0
    1.9749   -3.4717    0.0000 C   0  0
    1.4285   -4.0784    0.0000 C   0  0
    1.6811   -4.8565    0.0000 C   0  0
    2.4852   -5.0245    0.0000 C   0  0
    3.0281   -4.4165    0.0000 C   0  0
    8.4495   -1.5871    0.0000 C   0  0
    9.2666   -1.5858    0.0000 C   0  0
    9.6741   -0.8774    0.0000 C   0  0
  1  2  2  0
  2  3  1  0
  3  6  2  0
  5  4  2  0
  4  1  1  0
  5  6  1  0
  6  7  1  0
  7  8  1  0
  8  9  2  0
  9  5  1  0
  7 10  1  0
 11 12  2  0
 12 13  1  0
 13 14  2  0
 14 15  1  0
 15 16  2  0
 16 11  1  0
  8 11  1  0
 14 17  1  0
 17 18  1  0
 18 19  1  0
 19 20  1  0
 20 21  1  0
 21 22  2  0
 22 24  1  0
 23 20  1  0
 23 24  2  0
 24 25  1  0
 25 26  2  0
 26 27  1  0
 27 28  2  0
 28 23  1  0
 29 30  2  0
 30 31  1  0
 31 32  2  0
 32 33  1  0
 33 34  2  0
 34 29  1  0
 21 29  1  0
 10 35  1  0
 35 36  2  0
 36 37  1  0
 37 38  2  0
 38 39  1  0
 39 40  2  0
 40 35  1  0
 19 41  1  0
 41 42  1  0
 42 43  2  0
M  END