
  SciTegic12171313022D

 31 34  0  0  0  0            999 V2000
   26.5780   -8.7350    0.0000 C   0  0
   26.5768   -9.5624    0.0000 C   0  0
   27.2916   -9.9752    0.0000 C   0  0
   28.0081   -9.5619    0.0000 C   0  0
   28.0052   -8.7314    0.0000 C   0  0
   27.2898   -8.3222    0.0000 C   0  0
   25.8620   -9.9743    0.0000 N   0  0
   25.8614  -10.7993    0.0000 C   0  0
   25.1466  -11.2112    0.0000 N   0  0
   26.5755  -11.2124    0.0000 O   0  0
   25.1459  -12.0362    0.0000 C   0  0
   24.4825  -12.5191    0.0000 N   0  0
   24.7368  -13.3039    0.0000 N   0  0
   25.5619  -13.3046    0.0000 C   0  0
   25.8173  -12.5201    0.0000 C   0  0
   26.0463  -13.9723    0.0000 C   0  0
   25.7102  -14.7258    0.0000 C   0  0
   26.8668  -13.8867    0.0000 C   0  0
   26.4544  -14.6809    0.0000 C   0  0
   23.6866  -12.3018    0.0000 C   0  0
   23.4818  -11.5058    0.0000 C   0  0
   22.6867  -11.2885    0.0000 C   0  0
   22.0998  -11.8696    0.0000 C   0  0
   22.3134  -12.6709    0.0000 C   0  0
   23.1081  -12.8843    0.0000 C   0  0
   21.3036  -11.6536    0.0000 C   0  0
   28.6791   -8.2554    0.0000 C   0  0
   29.4596   -8.5183    0.0000 N   0  0
   29.9535   -7.8574    0.0000 N   0  0
   29.4775   -7.1835    0.0000 S   0  0
   28.6896   -7.4280    0.0000 C   0  0
  1  2  2  0
  2  3  1  0
  3  4  2  0
  4  5  1  0
  5  6  2  0
  6  1  1  0
  2  7  1  0
  7  8  1  0
  8  9  1  0
  8 10  2  0
  9 11  1  0
 11 12  1  0
 12 13  1  0
 13 14  2  0
 14 15  1  0
 15 11  2  0
 14 16  1  0
 16 17  1  0
 16 18  1  0
 16 19  1  0
 12 20  1  0
 20 21  2  0
 21 22  1  0
 22 23  2  0
 23 24  1  0
 24 25  2  0
 25 20  1  0
 23 26  1  0
  5 27  1  0
 27 28  1  0
 28 29  2  0
 29 30  1  0
 30 31  1  0
 31 27  2  0
M  END