
  Mrv0541 04051115152D          

 23 25  0  0  0  0            999 V2000
   -2.6660   -0.8268    0.0000 C   0  0  0  0  0  0  0  0  0  0  0  0
   -1.9515   -1.2393    0.0000 C   0  0  0  0  0  0  0  0  0  0  0  0
   -1.2371   -0.8268    0.0000 C   0  0  0  0  0  0  0  0  0  0  0  0
   -1.2371   -0.0018    0.0000 C   0  0  0  0  0  0  0  0  0  0  0  0
   -1.9515    0.4107    0.0000 C   0  0  0  0  0  0  0  0  0  0  0  0
   -2.6660   -0.0018    0.0000 C   0  0  0  0  0  0  0  0  0  0  0  0
   -0.5226   -1.2393    0.0000 C   0  0  0  0  0  0  0  0  0  0  0  0
    0.1919   -0.8268    0.0000 C   0  0  0  0  0  0  0  0  0  0  0  0
    0.1919   -0.0018    0.0000 C   0  0  0  0  0  0  0  0  0  0  0  0
    0.9064    0.4107    0.0000 C   0  0  0  0  0  0  0  0  0  0  0  0
    0.9064    1.2357    0.0000 C   0  0  0  0  0  0  0  0  0  0  0  0
    1.6208    1.6482    0.0000 C   0  0  0  0  0  0  0  0  0  0  0  0
    2.3353    1.2357    0.0000 C   0  0  0  0  0  0  0  0  0  0  0  0
    2.3353    0.4107    0.0000 C   0  0  0  0  0  0  0  0  0  0  0  0
    1.6208   -0.0018    0.0000 C   0  0  0  0  0  0  0  0  0  0  0  0
   -0.5226    0.4107    0.0000 O   0  0  0  0  0  0  0  0  0  0  0  0
   -0.5226   -2.0643    0.0000 O   0  0  0  0  0  0  0  0  0  0  0  0
    3.0498   -0.0018    0.0000 O   0  0  0  0  0  0  0  0  0  0  0  0
    3.0498    1.6482    0.0000 O   0  0  0  0  0  0  0  0  0  0  0  0
    1.6208    2.4732    0.0000 O   0  0  0  0  0  0  0  0  0  0  0  0
    0.9064   -1.2393    0.0000 O   0  0  0  0  0  0  0  0  0  0  0  0
   -3.3805    0.4107    0.0000 O   0  0  0  0  0  0  0  0  0  0  0  0
   -1.9515   -2.0643    0.0000 O   0  0  0  0  0  0  0  0  0  0  0  0
  1  2  2  0  0  0  0
  1  6  1  0  0  0  0
  2  3  1  0  0  0  0
  2 23  1  0  0  0  0
  3  4  2  0  0  0  0
  3  7  1  0  0  0  0
  4  5  1  0  0  0  0
  4 16  1  0  0  0  0
  5  6  2  0  0  0  0
  6 22  1  0  0  0  0
  8  7  1  0  0  0  0
  7 17  2  0  0  0  0
  8  9  2  0  0  0  0
  8 21  1  0  0  0  0
  9 10  1  0  0  0  0
  9 16  1  0  0  0  0
 10 11  2  0  0  0  0
 10 15  1  0  0  0  0
 11 12  1  0  0  0  0
 12 13  2  0  0  0  0
 12 20  1  0  0  0  0
 13 14  1  0  0  0  0
 13 19  1  0  0  0  0
 14 15  2  0  0  0  0
 14 18  1  0  0  0  0
M  END