
  SciTegic04191616232D

 59 63  0  0  0  0            999 V2000
    1.2888   -0.2640    0.0000 C   0  0  1  0  0  0
    0.0000   -1.0093    0.0000 C   0  0  1  0  0  0
   -2.6397   -0.9782    0.0000 C   0  0  2  0  0  0
    1.2888    1.2422    0.0000 C   0  0  1  0  0  0
   -1.3354   -0.2329    0.0000 C   0  0  1  0  0  0
   -2.6397   -2.5000    0.0000 C   0  0  2  0  0  0
    2.5931    1.9875    0.0000 C   0  0  1  0  0  0
   -3.9440   -3.2453    0.0000 C   0  0
    2.9037    3.4472    0.0000 C   0  0  2  0  0  0
    3.8819    1.2422    0.0000 C   0  0  1  0  0  0
    0.0000   -2.5000    0.0000 C   0  0
    2.5931   -1.0093    0.0000 C   0  0
    0.0000    1.9875    0.0000 C   0  0
   -3.9440   -0.2329    0.0000 C   0  0
   -1.3354    1.2422    0.0000 C   0  0
   -1.3354   -3.2453    0.0000 C   0  0
    1.9092    4.5676    0.0000 C   0  0
    4.3943    3.5869    0.0000 C   0  0
   -5.2484   -2.4689    0.0000 C   0  0  2  0  0  0
    3.8819   -0.2329    0.0000 C   0  0
    4.9844    2.2360    0.0000 C   0  0
   -5.2484   -1.0093    0.0000 C   0  0
    0.7335    4.3273    0.0000 C   0  0
    1.2914   -1.2640    0.0000 C   0  0
   -0.0004   -0.0093    0.0000 C   0  0
   -2.6397    0.0218    0.0000 C   0  0
   -3.0709   -3.7328    0.0000 C   0  0
   -5.0019   -3.8117    0.0000 C   0  0
   -6.2916   -3.0620    0.0000 O   0  0
    5.2290    0.5868    0.0000 C   0  0
    6.2237    1.2582    0.0000 O   0  5
    2.2885    5.7061    0.0000 C   0  0
    1.2914    2.2422    0.0000 H   0  0
   -2.2003    0.2690    0.0000 H   0  0
    1.7855    2.5772    0.0000 H   0  0
   -1.7737   -2.0000    0.0000 H   0  0
    5.3135   -0.6102    0.0000 O   0  0
   14.1653    4.7523    0.0000 C   0  0
   12.8671    5.5054    0.0000 N   0  3
   11.8269    4.9072    0.0000 C   0  0
   11.8289    6.1070    0.0000 C   0  0
   12.8693    7.0062    0.0000 C   0  0
   11.5711    7.7593    0.0000 C   0  0
   11.5710    9.2593    0.0000 C   0  0
   10.2720   10.0093    0.0000 C   0  0
    8.9730    9.2593    0.0000 C   0  0
    8.9730    7.7593    0.0000 C   0  0
   10.2720    7.0093    0.0000 C   0  0
   14.1632    3.2515    0.0000 C   0  0
   15.4614    2.4984    0.0000 C   0  0
   15.4593    0.9976    0.0000 C   0  0
   16.7575    0.2445    0.0000 C   0  0
   16.7553   -1.2563    0.0000 C   0  0
   18.0536   -2.0094    0.0000 C   0  0
   18.0514   -3.5102    0.0000 C   0  0
   19.3496   -4.2633    0.0000 C   0  0
   19.3475   -5.7641    0.0000 C   0  0
   20.6457   -6.5172    0.0000 C   0  0
   20.6440   -7.7172    0.0000 C   0  0
  2  1  1  0
  3  5  1  0
  4  1  1  0
  5  2  1  0
  6 16  1  0
  7  4  1  0
  8  6  1  0
  9  7  1  0
 10 20  1  0
 11  2  1  0
 12  1  1  0
 13  4  1  0
 14  3  1  0
 15 13  1  0
 16 11  1  0
  9 17  1  6
 18  9  1  0
 19  8  1  0
 20 12  1  0
 21 10  1  0
 22 14  1  0
 23 17  2  0
  1 24  1  6
  2 25  1  1
  3 26  1  1
 27  8  1  0
 28  8  1  0
 19 29  1  1
 10 30  1  1
 31 30  1  0
 32 17  1  0
  4 33  1  1
  5 34  1  6
  7 35  1  6
  6 36  1  6
  7 10  1  0
  5 15  1  0
 18 21  1  0
  3  6  1  0
 22 19  1  0
 30 37  2  0
 38 39  1  0
 39 40  1  0
 39 41  1  0
 39 42  1  0
 42 43  1  0
 43 44  2  0
 44 45  1  0
 45 46  2  0
 46 47  1  0
 47 48  2  0
 48 43  1  0
 38 49  1  0
 49 50  1  0
 50 51  1  0
 51 52  1  0
 52 53  1  0
 53 54  1  0
 54 55  1  0
 55 56  1  0
 56 57  1  0
 57 58  1  0
 58 59  1  0
M  CHG  2  31  -1  39   1
M  END