
  SciTegic01161211242D

 22 22  0  0  0  0            999 V2000
    2.5973   -1.5031    0.0000 C   0  0  2  0  0  0
    2.5951   -3.0039    0.0000 C   0  0  2  0  0  0
    1.2990   -0.7500    0.0000 C   0  0
    3.8999   -0.7576    0.0000 C   0  0
    1.2990    0.7500    0.0000 C   0  0
    0.0000   -1.5000    0.0000 C   0  0
    1.2948   -3.7533    0.0000 C   0  0
    5.1972   -1.5121    0.0000 N   0  0
    3.6337   -3.6051    0.0000 O   0  0
   -1.2990    0.7500    0.0000 C   0  0
   -1.2990   -0.7500    0.0000 C   0  0
    0.0000    1.5000    0.0000 C   0  0
    8.9998   -1.5016    0.0000 Cl  0  0
   -2.5973    1.5031    0.0000 O   0  0
    6.2387   -0.9161    0.0000 C   0  0
    5.1931   -2.7121    0.0000 C   0  0
    1.2905   -5.2533    0.0000 C   0  0
   -0.0022   -2.9997    0.0000 C   0  0
   -2.5956    2.7031    0.0000 C   0  0
   -0.0107   -5.9996    0.0000 C   0  0
   -1.3034   -3.7460    0.0000 C   0  0
   -1.3076   -5.2460    0.0000 C   0  0
  1  2  1  0
  1  3  1  6
  1  4  1  0
  3  5  2  0
  3  6  1  0
  2  7  1  0
  4  8  1  0
  2  9  1  1
  6 11  2  0
 10 11  1  0
  5 12  1  0
 10 12  2  0
 10 14  1  0
  8 15  1  0
  8 16  1  0
  7 17  1  0
  7 18  1  0
 14 19  1  0
 17 20  1  0
 18 21  1  0
 20 22  1  0
 21 22  1  0
M  END