
  SciTegic01161211212D

 18 17  0  0  0  0            999 V2000
    3.6542   -3.0792    0.0000 C   0  0
    2.9542   -2.6792    0.0000 P   0  0
    7.0792   -2.6667    0.0000 P   0  0
    6.4000   -3.0625    0.0000 C   0  0
    4.3375   -2.6667    0.0000 C   0  0
    5.0167   -3.0667    0.0000 N   0  0
    5.7125   -2.6667    0.0000 C   0  0
    2.0667   -2.2042    0.0000 O   0  0
    2.0667   -3.1125    0.0000 O   0  0
    7.8750   -2.1625    0.0000 O   0  0
    7.8750   -3.0375    0.0000 O   0  0
    2.9542   -1.8792    0.0000 O   0  0
    7.0792   -1.8625    0.0000 O   0  0
    3.2417   -3.7625    0.0000 F   0  0
    4.0417   -3.7625    0.0000 F   0  0
    5.9917   -3.7500    0.0000 F   0  0
    6.7917   -3.7500    0.0000 F   0  0
    4.3292   -1.8667    0.0000 O   0  0
  2  1  1  0
  3  4  1  0
  4  7  1  0
  5  1  1  0
  6  5  1  0
  7  6  1  0
  8  2  1  0
  9  2  1  0
 10  3  1  0
 11  3  1  0
 12  2  2  0
 13  3  2  0
 14  1  1  0
 15  1  1  0
 16  4  1  0
 17  4  1  0
 18  5  2  0
M  END