
  SciTegic11201309402D

 25 27  0  0  1  0            999 V2000
    5.4596   -3.4973    0.0000 C   0  0  2  0  0  0
    5.0628   -4.2037    0.0000 C   0  0  2  0  0  0
    4.2255   -4.2168    0.0000 C   0  0  1  0  0  0
    7.2911   -1.8228    0.0000 S   0  0
    6.2794   -3.6543    0.0000 O   0  0
    5.6166   -4.8186    0.0000 O   0  0
    3.8113   -3.5060    0.0000 C   0  0  2  0  0  0
    6.3623   -4.4785    0.0000 C   0  0
    5.0497   -2.7778    0.0000 O   0  0
    3.6761   -4.8317    0.0000 O   0  0
    5.8738   -2.7778    0.0000 C   0  0
    3.0002   -3.6761    0.0000 O   0  0
    2.9173   -4.5002    0.0000 C   0  0  1  0  0  0
    6.6980   -2.7778    0.0000 O   0  0
    4.2255   -2.7778    0.0000 C   0  0
    6.2532   -1.3257    0.0000 O   0  0
    7.2780   -0.8111    0.0000 O   0  0
    8.1153   -1.8228    0.0000 N   0  0
    7.1603   -4.2691    0.0000 C   0  0
    6.5716   -5.2765    0.0000 C   0  0
    2.9042   -5.3244    0.0000 C   0  0
    2.1499   -4.1907    0.0000 H   0  0
    5.0628   -5.0287    0.0000 H   0  0
    4.5684   -4.9672    0.0000 H   0  0
    3.3251   -2.8394    0.0000 H   0  0
  2  1  1  0
  3  2  1  0
  4 14  1  0
  1  5  1  0
  2  6  1  0
  7 15  1  0
  8  5  1  0
  9  1  1  0
  3 10  1  0
  1 11  1  6
  7 12  1  0
 13 10  1  0
 14 11  1  0
 15  9  1  0
 16  4  2  0
 17  4  2  0
 18  4  1  0
 19  8  1  0
 20  8  1  0
 13 21  1  0
 13 22  1  1
  8  6  1  0
  7  3  1  0
 13 12  1  0
  2 23  1  6
  3 24  1  1
  7 25  1  1
M  END