
  SciTegic11201309402D

 35 39  0  0  1  0            999 V2000
    2.4042   -0.5250    0.0000 N   0  0
    2.1042   -1.0375    0.0000 C   0  0
    3.0042   -0.5250    0.0000 C   0  0
    3.3042   -1.0375    0.0000 C   0  0
    3.0042   -1.5625    0.0000 C   0  0
    2.4042   -1.5625    0.0000 N   0  0
    3.3042   -2.0875    0.0000 C   0  0
    0.4667    1.1708    0.0000 C   0  0  1  0  0  0
   -0.0458    1.4708    0.0000 C   0  0
   -0.0458    2.0708    0.0000 C   0  0
    1.1917    0.5250    0.0000 N   0  0
    2.1042   -0.0042    0.0000 C   0  0
    0.9917    1.4750    0.0000 C   0  0  2  0  0  0
    3.9042   -1.0375    0.0000 C   0  0
    0.6042    0.5833    0.0000 C   0  0
    0.4667    2.3708    0.0000 C   0  0
    1.4417    1.0708    0.0000 C   0  0
    1.5042   -1.0292    0.0000 O   0  0
    3.3167    0.0000    0.0000 O   0  0
    3.9042   -2.0875    0.0000 C   0  0
    0.9917    2.0625    0.0000 C   0  0
   -0.5583    2.3708    0.0000 C   0  0
    4.2042   -1.5542    0.0000 C   0  0
    1.4917    0.0000    0.0000 C   0  0
    3.0042   -2.6042    0.0000 O   0  0
   -0.5583    1.1708    0.0000 C   0  0
    4.2042   -2.6042    0.0000 O   0  0
   -0.5583    2.9708    0.0000 O   0  0
   -1.0833    1.4750    0.0000 C   0  0
   -1.0833    2.0625    0.0000 C   0  0
    3.3042   -3.1250    0.0000 C   0  0
   -0.0333    3.2708    0.0000 C   0  0
    4.8042   -2.6000    0.0000 C   0  0
    1.9050    1.8823    0.0000 H   0  0
   -0.3380    0.5772    0.0000 H   0  0
  2  1  1  0
  3  1  1  0
  4  3  1  0
  5  4  2  0
  6  2  1  0
  7  5  1  0
  8 15  1  0
  9  8  1  0
 10  9  1  0
 11 24  1  0
 12  1  1  0
 13 17  1  0
 14  4  1  0
 15 11  1  0
 16 21  1  0
 17 11  1  0
 18  2  2  0
 19  3  2  0
 20 23  1  0
 21 13  1  0
 22 10  2  0
 23 14  2  0
 24 12  1  0
 25  7  1  0
 26  9  2  0
 27 20  1  0
 28 22  1  0
 29 26  1  0
 30 29  2  0
 31 25  1  0
 32 28  1  0
 33 27  1  0
  6  5  1  0
 13  8  1  0
 20  7  2  0
 10 16  1  0
 22 30  1  0
 13 34  1  6
  8 35  1  6
M  END