
          11280715462D 1   1.00000     0.00000     0

 26 29  0     0  0            999 V2000
   -0.9458    0.2708    0.0000 C   0  0  0  0  0  0           0  0  0
   -0.6875   -0.5167    0.0000 N   0  0  3  0  0  0           0  0  0
   -0.2750    0.7583    0.0000 N   0  0  3  0  0  0           0  0  0
    0.1375   -0.5167    0.0000 C   0  0  3  0  0  0           0  0  0
    0.3917    0.2708    0.0000 C   0  0  0  0  0  0           0  0  0
   -1.7708    0.2708    0.0000 N   0  0  0  0  0  0           0  0  0
   -1.3583   -0.9917    0.0000 N   0  0  0  0  0  0           0  0  0
   -2.0250   -0.5167    0.0000 N   0  0  0  0  0  0           0  0  0
   -0.2708    1.5833    0.0000 C   0  0  0  0  0  0           0  0  0
    0.9292   -0.7292    0.0000 C   0  0  0  0  0  0           0  0  0
   -0.9833    1.9958    0.0000 C   0  0  0  0  0  0           0  0  0
    0.4417    1.9958    0.0000 C   0  0  0  0  0  0           0  0  0
    1.1792    0.5208    0.0000 O   0  0  0  0  0  0           0  0  0
    0.4417    2.8208    0.0000 C   0  0  0  0  0  0           0  0  0
   -0.9875    2.8083    0.0000 C   0  0  0  0  0  0           0  0  0
   -0.2708    3.2333    0.0000 C   0  0  0  0  0  0           0  0  0
    0.1292   -1.3417    0.0000 C   0  0  0  0  0  0           0  0  0
    0.9292   -1.5542    0.0000 C   0  0  0  0  0  0           0  0  0
    0.9167   -3.2000    0.0000 C   0  0  0  0  0  0           0  0  0
   -1.7083    3.2208    0.0000 Cl  0  0  0  0  0  0           0  0  0
    1.1542    3.2333    0.0000 Cl  0  0  0  0  0  0           0  0  0
    0.9125   -4.0292    0.0000 Br  0  0  0  0  0  0           0  0  0
    0.2042   -1.9542    0.0000 C   0  0  0  0  0  0           0  0  0
    1.6375   -1.9625    0.0000 C   0  0  0  0  0  0           0  0  0
    0.2042   -2.7792    0.0000 C   0  0  0  0  0  0           0  0  0
    1.6375   -2.7917    0.0000 C   0  0  0  0  0  0           0  0  0
  2  1  1  0     0  0
  3  1  1  0     0  0
  4  2  1  0     0  0
  5  3  1  0     0  0
  6  1  2  0     0  0
  7  2  1  0     0  0
  8  6  1  0     0  0
  9  3  1  0     0  0
 10  4  1  0     0  0
 11  9  1  0     0  0
 12  9  2  0     0  0
 13  5  2  0     0  0
 14 12  1  0     0  0
 15 11  2  0     0  0
 16 14  2  0     0  0
 17  4  1  0     0  0
 18 10  1  0     0  0
 19 26  1  0     0  0
 20 15  1  0     0  0
 21 14  1  0     0  0
 22 19  1  0     0  0
 23 18  2  0     0  0
 24 18  1  0     0  0
 25 23  1  0     0  0
 26 24  2  0     0  0
  7  8  2  0     0  0
  5  4  1  0     0  0
 15 16  1  0     0  0
 25 19  2  0     0  0
M  END