
  SciTegic12231509382D

 38 44  0  0  0  0            999 V2000
    2.0934   -4.8072    0.0000 N   0  3
   -2.0385   -5.0059    0.0000 N   0  3
    2.0857   -7.3276    0.0000 N   0  0
   -2.1578   -7.4934    0.0000 N   0  0
    2.8721   -5.1560    0.0000 C   0  0
   -2.8578   -5.2515    0.0000 C   0  0
    2.9941   -5.9719    0.0000 C   0  0
   -3.0780   -6.0466    0.0000 C   0  0
    2.3339   -6.5100    0.0000 C   0  0
   -2.5052   -6.6930    0.0000 C   0  0
    1.5287   -4.1379    0.0000 C   0  0
   -1.4372   -4.3547    0.0000 C   0  0
    1.4600   -5.3541    0.0000 C   0  0
   -1.4900   -5.6378    0.0000 C   0  0
    0.7470   -3.7347    0.0000 C   0  0
   -0.7809   -3.7563    0.0000 C   0  0
    1.5685   -6.1731    0.0000 C   0  0
   -1.7157   -6.4344    0.0000 C   0  0
    3.5178   -4.6424    0.0000 C   0  0
   -3.4362   -4.6633    0.0000 C   0  0
    3.7617   -6.2743    0.0000 C   0  0
   -3.8767   -6.2534    0.0000 C   0  0
   -0.0144   -4.1192    0.0000 C   0  0
    4.2854   -4.9448    0.0000 C   0  0
   -4.2349   -4.8701    0.0000 C   0  0
    4.4073   -5.7607    0.0000 C   0  0
   -4.4551   -5.6652    0.0000 C   0  0
    0.6975   -2.8931    0.0000 C   0  0
   -0.7396   -2.9103    0.0000 C   0  0
    1.6272   -8.0508    0.0000 C   0  0
   -1.5493   -8.1026    0.0000 C   0  0
   -0.0249   -2.4750    0.0000 C   0  0
    0.9338   -8.5653    0.0000 C   0  0
   -0.7895   -8.5163    0.0000 C   0  0
    0.4626   -9.2758    0.0000 C   0  0
    0.5026   -7.8532    0.0000 C   0  0
   -0.3763   -9.2541    0.0000 C   0  0
   -0.3215   -7.8227    0.0000 C   0  0
  1  5  2  0
  1 11  1  0
  1 13  1  0
  2  6  2  0
  2 12  1  0
  2 14  1  0
  3  9  1  0
  3 30  1  0
  4 10  1  0
  4 31  1  0
  5  7  1  0
  5 19  1  0
  6  8  1  0
  6 20  1  0
  7  9  2  0
  7 21  1  0
  8 10  2  0
  8 22  1  0
  9 17  1  0
 10 18  1  0
 11 15  1  0
 12 16  1  0
 13 17  2  0
 14 18  2  0
 15 23  1  0
 15 28  2  0
 16 23  2  0
 16 29  1  0
 19 24  2  0
 20 25  2  0
 21 26  2  0
 22 27  2  0
 24 26  1  0
 25 27  1  0
 28 32  1  0
 29 32  2  0
 30 33  1  0
 31 34  1  0
 33 35  2  0
 33 36  1  0
 34 37  2  0
 34 38  1  0
 35 37  1  0
 36 38  2  0
M  CHG  2   1   1   2   1
M  END