
          11280714442D 1   1.00000     0.00000     0

 29 30  0     0  0            999 V2000
    2.4750   -3.9625    0.0000 C   0  0  0  0  0  0           0  0  0
    3.2917   -3.9417    0.0000 C   0  0  0  0  0  0           0  0  0
    9.0875   -5.2917    0.0000 C   0  0  0  0  0  0           0  0  0
    3.7250   -4.6500    0.0000 O   0  0  0  0  0  0           0  0  0
    2.0417   -3.2542    0.0000 C   0  0  0  0  0  0           0  0  0
    8.2625   -5.2917    0.0000 N   0  0  0  0  0  0           0  0  0
    3.6917   -3.2167    0.0000 O   0  0  0  0  0  0           0  0  0
    6.2000   -4.5917    0.0000 N   0  0  0  0  0  0           0  0  0
    7.0250   -4.5792    0.0000 C   0  0  3  0  0  0           0  0  0
    9.5000   -4.5750    0.0000 O   0  0  0  0  0  0           0  0  0
    9.5000   -6.0042    0.0000 C   0  0  0  0  0  0           0  0  0
    7.8500   -4.5792    0.0000 C   0  0  0  0  0  0           0  0  0
    4.9792   -5.3375    0.0000 C   0  0  3  0  0  0           0  0  0
    4.5500   -4.6292    0.0000 C   0  0  0  0  0  0           0  0  0
    5.8042   -5.3167    0.0000 C   0  0  0  0  0  0           0  0  0
    2.4417   -2.5375    0.0000 F   0  0  0  0  0  0           0  0  0
    2.0792   -4.6875    0.0000 C   0  0  0  0  0  0           0  0  0
   10.3250   -6.0042    0.0000 C   0  0  0  0  0  0           0  0  0
    4.5792   -6.0625    0.0000 O   0  0  0  0  0  0           0  0  0
    1.2167   -3.2750    0.0000 C   0  0  0  0  0  0           0  0  0
    7.4542   -5.2792    0.0000 C   0  0  0  0  0  0           0  0  0
    7.4167   -3.8542    0.0000 C   0  0  0  0  0  0           0  0  0
   10.7292   -6.7167    0.0000 C   0  0  0  0  0  0           0  0  0
   10.7292   -5.2917    0.0000 C   0  0  0  0  0  0           0  0  0
    1.2417   -4.7042    0.0000 C   0  0  0  0  0  0           0  0  0
    0.8167   -3.9917    0.0000 C   0  0  0  0  0  0           0  0  0
   11.5542   -5.2875    0.0000 C   0  0  0  0  0  0           0  0  0
   11.5542   -6.7167    0.0000 C   0  0  0  0  0  0           0  0  0
   11.9667   -6.0042    0.0000 C   0  0  0  0  0  0           0  0  0
  2  1  1  0     0  0
  3  6  1  0     0  0
  4  2  1  0     0  0
  5  1  1  0     0  0
  6 12  1  0     0  0
  7  2  2  0     0  0
  8 15  1  0     0  0
  9  8  1  0     0  0
 10  3  2  0     0  0
 11  3  1  0     0  0
 12  9  1  0     0  0
 13 14  1  0     0  0
 14  4  1  0     0  0
 15 13  1  0     0  0
 16  5  1  0     0  0
 17  1  2  0     0  0
 18 11  1  0     0  0
 19 13  1  0     0  0
 20  5  2  0     0  0
 21  9  1  0     0  0
 22  9  1  0     0  0
 23 18  2  0     0  0
 24 18  1  0     0  0
 25 17  1  0     0  0
 26 25  2  0     0  0
 27 24  2  0     0  0
 28 23  1  0     0  0
 29 27  1  0     0  0
 26 20  1  0     0  0
 29 28  2  0     0  0
M  END