
  SciTegic05061409282D

 25 28  0  0  0  0            999 V2000
    3.4582  -25.7523    0.0000 N   0  0
    2.7503  -26.1629    0.0000 C   0  0
    2.7527  -26.9801    0.0000 C   0  0
    3.4629  -27.3866    0.0000 C   0  0
    4.1667  -26.9760    0.0000 C   0  0
    4.8770  -27.3826    0.0000 C   0  0
    5.5808  -26.9719    0.0000 N   0  0
    5.5784  -26.1547    0.0000 C   0  0
    4.8723  -25.7482    0.0000 C   0  0
    4.1644  -26.1588    0.0000 C   0  0
    4.8699  -24.9310    0.0000 C   0  0
    5.5737  -24.5204    0.0000 C   0  0
    6.2840  -24.9269    0.0000 C   0  0
    6.2863  -25.7441    0.0000 C   0  0
    5.5713  -23.7032    0.0000 C   0  0
    6.2792  -23.2925    0.0000 N   0  0
    4.8793  -28.1997    0.0000 C   0  0
    4.1714  -28.6104    0.0000 C   0  0
    4.1738  -29.4276    0.0000 C   0  0
    4.8841  -29.8341    0.0000 C   0  0
    5.5878  -29.4235    0.0000 C   0  0
    5.5855  -28.6063    0.0000 C   0  0
    4.8864  -30.6513    0.0000 Cl  0  0
    6.2769  -22.4754    0.0000 C   0  0
    6.9848  -22.0647    0.0000 C   0  0
  1  2  1  0
  2  3  1  0
  3  4  1  0
  4  5  1  0
  5  6  1  0
  6  7  2  0
  7  8  1  0
  8  9  1  0
  9 10  1  0
  1 10  1  0
  5 10  2  0
 11 12  1  0
 12 13  2  0
 13 14  1  0
  8 14  2  0
  9 11  2  0
 15 16  1  0
 12 15  1  0
 17 18  1  0
 18 19  2  0
 19 20  1  0
 20 21  2  0
 21 22  1  0
 17 22  2  0
 20 23  1  0
  6 17  1  0
 24 25  1  0
 16 24  1  0
M  END