
  SciTegic11201309402D

 75 79  0  0  1  0            999 V2000
   17.9792   -6.5875    0.0000 N   0  0
   17.8167   -7.6125    0.0000 C   0  0
   10.9542   -7.3667    0.0000 N   0  0
   16.8417   -7.9875    0.0000 C   0  0  2  0  0  0
   12.5542   -6.0750    0.0000 C   0  0
   16.3250   -7.0792    0.0000 N   0  0
   13.5667   -5.8542    0.0000 N   0  0
   10.6417  -10.3667    0.0000 N   0  0
   10.5292   -8.3167    0.0000 C   0  0
   15.5542   -6.3875    0.0000 C   0  0
   11.1625  -11.2667    0.0000 C   0  0
   19.8292   -6.5875    0.0000 C   0  0
   11.6500   -6.5917    0.0000 C   0  0  2  0  0  0
   14.6042   -5.9667    0.0000 C   0  0  1  0  0  0
   12.8792  -12.3875    0.0000 N   0  0
   18.9042   -6.1125    0.0000 C   0  0  2  0  0  0
   10.4250   -9.3500    0.0000 C   0  0  1  0  0  0
   13.9167  -12.4917    0.0000 C   0  0
   11.9292  -11.9625    0.0000 C   0  0  2  0  0  0
   20.7042   -6.0167    0.0000 N   0  0
   14.8750   -4.9625    0.0000 C   0  0
   23.6500  -10.5500    0.0000 C   0  0
   14.9292  -12.2792    0.0000 C   0  0
   16.9542  -10.0375    0.0000 S   0  0
   22.5042   -5.9250    0.0000 C   0  0
   16.5292  -10.9875    0.0000 S   0  0
   14.1375   -4.2250    0.0000 C   0  0
   15.8375  -11.7542    0.0000 C   0  0
   21.6292   -6.4917    0.0000 C   0  0  2  0  0  0
   24.5750  -11.0250    0.0000 N   0  0
   18.6250   -8.2667    0.0000 O   0  0
   12.3417   -5.2167    0.0000 O   0  0
   17.0625   -9.0042    0.0000 C   0  0
   19.8875   -7.6250    0.0000 O   0  0
    9.5292   -8.0417    0.0000 O   0  0
   16.1167   -5.5167    0.0000 O   0  0
   10.3542  -11.9250    0.0000 O   0  0
   11.3667  -12.8292    0.0000 C   0  0
    9.3875   -9.4042    0.0000 C   0  0
   13.9667  -13.5292    0.0000 O   0  0
   22.4500   -4.8875    0.0000 O   0  0
   14.4042   -3.2167    0.0000 O   0  0
   23.5917   -9.5125    0.0000 N   0  0
   22.7792  -11.1167    0.0000 N   0  0
   23.4292   -6.3917    0.0000 N   0  0
   10.9917   -5.7792    0.0000 C   0  0
   17.2417   -5.8500    0.0000 C   0  0
   13.1292   -4.4917    0.0000 N   0  0
   10.3292  -12.7792    0.0000 C   0  0
    8.2500  -12.6750    0.0000 C   0  0
    8.8167   -8.5292    0.0000 C   0  0
    9.7625  -13.6542    0.0000 C   0  0
    9.8542  -11.8542    0.0000 C   0  0
    8.7250  -13.6000    0.0000 C   0  0
    8.8167  -11.8000    0.0000 C   0  0
   18.7417   -5.0875    0.0000 C   0  0
    7.2125  -12.6167    0.0000 O   0  0
   17.7167   -4.9250    0.0000 C   0  0
   15.3750  -12.6167    0.0000 C   0  0
   16.7750  -11.4875    0.0000 C   0  0
   21.6875   -7.5292    0.0000 C   0  0
   22.6667   -9.0417    0.0000 C   0  0
    9.9667   -5.9417    0.0000 C   0  0
   11.3667   -4.8125    0.0000 C   0  0
    6.6417  -13.4917    0.0000 C   0  0
    7.7792   -8.5875    0.0000 C   0  0
    9.2917   -7.6042    0.0000 C   0  0
   22.6125   -8.0000    0.0000 C   0  0
    5.6042  -13.4375    0.0000 C   0  0
   17.4292  -12.2917    0.0000 C   0  0
   16.0292  -13.4292    0.0000 C   0  0
    8.7250   -6.7292    0.0000 C   0  0
    7.2125   -7.7167    0.0000 C   0  0
   17.0542  -13.2667    0.0000 C   0  0
    7.6875   -6.7875    0.0000 C   0  0
  2  1  1  0
  3 13  1  0
  4  2  1  1
  5  7  1  0
  6  4  1  0
  7 14  1  0
  8 11  1  0
  9  3  1  0
 10  6  1  0
 11 19  1  0
 16 12  1  1
 13  5  1  0
 14 10  1  0
 15 18  1  0
 16  1  1  0
 17  9  1  0
 18 23  1  0
 19 15  1  0
 20 12  1  0
 14 21  1  6
 22 43  2  0
 23 28  1  0
 24 33  1  0
 25 29  1  0
 26 24  1  0
 27 21  1  0
 28 26  1  0
 29 20  1  6
 30 22  1  0
 31  2  2  0
 32  5  2  0
  4 33  1  0
 34 12  2  0
 35  9  2  0
 36 10  2  0
 37 11  2  0
 19 38  1  6
 17 39  1  6
 40 18  2  0
 41 25  2  0
 42 27  2  0
 43 62  1  0
 44 22  1  0
 45 25  1  0
 13 46  1  1
 47  1  1  0
 48 27  1  0
 49 38  1  0
 50 55  2  0
 51 39  1  0
 52 49  1  0
 53 49  2  0
 54 52  2  0
 55 53  1  0
 16 56  1  0
 57 50  1  0
 58 47  1  0
 59 28  1  0
 60 28  1  0
 29 61  1  0
 62 68  1  0
 63 46  1  0
 64 46  1  0
 65 57  1  0
 66 51  1  0
 67 51  2  0
 68 61  1  0
 69 65  1  0
 70 60  1  0
 71 59  1  0
 72 67  1  0
 73 66  2  0
 74 70  1  0
 75 72  2  0
 58 56  1  0
 71 74  1  0
  8 17  1  0
 54 50  1  0
 73 75  1  0
M  END