
  SciTegic09261414482D

 20 20  0  0  0  0            999 V2000
    6.8860   -4.0958    0.0000 C   0  0
    7.5976   -4.5083    0.0000 C   0  0
    8.3135   -4.0958    0.0000 C   0  0
    7.5976   -5.3333    0.0000 O   0  0
    9.0294   -4.5083    0.0000 N   0  0
    9.7452   -4.0958    0.0000 C   0  0
    9.7452   -3.2708    0.0000 C   0  0
   10.4570   -4.5083    0.0000 C   0  0
    6.1701   -4.5083    0.0000 O   0  0
    5.4543   -4.0958    0.0000 C   0  0
    4.7425   -4.5083    0.0000 C   0  0
    4.0267   -4.0958    0.0000 C   0  0
    4.0267   -3.2708    0.0000 C   0  0
    4.7425   -2.8583    0.0000 C   0  0
    5.4543   -3.2708    0.0000 C   0  0
    4.7425   -5.3333    0.0000 O   0  0
    4.0267   -5.7457    0.0000 C   0  0
    3.3109   -2.8583    0.0000 C   0  0
    3.3109   -2.0333    0.0000 C   0  0
    4.0257   -1.6214    0.0000 C   0  0
  1  2  1  0
  2  3  1  0
  2  4  1  0
  6  7  1  0
  6  8  1  0
  5  6  1  0
  3  5  1  0
 10 11  1  0
 11 12  2  0
 12 13  1  0
 13 14  2  0
 14 15  1  0
 10 15  2  0
  9 10  1  0
 16 17  1  0
 11 16  1  0
 18 19  2  0
 13 18  1  0
  1  9  1  0
 19 20  1  0
M  END