
  SciTegic12231509382D

 44 45  0  0  0  0            999 V2000
    0.2282   -2.6730    0.0000 C   0  0
    0.9427   -2.2605    0.0000 N   0  0
    1.6571   -2.6730    0.0000 C   0  0
    0.9427   -1.4355    0.0000 C   0  0
    2.3716   -2.2605    0.0000 C   0  0
    3.0861   -2.6730    0.0000 N   0  0
    3.8006   -2.2605    0.0000 C   0  0
    4.5150   -2.6730    0.0000 C   0  0
    5.2295   -2.2605    0.0000 C   0  0
    5.2295   -1.4355    0.0000 C   0  0
    4.5150   -1.0230    0.0000 C   0  0
    3.8006   -1.4355    0.0000 C   0  0
    3.0861   -1.0229    0.0000 O   0  0
    4.5150   -3.4980    0.0000 C   0  0
    5.2295   -3.9105    0.0000 C   0  0  1  0  0  0
    5.2295   -4.7354    0.0000 C   0  0
    5.9440   -3.4980    0.0000 C   0  0
    5.9440   -2.6730    0.0000 O   0  0
    6.6584   -3.9105    0.0000 C   0  0  1  0  0  0
    7.3729   -3.4980    0.0000 C   0  0  1  0  0  0
    8.0874   -3.9105    0.0000 C   0  0  1  0  0  0
    6.9604   -2.7835    0.0000 O   0  0
    8.0874   -4.7354    0.0000 C   0  0
    5.9440   -1.0229    0.0000 N   0  0
    5.9440   -0.1979    0.0000 C   0  0
    5.2295    0.2145    0.0000 O   0  0
    6.6584    0.2145    0.0000 C   0  0
    6.6584    1.0396    0.0000 C   0  0
    7.3729   -0.1979    0.0000 C   0  0
    8.0874    0.2145    0.0000 C   0  0
    8.8019   -0.1979    0.0000 C   0  0
    8.8019   -1.0229    0.0000 C   0  0  1  0  0  0
    9.5163   -1.4354    0.0000 C   0  0  2  0  0  0
    8.8019   -3.4980    0.0000 C   0  0
    8.8019   -2.6730    0.0000 C   0  0
    8.0874   -2.2604    0.0000 C   0  0
   10.0603   -0.8152    0.0000 O   0  0
   10.8694   -0.9761    0.0000 C   0  0
   11.1346   -1.7573    0.0000 O   0  0
   11.4134   -0.3559    0.0000 N   0  0
    8.3894   -1.7373    0.0000 O   0  0
    7.5644   -1.7373    0.0000 C   0  0
    6.6542   -4.7333    0.0000 O   0  0
    7.3665   -5.1495    0.0000 C   0  0
  3  5  1  0
  5  6  1  0
  6  7  1  0
  7  8  2  0
  8  9  1  0
  9 10  1  0
 10 11  2  0
 11 12  1  0
 12  7  1  0
 12 13  2  0
  8 14  1  0
 14 15  1  0
 15 16  1  6
 15 17  1  0
  9 18  2  0
 17 19  1  0
 19 20  1  0
 20 21  1  0
 20 22  1  6
 21 23  1  6
 10 24  1  0
 24 25  1  0
 25 26  2  0
 25 27  1  0
 27 28  1  0
 27 29  2  0
 29 30  1  0
 30 31  2  0
 31 32  1  0
 32 33  1  0
 21 34  1  0
 34 35  2  0
 35 36  1  0
 35 33  1  0
 33 37  1  1
 37 38  1  0
 38 39  2  0
 38 40  1  0
 32 41  1  1
 41 42  1  0
  1  2  1  0
 19 43  1  1
  2  3  1  0
 43 44  1  0
  2  4  1  0
M  END