
  Mrv0541 04051115152D          

 13 13  0  0  0  0            999 V2000
    0.6055   -0.4725    0.0000 C   0  0  1  0  0  0  0  0  0  0  0  0
   -0.1090   -0.8850    0.0000 C   0  0  1  0  0  0  0  0  0  0  0  0
   -0.8235   -0.4725    0.0000 C   0  0  2  0  0  0  0  0  0  0  0  0
   -0.8235    0.3525    0.0000 C   0  0  2  0  0  0  0  0  0  0  0  0
   -0.1090    0.7650    0.0000 C   0  0  1  0  0  0  0  0  0  0  0  0
   -0.1090    1.5900    0.0000 C   0  0  0  0  0  0  0  0  0  0  0  0
    2.0344   -0.4725    0.0000 C   0  0  0  0  0  0  0  0  0  0  0  0
    1.3199   -0.8850    0.0000 O   0  0  0  0  0  0  0  0  0  0  0  0
   -0.1090   -1.7100    0.0000 O   0  0  0  0  0  0  0  0  0  0  0  0
   -1.5380   -0.8850    0.0000 O   0  0  0  0  0  0  0  0  0  0  0  0
   -1.5380    0.7650    0.0000 O   0  0  0  0  0  0  0  0  0  0  0  0
    0.6055    0.3525    0.0000 O   0  0  0  0  0  0  0  0  0  0  0  0
    0.6055    2.0025    0.0000 O   0  0  0  0  0  0  0  0  0  0  0  0
  1  2  1  0  0  0  0
  1  8  1  6  0  0  0
  1 12  1  0  0  0  0
  2  3  1  0  0  0  0
  2  9  1  6  0  0  0
  3  4  1  0  0  0  0
  3 10  1  1  0  0  0
  4  5  1  0  0  0  0
  4 11  1  1  0  0  0
  5  6  1  1  0  0  0
  5 12  1  0  0  0  0
  6 13  1  0  0  0  0
  7  8  1  0  0  0  0
M  END