
          03140815512D 1   1.00000     0.00000     0

 34 36  0     1  0            999 V2000
   -2.9135  -23.9359    0.0000 C   0  0  0  0  0  0           0  0  0
   -2.9135  -24.7641    0.0000 C   0  0  0  0  0  0           0  0  0
   -2.1981  -25.1762    0.0000 N   0  0  0  0  0  0           0  0  0
   -1.4827  -24.7641    0.0000 C   0  0  0  0  0  0           0  0  0
   -1.4827  -23.9359    0.0000 C   0  0  0  0  0  0           0  0  0
   -2.1981  -23.5196    0.0000 N   0  0  0  0  0  0           0  0  0
   -3.6325  -23.5259    0.0000 C   0  0  0  0  0  0           0  0  0
   -0.7654  -25.1814    0.0000 O   0  0  0  0  0  0           0  0  0
   -0.7637  -23.5259    0.0000 C   0  0  0  0  0  0           0  0  0
   -0.0469  -23.9401    0.0000 C   0  0  0  0  0  0           0  0  0
    0.6679  -23.5301    0.0000 C   0  0  0  0  0  0           0  0  0
    1.3846  -23.9443    0.0000 C   0  0  0  0  0  0           0  0  0
    2.1036  -23.5343    0.0000 N   0  0  0  0  0  0           0  0  0
    2.8150  -23.9502    0.0000 C   0  0  0  0  0  0           0  0  0
    3.5313  -22.7163    0.0000 N   0  0  0  0  0  0           0  0  0
    3.5273  -23.5404    0.0000 C   0  0  1  0  0  0           0  0  0
    4.2403  -23.9559    0.0000 C   0  0  0  0  0  0           0  0  0
    4.9532  -23.5474    0.0000 C   0  0  0  0  0  0           0  0  0
    4.9573  -22.7233    0.0000 C   0  0  0  0  0  0           0  0  0
    5.6744  -22.3149    0.0000 C   0  0  0  0  0  0           0  0  0
    6.3874  -22.7304    0.0000 C   0  0  0  0  0  0           0  0  0
    7.1045  -22.3219    0.0000 O   0  0  0  0  0  0           0  0  0
    6.3833  -23.5545    0.0000 C   0  0  0  0  0  0           0  0  0
    5.6662  -23.9629    0.0000 C   0  0  0  0  0  0           0  0  0
    2.8103  -24.7730    0.0000 O   0  0  0  0  0  0           0  0  0
    5.6622  -24.7870    0.0000 C   0  0  0  0  0  0           0  0  0
    4.2484  -22.3078    0.0000 C   0  0  0  0  0  0           0  0  0
   -3.6269  -25.1765    0.0000 C   0  0  0  0  0  0           0  0  0
   -4.3408  -24.7648    0.0000 C   0  0  0  0  0  0           0  0  0
   -4.3424  -23.9405    0.0000 C   0  0  0  0  0  0           0  0  0
   -5.0554  -23.5288    0.0000 C   0  0  0  0  0  0           0  0  0
   -5.7699  -23.9413    0.0000 C   0  0  0  0  0  0           0  0  0
   -5.7668  -24.7696    0.0000 C   0  0  0  0  0  0           0  0  0
   -5.0532  -25.1775    0.0000 C   0  0  0  0  0  0           0  0  0
  2  3  1  0     0  0
  9 10  1  0     0  0
  3  4  1  0     0  0
 10 11  1  0     0  0
  4  5  1  0     0  0
 11 12  1  0     0  0
  5  6  2  0     0  0
 12 13  1  0     0  0
 16 15  1  1     0  0
 14 16  1  0     0  0
 16 17  1  0     0  0
 17 18  1  0     0  0
 18 19  2  0     0  0
 19 20  1  0     0  0
 20 21  2  0     0  0
 21 22  1  0     0  0
 21 23  1  0     0  0
 23 24  2  0     0  0
 18 24  1  0     0  0
 14 25  2  0     0  0
 24 26  1  0     0  0
 19 27  1  0     0  0
  2 28  1  0     0  0
 13 14  1  0     0  0
 28 29  1  0     0  0
  1  7  1  0     0  0
 29 30  2  0     0  0
  1  2  2  0     0  0
 30 31  1  0     0  0
  4  8  2  0     0  0
 31 32  2  0     0  0
  1  6  1  0     0  0
 32 33  1  0     0  0
  5  9  1  0     0  0
 33 34  2  0     0  0
 34 29  1  0     0  0
M  END