
  SciTegic04091414352D

 20 20  0  0  0  0            999 V2000
   14.4623   -4.6981    0.0000 C   0  0
   15.1784   -5.1079    0.0000 C   0  0
   13.7495   -5.1133    0.0000 C   0  0
   13.0335   -4.7035    0.0000 N   0  0
   12.3207   -5.1186    0.0000 C   0  0
   13.0304   -3.8785    0.0000 C   0  0
   13.7433   -3.4633    0.0000 C   0  0
   11.6046   -4.7089    0.0000 C   0  0
   10.8917   -5.1241    0.0000 C   0  0
   10.1758   -4.7142    0.0000 C   0  0
    9.4628   -5.1294    0.0000 C   0  0
    8.7482   -4.7162    0.0000 C   0  0
    8.0358   -5.1307    0.0000 C   0  0
    8.0384   -5.9565    0.0000 C   0  0
    8.7594   -6.3662    0.0000 C   0  0
    9.4689   -5.9493    0.0000 C   0  0
   15.8912   -4.6927    0.0000 C   0  0
   16.6073   -5.1025    0.0000 C   0  0
   17.3201   -4.6874    0.0000 C   0  0
   18.0361   -5.0971    0.0000 C   0  0
  1  2  1  0
  1  3  1  0
  3  4  1  0
  4  5  1  0
  4  6  1  0
  6  7  1  0
  5  8  1  0
  8  9  2  0
  9 10  1  0
 10 11  1  0
 11 12  2  0
 12 13  1  0
 13 14  2  0
 14 15  1  0
 15 16  2  0
 16 11  1  0
  2 17  1  0
 17 18  1  0
 18 19  1  0
 19 20  1  0
M  END