
  SciTegic04071410272D

 21 22  0  0  0  0            999 V2000
    4.0485   -1.6924    0.0000 C   0  0
    4.0485   -2.5174    0.0000 C   0  0
    4.7630   -2.9299    0.0000 C   0  0
    5.4775   -2.5174    0.0000 C   0  0
    5.4775   -1.6924    0.0000 C   0  0
    4.7630   -1.2799    0.0000 C   0  0
    4.7630   -0.4549    0.0000 C   0  0  2  0  0  0
    4.7630    0.3701    0.0000 C   0  0
    5.5880   -0.4549    0.0000 O   0  0
    3.9380   -0.4549    0.0000 C   0  0
    3.5255   -1.1694    0.0000 C   0  0
    2.7005   -1.1694    0.0000 C   0  0
    2.2880   -0.4549    0.0000 C   0  0
    2.7005    0.2595    0.0000 C   0  0
    3.5255    0.2595    0.0000 C   0  0
    4.7630   -3.7549    0.0000 Cl  0  0
    5.4775    0.7826    0.0000 C   0  0
    5.4775    1.6076    0.0000 C   0  0
    6.1920    2.0201    0.0000 N   0  0
    6.1920    2.8451    0.0000 C   0  0
    6.9064    1.6076    0.0000 C   0  0
  2  3  1  0
 10 11  2  0
  5  6  2  0
 11 12  1  0
  6  1  1  0
 12 13  2  0
  1  2  2  0
 13 14  1  0
  6  7  1  0
 14 15  2  0
 15 10  1  0
  3  4  2  0
  3 16  1  0
  7  8  1  0
  8 17  1  0
 17 18  1  0
  7  9  1  1
 18 19  1  0
  4  5  1  0
 19 20  1  0
  7 10  1  0
 19 21  1  0
M  END