
  SciTegic01181116592D

 22 23  0  0  0  0            999 V2000
    5.5869   -8.9146    0.0000 C   0  0
    6.2990   -8.4980    0.0000 C   0  0
    6.2943   -7.6730    0.0000 C   0  0
    5.5775   -7.2646    0.0000 C   0  0
    4.8654   -7.6812    0.0000 C   0  0
    4.8701   -8.5062    0.0000 C   0  0
    5.5917   -9.7395    0.0000 S   0  0
    6.4167   -9.7348    0.0000 O   0  0
    4.7667   -9.7443    0.0000 O   0  0
    5.5964  -10.5645    0.0000 N   0  0
    5.5727   -6.4396    0.0000 N   0  0
    3.4270   -6.0394    0.0000 C   0  0
    4.1438   -6.4478    0.0000 N   0  0
    4.8559   -6.0312    0.0000 C   0  0
    4.8512   -5.2062    0.0000 C   0  0
    4.1344   -4.7978    0.0000 C   0  0
    3.4223   -5.2144    0.0000 N   0  0
    2.7149   -6.4560    0.0000 S   0  0
    1.9981   -6.0476    0.0000 C   0  0
    5.5633   -4.7896    0.0000 C   0  0
    6.2754   -4.3730    0.0000 N   0  0
    4.1296   -3.9728    0.0000 Cl  0  0
  1  2  1  0
  2  3  2  0
  3  4  1  0
  4  5  2  0
  5  6  1  0
  1  6  2  0
  7  8  2  0
  7  9  2  0
  7 10  1  0
  1  7  1  0
 12 13  1  0
 13 14  2  0
 14 15  1  0
 15 16  2  0
 16 17  1  0
 12 17  2  0
 18 19  1  0
 12 18  1  0
 20 21  3  0
 15 20  1  0
 16 22  1  0
 11 14  1  0
  4 11  1  0
M  END