
          11280715422D 1   1.00000     0.00000     0

 21 22  0     0  0            999 V2000
    5.1292   -2.9750    0.0000 N   0  0  3  0  0  0           0  0  0
    5.8542   -2.5667    0.0000 C   0  0  3  0  0  0           0  0  0
    4.5417   -2.3875    0.0000 N   0  0  0  0  0  0           0  0  0
    3.9292   -3.5792    0.0000 C   0  0  0  0  0  0           0  0  0
    3.8042   -2.7625    0.0000 N   0  0  0  0  0  0           0  0  0
    4.7542   -3.7125    0.0000 C   0  0  0  0  0  0           0  0  0
    6.5667   -2.1542    0.0000 C   0  0  3  0  0  0           0  0  0
    5.1417   -2.1542    0.0000 C   0  0  3  0  0  0           0  0  0
    7.2792   -2.5667    0.0000 C   0  0  3  0  0  0           0  0  0
    6.6917   -1.6000    0.0000 O   0  0  0  0  0  0           0  0  0
    5.9667   -2.1542    0.0000 C   0  0  3  0  0  0           0  0  0
    3.3542   -4.1625    0.0000 C   0  0  0  0  0  0           0  0  0
    3.5542   -4.9625    0.0000 O   0  0  0  0  0  0           0  0  0
    7.8917   -3.1167    0.0000 S   0  0  0  0  0  0           0  0  0
    6.5667   -2.9750    0.0000 O   0  0  0  0  0  0           0  0  0
    4.7167   -1.4375    0.0000 O   0  0  0  0  0  0           0  0  0
    2.5542   -3.9500    0.0000 O   0  0  0  0  0  0           0  0  0
    5.7417   -1.3542    0.0000 C   0  0  0  0  0  0           0  0  0
    6.3292   -0.7667    0.0000 O   0  0  0  0  0  0           0  0  0
    7.7292   -3.9250    0.0000 C   0  0  0  0  0  0           0  0  0
    2.3417   -3.1542    0.0000 C   0  0  0  0  0  0           0  0  0
  2  1  1  0     0  0
  3  1  1  0     0  0
  4  6  2  0     0  0
  5  3  2  0     0  0
  6  1  1  0     0  0
  7  2  1  0     0  0
  8  2  1  0     0  0
  9  7  1  0     0  0
 10 11  1  0     0  0
 11  8  1  0     0  0
 12  4  1  0     0  0
 13 12  2  0     0  0
 14  9  1  0     0  0
 15  7  1  0     0  0
 16  8  1  0     0  0
 17 12  1  0     0  0
 18 11  1  0     0  0
 19 18  1  0     0  0
 20 14  1  0     0  0
 21 17  1  0     0  0
  4  5  1  0     0  0
  9 10  1  0     0  0
M  END