
  SciTegic01061414252D

 33 36  0  0  0  0            999 V2000
    7.7253   -9.6326    0.0000 O   0  0
    7.4524  -10.4113    0.0000 N   0  0
    6.6297  -10.3917    0.0000 C   0  0
    6.3915   -9.6019    0.0000 C   0  0
    7.0716   -9.1311    0.0000 C   0  0
    6.1281  -11.0454    0.0000 C   0  0
    5.3114  -10.9421    0.0000 O   0  0
    6.4470  -11.8046    0.0000 N   0  0
    4.9472  -13.7736    0.0000 N   0  0
    4.6285  -13.0143    0.0000 C   0  0
    5.1264  -12.3585    0.0000 C   0  0
    5.9467  -12.4640    0.0000 C   0  0
    6.2656  -13.2233    0.0000 C   0  0
    5.7640  -13.8769    0.0000 C   0  0
    4.4458  -14.4273    0.0000 C   0  0
    7.0877   -8.3061    0.0000 C   0  0
    6.3857   -7.8790    0.0000 C   0  0
    6.4018   -7.0540    0.0000 C   0  0
    7.1270   -6.6606    0.0000 C   0  0
    7.8291   -7.0878    0.0000 C   0  0
    7.8130   -7.9128    0.0000 C   0  0
    8.5151   -8.3399    0.0000 O   0  0
    9.2404   -7.9465    0.0000 C   0  0
    9.2586   -7.1180    0.0000 C   0  0
    9.9838   -6.7245    0.0000 C   0  0
   10.6858   -7.1518    0.0000 C   0  0
   10.6698   -7.9767    0.0000 C   0  0
    9.9424   -8.3736    0.0000 C   0  0
   11.4111   -6.7583    0.0000 N   0  3
   12.1132   -7.1856    0.0000 O   0  0
   11.4270   -5.9338    0.0000 O   0  5
    7.1454   -5.8320    0.0000 O   0  0
    5.6604   -8.2724    0.0000 O   0  0
  1  2  1  0
  2  3  2  0
  3  4  1  0
  4  5  2  0
  1  5  1  0
  6  7  2  0
  6  8  1  0
  3  6  1  0
  9 10  1  0
 10 11  1  0
 11 12  1  0
 12 13  1  0
 13 14  1  0
  9 14  1  0
  9 15  1  0
  8 12  1  0
 16 17  1  0
 17 18  2  0
 18 19  1  0
 19 20  2  0
 20 21  1  0
 16 21  2  0
 23 24  1  0
 24 25  2  0
 25 26  1  0
 26 27  2  0
 27 28  1  0
 23 28  2  0
 22 23  1  0
 29 30  2  0
 29 31  1  0
 26 29  1  0
 21 22  1  0
 19 32  1  0
 17 33  1  0
  5 16  1  0
M  CHG  2  29   1  31  -1
M  END