
  SciTegic06051315212D

 27 30  0  0  0  0            999 V2000
    6.3248   -6.8757    0.0000 C   0  0
    8.8174   -6.0977    0.0000 C   0  0
    6.3246   -7.6930    0.0000 N   0  0
    6.3231   -5.2379    0.0000 C   0  0
    7.0336   -6.4661    0.0000 C   0  0
    6.1746   -2.7478    0.0000 C   0  0
    6.9285   -3.9456    0.0000 C   0  0
    7.6506   -4.3227    0.0000 C   0  0
    8.9229   -4.6875    0.0000 C   0  0
    8.4629   -5.3652    0.0000 C   0  0
    6.2378   -4.3811    0.0000 C   0  0
    8.4186   -4.0439    0.0000 N   0  0
    7.6784   -5.1406    0.0000 N   0  0
    6.8977   -3.1276    0.0000 C   0  0
    9.7330   -4.7454    0.0000 C   0  0
    5.4810   -3.1835    0.0000 C   0  0
   10.0899   -5.4752    0.0000 C   0  0
    5.5160   -4.0044    0.0000 C   0  0
    7.0307   -5.6433    0.0000 C   0  0
    5.6178   -6.4666    0.0000 N   0  0
    5.6189   -5.6469    0.0000 C   0  0
    9.6316   -6.1578    0.0000 C   0  0
    6.1430   -1.9312    0.0000 O   0  0
    5.6168   -8.1014    0.0000 C   0  0
    4.9092   -7.6927    0.0000 C   0  0  2  0  0  0
    4.2014   -8.1011    0.0000 C   0  0
    4.9094   -6.8755    0.0000 O   0  0
  9 10  2  0
  2 22  2  0
  8  7  1  0
 12  8  2  0
  4 21  1  0
  1  3  1  0
  8 13  1  0
 17 15  2  0
 22 17  1  0
  1  5  2  0
 21 20  2  0
  5 19  1  0
 18 11  2  0
 20  1  1  0
  7 14  2  0
 11  7  1  0
 15  9  1  0
  9 12  1  0
 16 18  1  0
 19  4  2  0
 16  6  2  0
 10  2  1  0
 13 10  1  0
 19 13  1  0
 14  6  1  0
  6 23  1  0
  3 24  1  0
 24 25  1  0
 25 26  1  0
 25 27  1  6
M  END