
  SciTegic01091216402D

 25 26  0  0  0  0            999 V2000
    8.1790    1.2385    0.0000 N   0  0
    8.1976    0.4122    0.0000 N   0  0
    8.9861    0.1789    0.0000 C   0  0
    9.4559    0.8585    0.0000 C   0  0
    8.9545    1.5127    0.0000 C   0  0
    7.4997    1.7086    0.0000 C   0  0
    6.7822    1.3013    0.0000 N   0  0
    7.5071    2.5311    0.0000 N   0  0
   10.2822    0.8770    0.0000 C   0  0
   10.7097    0.1743    0.0000 C   0  0
    8.2245    2.9384    0.0000 C   0  0
    8.9346    2.5231    0.0000 C   0  0
    6.0715    1.7178    0.0000 S   0  0
    6.4874    2.4267    0.0000 O   0  0
    5.3691    1.2828    0.0000 C   0  0
    5.3952    0.4582    0.0000 C   0  0
    4.6927    0.0233    0.0000 C   0  0
    3.9642    0.4129    0.0000 C   0  0
    3.9380    1.2375    0.0000 C   0  0
    4.6405    1.6725    0.0000 C   0  0
    5.4833    2.3083    0.0000 O   0  0
    3.2110    1.6275    0.0000 C   0  0
    3.1853    2.4521    0.0000 F   0  0
    2.5098    1.1929    0.0000 F   0  0
    2.4917    2.0417    0.0000 F   0  0
  1  5  1  0
  6  7  2  0
  6  8  1  0
  1  6  1  0
  9 10  1  0
  4  9  1  0
 11 12  1  0
  8 11  1  0
 13 14  2  0
 15 16  1  0
 16 17  2  0
 17 18  1  0
 18 19  2  0
 19 20  1  0
 15 20  2  0
 13 15  1  0
  7 13  1  0
 13 21  2  0
  1  2  1  0
 19 22  1  0
  2  3  2  0
 22 23  1  0
  3  4  1  0
 22 24  1  0
  4  5  1  0
 22 25  1  0
M  END