
          11280715332D 1   1.00000     0.00000     0

 47 52  0     1  0            999 V2000
    3.2792   -2.6125    0.0000 C   0  0  0  0  0  0           0  0  0
    2.5667   -3.0250    0.0000 N   0  0  0  0  0  0           0  0  0
    7.5667   -2.6125    0.0000 N   0  0  0  0  0  0           0  0  0
    1.8542   -2.6125    0.0000 C   0  0  3  0  0  0           0  0  0
    8.2875   -3.0167    0.0000 C   0  0  3  0  0  0           0  0  0
    3.9917   -3.0250    0.0000 C   0  0  1  0  0  0           0  0  0
    6.8542   -3.0250    0.0000 C   0  0  0  0  0  0           0  0  0
    8.3292   -3.8417    0.0000 C   0  0  0  0  0  0           0  0  0
    1.6042   -3.3917    0.0000 C   0  0  0  0  0  0           0  0  0
    0.7750   -3.4042    0.0000 C   0  0  0  0  0  0           0  0  0
    9.1167   -4.0542    0.0000 C   0  0  0  0  0  0           0  0  0
    1.1792   -2.1292    0.0000 C   0  0  2  0  0  0           0  0  0
    9.0542   -2.7292    0.0000 C   0  0  1  0  0  0           0  0  0
    5.4250   -3.0250    0.0000 C   0  0  0  0  0  0           0  0  0
    4.7125   -2.6125    0.0000 C   0  0  1  0  0  0           0  0  0
    3.9917   -3.8500    0.0000 O   0  0  0  0  0  0           0  0  0
    6.1417   -2.6125    0.0000 C   0  0  1  0  0  0           0  0  0
    0.5167   -2.6167    0.0000 C   0  0  0  0  0  0           0  0  0
    9.5667   -3.3667    0.0000 C   0  0  0  0  0  0           0  0  0
    3.2792   -1.7875    0.0000 O   0  0  0  0  0  0           0  0  0
    6.1417   -1.7875    0.0000 O   0  0  0  0  0  0           0  0  0
    6.8542   -3.8500    0.0000 O   0  0  0  0  0  0           0  0  0
    3.2792   -4.2667    0.0000 C   0  0  0  0  0  0           0  0  0
    1.2042   -1.3042    0.0000 O   0  0  0  0  0  0           0  0  0
    9.2667   -1.9292    0.0000 O   0  0  0  0  0  0           0  0  0
    6.9250   -1.3542    0.0000 C   0  0  0  0  0  0           0  0  0
    4.7125   -1.7875    0.0000 O   0  0  0  0  0  0           0  0  0
    3.2792   -5.0917    0.0000 C   0  0  0  0  0  0           0  0  0
    6.8917   -0.5292    0.0000 C   0  0  0  0  0  0           0  0  0
    2.0250   -4.1042    0.0000 C   0  0  0  0  0  0           0  0  0
    7.7375   -4.4167    0.0000 C   0  0  0  0  0  0           0  0  0
    0.3667   -4.1167    0.0000 C   0  0  0  0  0  0           0  0  0
    9.3292   -4.8542    0.0000 C   0  0  0  0  0  0           0  0  0
    6.1625   -0.1375    0.0000 C   0  0  0  0  0  0           0  0  0
    7.5917   -0.0875    0.0000 C   0  0  0  0  0  0           0  0  0
    2.5667   -5.5042    0.0000 C   0  0  0  0  0  0           0  0  0
    3.9917   -5.5000    0.0000 C   0  0  0  0  0  0           0  0  0
    1.6167   -4.8250    0.0000 C   0  0  0  0  0  0           0  0  0
    7.9417   -5.2167    0.0000 C   0  0  0  0  0  0           0  0  0
    0.7917   -4.8292    0.0000 C   0  0  0  0  0  0           0  0  0
    8.7375   -5.4417    0.0000 C   0  0  0  0  0  0           0  0  0
    6.1375    0.6875    0.0000 C   0  0  0  0  0  0           0  0  0
    2.5667   -6.3292    0.0000 C   0  0  0  0  0  0           0  0  0
    4.0000   -6.3250    0.0000 C   0  0  0  0  0  0           0  0  0
    7.5667    0.7375    0.0000 C   0  0  0  0  0  0           0  0  0
    6.8375    1.1208    0.0000 C   0  0  0  0  0  0           0  0  0
    3.2792   -6.7417    0.0000 C   0  0  0  0  0  0           0  0  0
  2  1  1  0     0  0
  3  7  1  0     0  0
  2  4  1  0     0  0
  3  5  1  0     0  0
  6  1  1  0     0  0
  7 17  1  0     0  0
  8  5  1  0     0  0
  9  4  1  0     0  0
 10  9  1  0     0  0
 11  8  1  0     0  0
 12  4  1  0     0  0
 13  5  1  0     0  0
 14 15  1  0     0  0
 15  6  1  0     0  0
  6 16  1  1     0  0
 17 14  1  0     0  0
 18 12  1  0     0  0
 19 13  1  0     0  0
 20  1  2  0     0  0
 17 21  1  1     0  0
 22  7  2  0     0  0
 23 16  1  0     0  0
 12 24  1  6     0  0
 13 25  1  6     0  0
 26 21  1  0     0  0
 15 27  1  6     0  0
 28 23  1  0     0  0
 29 26  1  0     0  0
 30  9  2  0     0  0
 31  8  2  0     0  0
 32 10  2  0     0  0
 33 11  2  0     0  0
 34 29  1  0     0  0
 35 29  2  0     0  0
 36 28  2  0     0  0
 37 28  1  0     0  0
 38 30  1  0     0  0
 39 31  1  0     0  0
 40 38  2  0     0  0
 41 39  2  0     0  0
 42 34  2  0     0  0
 43 36  1  0     0  0
 44 37  2  0     0  0
 45 35  1  0     0  0
 46 45  2  0     0  0
 47 44  1  0     0  0
 10 18  1  0     0  0
 40 32  1  0     0  0
 47 43  2  0     0  0
 19 11  1  0     0  0
 46 42  1  0     0  0
 33 41  1  0     0  0
M  END