
  CDK    9/16/09,9:47

 38 40  0  0  0  0  0  0  0  0999 V2000
   -0.5782  -19.4529    0.0000 N   0  0  0  0  0  0  0  0  0  0  0  0
    0.2328  -19.6143    0.0000 C   0  0  0  0  0  0  0  0  0  0  0  0
    0.6401  -18.8928    0.0000 N   0  0  0  0  0  0  0  0  0  0  0  0
    0.0792  -18.2879    0.0000 C   0  0  0  0  0  0  0  0  0  0  0  0
   -0.6698  -18.6385    0.0000 C   0  0  0  0  0  0  0  0  0  0  0  0
    0.6282  -20.3372    0.0000 C   0  0  0  0  0  0  0  0  0  0  0  0
    0.1953  -21.0406    0.0000 C   0  0  0  0  0  0  0  0  0  0  0  0
    0.5849  -21.7684    0.0000 C   0  0  0  0  0  0  0  0  0  0  0  0
    1.4136  -21.7874    0.0000 C   0  0  0  0  0  0  0  0  0  0  0  0
    1.8418  -21.0778    0.0000 C   0  0  0  0  0  0  0  0  0  0  0  0
    1.4514  -20.3559    0.0000 C   0  0  0  0  0  0  0  0  0  0  0  0
    1.8045  -22.5128    0.0000 F   0  0  0  0  0  0  0  0  0  0  0  0
    0.0803  -17.4583    0.0000 C   0  0  0  0  0  0  0  0  0  0  0  0
    0.7935  -17.0464    0.0000 C   0  0  0  0  0  0  0  0  0  0  0  0
   -0.6365  -17.0488    0.0000 C   0  0  0  0  0  0  0  0  0  0  0  0
    1.3564  -18.4830    0.0000 C   0  0  0  0  0  0  0  0  0  0  0  0
    2.0672  -18.9018    0.0000 C   0  0  0  0  0  0  0  0  0  0  0  0
    2.7905  -18.4916    0.0000 C   0  0  0  0  0  0  0  0  0  0  0  0
    3.5004  -18.9072    0.0000 C   0  0  0  0  0  0  0  0  0  0  0  0
    4.2171  -18.4980    0.0000 C   0  0  0  0  0  0  0  0  0  0  0  0
    4.9259  -18.9131    0.0000 C   0  0  0  0  0  0  0  0  0  0  0  0
    5.6480  -18.5074    0.0000 C   0  0  0  0  0  0  0  0  0  0  0  0
    6.3555  -18.9204    0.0000 O   0  0  0  0  0  0  0  0  0  0  0  0
    5.6517  -17.6808    0.0000 O   0  0  0  0  0  0  0  0  0  0  0  0
    2.7899  -17.6700    0.0000 O   0  0  0  0  0  0  0  0  0  0  0  0
    4.2165  -17.6717    0.0000 O   0  0  0  0  0  0  0  0  0  0  0  0
   -1.3898  -18.2370    0.0000 C   0  0  0  0  0  0  0  0  0  0  0  0
   -2.1200  -18.6095    0.0000 N   0  0  0  0  0  0  0  0  0  0  0  0
   -1.4023  -17.4168    0.0000 O   0  0  0  0  0  0  0  0  0  0  0  0
   -2.8221  -18.1839    0.0000 C   0  0  0  0  0  0  0  0  0  0  0  0
   -3.5453  -18.5746    0.0000 C   0  0  0  0  0  0  0  0  0  0  0  0
   -4.2428  -18.1446    0.0000 C   0  0  0  0  0  0  0  0  0  0  0  0
   -4.9665  -18.5348    0.0000 C   0  0  0  0  0  0  0  0  0  0  0  0
   -4.9874  -19.3595    0.0000 C   0  0  0  0  0  0  0  0  0  0  0  0
   -4.2829  -19.7903    0.0000 C   0  0  0  0  0  0  0  0  0  0  0  0
   -3.5602  -19.3914    0.0000 C   0  0  0  0  0  0  0  0  0  0  0  0
   -2.8024  -17.3611    0.0000 C   0  0  0  0  0  0  0  0  0  0  0  0
   -2.1631  -19.4326    0.0000 C   0  0  0  0  0  0  0  0  0  0  0  0
  1  2  2  0  0  0  0 
  2  3  1  0  0  0  0 
  3  4  1  0  0  0  0 
  4  5  2  0  0  0  0 
  5  1  1  0  0  0  0 
  2  6  1  0  0  0  0 
  6  7  2  0  0  0  0 
  7  8  1  0  0  0  0 
  8  9  2  0  0  0  0 
  9 10  1  0  0  0  0 
 10 11  2  0  0  0  0 
 11  6  1  0  0  0  0 
  9 12  1  0  0  0  0 
  4 13  1  0  0  0  0 
 13 14  1  0  0  0  0 
 13 15  1  0  0  0  0 
  3 16  1  0  0  0  0 
 16 17  1  0  0  0  0 
 17 18  1  0  0  0  0 
 18 19  1  0  0  0  0 
 19 20  1  0  0  0  0 
 20 21  1  0  0  0  0 
 21 22  1  0  0  0  0 
 22 23  1  0  0  0  0 
 22 24  2  0  0  0  0 
 18 25  1  1  0  0  0 
 20 26  1  1  0  0  0 
  5 27  1  0  0  0  0 
 27 28  1  0  0  0  0 
 27 29  2  0  0  0  0 
 28 30  1  0  0  0  0 
 30 31  1  0  0  0  0 
 31 32  2  0  0  0  0 
 32 33  1  0  0  0  0 
 33 34  2  0  0  0  0 
 34 35  1  0  0  0  0 
 35 36  2  0  0  0  0 
 36 31  1  0  0  0  0 
 30 37  1  6  0  0  0 
 28 38  1  0  0  0  0 
M  END