
  SciTegic01161211222D

 11 11  0  0  0  0            999 V2000
   15.6186   -0.1208    0.0000 C   0  0
   16.3331   -0.5333    0.0000 C   0  0
   17.0476   -0.1208    0.0000 N   0  0
   17.7621   -0.5333    0.0000 C   0  0
   18.4708   -0.9417    0.0000 S   0  0
   14.9042   -0.5333    0.0000 C   0  0
   14.1902   -0.1179    0.0000 C   0  0
   13.4762   -0.5297    0.0000 C   0  0
   13.4757   -1.3556    0.0000 C   0  0
   14.1952   -1.7679    0.0000 C   0  0
   14.9063   -1.3537    0.0000 C   0  0
  1  6  1  0
  1  2  1  0
  6  7  2  0
  3  4  2  0
  7  8  1  0
  8  9  2  0
  4  5  2  0
  9 10  1  0
  2  3  1  0
 10 11  2  0
 11  6  1  0
M  END