
          11280715472D 1   1.00000     0.00000     0

 27 29  0     0  0            999 V2000
    0.0542   -1.0417    0.0000 C   0  0  0  0  0  0           0  0  0
    1.4792   -1.0417    0.0000 C   0  0  0  0  0  0           0  0  0
    0.7667   -1.4542    0.0000 C   0  0  0  0  0  0           0  0  0
    0.0542   -0.2167    0.0000 C   0  0  0  0  0  0           0  0  0
    1.4792   -0.2167    0.0000 C   0  0  0  0  0  0           0  0  0
    0.7667    0.1958    0.0000 O   0  0  0  0  0  0           0  0  0
   -0.6583    0.1958    0.0000 C   0  0  0  0  0  0           0  0  0
   -0.6583   -1.4542    0.0000 C   0  0  0  0  0  0           0  0  0
   -1.3750   -0.2167    0.0000 C   0  0  0  0  0  0           0  0  0
   -1.3750   -1.0417    0.0000 C   0  0  0  0  0  0           0  0  0
   -0.6583    1.0208    0.0000 C   0  0  3  0  0  0           0  0  0
    2.1917    0.1958    0.0000 C   0  0  0  0  0  0           0  0  0
    0.7667   -2.2792    0.0000 O   0  0  0  0  0  0           0  0  0
   -1.4833    1.0125    0.0000 C   0  0  0  0  0  0           0  0  0
    2.2042   -1.4625    0.0000 O   0  0  0  0  0  0           0  0  0
    2.1917    1.0250    0.0000 C   0  0  0  0  0  0           0  0  0
    2.9167   -0.2167    0.0000 C   0  0  0  0  0  0           0  0  0
   -0.6583   -2.2792    0.0000 O   0  0  0  0  0  0           0  0  0
   -1.9083    1.7250    0.0000 C   0  0  0  0  0  0           0  0  0
   -2.0958    0.1958    0.0000 O   0  0  0  0  0  0           0  0  0
    3.6292    1.0250    0.0000 C   0  0  0  0  0  0           0  0  0
    2.9125    1.4375    0.0000 C   0  0  0  0  0  0           0  0  0
    3.6292    0.1958    0.0000 C   0  0  0  0  0  0           0  0  0
    4.3542    1.4458    0.0000 O   0  0  0  0  0  0           0  0  0
   -0.6625    1.8458    0.0000 C   0  0  0  0  0  0           0  0  0
    0.1667    1.0208    0.0000 C   0  0  0  0  0  0           0  0  0
    5.0667    1.0333    0.0000 C   0  0  0  0  0  0           0  0  0
  2  3  1  0     0  0
  3  1  1  0     0  0
  4  1  1  0     0  0
  5  6  1  0     0  0
  6  4  1  0     0  0
  7  4  2  0     0  0
  8  1  2  0     0  0
  9 10  2  0     0  0
 10  8  1  0     0  0
 11  7  1  0     0  0
 12  5  1  0     0  0
 13  3  2  0     0  0
 14 11  1  0     0  0
 15  2  1  0     0  0
 16 12  2  0     0  0
 17 12  1  0     0  0
 18  8  1  0     0  0
 19 14  2  0     0  0
 20  9  1  0     0  0
 21 23  1  0     0  0
 22 16  1  0     0  0
 23 17  2  0     0  0
 24 21  1  0     0  0
 25 11  1  0     0  0
 26 11  1  0     0  0
 27 24  1  0     0  0
  9  7  1  0     0  0
  5  2  2  0     0  0
 21 22  2  0     0  0
M  END