
  SciTegic09261414532D

 27 29  0  0  0  0            999 V2000
    6.0922   -7.7581    0.0000 C   0  0
    6.8007   -8.1828    0.0000 N   0  0
    7.5215   -7.7815    0.0000 C   0  0
    7.5336   -6.9555    0.0000 C   0  0
    6.8269   -6.5343    0.0000 C   0  0
    6.1063   -6.9357    0.0000 N   0  0
    5.3232   -6.6662    0.0000 N   0  0
    4.8284   -7.3281    0.0000 C   0  0
    5.3005   -8.0016    0.0000 N   0  0
    6.8391   -5.7083    0.0000 N   0  0
    8.2280   -8.2025    0.0000 C   0  0
    7.5598   -5.3070    0.0000 C   0  0
    7.5719   -4.4809    0.0000 C   0  0
    8.2927   -4.0796    0.0000 C   0  0
    9.0012   -4.5043    0.0000 C   0  0
    8.9891   -5.3303    0.0000 C   0  0
    8.2685   -5.7317    0.0000 C   0  0
    9.7220   -4.1030    0.0000 C   0  0
    8.3048   -3.2535    0.0000 F   0  0
    4.0023   -7.3160    0.0000 C   0  0
    3.6004   -6.5957    0.0000 C   0  0
    3.2831   -7.7202    0.0000 F   0  0
    3.9955   -8.1368    0.0000 F   0  0
    9.7348   -3.2782    0.0000 F   0  0
   10.4299   -4.5265    0.0000 F   0  0
   10.4325   -3.6831    0.0000 F   0  0
    9.6973   -5.7536    0.0000 F   0  0
  1  2  1  0
  2  3  2  0
  3  4  1  0
  4  5  2  0
  5  6  1  0
  1  6  1  0
  7  8  2  0
  8  9  1  0
  6  7  1  0
  1  9  2  0
  5 10  1  0
  3 11  1  0
 12 13  1  0
 13 14  2  0
 14 15  1  0
 15 16  2  0
 16 17  1  0
 12 17  2  0
 15 18  1  0
 14 19  1  0
 10 12  1  0
  8 20  1  0
 20 21  1  0
 20 22  1  0
 20 23  1  0
 18 24  1  0
 18 25  1  0
 18 26  1  0
 16 27  1  0
M  END