
  SciTegic01161211232D

 32 34  0  0  0  0            999 V2000
   -3.9072    2.7019    0.0000 C   0  0
   -3.9091    1.5019    0.0000 O   0  0
   -2.6111    0.7486    0.0000 C   0  0
   -1.2964    1.4973    0.0000 C   0  0
    0.0000    0.7486    0.0000 C   0  0
    1.2964    1.4973    0.0000 C   0  0
    2.5929    0.7486    0.0000 C   0  0  2  0  0  0
    3.6321    1.3486    0.0000 O   0  0
    2.5929   -0.7486    0.0000 C   0  0  2  0  0  0
    1.2964   -1.4973    0.0000 C   0  0
    0.0000   -0.7486    0.0000 C   0  0
   -1.2964   -1.4973    0.0000 C   0  0
   -2.6111   -0.7486    0.0000 C   0  0
   -3.9091   -1.5019    0.0000 O   0  0
   -3.9072   -2.7019    0.0000 C   0  0
    3.8942   -1.4964    0.0000 N   0  0
    5.1929   -0.7441    0.0000 C   0  0
    6.4942   -1.4919    0.0000 C   0  0
    7.7928   -0.7396    0.0000 C   0  0
    9.0941   -1.4873    0.0000 C   0  0
   10.3932   -0.7374    0.0000 C   0  0
   11.6923   -1.4873    0.0000 C   0  0
   11.6923   -2.9873    0.0000 C   0  0
   10.3933   -3.7374    0.0000 C   0  0
    9.0942   -2.9874    0.0000 C   0  0
    7.7902    0.7611    0.0000 C   0  0
    9.0869    1.5153    0.0000 C   0  0
    9.0823    3.0153    0.0000 C   0  0
    7.7809    3.7613    0.0000 C   0  0
    6.4842    3.0072    0.0000 C   0  0
    6.4889    1.5072    0.0000 C   0  0
   14.1923    0.0119    0.0000 Cl  0  0
  1  2  1  0
  2  3  1  0
  3  4  2  0
  4  5  1  0
  5  6  1  0
  6  7  1  0
  7  8  1  6
  7  9  1  0
  9 10  1  0
 10 11  1  0
 11  5  2  0
 11 12  1  0
 12 13  2  0
 13  3  1  0
 13 14  1  0
 14 15  1  0
  9 16  1  1
 16 17  1  0
 17 18  1  0
 18 19  1  0
 19 20  1  0
 20 21  2  0
 21 22  1  0
 22 23  2  0
 23 24  1  0
 24 25  2  0
 25 20  1  0
 19 26  1  0
 26 27  2  0
 27 28  1  0
 28 29  2  0
 29 30  1  0
 30 31  2  0
 31 26  1  0
M  END