
          11280715492D 1   1.00000     0.00000     0

 27 30  0     0  0            999 V2000
   10.8777   -7.2125    0.0000 N   0  0  0  0  0  0           0  0  0
   10.8766   -8.0398    0.0000 C   0  0  0  0  0  0           0  0  0
   11.5914   -8.4527    0.0000 C   0  0  0  0  0  0           0  0  0
   12.3078   -8.0394    0.0000 C   0  0  0  0  0  0           0  0  0
   12.3050   -7.2088    0.0000 C   0  0  0  0  0  0           0  0  0
   11.5896   -6.7997    0.0000 C   0  0  0  0  0  0           0  0  0
   13.0230   -8.4507    0.0000 C   0  0  0  0  0  0           0  0  0
   13.9144   -9.4465    0.0000 N   0  0  0  0  0  0           0  0  0
   14.3260   -8.7350    0.0000 C   0  0  0  0  0  0           0  0  0
   13.7654   -8.1126    0.0000 N   0  0  0  0  0  0           0  0  0
   13.1073   -9.2682    0.0000 C   0  0  0  0  0  0           0  0  0
   12.4917   -9.8162    0.0000 C   0  0  0  0  0  0           0  0  0
   11.7702   -9.4138    0.0000 C   0  0  0  0  0  0           0  0  0
   11.0631   -9.8372    0.0000 C   0  0  0  0  0  0           0  0  0
   11.0761  -10.6630    0.0000 C   0  0  0  0  0  0           0  0  0
   11.8023  -11.0635    0.0000 C   0  0  0  0  0  0           0  0  0
   12.5065  -10.6377    0.0000 C   0  0  0  0  0  0           0  0  0
   15.1508   -8.7154    0.0000 C   0  0  0  0  0  0           0  0  0
   15.5760   -9.4200    0.0000 C   0  0  0  0  0  0           0  0  0
   16.4000   -9.4008    0.0000 C   0  0  0  0  0  0           0  0  0
   16.7962   -8.6762    0.0000 C   0  0  0  0  0  0           0  0  0
   16.3624   -7.9694    0.0000 C   0  0  0  0  0  0           0  0  0
   15.5398   -7.9922    0.0000 C   0  0  0  0  0  0           0  0  0
   10.3691  -11.0881    0.0000 C   0  0  0  0  0  0           0  0  0
    9.6474  -10.6883    0.0000 N   0  0  0  0  0  0           0  0  0
    8.9404  -11.1134    0.0000 O   0  0  0  0  0  0           0  0  0
   11.8187  -11.8883    0.0000 O   0  0  0  0  0  0           0  0  0
  1  2  2  0     0  0
 13 14  2  0     0  0
  4  7  1  0     0  0
 14 15  1  0     0  0
  3  4  2  0     0  0
 15 16  2  0     0  0
 16 17  1  0     0  0
 17 12  2  0     0  0
 11 12  1  0     0  0
  4  5  1  0     0  0
  9 18  1  0     0  0
  2  3  1  0     0  0
 18 19  2  0     0  0
  8  9  1  0     0  0
 19 20  1  0     0  0
  9 10  2  0     0  0
 20 21  2  0     0  0
 10  7  1  0     0  0
 21 22  1  0     0  0
  7 11  2  0     0  0
 22 23  2  0     0  0
 23 18  1  0     0  0
 11  8  1  0     0  0
 15 24  1  0     0  0
  5  6  2  0     0  0
 24 25  2  0     0  0
  6  1  1  0     0  0
 25 26  1  0     0  0
 12 13  1  0     0  0
 16 27  1  0     0  0
M  END