
  SciTegic04091414152D

 21 21  0  0  0  0            999 V2000
    9.3976   -4.5850    0.0000 S   0  0
    9.7993   -3.8644    0.0000 O   0  0
    8.9745   -3.8768    0.0000 O   0  0
    8.6806   -5.0127    0.0000 C   0  0
    8.6839   -5.8419    0.0000 C   0  0
    7.9710   -6.2571    0.0000 C   0  0
    7.2549   -5.8473    0.0000 C   0  0
    7.2518   -5.0183    0.0000 C   0  0
    7.9646   -4.6030    0.0000 C   0  0
   10.1262   -4.9905    0.0000 N   0  0
   10.8371   -4.5669    0.0000 C   0  0
   11.5655   -4.9682    0.0000 C   0  0
   12.2764   -4.5404    0.0000 N   0  0
   12.9924   -4.9461    0.0000 C   0  0
   13.7053   -4.5267    0.0000 C   0  0
   12.2587   -3.7115    0.0000 C   0  0
   11.5405   -3.3058    0.0000 C   0  0
    7.9742   -7.0820    0.0000 C   0  0
    7.2614   -7.4973    0.0000 F   0  0
    8.6902   -7.4917    0.0000 F   0  0
    7.9730   -7.9009    0.0000 F   0  0
  2  1  2  0
  1  3  2  0
  4  5  1  0
  5  6  2  0
  6  7  1  0
  7  8  2  0
  8  9  1  0
  4  9  2  0
  1 10  1  0
  4  1  1  0
 11 12  1  0
 14 15  1  0
 13 14  1  0
 16 17  1  0
 13 16  1  0
 12 13  1  0
 10 11  1  0
  6 18  1  0
 18 19  1  0
 18 20  1  0
 18 21  1  0
M  END