
  CDK    9/16/09,9:58

 21 24  0  0  0  0  0  0  0  0999 V2000
   -5.0707   -8.7494    0.0000 C   0  0  0  0  0  0  0  0  0  0  0  0
   -5.0719   -9.5770    0.0000 C   0  0  0  0  0  0  0  0  0  0  0  0
   -4.3590   -9.9900    0.0000 C   0  0  0  0  0  0  0  0  0  0  0  0
   -4.3610   -8.3367    0.0000 C   0  0  0  0  0  0  0  0  0  0  0  0
   -3.6428   -8.7454    0.0000 C   0  0  0  0  0  0  0  0  0  0  0  0
   -3.6423   -9.5724    0.0000 C   0  0  0  0  0  0  0  0  0  0  0  0
   -2.8556   -9.8275    0.0000 N   0  0  0  0  0  0  0  0  0  0  0  0
   -2.3698   -9.1580    0.0000 C   0  0  0  0  0  0  0  0  0  0  0  0
   -2.8564   -8.4895    0.0000 N   0  0  0  0  0  0  0  0  0  0  0  0
   -1.5448   -9.1575    0.0000 N   0  0  0  0  0  0  0  0  0  0  0  0
   -1.1319   -9.8717    0.0000 C   0  0  0  0  0  0  0  0  0  0  0  0
   -1.5443  -10.5828    0.0000 C   0  0  0  0  0  0  0  0  0  0  0  0
   -1.1349  -11.2949    0.0000 C   0  0  0  0  0  0  0  0  0  0  0  0
   -0.3094  -11.2985    0.0000 C   0  0  0  0  0  0  0  0  0  0  0  0
   -0.3065   -9.8657    0.0000 C   0  0  0  0  0  0  0  0  0  0  0  0
    0.1016  -10.5824    0.0000 C   0  0  0  0  0  0  0  0  0  0  0  0
    0.9244  -10.5864    0.0000 C   0  0  0  0  0  0  0  0  0  0  0  0
    1.3402   -9.8745    0.0000 C   0  0  0  0  0  0  0  0  0  0  0  0
    0.9272   -9.1569    0.0000 C   0  0  0  0  0  0  0  0  0  0  0  0
    0.1057   -9.1565    0.0000 C   0  0  0  0  0  0  0  0  0  0  0  0
    1.3403   -8.4428    0.0000 F   0  0  0  0  0  0  0  0  0  0  0  0
  8 10  1  0  0  0  0 
  5  6  1  0  0  0  0 
 10 11  1  0  0  0  0 
 11 12  1  0  0  0  0 
  2  3  1  0  0  0  0 
  3  6  2  0  0  0  0 
 11 15  1  0  0  0  0 
 12 13  1  0  0  0  0 
 13 14  1  0  0  0  0 
 14 16  1  0  0  0  0 
  1  2  2  0  0  0  0 
  5  4  2  0  0  0  0 
 15 16  2  0  0  0  0 
  6  7  1  0  0  0  0 
 16 17  1  0  0  0  0 
  7  8  1  0  0  0  0 
 17 18  2  0  0  0  0 
  8  9  2  0  0  0  0 
 18 19  1  0  0  0  0 
  9  5  1  0  0  0  0 
 19 20  2  0  0  0  0 
 20 15  1  0  0  0  0 
  4  1  1  0  0  0  0 
 19 21  1  0  0  0  0 
M  END