
          11280715122D 1   1.00000     0.00000     0

 31 33  0     0  0            999 V2000
    8.0917   -6.8167    0.0000 C   0  0  0  0  0  0           0  0  0
    7.3792   -6.4042    0.0000 C   0  0  0  0  0  0           0  0  0
    8.0917   -7.6417    0.0000 C   0  0  0  0  0  0           0  0  0
    2.8250   -6.4292    0.0000 N   0  0  3  0  0  0           0  0  0
    8.8042   -8.0542    0.0000 N   0  0  0  0  0  0           0  0  0
   10.9542   -5.9792    0.0000 N   0  0  0  0  0  0           0  0  0
    2.1042   -6.0167    0.0000 C   0  0  0  0  0  0           0  0  0
    8.8042   -6.4042    0.0000 C   0  0  0  0  0  0           0  0  0
   10.2292   -6.3917    0.0000 C   0  0  0  0  0  0           0  0  0
    4.2500   -7.2542    0.0000 N   0  0  3  0  0  0           0  0  0
    7.3792   -5.5792    0.0000 N   0  0  3  0  0  0           0  0  0
    9.5167   -6.8125    0.0000 C   0  0  0  0  0  0           0  0  0
    6.6667   -6.8167    0.0000 O   0  0  0  0  0  0           0  0  0
    3.5417   -6.0167    0.0000 C   0  0  0  0  0  0           0  0  0
    2.8167   -7.2542    0.0000 C   0  0  0  0  0  0           0  0  0
    2.1042   -5.1917    0.0000 C   0  0  0  0  0  0           0  0  0
    9.5250   -7.6417    0.0000 C   0  0  0  0  0  0           0  0  0
    7.2667   -7.6417    0.0000 N   0  0  0  0  0  0           0  0  0
    4.2500   -6.4292    0.0000 C   0  0  0  0  0  0           0  0  0
    3.5375   -7.6667    0.0000 C   0  0  0  0  0  0           0  0  0
    2.8167   -4.7750    0.0000 O   0  0  0  0  0  0           0  0  0
    4.9667   -7.6667    0.0000 C   0  0  0  0  0  0           0  0  0
    5.7625   -7.4500    0.0000 C   0  0  0  0  0  0           0  0  0
    1.3917   -6.4292    0.0000 C   0  0  0  0  0  0           0  0  0
    6.4750   -7.8625    0.0000 C   0  0  0  0  0  0           0  0  0
    8.0917   -5.1667    0.0000 C   0  0  0  0  0  0           0  0  0
    6.6667   -5.1667    0.0000 C   0  0  0  0  0  0           0  0  0
    1.3917   -4.7792    0.0000 C   0  0  0  0  0  0           0  0  0
    3.5375   -5.1792    0.0000 C   0  0  0  0  0  0           0  0  0
    0.6792   -6.0167    0.0000 C   0  0  0  0  0  0           0  0  0
    0.6792   -5.1917    0.0000 C   0  0  0  0  0  0           0  0  0
  2  1  1  0     0  0
  3  1  2  0     0  0
  4 15  1  0     0  0
  5  3  1  0     0  0
  6  9  3  0     0  0
  7  4  1  0     0  0
  8  1  1  0     0  0
  9 12  1  0     0  0
 10 22  1  0     0  0
 11  2  1  0     0  0
 12  8  2  0     0  0
 13  2  2  0     0  0
 14 19  1  0     0  0
 15 20  1  0     0  0
 16  7  1  0     0  0
 17 12  1  0     0  0
 18  3  1  0     0  0
 19 10  1  0     0  0
 20 10  1  0     0  0
 21 16  1  0     0  0
 22 23  1  0     0  0
 23 25  1  0     0  0
 24  7  2  0     0  0
 25 18  1  0     0  0
 26 11  1  0     0  0
 27 11  1  0     0  0
 28 16  2  0     0  0
 29 21  1  0     0  0
 30 24  1  0     0  0
 31 30  2  0     0  0
 17  5  2  0     0  0
  4 14  1  0     0  0
 31 28  1  0     0  0
M  END