
          11280715262D 1   1.00000     0.00000     0

 21 24  0     0  0            999 V2000
   -0.2833    1.1583    0.0000 C   0  0  0  0  0  0           0  0  0
   -2.4208   -0.0917    0.0000 C   0  0  3  0  0  0           0  0  0
   -0.9958    0.7375    0.0000 C   0  0  0  0  0  0           0  0  0
   -1.7125    1.1458    0.0000 N   0  0  0  0  0  0           0  0  0
   -1.7000   -1.3375    0.0000 C   0  0  3  0  0  0           0  0  0
   -2.8750   -1.7667    0.0000 C   0  0  3  0  0  0           0  0  0
   -3.1708   -1.4000    0.0000 C   0  0  3  0  0  0           0  0  0
    0.4250    0.7333    0.0000 C   0  0  0  0  0  0           0  0  0
   -3.1750   -0.5000    0.0000 C   0  0  0  0  0  0           0  0  0
   -1.7000   -0.5167    0.0000 C   0  0  0  0  0  0           0  0  0
   -2.8750   -0.7292    0.0000 C   0  0  0  0  0  0           0  0  0
   -0.9875   -0.0875    0.0000 O   0  0  0  0  0  0           0  0  0
   -2.4208    0.7250    0.0000 C   0  0  0  0  0  0           0  0  0
   -2.3958   -1.6917    0.0000 C   0  0  0  0  0  0           0  0  0
   -2.0583   -2.0500    0.0000 C   0  0  0  0  0  0           0  0  0
   -3.5208   -2.0500    0.0000 C   0  0  0  0  0  0           0  0  0
    0.4167   -0.0917    0.0000 Br  0  0  0  0  0  0           0  0  0
   -0.2708    1.9833    0.0000 C   0  0  0  0  0  0           0  0  0
    1.1417    1.1333    0.0000 C   0  0  0  0  0  0           0  0  0
    0.4500    2.3833    0.0000 C   0  0  0  0  0  0           0  0  0
    1.1542    1.9583    0.0000 C   0  0  0  0  0  0           0  0  0
  2 13  1  0     0  0
  3  1  1  0     0  0
  4  3  1  0     0  0
  5 10  1  0     0  0
  6 11  1  0     0  0
  7  9  1  0     0  0
  8  1  2  0     0  0
  9  2  1  0     0  0
 10  2  1  0     0  0
 11  2  1  0     0  0
 12  3  2  0     0  0
 13  4  1  0     0  0
 14  5  1  0     0  0
 15  6  1  0     0  0
 16  6  1  0     0  0
 17  8  1  0     0  0
 18  1  1  0     0  0
 19  8  1  0     0  0
 20 18  2  0     0  0
 21 20  1  0     0  0
 21 19  2  0     0  0
  7 16  1  0     0  0
  5 15  1  0     0  0
  7 14  1  0     0  0
M  END