
          11280715042D 1   1.00000     0.00000     0

 32 33  0     1  0            999 V2000
    3.6542   -5.5417    0.0000 S   0  0  3  0  0  0           0  0  0
    6.0917   -5.5417    0.0000 C   0  0  0  0  0  0           0  0  0
    6.4042   -6.0667    0.0000 N   0  0  0  0  0  0           0  0  0
    7.3167   -6.5917    0.0000 C   0  0  0  0  0  0           0  0  0
    7.0167   -6.0667    0.0000 C   0  0  2  0  0  0           0  0  0
    4.2667   -5.5417    0.0000 C   0  0  0  0  0  0           0  0  0
    7.9292   -6.5917    0.0000 N   0  0  0  0  0  0           0  0  0
    3.6542   -4.9292    0.0000 O   0  0  0  0  0  0           0  0  0
    3.6542   -6.1500    0.0000 O   0  0  0  0  0  0           0  0  0
    8.8500   -7.1250    0.0000 C   0  0  0  0  0  0           0  0  0
    5.4875   -5.5417    0.0000 C   0  0  0  0  0  0           0  0  0
    8.2375   -8.1750    0.0000 C   0  0  0  0  0  0           0  0  0
    3.0500   -5.5417    0.0000 N   0  0  0  0  0  0           0  0  0
    9.1500   -7.6417    0.0000 N   0  0  0  0  0  0           0  0  0
    6.3167   -5.2250    0.0000 O   0  0  0  0  0  0           0  0  0
    7.3167   -5.5417    0.0000 C   0  0  0  0  0  0           0  0  0
    7.0167   -7.1250    0.0000 O   0  0  0  0  0  0           0  0  0
    9.1500   -6.5917    0.0000 O   0  0  0  0  0  0           0  0  0
    7.9292   -7.6500    0.0000 O   0  0  0  0  0  0           0  0  0
    4.5667   -5.0167    0.0000 C   0  0  0  0  0  0           0  0  0
    4.5667   -6.0667    0.0000 C   0  0  0  0  0  0           0  0  0
    5.1792   -6.0667    0.0000 C   0  0  0  0  0  0           0  0  0
    5.1792   -5.0167    0.0000 C   0  0  0  0  0  0           0  0  0
    8.2375   -7.1167    0.0000 C   0  0  0  0  0  0           0  0  0
    8.8500   -8.1750    0.0000 C   0  0  0  0  0  0           0  0  0
    7.9292   -8.7042    0.0000 O   0  0  0  0  0  0           0  0  0
    7.0167   -5.0042    0.0000 C   0  0  0  0  0  0           0  0  0
    7.3167   -4.4792    0.0000 C   0  0  0  0  0  0           0  0  0
    6.5167   -5.0042    0.0000 C   0  0  0  0  0  0           0  0  0
    6.2167   -4.4792    0.0000 C   0  0  0  0  0  0           0  0  0
    7.0167   -3.9500    0.0000 C   0  0  0  0  0  0           0  0  0
    6.4042   -3.9500    0.0000 C   0  0  0  0  0  0           0  0  0
  2 11  1  0     0  0
  3  2  1  0     0  0
  4  5  1  0     0  0
  5  3  1  0     0  0
  6  1  1  0     0  0
  7  4  1  0     0  0
  8  1  2  0     0  0
  9  1  2  0     0  0
 10 24  1  0     0  0
 11 22  2  0     0  0
 12 25  1  0     0  0
 13  1  1  0     0  0
 14 10  1  0     0  0
 15  2  2  0     0  0
  5 16  1  1     0  0
 17  4  2  0     0  0
 18 10  2  0     0  0
 19 12  2  0     0  0
 20  6  1  0     0  0
 21  6  2  0     0  0
 22 21  1  0     0  0
 23 20  2  0     0  0
 24  7  1  0     0  0
 25 14  1  0     0  0
 26 12  1  0     0  0
 27 16  1  0     0  0
 28 27  2  0     0  0
 29 27  1  0     0  0
 30 29  2  0     0  0
 31 28  1  0     0  0
 32 30  1  0     0  0
 11 23  1  0     0  0
 31 32  2  0     0  0
M  END