
          11280715422D 1   1.00000     0.00000     0

 28 30  0     0  0            999 V2000
    0.4792    0.9583    0.0000 C   0  0  0  0  0  0           0  0  0
   -0.5083    0.0625    0.0000 C   0  0  0  0  0  0           0  0  0
   -0.3333    0.8708    0.0000 N   0  0  0  0  0  0           0  0  0
    0.2042   -0.3542    0.0000 N   0  0  3  0  0  0           0  0  0
    0.8167    0.2000    0.0000 C   0  0  0  0  0  0           0  0  0
   -1.2333   -0.0167    0.0000 C   0  0  0  0  0  0           0  0  0
    0.9000    1.6708    0.0000 C   0  0  0  0  0  0           0  0  0
   -1.6458    0.7000    0.0000 C   0  0  0  0  0  0           0  0  0
    0.2000   -1.1750    0.0000 C   0  0  0  0  0  0           0  0  0
   -1.6583   -0.7375    0.0000 C   0  0  0  0  0  0           0  0  0
   -2.4708    0.7000    0.0000 C   0  0  0  0  0  0           0  0  0
    1.7167    1.6708    0.0000 N   0  0  3  0  0  0           0  0  0
    0.8542    2.5000    0.0000 O   0  0  0  0  0  0           0  0  0
    0.9042   -1.5792    0.0000 C   0  0  0  0  0  0           0  0  0
   -0.5208   -1.5750    0.0000 C   0  0  0  0  0  0           0  0  0
   -2.8958   -0.0042    0.0000 C   0  0  0  0  0  0           0  0  0
   -1.2333    1.4208    0.0000 Cl  0  0  0  0  0  0           0  0  0
    1.6167    0.0333    0.0000 C   0  0  0  0  0  0           0  0  0
   -2.4833   -0.7292    0.0000 C   0  0  0  0  0  0           0  0  0
    0.1792   -2.8042    0.0000 C   0  0  0  0  0  0           0  0  0
    0.9000   -2.4042    0.0000 C   0  0  0  0  0  0           0  0  0
   -0.5333   -2.4000    0.0000 C   0  0  0  0  0  0           0  0  0
   -3.7208   -0.0042    0.0000 Cl  0  0  0  0  0  0           0  0  0
    0.1667   -3.6375    0.0000 Cl  0  0  0  0  0  0           0  0  0
    2.1292    2.3958    0.0000 C   0  0  0  0  0  0           0  0  0
    2.1292    0.9583    0.0000 C   0  0  0  0  0  0           0  0  0
    2.9542    0.9625    0.0000 C   0  0  0  0  0  0           0  0  0
    2.9542    2.3958    0.0000 C   0  0  0  0  0  0           0  0  0
  2  3  2  0     0  0
  3  1  1  0     0  0
  4  5  1  0     0  0
  5  1  2  0     0  0
  6  2  1  0     0  0
  7  1  1  0     0  0
  8  6  2  0     0  0
  9  4  1  0     0  0
 10  6  1  0     0  0
 11  8  1  0     0  0
 12  7  1  0     0  0
 13  7  2  0     0  0
 14  9  1  0     0  0
 15  9  2  0     0  0
 16 19  1  0     0  0
 17  8  1  0     0  0
 18  5  1  0     0  0
 19 10  2  0     0  0
 20 22  2  0     0  0
 21 14  2  0     0  0
 22 15  1  0     0  0
 23 16  1  0     0  0
 24 20  1  0     0  0
 25 12  1  0     0  0
 26 12  1  0     0  0
 27 26  1  0     0  0
 28 25  1  0     0  0
  4  2  1  0     0  0
 20 21  1  0     0  0
 16 11  2  0     0  0
M  END