
  SciTegic09081514162D

 27 29  0  0  0  0            999 V2000
    1.2990   -0.7500    0.0000 C   0  0
    1.2990    0.7500    0.0000 C   0  0
    0.0000    1.5000    0.0000 C   0  0
   -1.2990    0.7500    0.0000 C   0  0
   -1.2990   -0.7500    0.0000 C   0  0
    0.0000   -1.5000    0.0000 C   0  0
    0.0000   -2.7000    0.0000 Cl  0  0
   -2.5972   -1.5031    0.0000 C   0  0
   -2.5951   -3.0039    0.0000 C   0  0
   -3.8933   -3.7570    0.0000 C   0  0
   -4.0312   -5.2379    0.0000 N   0  0
   -5.4984   -5.5497    0.0000 C   0  0
   -6.2484   -4.2507    0.0000 C   0  0
   -5.2447   -3.1360    0.0000 N   0  0
   -2.9122   -6.2341    0.0000 C   0  0
   -3.2150   -7.7040    0.0000 C   0  0
   -2.0961   -8.7031    0.0000 C   0  0
   -2.4018  -10.1716    0.0000 C   0  0
   -3.8264  -10.6412    0.0000 C   0  0
   -4.9454   -9.6422    0.0000 C   0  0
   -4.6397   -8.1737    0.0000 C   0  0
   -2.6003    1.4977    0.0000 C   0  0
   -2.6024    2.6977    0.0000 O   0  0
   -3.8990    0.7455    0.0000 O   0  0
   -4.9395    1.3433    0.0000 C   0  0
    0.0000    2.7000    0.0000 O   0  0
    2.3383   -1.3500    0.0000 O   0  0
  1  2  2  0
  3  2  1  0
  4  3  2  0
  5  4  1  0
  6  5  2  0
  1  6  1  0
  6  7  1  0
  5  8  1  0
  8  9  1  0
  9 10  1  0
 11 10  1  0
 11 12  1  0
 12 13  2  0
 13 14  1  0
 14 10  2  0
 11 15  1  0
 15 16  1  0
 17 16  1  0
 18 17  2  0
 19 18  1  0
 20 19  2  0
 21 20  1  0
 16 21  2  0
  4 22  1  0
 22 23  2  0
 22 24  1  0
 24 25  1  0
  3 26  1  0
  1 27  1  0
M  END