
          11280715492D 1   1.00000     0.00000     0

 18 20  0     0  0            999 V2000
    0.5182  -18.6064    0.0000 N   0  0  0  0  0  0           0  0  0
    0.9849  -17.9259    0.0000 C   0  0  0  0  0  0           0  0  0
    0.4792  -17.2708    0.0000 C   0  0  0  0  0  0           0  0  0
    1.8096  -17.9028    0.0000 C   0  0  0  0  0  0           0  0  0
    2.2420  -18.6053    0.0000 O   0  0  0  0  0  0           0  0  0
    2.2018  -17.1770    0.0000 N   0  0  3  0  0  0           0  0  0
    3.0254  -17.1578    0.0000 C   0  0  0  0  0  0           0  0  0
    3.4177  -16.4361    0.0000 C   0  0  0  0  0  0           0  0  0
    2.9887  -15.7310    0.0000 N   0  0  3  0  0  0           0  0  0
    2.1631  -15.7522    0.0000 C   0  0  0  0  0  0           0  0  0
    1.7663  -16.4786    0.0000 C   0  0  0  0  0  0           0  0  0
    3.3837  -15.0067    0.0000 C   0  0  0  0  0  0           0  0  0
   -0.2779  -18.3718    0.0000 C   0  0  0  0  0  0           0  0  0
   -0.2995  -17.5485    0.0000 C   0  0  0  0  0  0           0  0  0
   -1.0892  -17.3147    0.0000 S   0  0  0  0  0  0           0  0  0
   -1.5557  -17.9935    0.0000 C   0  0  0  0  0  0           0  0  0
   -1.0542  -18.6468    0.0000 C   0  0  0  0  0  0           0  0  0
   -1.2884  -19.4379    0.0000 C   0  0  0  0  0  0           0  0  0
  2  4  1  0     0  0
  6 11  1  0     0  0
  7  8  1  0     0  0
  8  9  1  0     0  0
  9 10  1  0     0  0
 10 11  1  0     0  0
  4  5  2  0     0  0
  9 12  1  0     0  0
 13 14  2  0     0  0
  1  2  1  0     0  0
  4  6  1  0     0  0
  6  7  1  0     0  0
  2  3  2  0     0  0
  3 14  1  0     0  0
 14 15  1  0     0  0
 15 16  1  0     0  0
 16 17  2  0     0  0
 17 13  1  0     0  0
 13  1  1  0     0  0
 17 18  1  0     0  0
M  END