
  SciTegic10311316242D

 33 37  0  0  0  0            999 V2000
    8.4005  -18.5029    0.0000 C   0  0
    9.2239  -18.5039    0.0000 C   0  0
    9.6345  -17.7928    0.0000 N   0  0
    7.9898  -17.7946    0.0000 N   0  0
    8.3969  -17.0828    0.0000 C   0  0
    9.2258  -17.0807    0.0000 C   0  0
    9.4806  -16.2916    0.0000 C   0  0
    8.8081  -15.8062    0.0000 C   0  0
    8.1388  -16.2951    0.0000 N   0  0
   10.1871  -15.8656    0.0000 C   0  0
   10.9093  -16.2644    0.0000 N   0  0
   10.1714  -15.0407    0.0000 O   0  0
   11.6158  -15.8384    0.0000 C   0  0  1  0  0  0
   12.3380  -16.2372    0.0000 C   0  0
   13.0444  -15.8112    0.0000 N   0  0
   12.3537  -17.0620    0.0000 O   0  0
   13.8476  -16.0126    0.0000 C   0  0
   14.0459  -15.2117    0.0000 C   0  0
   13.2451  -15.0134    0.0000 C   0  0
   14.7525  -14.7898    0.0000 C   0  0
   15.4590  -14.3638    0.0000 N   0  0
   11.6001  -15.0135    0.0000 C   0  0
    9.6756  -19.1968    0.0000 C   0  0
    9.3829  -19.9681    0.0000 N   0  0
   10.0259  -20.4849    0.0000 N   0  0
   10.4996  -19.2370    0.0000 C   0  0
   10.7147  -20.0333    0.0000 C   0  0
   11.5104  -20.2438    0.0000 C   0  0
   12.0917  -19.6588    0.0000 C   0  0
   11.8719  -18.8604    0.0000 C   0  0
   11.0766  -18.6537    0.0000 C   0  0
    9.9861  -21.3090    0.0000 C   0  0
   12.8897  -19.8683    0.0000 Cl  0  0
  1  2  2  0
  2  3  1  0
  3  6  2  0
  5  4  2  0
  4  1  1  0
  5  6  1  0
  6  7  1  0
  7  8  2  0
  8  9  1  0
  9  5  1  0
  7 10  1  0
 10 11  1  0
 10 12  2  0
 11 13  1  0
 13 14  1  0
 14 15  1  0
 14 16  2  0
 15 17  1  0
 17 18  1  0
 18 19  1  0
 19 15  1  0
 20 21  3  0
 18 20  1  0
 13 22  1  6
 23 24  2  0
 24 25  1  0
 25 27  1  0
 26 23  1  0
  2 23  1  0
 26 27  2  0
 27 28  1  0
 28 29  2  0
 29 30  1  0
 30 31  2  0
 31 26  1  0
 25 32  1  0
 29 33  1  0
M  END