
          11280715122D 1   1.00000     0.00000     0

 32 35  0     0  0            999 V2000
    7.3667   -9.3125    0.0000 C   0  0  0  0  0  0           0  0  0
    6.8417  -10.5417    0.0000 N   0  0  0  0  0  0           0  0  0
    7.5500  -10.1167    0.0000 N   0  0  0  0  0  0           0  0  0
    6.2250  -10.0042    0.0000 N   0  0  0  0  0  0           0  0  0
    4.3625   -4.9792    0.0000 C   0  0  0  0  0  0           0  0  0
    6.5542   -9.2375    0.0000 N   0  0  0  0  0  0           0  0  0
    4.3625   -4.1542    0.0000 C   0  0  0  0  0  0           0  0  0
    7.9167   -8.6917    0.0000 C   0  0  0  0  0  0           0  0  0
    3.6417   -3.7417    0.0000 C   0  0  0  0  0  0           0  0  0
    3.6417   -5.3917    0.0000 N   0  0  0  0  0  0           0  0  0
    7.9167   -7.8667    0.0000 C   0  0  0  0  0  0           0  0  0
    3.6417   -2.9167    0.0000 C   0  0  0  0  0  0           0  0  0
    5.0750   -5.3917    0.0000 N   0  0  3  0  0  0           0  0  0
    2.9292   -4.1542    0.0000 N   0  0  0  0  0  0           0  0  0
    2.9292   -4.9792    0.0000 C   0  0  0  0  0  0           0  0  0
    7.2125   -7.4542    0.0000 C   0  0  0  0  0  0           0  0  0
    5.0667   -6.2167    0.0000 C   0  0  0  0  0  0           0  0  0
    2.9250   -2.5042    0.0000 O   0  0  0  0  0  0           0  0  0
    7.2042   -6.6292    0.0000 C   0  0  0  0  0  0           0  0  0
    6.4917   -7.8667    0.0000 C   0  0  0  0  0  0           0  0  0
    5.7875   -6.6292    0.0000 C   0  0  0  0  0  0           0  0  0
    4.3542   -2.5042    0.0000 O   0  0  0  0  0  0           0  0  0
    6.4917   -6.2167    0.0000 C   0  0  0  0  0  0           0  0  0
    5.7792   -7.4542    0.0000 C   0  0  0  0  0  0           0  0  0
    8.6292   -9.1042    0.0000 C   0  0  0  0  0  0           0  0  0
    8.6292   -7.4542    0.0000 C   0  0  0  0  0  0           0  0  0
    5.7792   -4.9792    0.0000 C   0  0  0  0  0  0           0  0  0
    6.4917   -5.3917    0.0000 C   0  0  0  0  0  0           0  0  0
    7.2000   -4.9875    0.0000 C   0  0  0  0  0  0           0  0  0
    9.3500   -8.6917    0.0000 C   0  0  0  0  0  0           0  0  0
    9.3417   -7.8667    0.0000 C   0  0  0  0  0  0           0  0  0
    7.9125   -5.4000    0.0000 C   0  0  0  0  0  0           0  0  0
  2  3  2  0     0  0
  3  1  1  0     0  0
  4  6  1  0     0  0
  5 13  1  0     0  0
  6  1  2  0     0  0
  7  5  1  0     0  0
  8  1  1  0     0  0
  9  7  2  0     0  0
 10  5  2  0     0  0
 11  8  2  0     0  0
 12  9  1  0     0  0
 13 17  1  0     0  0
 14 15  2  0     0  0
 15 10  1  0     0  0
 16 11  1  0     0  0
 17 21  1  0     0  0
 18 12  2  0     0  0
 19 16  2  0     0  0
 20 16  1  0     0  0
 21 24  1  0     0  0
 22 12  1  0     0  0
 23 19  1  0     0  0
 24 20  2  0     0  0
 25  8  1  0     0  0
 26 11  1  0     0  0
 27 13  1  0     0  0
 28 27  1  0     0  0
 29 28  1  0     0  0
 30 25  2  0     0  0
 31 30  1  0     0  0
 32 29  1  0     0  0
  2  4  1  0     0  0
 26 31  2  0     0  0
 21 23  2  0     0  0
 14  9  1  0     0  0
M  END