
  SciTegic02271515152D

 38 40  0  0  0  0            999 V2000
   21.6088   -9.7897    0.0000 C   0  0
   21.6076  -10.6093    0.0000 C   0  0
   22.3157  -11.0182    0.0000 C   0  0
   23.0253  -10.6088    0.0000 C   0  0
   23.0225   -9.7861    0.0000 C   0  0
   22.3139   -9.3809    0.0000 C   0  0
   20.9009   -9.3813    0.0000 C   0  0
   20.1933   -9.7901    0.0000 N   0  0
   23.7297  -11.0144    0.0000 C   0  0
   23.8164  -11.8269    0.0000 C   0  0
   24.6160  -11.9956    0.0000 N   0  0
   25.0235  -11.2872    0.0000 C   0  0
   24.4757  -10.6809    0.0000 S   0  0
   19.4855   -9.3817    0.0000 C   0  0
   18.7779   -9.7904    0.0000 O   0  0
   19.4853   -8.5645    0.0000 C   0  0  2  0  0  0
   20.1517   -8.0850    0.0000 C   0  0
   19.8990   -7.3079    0.0000 C   0  0  2  0  0  0
   19.0818   -7.3081    0.0000 C   0  0
   18.8296   -8.0854    0.0000 N   0  0
   18.0521   -8.3370    0.0000 C   0  0
   17.8813   -9.1362    0.0000 O   0  0
   20.3792   -6.6467    0.0000 O   0  0
   23.2100  -12.3747    0.0000 C   0  0
   17.4454   -7.7895    0.0000 C   0  0  2  0  0  0
   17.6162   -6.9904    0.0000 C   0  0
   16.6679   -8.0412    0.0000 N   0  0
   18.3937   -6.7387    0.0000 C   0  0
   17.0095   -6.4429    0.0000 C   0  0
   17.8255   -6.1950    0.0000 C   0  0
   16.0612   -7.4937    0.0000 C   0  0
   15.2838   -7.7453    0.0000 C   0  0  1  0  0  0
   16.2320   -6.6945    0.0000 O   0  0
   14.6771   -7.1978    0.0000 N   0  0
   15.1130   -8.5445    0.0000 C   0  0
   14.8479   -6.3987    0.0000 C   0  0
   14.2412   -5.8512    0.0000 C   0  0
   15.6254   -6.1470    0.0000 O   0  0
  1  2  2  0
  2  3  1  0
  3  4  2  0
  4  5  1  0
  5  6  2  0
  6  1  1  0
  1  7  1  0
  7  8  1  0
  9 10  2  0
 10 11  1  0
 11 12  2  0
 12 13  1  0
 13  9  1  0
  4  9  1  0
  8 14  1  0
 14 15  2  0
 16 14  1  1
 16 17  1  0
 17 18  1  0
 18 19  1  0
 19 20  1  0
 20 16  1  0
 20 21  1  0
 21 22  2  0
 18 23  1  6
 10 24  1  0
 21 25  1  0
 25 26  1  1
 25 27  1  0
 26 28  1  0
 26 29  1  0
 26 30  1  0
 27 31  1  0
 31 32  1  0
 31 33  2  0
 32 34  1  0
 32 35  1  6
 34 36  1  0
 36 37  1  0
 36 38  2  0
M  END