
  SciTegic10081512262D

 40 43  0  0  0  0            999 V2000
   -7.3366    2.9170    0.0000 C   0  0
   -8.0511    2.5045    0.0000 C   0  0
   -8.0511    1.6795    0.0000 C   0  0
   -7.3366    1.2670    0.0000 C   0  0
   -6.6221    1.6795    0.0000 C   0  0
   -6.6221    2.5045    0.0000 C   0  0
   -7.3366    3.7420    0.0000 N   0  0
   -8.0511    4.1545    0.0000 C   0  0
   -8.0511    4.9795    0.0000 O   0  0
   -8.7655    3.7420    0.0000 C   0  0
   -9.4800    4.1545    0.0000 C   0  0
   -5.9076    1.2670    0.0000 N   0  0
   -5.1932    1.6795    0.0000 C   0  0
   -4.4787    1.2669    0.0000 N   0  0
   -3.7642    1.6794    0.0000 C   0  0
   -3.7642    2.5045    0.0000 N   0  0
   -4.4787    2.9170    0.0000 C   0  0
   -5.1932    2.5045    0.0000 C   0  0
   -5.9077    2.9170    0.0000 C   0  0
   -6.7327    2.9170    0.0000 F   0  0
   -6.1212    3.7139    0.0000 F   0  0
   -5.4952    3.6314    0.0000 F   0  0
   -3.0497    1.2669    0.0000 N   0  0
   -2.3353    1.6794    0.0000 C   0  0
   -1.6208    1.2669    0.0000 C   0  0
   -0.9063    1.6794    0.0000 C   0  0
   -0.9063    2.5045    0.0000 C   0  0
   -1.6208    2.9170    0.0000 C   0  0
   -2.3353    2.5045    0.0000 C   0  0
   -3.0498    2.9170    0.0000 O   0  0
   -3.0498    3.7420    0.0000 C   0  0
   -0.1919    2.9170    0.0000 N   0  0
    0.5226    2.5045    0.0000 C   0  0
    1.2371    2.9170    0.0000 C   0  0
    1.2371    3.7420    0.0000 N   0  0
    0.5226    4.1545    0.0000 C   0  0
   -0.1919    3.7420    0.0000 C   0  0
    1.9516    4.1545    0.0000 C   0  0
    1.9516    4.9795    0.0000 O   0  0
    2.6660    3.7420    0.0000 C   0  0
  1  2  1  0
  1  6  2  0
  2  3  2  0
  3  4  1  0
  4  5  2  0
  5  6  1  0
  1  7  1  0
  7  8  1  0
  8  9  2  0
  8 10  1  0
 10 11  2  0
  5 12  1  0
 12 13  1  0
 13 14  1  0
 13 18  2  0
 14 15  2  0
 15 16  1  0
 16 17  2  0
 17 18  1  0
 18 19  1  0
 19 20  1  0
 19 21  1  0
 19 22  1  0
 15 23  1  0
 23 24  1  0
 24 25  1  0
 24 29  2  0
 25 26  2  0
 26 27  1  0
 27 28  2  0
 28 29  1  0
 29 30  1  0
 30 31  1  0
 27 32  1  0
 32 33  1  0
 37 32  1  0
 33 34  1  0
 34 35  1  0
 35 36  1  0
 36 37  1  0
 35 38  1  0
 38 39  2  0
 38 40  1  0
M  END