
  SciTegic05221516342D

 12 13  0  0  0  0            999 V2000
    7.6133   -2.2906    0.0000 C   0  0
    7.6122   -3.1101    0.0000 C   0  0
    8.3202   -3.5191    0.0000 N   0  0
    8.3184   -1.8817    0.0000 C   0  0
    9.0271   -2.2870    0.0000 C   0  0
    9.0278   -3.1060    0.0000 C   0  0
    9.7363   -3.5131    0.0000 C   0  0
   10.4446   -3.1022    0.0000 C   0  0
   10.4399   -2.2801    0.0000 C   0  0
    9.7308   -1.8767    0.0000 N   0  0
    6.9041   -3.5181    0.0000 O   0  0
    6.9055   -1.8821    0.0000 C   0  0
  1  2  2  0
  2  3  1  0
  3  6  2  0
  5  4  2  0
  4  1  1  0
  5  6  1  0
  6  7  1  0
  7  8  2  0
  8  9  1  0
  9 10  2  0
 10  5  1  0
  2 11  1  0
  1 12  1  0
M  END