
          11280714442D 1   1.00000     0.00000     0

 21 21  0     0  0            999 V2000
    3.4167   -5.2417    0.0000 C   0  0  0  0  0  0           0  0  0
    2.7250   -5.6917    0.0000 C   0  0  0  0  0  0           0  0  0
    0.5292   -4.5542    0.0000 C   0  0  0  0  0  0           0  0  0
    0.5667   -5.3792    0.0000 N   0  0  0  0  0  0           0  0  0
    4.1500   -5.6250    0.0000 O   0  0  0  0  0  0           0  0  0
    1.9917   -5.3042    0.0000 C   0  0  0  0  0  0           0  0  0
    1.3000   -5.7542    0.0000 C   0  0  0  0  0  0           0  0  0
    3.3792   -4.4250    0.0000 O   0  0  0  0  0  0           0  0  0
    1.2250   -4.1042    0.0000 O   0  0  0  0  0  0           0  0  0
    7.0042   -5.4917    0.0000 N   0  0  0  0  0  0           0  0  0
    5.5792   -5.5625    0.0000 C   0  0  3  0  0  0           0  0  0
    4.8417   -5.1792    0.0000 C   0  0  0  0  0  0           0  0  0
    6.2750   -5.1167    0.0000 C   0  0  0  0  0  0           0  0  0
    5.6167   -6.3875    0.0000 O   0  0  0  0  0  0           0  0  0
    2.7667   -6.5125    0.0000 C   0  0  0  0  0  0           0  0  0
    2.0667   -6.9542    0.0000 C   0  0  0  0  0  0           0  0  0
    7.7000   -5.0542    0.0000 C   0  0  3  0  0  0           0  0  0
   -0.2083   -4.1750    0.0000 C   0  0  0  0  0  0           0  0  0
    1.3375   -6.5792    0.0000 C   0  0  0  0  0  0           0  0  0
    8.4292   -5.4292    0.0000 C   0  0  0  0  0  0           0  0  0
    7.6667   -4.2292    0.0000 C   0  0  0  0  0  0           0  0  0
  2  1  1  0     0  0
  3  4  1  0     0  0
  4  7  1  0     0  0
  5  1  1  0     0  0
  6  2  2  0     0  0
  7  6  1  0     0  0
  8  1  2  0     0  0
  9  3  2  0     0  0
 10 13  1  0     0  0
 11 12  1  0     0  0
 12  5  1  0     0  0
 13 11  1  0     0  0
 14 11  1  0     0  0
 15  2  1  0     0  0
 16 15  2  0     0  0
 17 10  1  0     0  0
 18  3  1  0     0  0
 19 16  1  0     0  0
 20 17  1  0     0  0
 21 17  1  0     0  0
  7 19  2  0     0  0
M  END