
          11280715072D 1   1.00000     0.00000     0

 25 27  0     0  0            999 V2000
    2.4292   -0.7167    0.0000 C   0  0  0  0  0  0           0  0  0
    2.4417   -1.5375    0.0000 C   0  0  0  0  0  0           0  0  0
    1.7042   -0.3167    0.0000 C   0  0  0  0  0  0           0  0  0
    1.0000   -0.7500    0.0000 C   0  0  0  0  0  0           0  0  0
    1.7500   -1.9667    0.0000 C   0  0  0  0  0  0           0  0  0
    1.0167   -1.5750    0.0000 C   0  0  0  0  0  0           0  0  0
    3.1292   -0.2875    0.0000 C   0  0  0  0  0  0           0  0  0
    3.8542   -0.6792    0.0000 C   0  0  0  0  0  0           0  0  0
    0.2375   -1.8500    0.0000 O   0  0  0  0  0  0           0  0  0
    0.2042   -0.5042    0.0000 C   0  0  0  0  0  0           0  0  0
    4.5542   -0.2542    0.0000 C   0  0  0  0  0  0           0  0  0
   -0.2625   -1.1917    0.0000 C   0  0  0  0  0  0           0  0  0
    3.1125    0.5375    0.0000 O   0  0  0  0  0  0           0  0  0
    3.1667   -1.9292    0.0000 O   0  0  0  0  0  0           0  0  0
    1.6917    0.5083    0.0000 O   0  0  0  0  0  0           0  0  0
    1.7750   -2.7917    0.0000 O   0  0  0  0  0  0           0  0  0
    5.2792   -0.6417    0.0000 C   0  0  0  0  0  0           0  0  0
    6.7292   -1.4292    0.0000 C   0  0  0  0  0  0           0  0  0
    5.3042   -1.4667    0.0000 C   0  0  0  0  0  0           0  0  0
    5.9792   -0.2125    0.0000 C   0  0  0  0  0  0           0  0  0
    6.7042   -0.6042    0.0000 C   0  0  0  0  0  0           0  0  0
    6.0250   -1.8625    0.0000 C   0  0  0  0  0  0           0  0  0
    0.9667    0.9000    0.0000 C   0  0  0  0  0  0           0  0  0
    2.5000   -3.1875    0.0000 C   0  0  0  0  0  0           0  0  0
    7.4542   -1.8292    0.0000 C   0  0  0  0  0  0           0  0  0
  2  1  1  0     0  0
  3  1  2  0     0  0
  4  3  1  0     0  0
  5  2  2  0     0  0
  6  4  2  0     0  0
  7  1  1  0     0  0
  8  7  1  0     0  0
  9  6  1  0     0  0
 10  4  1  0     0  0
 11  8  2  0     0  0
 12 10  2  0     0  0
 13  7  2  0     0  0
 14  2  1  0     0  0
 15  3  1  0     0  0
 16  5  1  0     0  0
 17 11  1  0     0  0
 18 21  1  0     0  0
 19 17  2  0     0  0
 20 17  1  0     0  0
 21 20  2  0     0  0
 22 19  1  0     0  0
 23 15  1  0     0  0
 24 16  1  0     0  0
 25 18  1  0     0  0
  5  6  1  0     0  0
  9 12  1  0     0  0
 18 22  2  0     0  0
M  END