
  SciTegic11201309402D

 51 56  0  0  0  0            999 V2000
    3.0542   -8.0472    0.0000 N   0  0
    1.6815   -9.9346    0.0000 N   0  0
    2.8826   -8.8536    0.0000 C   0  0
    2.3907   -9.5228    0.0000 C   0  0  1  0  0  0
    2.8826   -7.2293    0.0000 C   0  0  2  0  0  0
    0.8637  -10.0204    0.0000 C   0  0
    2.3907   -6.5716    0.0000 C   0  0
    1.6815   -6.1484    0.0000 N   0  0
    0.0744   -9.7630    0.0000 C   0  0  1  0  0  0
   -0.5433   -9.2025    0.0000 N   0  0
    1.6815  -10.7582    0.0000 C   0  0
    3.8663   -8.1330    0.0000 C   0  0
    3.5918   -6.8176    0.0000 C   0  0
    0.0744   -6.3200    0.0000 C   0  0
    3.1114   -9.9346    0.0000 C   0  0
   -0.5433   -6.8804    0.0000 N   0  0
    4.2095   -7.3780    0.0000 C   0  0
   -1.4928   -4.2438    0.0000 C   0  0
   -0.8751   -8.4476    0.0000 C   0  0
    0.8637   -6.0626    0.0000 C   0  0  2  0  0  0
    2.3907  -11.1700    0.0000 C   0  0
    3.1114  -10.7582    0.0000 C   0  0
    3.6375   -9.1854    0.0000 O   0  0
    0.7721  -10.8326    0.0000 O   0  0
   -2.2420   -3.9007    0.0000 N   0  0
    2.9398   -5.9539    0.0000 O   0  0
   -0.3374  -10.4722    0.0000 C   0  0
   -0.3374   -5.6107    0.0000 O   0  0
   -0.8751   -7.6240    0.0000 C   0  0
   -1.6815   -8.6192    0.0000 O   0  0
   -0.8236   -3.7576    0.0000 N   0  0
   -1.6414   -5.1017    0.0000 N   0  0
   -1.1610  -10.4722    0.0000 C   0  0
    4.3582   -8.8021    0.0000 C   0  0
    5.0331   -7.2922    0.0000 C   0  0
    0.7721   -5.2390    0.0000 C   0  0
    3.8263  -11.1700    0.0000 C   0  0
    2.3907  -11.9993    0.0000 C   0  0
   -0.0686   -4.0894    0.0000 C   0  0
   -1.5785  -11.1929    0.0000 C   0  0
   -1.5785   -9.7630    0.0000 C   0  0
    0.0172   -4.9130    0.0000 C   0  0
    5.1818   -8.7163    0.0000 C   0  0
    5.5135   -7.9614    0.0000 C   0  0
    3.1114  -12.4111    0.0000 C   0  0
    3.8263  -11.9993    0.0000 C   0  0
   -2.4021   -9.7630    0.0000 C   0  0
   -2.4021  -11.1929    0.0000 C   0  0
   -2.8139  -10.4722    0.0000 C   0  0
    3.0826   -6.2495    0.0000 H   0  0
    3.3690   -9.3154    0.0000 H   0  0
  4  2  1  0
  3  1  1  0
  4  3  1  0
  5  1  1  0
  6  2  1  0
  7  5  1  0
  8  7  1  0
  9  6  1  0
 10  9  1  0
 11  2  1  0
 12  1  1  0
 13  5  1  0
 14 20  1  0
 15  4  1  0
 16 14  1  0
 17 12  1  0
 18 31  1  0
 19 10  1  0
 20  8  1  0
 21 22  2  0
 22 15  1  0
 23  3  2  0
 24  6  2  0
 25 18  2  0
 26  7  2  0
  9 27  1  6
 28 14  2  0
 29 16  1  0
 30 19  2  0
 31 39  1  0
 32 18  1  0
 33 27  1  0
 34 12  1  0
 35 17  1  0
 20 36  1  6
 37 22  1  0
 38 21  1  0
 39 42  1  0
 40 33  1  0
 41 33  2  0
 42 36  1  0
 43 34  1  0
 44 43  1  0
 45 46  1  0
 46 37  2  0
 47 41  1  0
 48 40  2  0
 49 47  2  0
 13 17  1  0
 35 44  1  0
 11 21  1  0
 19 29  1  0
 38 45  2  0
 48 49  1  0
  5 50  1  1
  4 51  1  6
M  END