
  SciTegic02271515072D

 23 26  0  0  0  0            999 V2000
    8.6699   -3.7475    0.0000 C   0  0
    8.6687   -4.5670    0.0000 C   0  0
    9.3768   -4.9760    0.0000 N   0  0
    9.3750   -3.3386    0.0000 C   0  0
   10.0836   -3.7439    0.0000 C   0  0
   10.0839   -4.5671    0.0000 C   0  0
   10.8668   -4.8212    0.0000 S   0  0
   11.3506   -4.1551    0.0000 N   0  0
   10.8664   -3.4893    0.0000 C   0  0
   11.1187   -2.7121    0.0000 N   0  0
   10.5717   -2.1049    0.0000 C   0  0
   10.8240   -1.3277    0.0000 C   0  0
    9.7724   -2.2751    0.0000 O   0  0
   11.6256   -1.1571    0.0000 C   0  0
   11.8786   -0.3838    0.0000 C   0  0
   11.3345    0.2276    0.0000 C   0  0
   10.5339    0.0659    0.0000 C   0  0
   10.2774   -0.7207    0.0000 C   0  0
    7.9661   -3.3348    0.0000 C   0  0
    7.8804   -2.5222    0.0000 S   0  0
    7.0811   -2.3524    0.0000 C   0  0
    6.6726   -3.0603    0.0000 C   0  0
    7.2196   -3.6674    0.0000 C   0  0
  1  2  2  0
  2  3  1  0
  3  6  2  0
  5  4  2  0
  4  1  1  0
  5  6  1  0
  6  7  1  0
  7  8  1  0
  8  9  2  0
  9  5  1  0
  9 10  1  0
 10 11  1  0
 11 12  1  0
 11 13  2  0
 12 14  1  0
 12 18  1  0
 14 15  1  0
 15 16  1  0
 16 17  1  0
 17 18  1  0
 19 20  1  0
 20 21  1  0
 21 22  2  0
 22 23  1  0
 23 19  2  0
  1 19  1  0
M  END