
  CDK    9/16/09,10:7

 18 20  0  0  0  0  0  0  0  0999 V2000
    4.2121  -21.2517    0.0000 C   0  0  0  0  0  0  0  0  0  0  0  0
    4.2108  -22.0788    0.0000 C   0  0  0  0  0  0  0  0  0  0  0  0
    4.9233  -22.4913    0.0000 C   0  0  0  0  0  0  0  0  0  0  0  0
    4.9214  -20.8392    0.0000 C   0  0  0  0  0  0  0  0  0  0  0  0
    5.6390  -21.2478    0.0000 C   0  0  0  0  0  0  0  0  0  0  0  0
    5.6382  -22.0761    0.0000 C   0  0  0  0  0  0  0  0  0  0  0  0
    6.3512  -22.4889    0.0000 N   0  0  0  0  0  0  0  0  0  0  0  0
    6.3530  -20.8319    0.0000 S   0  0  0  0  0  0  0  0  0  0  0  0
    7.0706  -21.2493    0.0000 C   0  0  0  0  0  0  0  0  0  0  0  0
    7.0689  -22.0745    0.0000 C   0  0  0  0  0  0  0  0  0  0  0  0
    7.7817  -22.4867    0.0000 C   0  0  0  0  0  0  0  0  0  0  0  0
    8.4965  -22.0748    0.0000 C   0  0  0  0  0  0  0  0  0  0  0  0
    8.4942  -21.2464    0.0000 C   0  0  0  0  0  0  0  0  0  0  0  0
    7.7809  -20.8380    0.0000 C   0  0  0  0  0  0  0  0  0  0  0  0
    6.3508  -23.3133    0.0000 C   0  0  0  0  0  0  0  0  0  0  0  0
    5.6365  -23.7251    0.0000 O   0  0  0  0  0  0  0  0  0  0  0  0
    7.0645  -23.7259    0.0000 C   0  0  0  0  0  0  0  0  0  0  0  0
    7.0641  -24.5503    0.0000 N   0  0  0  0  0  0  0  0  0  0  0  0
  9  8  1  0  0  0  0 
  5  4  2  0  0  0  0 
  4  1  1  0  0  0  0 
  9 10  2  0  0  0  0 
  5  6  1  0  0  0  0 
 10 11  1  0  0  0  0 
 11 12  2  0  0  0  0 
  2  3  1  0  0  0  0 
 12 13  1  0  0  0  0 
  3  6  2  0  0  0  0 
 13 14  2  0  0  0  0 
 14  9  1  0  0  0  0 
  1  2  2  0  0  0  0 
  7 15  1  0  0  0  0 
  5  8  1  0  0  0  0 
 15 16  2  0  0  0  0 
  6  7  1  0  0  0  0 
 15 17  1  0  0  0  0 
  7 10  1  0  0  0  0 
 17 18  1  0  0  0  0 
M  END