
  SciTegic10311316212D

 29 32  0  0  0  0            999 V2000
   18.2657   -9.9012    0.0000 C   0  0
   18.2646  -10.7207    0.0000 C   0  0
   18.9726  -11.1297    0.0000 C   0  0
   19.6823  -10.7202    0.0000 C   0  0
   19.6794   -9.8976    0.0000 C   0  0
   18.9708   -9.4923    0.0000 C   0  0
   18.9625   -8.6742    0.0000 N   0  0
   19.6222   -8.1919    0.0000 C   0  0
   19.3674   -7.4155    0.0000 N   0  0
   18.5501   -7.4179    0.0000 N   0  0
   18.3000   -8.1959    0.0000 C   0  0
   20.4001   -8.4421    0.0000 S   0  0
   21.0058   -7.8935    0.0000 C   0  0
   21.7837   -8.1436    0.0000 C   0  0
   22.3894   -7.5950    0.0000 O   0  0
   21.9560   -8.9425    0.0000 O   0  0
   17.5231   -8.4548    0.0000 C   0  0
   18.9724  -11.9469    0.0000 Cl  0  0
   20.3906  -11.1277    0.0000 Cl  0  0
   16.8574   -7.9761    0.0000 C   0  0
   17.2763   -9.2330    0.0000 S   0  0
   16.4574   -9.2393    0.0000 C   0  0
   16.1999   -8.4612    0.0000 C   0  0
   15.3988   -8.2965    0.0000 C   0  0
   14.8545   -8.9091    0.0000 C   0  0
   15.1168   -9.6889    0.0000 C   0  0
   15.9173   -9.8499    0.0000 C   0  0
   16.8523   -7.1589    0.0000 Cl  0  0
   14.5765  -10.3020    0.0000 C   0  0
  1  2  2  0
  2  3  1  0
  3  4  2  0
  4  5  1  0
  5  6  2  0
  6  1  1  0
  7  8  1  0
  8  9  2  0
  9 10  1  0
 10 11  2  0
 11  7  1  0
  6  7  1  0
  8 12  1  0
 12 13  1  0
 13 14  1  0
 14 15  1  0
 14 16  2  0
 11 17  1  0
  3 18  1  0
  4 19  1  0
 17 20  2  0
 20 23  1  0
 22 21  1  0
 21 17  1  0
 22 23  2  0
 23 24  1  0
 24 25  2  0
 25 26  1  0
 26 27  2  0
 27 22  1  0
 20 28  1  0
 26 29  1  0
M  END