
  SciTegic06011109532D

 60 64  0  0  0  0            999 V2000
   -3.6181   -2.2833    0.0000 C   0  0
   -3.6193   -3.1107    0.0000 C   0  0
   -2.9044   -3.5235    0.0000 C   0  0
   -2.1880   -3.1102    0.0000 C   0  0
   -2.1909   -2.2797    0.0000 C   0  0
   -2.9062   -1.8705    0.0000 C   0  0
   -4.3338   -3.5247    0.0000 C   0  0
   -5.0486   -3.9366    0.0000 N   0  0
   -1.4779   -1.8645    0.0000 C   0  0
   -0.7619   -2.2743    0.0000 N   0  0
   -1.4811   -1.0395    0.0000 O   0  0
   -0.0490   -1.8591    0.0000 C   0  0  2  0  0  0
    0.6670   -2.2689    0.0000 C   0  0
    1.3799   -1.8537    0.0000 N   0  0
    0.6701   -3.0939    0.0000 O   0  0
   -0.0521   -1.0341    0.0000 C   0  0
   -0.4708   -0.3167    0.0000 C   0  0
   -0.0559    0.4042    0.0000 C   0  0
   -0.4739    1.1212    0.0000 C   0  0
   -1.3055    1.1177    0.0000 C   0  0
   -1.7172    0.3913    0.0000 C   0  0
   -1.2969   -0.3227    0.0000 C   0  0
   -1.7223    1.8297    0.0000 O   0  0
   -1.3141    2.5466    0.0000 P   0  0
   -0.4891    2.5516    0.0000 O   0  0
   -0.9083    3.2667    0.0000 O   0  0
   -2.0333    2.9625    0.0000 O   0  0
    2.0959   -2.2635    0.0000 C   0  0  2  0  0  0
    2.8089   -1.8483    0.0000 C   0  0
    2.0990   -3.0885    0.0000 C   0  0
    2.8151   -3.4983    0.0000 C   0  0
    2.8182   -4.3233    0.0000 C   0  0
    3.5280   -3.0831    0.0000 C   0  0
    3.5249   -2.2581    0.0000 N   0  0
    2.8057   -1.0233    0.0000 O   0  0
    4.2378   -1.8429    0.0000 C   0  0
    4.9521   -2.2553    0.0000 C   0  0
    5.6645   -1.8408    0.0000 C   0  0
    5.6619   -1.0149    0.0000 C   0  0
    4.9408   -0.6053    0.0000 C   0  0
    4.2314   -1.0222    0.0000 C   0  0
    4.9353    0.2166    0.0000 C   0  0
    5.6483    0.6337    0.0000 C   0  0
    5.6427    1.4579    0.0000 C   0  0
    4.9247    1.8660    0.0000 C   0  0
    4.2109    1.4438    0.0000 C   0  0
    4.2201    0.6210    0.0000 C   0  0
    6.3742   -0.5988    0.0000 C   0  0
    7.0908   -1.0076    0.0000 N   0  0
    6.3700    0.2262    0.0000 O   0  0
    7.8032   -0.5915    0.0000 C   0  0
    8.5197   -1.0004    0.0000 C   0  0
    8.5223   -1.8261    0.0000 C   0  0
    9.2380   -2.2349    0.0000 C   0  0
    9.9513   -1.8187    0.0000 C   0  0
    9.9444   -0.9894    0.0000 C   0  0
    9.2282   -0.5844    0.0000 C   0  0
    4.9176    2.6909    0.0000 C   0  0
    5.6284    3.1096    0.0000 N   0  0
    4.1996    3.0973    0.0000 O   0  0
  3  4  2  0
 28 30  1  6
 13 15  2  0
 30 31  1  0
  7  8  3  0
 31 32  1  0
 12 16  1  1
 31 33  1  0
  2  7  1  0
 29 34  1  0
 16 17  1  0
 29 35  2  0
 34 36  1  0
 17 18  2  0
 36 37  2  0
  5  9  1  0
 37 38  1  0
 18 19  1  0
 38 39  2  0
  4  5  1  0
 39 40  1  0
 19 20  2  0
 40 41  2  0
 41 36  1  0
  9 10  1  0
 20 21  1  0
 42 43  2  0
  2  3  1  0
 43 44  1  0
 21 22  2  0
 44 45  2  0
 22 17  1  0
 45 46  1  0
  9 11  2  0
 46 47  2  0
 47 42  1  0
 40 42  1  0
 20 23  1  0
 39 48  1  0
  5  6  2  0
 48 49  1  0
 23 24  1  0
 48 50  2  0
 10 12  1  0
 49 51  1  0
 24 25  1  0
 51 52  1  0
  6  1  1  0
 52 53  2  0
 24 26  1  0
 53 54  1  0
 12 13  1  0
 54 55  2  0
 24 27  2  0
 55 56  1  0
  1  2  2  0
 56 57  2  0
 57 52  1  0
 14 28  1  0
 45 58  1  0
 13 14  1  0
 58 59  1  0
 28 29  1  0
 58 60  2  0
M  END