
  SciTegic09261414462D

143151  0  0  0  0            999 V2000
    5.8950   -6.2181    0.0000 C   0  0
    5.8570   -8.6644    0.0000 C   0  0
    7.9981   -7.4767    0.0000 C   0  0
    7.3064   -6.2361    0.0000 C   0  0
    7.2742   -8.6935    0.0000 C   0  0
    4.4509   -7.8255    0.0000 C   0  0
    6.5768   -7.4526    0.0000 C   0  0
    5.8677   -7.8495    0.0000 C   0  0
    8.2173   -6.6899    0.0000 C   0  0
    7.6428   -6.1067    0.0000 O   0  0
    6.6293   -4.1690    0.0000 O   0  0
    6.5931   -6.6362    0.0000 C   0  0
    7.9789   -9.1124    0.0000 C   0  0
    9.0090   -6.4820    0.0000 O   0  0
    5.1726   -6.6100    0.0000 O   0  0
    6.6211   -4.9954    0.0000 C   0  0
    5.9043   -5.3972    0.0000 C   0  0
    8.6855   -8.7178    0.0000 C   0  0
    7.3228   -5.4198    0.0000 C   0  0
    7.2832   -7.8737    0.0000 C   0  0
    9.3865   -9.1345    0.0000 N   0  0
    3.7117   -9.0411    0.0000 O   0  0
    5.1654   -7.4273    0.0000 C   0  0
    5.1361   -9.0624    0.0000 C   0  0
    4.4378   -8.6443    0.0000 C   0  0
    8.7027   -7.8978    0.0000 C   0  0
   10.0993   -8.7349    0.0000 C   0  0
   10.8018   -9.1525    0.0000 N   0  0
   10.1097   -7.9178    0.0000 S   0  0
   37.0789   -8.0146    0.0000 C   0  0
   24.2787   -9.1672    0.0000 C   0  0
   31.0128   -9.1719    0.0000 N   0  0
   12.1497   -6.8179    0.0000 O   0  0
   26.2986  -10.3311    0.0000 C   0  0
   35.7281   -8.0146    0.0000 C   0  0
   31.6893   -8.0092    0.0000 C   0  0
   16.1927   -7.6012    0.0000 O   0  0
   17.5403   -9.1583    0.0000 C   0  0  2  0  0  0
   31.4236  -12.0176    0.0000 C   0  0
   32.3647   -9.9552    0.0000 O   0  0
   22.2556  -11.1072    0.0000 O   0  0
   28.3216   -9.1684    0.0000 C   0  0
   27.6414   -7.4247    0.0000 C   0  0
   25.6263   -9.9463    0.0000 C   0  0
   31.0500  -10.0257    0.0000 C   0  0
   32.3667   -6.8444    0.0000 C   0  0
   26.2986  -11.1125    0.0000 C   0  0
   30.3374   -8.0074    0.0000 O   0  0
   12.1489   -9.9285    0.0000 O   0  0
   27.2530   -6.7518    0.0000 C   0  0
   18.2126   -7.9914    0.0000 O   0  0
   33.0369   -8.7847    0.0000 N   0  0
   19.1652   -8.0900    0.0000 C   0  0
   18.2126   -8.7651    0.0000 C   0  0
   19.5602   -8.7670    0.0000 C   0  0  2  0  0  0
   11.4746   -8.7591    0.0000 C   0  0  2  0  0  0
   33.7139   -7.6221    0.0000 C   0  0
   26.9708  -11.5015    0.0000 O   0  0
   21.5833   -9.9409    0.0000 C   0  0
   19.7572   -8.0149    0.0000 C   0  0
   17.5403   -9.9356    0.0000 C   0  0
   25.6232  -11.5034    0.0000 O   0  0
   35.7281   -8.7884    0.0000 C   0  0  1  0  0  0
   22.2556  -10.3299    0.0000 C   0  0
   12.1489   -9.1533    0.0000 C   0  0
   14.1740   -8.7601    0.0000 C   0  0
   33.0424   -5.6731    0.0000 Cl  0  0
   16.8649   -8.7633    0.0000 N   0  0
   25.6263   -9.1690    0.0000 C   0  0  1  0  0  0
   31.1790  -11.2774    0.0000 C   0  0
   33.7123   -9.1755    0.0000 C   0  0  2  0  0  0
   15.5173   -8.7616    0.0000 C   0  0  2  0  0  0
   36.4035   -7.6238    0.0000 C   0  0
   22.9310   -9.1653    0.0000 N   0  0
   13.5011   -9.9302    0.0000 C   0  0
   26.2986   -8.0021    0.0000 O   0  0
   20.5075   -7.8047    0.0000 C   0  0
   34.3912   -6.4592    0.0000 Cl  0  0
   30.1361  -12.4348    0.0000 C   0  0
   14.1740   -7.9860    0.0000 O   0  0
   30.3374  -10.3365    0.0000 C   0  0
   24.2787   -6.8340    0.0000 C   0  0
   26.2986   -8.7758    0.0000 C   0  0
   30.3374   -8.7812    0.0000 C   0  0
   34.3846   -8.7865    0.0000 C   0  0
   33.7123   -9.9570    0.0000 C   0  0
   27.6462   -8.7777    0.0000 C   0  0  1  0  0  0
   34.3846   -8.0128    0.0000 O   0  0
   28.9939   -8.7794    0.0000 N   0  0
   14.8449   -9.1548    0.0000 N   0  0
   18.8921   -9.1600    0.0000 N   0  0
   32.3647   -9.1737    0.0000 C   0  0
   27.2542   -8.0983    0.0000 C   0  0
   31.6893   -8.7830    0.0000 C   0  0  1  0  0  0
   29.6651   -9.9516    0.0000 C   0  0
   24.9498   -7.9985    0.0000 C   0  0
   14.8432   -9.9318    0.0000 C   0  0
   33.0392   -8.0112    0.0000 C   0  0
   33.0414   -6.4511    0.0000 C   0  0
   14.8412  -11.4878    0.0000 C   0  0
   29.6651   -9.1702    0.0000 C   0  0  1  0  0  0
   30.4171  -11.1139    0.0000 C   0  0
   15.5169  -10.3227    0.0000 C   0  0
   22.2556   -7.9967    0.0000 O   0  0
   14.1737  -10.3193    0.0000 C   0  0
   26.9740   -9.1707    0.0000 N   0  0
   29.8998  -11.6906    0.0000 C   0  0
   22.2556   -8.7705    0.0000 C   0  0
   23.6033   -7.9985    0.0000 C   0  0
   24.2787   -9.9445    0.0000 O   0  0
   14.8450   -7.6030    0.0000 C   0  0
   33.7149   -6.8461    0.0000 C   0  0
   21.5833   -9.1636    0.0000 C   0  0  1  0  0  0
   20.9079   -8.7687    0.0000 N   0  0
   16.1927   -9.9338    0.0000 O   0  0
   27.6402   -6.0781    0.0000 C   0  0
   27.2518   -5.4052    0.0000 C   0  0
   20.2356   -9.9392    0.0000 O   0  0
   22.9279   -9.9409    0.0000 O   0  0
   20.7037   -7.0559    0.0000 C   0  0
   24.9509   -8.7740    0.0000 N   0  0
   12.1497   -7.5960    0.0000 C   0  0
   37.0757   -8.7901    0.0000 O   0  0
   28.3216   -9.9499    0.0000 O   0  0
   31.5699  -10.5996    0.0000 N   0  0
   11.4746   -7.9824    0.0000 C   0  0
   36.4035   -9.9606    0.0000 O   0  0
   14.1716  -11.0969    0.0000 C   0  0
   12.8291   -7.9825    0.0000 N   0  0
   36.4035   -9.1791    0.0000 C   0  0
   20.2356   -9.1618    0.0000 C   0  0
   30.8979  -12.5942    0.0000 C   0  0
   28.1965   -8.2192    0.0000 C   0  0
   35.0558   -9.1773    0.0000 N   0  0
   23.6033   -8.7723    0.0000 C   0  0  1  0  0  0
   32.3647   -7.6185    0.0000 C   0  0
   15.5159  -11.0986    0.0000 C   0  0
   36.4035   -6.8500    0.0000 C   0  0
   16.1927   -9.1565    0.0000 C   0  0
   15.5173   -7.9877    0.0000 C   0  0  1  0  0  0
   24.2787   -7.6077    0.0000 C   0  0
   13.5011   -9.1535    0.0000 C   0  0  2  0  0  0
   12.8268   -8.7593    0.0000 N   0  0
 25 24  1  0
  9 10  2  0
 16 19  1  0
 13  5  1  0
 26  3  2  0
 17  1  2  0
  3  9  1  0
  5 20  2  0
 13 18  2  0
 24  2  2  0
 17 16  1  0
  6 25  2  0
  4 12  1  0
  3 20  1  0
  6 23  1  0
 23  8  2  0
  2  8  1  0
 19  4  2  0
 11 16  2  0
 12  7  2  0
  9 14  1  0
 23 15  1  0
  8  7  1  0
  1 12  1  0
 22 25  1  0
 15  1  1  0
 18 21  1  0
 20  7  1  0
 18 26  1  0
 21 27  1  0
 27 28  1  0
 27 29  2  0
 83106  1  0
 31121  1  0
 64119  1  0
 55 53  1  1
 87 93  1  0
113108  1  0
 42124  2  0
 72140  1  0
141 96  1  0
 89101  1  0
 72139  1  0
 73138  1  0
102 70  2  0
 87 42  1  0
 56 65  1  0
 63130  1  0
108104  2  0
132 79  1  0
131118  2  0
 71 86  1  6
 91 55  1  0
109141  1  0
 54 91  1  0
 38 54  1  0
 98 57  2  0
 84 48  2  0
139115  2  0
 44 34  1  0
137100  2  0
128105  2  0
 35 73  1  0
121 69  1  0
 55 60  1  0
 87133  1  1
 85 88  2  0
 52 71  1  0
107102  1  0
 47 62  1  0
 45 81  2  0
108 74  1  0
 66 80  2  0
 54 51  2  0
 71 85  1  0
101 95  1  6
 85134  1  0
 55131  1  0
 32 94  1  0
 74135  1  0
 38 61  1  6
 95 81  1  0
140 37  1  1
 34 47  1  0
135 31  1  0
 65143  1  0
 94 92  1  0
134 63  1  0
 99 67  1  0
 28 56  1  0
 43 50  1  0
 64 41  2  0
143142  1  0
131114  1  0
114113  1  0
100128  1  0
 93 43  1  0
 47 58  2  0
 59 64  1  0
126122  1  0
 68 38  1  0
135109  1  1
141 82  1  0
116117  2  0
 99 46  1  0
 77120  1  0
113 59  1  6
 75105  1  0
136 98  1  0
 31110  2  0
 97103  2  0
139 68  1  0
 70125  1  0
 60 77  1  0
 69 83  1  0
 84 32  1  0
 92 52  1  0
 72 90  1  1
 36136  1  0
130123  1  0
120117  1  0
 56126  1  1
 50116  1  0
142 75  1  6
140111  1  0
106 87  1  0
 79107  2  0
 46136  2  0
 83 76  2  0
 92 40  2  0
 81102  1  0
112 78  1  0
130127  2  0
101 84  1  0
142 66  1  0
 42 89  1  0
 94 36  1  1
122129  1  0
105 97  1  0
 39132  2  0
 70 39  1  0
 57112  1  0
122 33  2  0
125 45  1  0
 65 49  2  0
112 99  2  0
 69 44  1  6
 66 90  1  0
 73 30  1  0
103137  1  0
 63 35  1  1
M  END