
  CDK    9/16/09,10:6

 12 13  0  0  0  0  0  0  0  0999 V2000
   -1.5534  -13.7574    0.0000 C   0  0  0  0  0  0  0  0  0  0  0  0
   -2.3783  -13.7521    0.0000 C   0  0  0  0  0  0  0  0  0  0  0  0
   -2.7935  -14.4628    0.0000 N   0  0  0  0  0  0  0  0  0  0  0  0
   -2.3851  -15.1793    0.0000 C   0  0  0  0  0  0  0  0  0  0  0  0
   -1.5569  -15.1806    0.0000 C   0  0  0  0  0  0  0  0  0  0  0  0
   -1.1453  -14.4693    0.0000 C   0  0  0  0  0  0  0  0  0  0  0  0
   -0.3185  -14.4711    0.0000 N   0  0  0  0  0  0  0  0  0  0  0  0
    0.0881  -15.1892    0.0000 C   0  0  0  0  0  0  0  0  0  0  0  0
    0.9113  -15.1928    0.0000 C   0  0  0  0  0  0  0  0  0  0  0  0
    1.3300  -14.4796    0.0000 N   0  0  0  0  0  0  0  0  0  0  0  0
    0.9193  -13.7608    0.0000 C   0  0  0  0  0  0  0  0  0  0  0  0
    0.0899  -13.7555    0.0000 C   0  0  0  0  0  0  0  0  0  0  0  0
  6  1  1  0  0  0  0 
  1  2  2  0  0  0  0 
  6  7  1  0  0  0  0 
  7  8  1  0  0  0  0 
  3  4  2  0  0  0  0 
  4  5  1  0  0  0  0 
  2  3  1  0  0  0  0 
  5  6  2  0  0  0  0 
  7 12  1  0  0  0  0 
  8  9  1  0  0  0  0 
  9 10  1  0  0  0  0 
 10 11  1  0  0  0  0 
 11 12  1  0  0  0  0 
M  END