
  SciTegic11201309402D

 25 27  0  0  0  0            999 V2000
   -1.7185    0.6430    0.0000 C   0  0
   -0.9115    0.8146    0.0000 C   0  0
   -1.1665    1.5992    0.0000 C   0  0
   -0.8253   -0.0059    0.0000 O   0  0
   -0.1579    1.1501    0.0000 O   0  0
    0.3942    0.5370    0.0000 C   0  0  1  0  0  0
    1.2192    0.5370    0.0000 C   0  0  2  0  0  0
    1.7712    1.1501    0.0000 O   0  0
    2.5249    0.8146    0.0000 C   0  0
    2.7798    1.5992    0.0000 C   0  0
    3.3318    0.6430    0.0000 C   0  0
    2.4386   -0.0059    0.0000 O   0  0
    1.6317   -0.1774    0.0000 C   0  0  2  0  0  0
    1.2192   -0.8919    0.0000 C   0  0
    0.3942   -0.8919    0.0000 O   0  0
   -0.0183   -0.1774    0.0000 C   0  0  1  0  0  0
   -0.5033   -0.8449    0.0000 C   0  0
   -1.3237   -0.7586    0.0000 N   0  0
   -1.8087   -1.4261    0.0000 S   0  0
   -2.2936   -2.0935    0.0000 O   0  0
   -2.4761   -0.9412    0.0000 O   0  0
   -1.1412   -1.9110    0.0000 N   0  0
    2.2195   -0.9864    0.0000 H   0  0
    0.8124    1.4505    0.0000 H   0  0
    0.8009    1.4506    0.0000 H   0  0
  2  1  1  0
  2  3  1  0
  2  4  1  0
  2  5  1  0
 16  4  1  0
  6  5  1  0
  6  7  1  0
 16  6  1  0
  7  8  1  0
  7 13  1  0
  9  8  1  0
  9 10  1  0
  9 11  1  0
  9 12  1  0
 13 12  1  0
 13 14  1  0
 14 15  1  0
 16 15  1  0
 16 17  1  6
 17 18  1  0
 18 19  1  0
 20 19  2  0
 21 19  2  0
 22 19  1  0
 13 23  1  1
  7 24  1  1
  6 25  1  6
M  END