
  Mrv0541 04051115152D          

  9 10  0  0  0  0            999 V2000
   -0.9359   -0.6676    0.0000 N   0  0  0  0  0  0  0  0  0  0  0  0
   -1.4208   -0.0001    0.0000 C   0  0  0  0  0  0  0  0  0  0  0  0
   -0.9359    0.6673    0.0000 C   0  0  0  0  0  0  0  0  0  0  0  0
    0.5632    0.8249    0.0000 C   0  0  0  0  0  0  0  0  0  0  0  0
    1.2777    0.4124    0.0000 C   0  0  0  0  0  0  0  0  0  0  0  0
    1.2777   -0.4126    0.0000 C   0  0  0  0  0  0  0  0  0  0  0  0
    0.5632   -0.8251    0.0000 C   0  0  0  0  0  0  0  0  0  0  0  0
   -0.1513   -0.4126    0.0000 C   0  0  0  0  0  0  0  0  0  0  0  0
   -0.1513    0.4124    0.0000 C   0  0  0  0  0  0  0  0  0  0  0  0
  2  1  1  0  0  0  0
  8  1  1  0  0  0  0
  2  3  2  0  0  0  0
  3  9  1  0  0  0  0
  4  5  2  0  0  0  0
  4  9  1  0  0  0  0
  5  6  1  0  0  0  0
  6  7  2  0  0  0  0
  7  8  1  0  0  0  0
  8  9  2  0  0  0  0
M  END