
          11280714442D 1   1.00000     0.00000     0

 27 28  0     0  0            999 V2000
    4.6417   -3.7667    0.0000 C   0  0  0  0  0  0           0  0  0
    5.3375   -3.3167    0.0000 C   0  0  0  0  0  0           0  0  0
   11.6917   -1.8000    0.0000 C   0  0  0  0  0  0           0  0  0
    6.0667   -3.7000    0.0000 O   0  0  0  0  0  0           0  0  0
    3.9042   -3.3792    0.0000 C   0  0  0  0  0  0           0  0  0
   12.4292   -2.1792    0.0000 C   0  0  0  0  0  0           0  0  0
    5.3000   -2.5000    0.0000 O   0  0  0  0  0  0           0  0  0
   11.0042   -2.2417    0.0000 C   0  0  0  0  0  0           0  0  0
   12.4667   -3.0042    0.0000 C   0  0  0  0  0  0           0  0  0
    6.7625   -3.2542    0.0000 C   0  0  0  0  0  0           0  0  0
   11.0417   -3.0625    0.0000 C   0  0  0  0  0  0           0  0  0
    7.4917   -3.6375    0.0000 C   0  0  3  0  0  0           0  0  0
    3.8667   -2.5542    0.0000 F   0  0  0  0  0  0           0  0  0
   11.7750   -3.4417    0.0000 C   0  0  0  0  0  0           0  0  0
   11.6542   -0.9750    0.0000 O   0  0  0  0  0  0           0  0  0
    8.9250   -3.5667    0.0000 N   0  0  0  0  0  0           0  0  0
    4.6792   -4.5875    0.0000 C   0  0  0  0  0  0           0  0  0
   13.1250   -1.7292    0.0000 O   0  0  0  0  0  0           0  0  0
    7.5292   -4.4625    0.0000 O   0  0  0  0  0  0           0  0  0
    8.1917   -3.1917    0.0000 C   0  0  0  0  0  0           0  0  0
    3.2167   -3.8292    0.0000 C   0  0  0  0  0  0           0  0  0
    9.6167   -3.1292    0.0000 C   0  0  0  0  0  0           0  0  0
   10.3500   -3.5042    0.0000 C   0  0  0  0  0  0           0  0  0
   12.3417   -0.5292    0.0000 C   0  0  0  0  0  0           0  0  0
   13.8542   -2.1125    0.0000 C   0  0  0  0  0  0           0  0  0
    3.9917   -5.0292    0.0000 C   0  0  0  0  0  0           0  0  0
    3.2542   -4.6542    0.0000 C   0  0  0  0  0  0           0  0  0
  2  1  1  0     0  0
  3  8  2  0     0  0
  4  2  1  0     0  0
  5  1  2  0     0  0
  6  9  2  0     0  0
  7  2  2  0     0  0
  8 11  1  0     0  0
  9 14  1  0     0  0
 10  4  1  0     0  0
 11 23  1  0     0  0
 12 10  1  0     0  0
 13  5  1  0     0  0
 14 11  2  0     0  0
 15  3  1  0     0  0
 16 20  1  0     0  0
 17  1  1  0     0  0
 18  6  1  0     0  0
 19 12  1  0     0  0
 20 12  1  0     0  0
 21  5  1  0     0  0
 22 16  1  0     0  0
 23 22  1  0     0  0
 24 15  1  0     0  0
 25 18  1  0     0  0
 26 17  2  0     0  0
 27 26  1  0     0  0
 27 21  2  0     0  0
  6  3  1  0     0  0
M  END