
  SciTegic01061414252D

 24 25  0  0  0  0            999 V2000
   22.9246  -14.4664    0.0000 O   0  0
   22.0996  -14.4664    0.0000 S   0  0
   22.5121  -15.1808    0.0000 O   0  0
   21.3899  -12.4039    0.0000 C   0  0
   21.3887  -13.2313    0.0000 C   0  0
   22.1036  -13.6441    0.0000 C   0  0
   22.8199  -13.2308    0.0000 C   0  0
   22.8171  -12.4003    0.0000 C   0  0
   22.1017  -11.9912    0.0000 C   0  0
   23.5300  -11.9851    0.0000 C   0  0
   24.2460  -12.3949    0.0000 C   0  0
   23.5269  -11.1602    0.0000 O   0  0
   24.9589  -11.9797    0.0000 S   0  0
   25.6749  -12.3896    0.0000 C   0  0
   25.6749  -13.2134    0.0000 N   0  0
   26.3901  -13.6231    0.0000 C   0  0
   27.1040  -13.2079    0.0000 C   0  0
   27.0982  -12.3786    0.0000 C   0  0
   26.3825  -11.9726    0.0000 N   0  0
   21.3888  -14.8814    0.0000 N   0  0
   27.8096  -11.9609    0.0000 O   0  0
   26.3928  -14.4481    0.0000 C   0  0
   27.1086  -14.8582    0.0000 C   0  0
   27.1113  -15.6832    0.0000 C   0  0
  2  1  2  0
  3  2  2  0
  4  5  2  0
  5  6  1  0
  6  7  2  0
  7  8  1  0
  8  9  2  0
  9  4  1  0
  8 10  1  0
 10 11  1  0
 10 12  2  0
 11 13  1  0
 13 14  1  0
 14 15  2  0
 15 16  1  0
 16 17  2  0
 17 18  1  0
 18 19  1  0
 19 14  1  0
  6  2  1  0
  2 20  1  0
 18 21  2  0
 16 22  1  0
 22 23  1  0
 23 24  1  0
M  END