
          03140815512D 1   1.00000     0.00000     0

 25 27  0     0  0            999 V2000
   22.4625  -25.5708    0.0000 N   0  0  3  0  0  0           0  0  0
   22.4625  -26.3958    0.0000 C   0  0  0  0  0  0           0  0  0
   23.1745  -26.8042    0.0000 C   0  0  0  0  0  0           0  0  0
   23.8865  -26.3958    0.0000 O   0  0  0  0  0  0           0  0  0
   23.8865  -25.5708    0.0000 C   0  0  0  0  0  0           0  0  0
   23.1745  -25.1542    0.0000 C   0  0  0  0  0  0           0  0  0
   21.7468  -25.1604    0.0000 C   0  0  0  0  0  0           0  0  0
   21.7444  -24.3354    0.0000 O   0  0  0  0  0  0           0  0  0
   21.0336  -25.5750    0.0000 C   0  0  0  0  0  0           0  0  0
   20.3179  -25.1646    0.0000 O   0  0  0  0  0  0           0  0  0
   19.6046  -25.5792    0.0000 C   0  0  0  0  0  0           0  0  0
   18.8897  -25.1655    0.0000 C   0  0  0  0  0  0           0  0  0
   18.1769  -25.5794    0.0000 C   0  0  0  0  0  0           0  0  0
   18.1789  -26.4053    0.0000 C   0  0  0  0  0  0           0  0  0
   18.8996  -26.8155    0.0000 C   0  0  0  0  0  0           0  0  0
   19.6094  -26.3992    0.0000 C   0  0  0  0  0  0           0  0  0
   17.4662  -26.8208    0.0000 S   0  0  3  0  0  0           0  0  0
   16.7458  -27.2250    0.0000 N   0  0  3  0  0  0           0  0  0
   17.8708  -27.5292    0.0000 O   0  0  0  0  0  0           0  0  0
   17.0458  -26.1000    0.0000 O   0  0  0  0  0  0           0  0  0
   20.3264  -26.8072    0.0000 C   0  0  0  0  0  0           0  0  0
   15.9936  -26.8840    0.0000 C   0  0  0  0  0  0           0  0  0
   15.4334  -27.4910    0.0000 C   0  0  0  0  0  0           0  0  0
   15.8376  -28.2114    0.0000 C   0  0  0  0  0  0           0  0  0
   16.6475  -28.0495    0.0000 C   0  0  0  0  0  0           0  0  0
  5  6  1  0     0  0
 12 13  1  0     0  0
 13 14  2  0     0  0
  1  7  1  0     0  0
 14 15  1  0     0  0
  1  2  1  0     0  0
 15 16  2  0     0  0
 16 11  1  0     0  0
  7  8  2  0     0  0
 14 17  1  0     0  0
  1  6  1  0     0  0
 17 18  1  0     0  0
  7  9  1  0     0  0
 17 19  2  0     0  0
  2  3  1  0     0  0
 17 20  2  0     0  0
  9 10  1  0     0  0
 16 21  1  0     0  0
 18 22  1  0     0  0
  3  4  1  0     0  0
 10 11  1  0     0  0
  4  5  1  0     0  0
 11 12  2  0     0  0
 22 23  1  0     0  0
 23 24  1  0     0  0
 24 25  1  0     0  0
 25 18  1  0     0  0
M  END